data_PCOD8214182
_publ_section_title
;
Structure prediction by ZEFSAII (Michael W. Deem and Ramdas Pophale) SiO2 
 PCOD8214182
Probable space group: P M M A
;
_chemical_formula_sum "Si O2"
_cell_formula_units_Z 44
_cell_length_a 9.004139
_cell_length_b 28.240539
_cell_length_c 9.132802
_cell_angle_alpha 90.000000
_cell_angle_beta 90.000000
_cell_angle_gamma 90.000000
_cell_volume 2322.304771
_symmetry_space_group_name_H-M "P M M A"
_symmetry_group_IT_number 51
_symmetry_cell_setting 'orthorhombic'
loop_
_space_group_symop_operation_xyz
x,y,z
1/2-x,-y,z
1/2+x,-y,-z
-x,y,-z
-x,-y,-z
1/2+x,y,-z
1/2-x,y,z
x,-y,z
loop_
_atom_site_type_symbol
_atom_site_label
_atom_site_fract_x
_atom_site_fract_y
_atom_site_fract_z
Si Si1 0.421988 0.188559 0.347307
Si Si2 0.074804 0.360559 0.656228
Si Si3 0.924908 0.102298 0.842630
Si Si4 0.578759 0.000000 0.847804
Si Si5 0.922818 0.446875 0.147265
Si Si6 0.575763 0.719580 0.845223
O O1 0.500000 0.197126 0.500000
O O2 0.250000 0.181459 0.379941
O O3 0.487861 0.141915 0.267454
O O4 0.453114 0.233496 0.247073
O O5 0.250000 0.351144 0.642348
O O6 0.039065 0.413033 0.716658
O O7 0.000000 0.354504 0.500000
O O8 0.003904 0.323913 0.767752
O O9 0.750000 0.109704 0.866171
O O10 0.961195 0.050182 0.769420
O O11 0.000000 0.108136 0.000000
O O12 0.750000 0.000000 0.885724
O O13 0.500000 0.000000 0.000000
O O14 0.750000 0.446132 0.112969
O O15 0.977810 0.500000 0.186887
O O16 0.000000 0.427981 0.000000
O O17 0.750000 0.708652 0.863841
O O18 0.500000 0.727999 0.000000
#
# Coordination Sequence:
#
# PCOD8214182 Si02
#       6
#     8   8   8   4   8   8
#     4  10  22  37  53  75 105 139 174 213 260 312
#     4  11  23  38  57  82 113 146 180 221 268 318
#     4   9  17  31  51  76 102 132 171 213 258 307
#     4   8  14  26  47  72 100 130 164 210 257 302
#     4   9  19  36  57  81 109 142 181 223 266 313
#     4  11  23  39  59  82 107 138 177 220 266 317
#
# _framework density 18.946694000000001
#
# number of rings (size 3 to 8) (size 9 to 14) (size 15 to 20)
#    0.000    2.182    0.000    2.727    0.000    6.909 
#    0.000    0.455    0.000    0.000    0.000    0.000 
#    0.000    0.000    0.000    0.000    0.000    0.000 
#
# Total GULP energy -545445.276137 kJ/mol
# GULP energy per Si atom -12396.483549 kJ/mol
# Density = 1.890357 g / cm^3
# Si number density = 18.946694 Si / 1000 Ang^3
#
#
#
# Elastic Constant Matrix: (Units=GPa)
#
#
# Indices 1 2 3 4 5 6 
#
# 1 69.9418 55.0574 55.9528 0.0000 0.0000 0.0000
# 2 55.0574 121.7001 54.5689 0.0000 0.0000 0.0000
# 3 55.9528 54.5689 122.2243 0.0000 0.0000 0.0000
# 4 0.0000 0.0000 0.0000 -17.9782 0.0000 0.0000
# 5 0.0000 0.0000 0.0000 0.0000 31.9904 0.0000
# 6 0.0000 0.0000 0.0000 0.0000 0.0000 18.6303
#
#
#
# Elastic Compliance Matrix: (Units=1/GPa)
#
#
# Indices 1 2 3 4 5 6 
#
# 1 0.028544 -0.008820 -0.009129 0.000000 0.000000 0.000000
# 2 -0.008820 0.012999 -0.001766 0.000000 0.000000 0.000000
# 3 -0.009129 -0.001766 0.013149 0.000000 0.000000 0.000000
# 4 0.000000 0.000000 0.000000 -0.055623 0.000000 0.000000
# 5 0.000000 0.000000 0.000000 0.000000 0.031259 0.000000
# 6 0.000000 0.000000 0.000000 0.000000 0.000000 0.053676
#
#
# Mechanical properties :
#
#
# Convention : Reuss Voigt Hill
#
# Bulk Modulus (GPa) = 65.52225 71.66939 68.59582
# Shear Modulus (GPa) = 38.90380 16.41428 27.65904
#
# Velocity S-wave (km/s) = 4.53628 2.94656 3.82492
# Velocity P-wave (km/s) = 7.88002 7.03458 7.46927
#
# Compressibility (1/GPa) = 0.01526199
#
# Stress axis : x y z
#
# Youngs Moduli (GPa) = 35.03384 76.92985 76.04922
#
# Poissons Ratio (x) = 0.67851 0.69427
# Poissons Ratio (y) = 0.30899 0.13430
# Poissons Ratio (z) = 0.31983 0.13585
#
# Static dielectric constant tensor:
#      x y z
#    x 3.518020 0.000000 0.000000 
#    y 0.000000 4.147550 0.000000 
#    z 0.000000 0.000000 3.279390 
# 
# 
# High freq. dielectric constant tensor:
#      x y z
#    x 1.737170 0.000000 0.000000 
#    y 0.000000 1.761440 0.000000 
#    z 0.000000 0.000000 1.721590 
# 
# From -- ./inp_files/5721.got.cif
#   From: 2010.03.12/outbox.cif.g09.slc.cpg/sg51_3_cif.got.tgz:5721.got - 2010.04.16 13:43:02.
