data_PCOD8214073
_publ_section_title
;
Structure prediction by ZEFSAII (Michael W. Deem and Ramdas Pophale) SiO2 
 PCOD8214073
Probable space group: P M M A
;
_chemical_formula_sum "Si O2"
_cell_formula_units_Z 48
_cell_length_a 27.848535
_cell_length_b 8.792696
_cell_length_c 9.972731
_cell_angle_alpha 90.000000
_cell_angle_beta 90.000000
_cell_angle_gamma 90.000000
_cell_volume 2441.959835
_symmetry_space_group_name_H-M "P M M A"
_symmetry_group_IT_number 51
_symmetry_cell_setting 'orthorhombic'
loop_
_space_group_symop_operation_xyz
x,y,z
1/2-x,-y,z
1/2+x,-y,-z
-x,y,-z
-x,-y,-z
1/2+x,y,-z
1/2-x,y,z
x,-y,z
loop_
_atom_site_type_symbol
_atom_site_label
_atom_site_fract_x
_atom_site_fract_y
_atom_site_fract_z
Si Si1 0.694127 0.821629 0.498743
Si Si2 0.864663 0.824132 0.996773
Si Si3 0.806758 0.328840 0.773176
Si Si4 0.375234 0.680211 0.717019
Si Si5 0.532159 0.824718 0.878850
Si Si6 0.019122 0.320404 0.640136
O O1 0.750000 0.783174 0.475013
O O2 0.674477 0.746736 0.635700
O O3 0.665029 0.755432 0.374647
O O4 0.685246 0.000000 0.509880
O O5 0.864928 0.725598 0.130704
O O6 0.857397 0.000000 0.035340
O O7 0.821999 0.768454 0.901831
O O8 0.912798 0.797733 0.912961
O O9 0.750000 0.329831 0.772366
O O10 0.827497 0.500000 0.782328
O O11 0.371905 0.500000 0.702476
O O12 0.427751 0.742989 0.674056
O O13 0.519848 0.728461 0.748763
O O14 0.519824 0.000000 0.850752
O O15 0.500000 0.761901 0.000000
O O16 0.021425 0.500000 0.634947
O O17 0.000000 0.252942 0.500000
#
# Coordination Sequence:
#
# PCOD8214073 Si02
#       6
#     8   8   8   8   8   8
#     4  10  22  41  64  89 119 156 196 242 297 354
#     4  11  23  39  61  89 120 157 200 246 297 352
#     4  10  22  41  64  90 120 154 194 242 296 356
#     4  11  23  39  60  88 121 159 201 245 296 351
#     4  10  21  39  60  85 118 156 196 240 291 347
#     4  10  23  40  58  86 120 156 197 243 293 349
#
# _framework density 19.656343
#
# number of rings (size 3 to 8) (size 9 to 14) (size 15 to 20)
#    0.000    1.667    1.667    2.000    2.333    5.333 
#    0.000    0.000    0.000    0.000    0.000    0.000 
#    0.000    0.000    0.000    0.000    0.000    0.000 
#
# Total GULP energy -595434.900107 kJ/mol
# GULP energy per Si atom -12404.893752 kJ/mol
# Density = 1.961160 g / cm^3
# Si number density = 19.656343 Si / 1000 Ang^3
#
#
#
# Elastic Constant Matrix: (Units=GPa)
#
#
# Indices 1 2 3 4 5 6 
#
# 1 54.8506 32.1582 46.0805 0.0000 0.0000 0.0000
# 2 32.1582 51.6480 22.4698 0.0000 0.0000 0.0000
# 3 46.0805 22.4698 137.6009 0.0000 0.0000 0.0000
# 4 0.0000 0.0000 0.0000 40.3115 0.0000 0.0000
# 5 0.0000 0.0000 0.0000 0.0000 34.3426 0.0000
# 6 0.0000 0.0000 0.0000 0.0000 0.0000 43.6955
#
#
#
# Elastic Compliance Matrix: (Units=1/GPa)
#
#
# Indices 1 2 3 4 5 6 
#
# 1 0.037353 -0.019178 -0.009377 0.000000 0.000000 0.000000
# 2 -0.019178 0.030689 0.001411 0.000000 0.000000 0.000000
# 3 -0.009377 0.001411 0.010177 0.000000 0.000000 0.000000
# 4 0.000000 0.000000 0.000000 0.024807 0.000000 0.000000
# 5 0.000000 0.000000 0.000000 0.000000 0.029118 0.000000
# 6 0.000000 0.000000 0.000000 0.000000 0.000000 0.022886
#
#
# Mechanical properties :
#
#
# Convention : Reuss Voigt Hill
#
# Bulk Modulus (GPa) = 41.78707 49.50186 45.64446
# Shear Modulus (GPa) = 23.01011 33.22932 28.11972
#
# Velocity S-wave (km/s) = 3.42514 4.11605 3.78639
# Velocity P-wave (km/s) = 6.07841 6.91574 6.51055
#
# Compressibility (1/GPa) = 0.02393085
#
# Stress axis : x y z
#
# Youngs Moduli (GPa) = 26.77150 32.58501 98.25784
#
# Poissons Ratio (x) = 0.62491 0.92140
# Poissons Ratio (y) = 0.51342 -0.13864
# Poissons Ratio (z) = 0.25104 -0.04598
#
# Static dielectric constant tensor:
#      x y z
#    x 3.609750 0.000000 0.000000 
#    y 0.000000 3.651050 0.000000 
#    z 0.000000 0.000000 3.658750 
# 
# 
# High freq. dielectric constant tensor:
#      x y z
#    x 1.767460 0.000000 0.000000 
#    y 0.000000 1.770130 0.000000 
#    z 0.000000 0.000000 1.777650 
# 
# From -- ./inp_files/12804.got.cif
#   From: 2010.03.12/outbox.cif.g09.slc.cpg/sg51_7_cif.got.tgz:12804.got - 2010.04.16 13:43:02.
