data_PCOD8214373
_publ_section_title
;
Structure prediction by ZEFSAII (Michael W. Deem and Ramdas Pophale) SiO2 
 PCOD8214373
Probable space group: P M M A
;
_chemical_formula_sum "Si O2"
_cell_formula_units_Z 56
_cell_length_a 13.696809
_cell_length_b 20.852373
_cell_length_c 9.452376
_cell_angle_alpha 90.000000
_cell_angle_beta 90.000000
_cell_angle_gamma 90.000000
_cell_volume 2699.702280
_symmetry_space_group_name_H-M "P M M A"
_symmetry_group_IT_number 51
_symmetry_cell_setting 'orthorhombic'
loop_
_space_group_symop_operation_xyz
x,y,z
1/2-x,-y,z
1/2+x,-y,-z
-x,y,-z
-x,-y,-z
1/2+x,y,-z
1/2-x,y,z
x,-y,z
loop_
_atom_site_type_symbol
_atom_site_label
_atom_site_fract_x
_atom_site_fract_y
_atom_site_fract_z
Si Si1 0.364790 0.162309 0.646364
Si Si2 0.361708 0.427374 0.039607
Si Si3 0.478019 0.072225 0.840661
Si Si4 0.639294 0.730563 0.733677
Si Si5 0.488260 0.364133 0.806634
Si Si6 0.138993 0.875946 0.341684
Si Si7 0.137381 0.303639 0.587134
O O1 0.250000 0.165128 0.641885
O O2 0.399677 0.122443 0.781149
O O3 0.400140 0.127283 0.502652
O O4 0.401427 0.235806 0.651824
O O5 0.250000 0.409220 0.073216
O O6 0.368958 0.500000 0.982023
O O7 0.429060 0.420672 0.182154
O O8 0.406546 0.376890 0.926790
O O9 0.575948 0.073798 0.746858
O O10 0.435523 0.000000 0.835657
O O11 0.500000 0.093108 0.000000
O O12 0.750000 0.715819 0.786675
O O13 0.556018 0.699759 0.833816
O O14 0.624873 0.806419 0.727849
O O15 0.623724 0.697390 0.580391
O O16 0.430029 0.358904 0.658118
O O17 0.250000 0.899498 0.335071
O O18 0.250000 0.316089 0.627557
#
# Coordination Sequence:
#
# PCOD8214373 Si02
#       7
#     8   8   8   8   8   8   8
#     4   9  19  38  61  82 108 145 188 233 282 339
#     4  10  23  41  56  73 105 150 193 231 266 302
#     4  11  24  38  52  75 111 151 191 237 290 343
#     4   9  18  33  55  85 117 142 168 216 282 342
#     4  11  18  31  57  83 106 138 181 222 262 318
#     4   9  19  38  61  82 108 145 188 233 282 339
#     4   9  18  33  55  85 117 142 168 216 282 342
#
# _framework density 20.743029
#
# number of rings (size 3 to 8) (size 9 to 14) (size 15 to 20)
#    0.000    2.286    0.000    5.143    0.000    4.571 
#   10.286    2.857    0.000    6.857    0.000   16.000 
#    0.000    0.000    0.000    0.000    0.000    0.000 
#
# Total GULP energy -693782.014988 kJ/mol
# GULP energy per Si atom -12388.964553 kJ/mol
# Density = 2.069582 g / cm^3
# Si number density = 20.743029 Si / 1000 Ang^3
#
#
#
# Elastic Constant Matrix: (Units=GPa)
#
#
# Indices 1 2 3 4 5 6 
#
# 1 90.4835 18.9234 26.1637 0.0000 0.0000 0.0000
# 2 18.9234 58.2978 38.5632 0.0000 0.0000 0.0000
# 3 26.1637 38.5632 79.8463 0.0000 0.0000 0.0000
# 4 0.0000 0.0000 0.0000 19.4690 0.0000 0.0000
# 5 0.0000 0.0000 0.0000 0.0000 32.8505 0.0000
# 6 0.0000 0.0000 0.0000 0.0000 0.0000 32.5980
#
#
#
# Elastic Compliance Matrix: (Units=1/GPa)
#
#
# Indices 1 2 3 4 5 6 
#
# 1 0.012359 -0.001959 -0.003104 0.000000 0.000000 0.000000
# 2 -0.001959 0.025516 -0.011682 0.000000 0.000000 0.000000
# 3 -0.003104 -0.011682 0.019183 0.000000 0.000000 0.000000
# 4 0.000000 0.000000 0.000000 0.051364 0.000000 0.000000
# 5 0.000000 0.000000 0.000000 0.000000 0.030441 0.000000
# 6 0.000000 0.000000 0.000000 0.000000 0.000000 0.030677
#
#
# Mechanical properties :
#
#
# Convention : Reuss Voigt Hill
#
# Bulk Modulus (GPa) = 42.42690 43.99202 43.20946
# Shear Modulus (GPa) = 23.70966 26.64865 25.17916
#
# Velocity S-wave (km/s) = 3.38452 3.58817 3.48783
# Velocity P-wave (km/s) = 5.98091 6.19844 6.09065
#
# Compressibility (1/GPa) = 0.02356995
#
# Stress axis : x y z
#
# Youngs Moduli (GPa) = 80.91392 39.19050 52.12944
#
# Poissons Ratio (x) = 0.07676 0.16180
# Poissons Ratio (y) = 0.15848 0.60897
# Poissons Ratio (z) = 0.25114 0.45782
#
# Static dielectric constant tensor:
#      x y z
#    x 4.028190 0.000000 0.000000 
#    y 0.000000 3.566390 0.000000 
#    z 0.000000 0.000000 3.963900 
# 
# 
# High freq. dielectric constant tensor:
#      x y z
#    x 1.839310 0.000000 0.000000 
#    y 0.000000 1.786660 0.000000 
#    z 0.000000 0.000000 1.784690 
# 
# From -- ./inp_files/8567.got.cif
#   From: 2010.03.12/outbox.cif.g09.slc.cpg/sg51_5_cif.got.tgz:8567.got - 2010.04.16 13:43:02.
