data_PCOD8214157
_publ_section_title
;
Structure prediction by ZEFSAII (Michael W. Deem and Ramdas Pophale) SiO2 
 PCOD8214157
Probable space group: P M M A
;
_chemical_formula_sum "Si O2"
_cell_formula_units_Z 56
_cell_length_a 14.396205
_cell_length_b 9.068351
_cell_length_c 22.210592
_cell_angle_alpha 90.000000
_cell_angle_beta 90.000000
_cell_angle_gamma 90.000000
_cell_volume 2899.589232
_symmetry_space_group_name_H-M "P M M A"
_symmetry_group_IT_number 51
_symmetry_cell_setting 'orthorhombic'
loop_
_space_group_symop_operation_xyz
x,y,z
1/2-x,-y,z
1/2+x,-y,-z
-x,y,-z
-x,-y,-z
1/2+x,y,-z
1/2-x,y,z
x,-y,z
loop_
_atom_site_type_symbol
_atom_site_label
_atom_site_fract_x
_atom_site_fract_y
_atom_site_fract_z
Si Si1 0.640355 0.669678 0.882687
Si Si2 0.639758 0.663665 0.015916
Si Si3 0.935268 0.329110 0.445756
Si Si4 0.646561 0.828529 0.131364
Si Si5 0.979882 0.172641 0.786374
Si Si6 0.250000 0.825892 0.523691
Si Si7 0.068506 0.328106 0.335461
Si Si8 0.250000 0.174804 0.384633
O O1 0.750000 0.688519 0.877237
O O2 0.612495 0.500000 0.869211
O O3 0.605376 0.715905 0.949859
O O4 0.595985 0.780384 0.835161
O O5 0.750000 0.666712 0.015294
O O6 0.602394 0.500000 0.028239
O O7 0.601723 0.762680 0.070366
O O8 0.910484 0.500000 0.455796
O O9 0.840609 0.237496 0.443629
O O10 0.000000 0.271294 0.500000
O O11 0.988073 0.300462 0.383761
O O12 0.750000 0.764770 0.144460
O O13 0.582208 0.791051 0.188144
O O14 0.651553 0.000000 0.119649
O O15 0.969684 0.268980 0.727102
O O16 0.967298 0.000000 0.771902
O O17 0.250000 0.776732 0.454157
O O18 0.250000 0.000000 0.531041
O O19 0.093912 0.500000 0.330460
O O20 0.160088 0.239651 0.352730
O O21 0.250000 0.000000 0.377051
#
# Coordination Sequence:
#
# PCOD8214157 Si02
#       8
#     8   8   8   8   8   4   8   4
#     4   9  19  36  56  80 113 150 188 232 287 350
#     4   8  15  30  54  82 108 138 182 238 292 342
#     4  10  21  40  65  91 123 160 201 247 291 345
#     4   9  19  37  58  78 106 147 190 235 293 356
#     4  11  24  39  56  81 115 152 194 242 290 346
#     4  11  23  37  63  99 129 159 192 239 300 351
#     4  11  24  42  64  88 118 160 201 241 289 343
#     4  11  23  39  63  95 127 157 192 233 284 349
#
# _framework density 19.313079999999999
#
# number of rings (size 3 to 8) (size 9 to 14) (size 15 to 20)
#    0.000    2.143    1.429    2.143    1.000    4.571 
#    1.286    4.286    0.000    0.000    0.000    0.000 
#    0.000    0.000    0.000    0.000    0.000    0.000 
#
# Total GULP energy -694420.115780 kJ/mol
# GULP energy per Si atom -12400.359210 kJ/mol
# Density = 1.926912 g / cm^3
# Si number density = 19.313080 Si / 1000 Ang^3
#
#
#
# Elastic Constant Matrix: (Units=GPa)
#
#
# Indices 1 2 3 4 5 6 
#
# 1 100.0350 50.5854 50.2969 0.0000 0.0000 0.0000
# 2 50.5854 72.0031 58.8313 0.0000 0.0000 0.0000
# 3 50.2969 58.8313 132.3797 0.0000 0.0000 0.0000
# 4 0.0000 0.0000 0.0000 32.4346 0.0000 0.0000
# 5 0.0000 0.0000 0.0000 0.0000 29.2355 0.0000
# 6 0.0000 0.0000 0.0000 0.0000 0.0000 23.0381
#
#
#
# Elastic Compliance Matrix: (Units=1/GPa)
#
#
# Indices 1 2 3 4 5 6 
#
# 1 0.015737 -0.009689 -0.001673 0.000000 0.000000 0.000000
# 2 -0.009689 0.027772 -0.008661 0.000000 0.000000 0.000000
# 3 -0.001673 -0.008661 0.012039 0.000000 0.000000 0.000000
# 4 0.000000 0.000000 0.000000 0.030831 0.000000 0.000000
# 5 0.000000 0.000000 0.000000 0.000000 0.034205 0.000000
# 6 0.000000 0.000000 0.000000 0.000000 0.000000 0.043406
#
#
# Mechanical properties :
#
#
# Convention : Reuss Voigt Hill
#
# Bulk Modulus (GPa) = 64.50995 69.31610 66.91303
# Shear Modulus (GPa) = 23.90014 26.58860 25.24437
#
# Velocity S-wave (km/s) = 3.52164 3.71444 3.61932
# Velocity P-wave (km/s) = 7.07182 7.37324 7.22411
#
# Compressibility (1/GPa) = 0.01550148
#
# Stress axis : x y z
#
# Youngs Moduli (GPa) = 63.54318 36.00800 83.06440
#
# Poissons Ratio (x) = 0.34888 0.13901
# Poissons Ratio (y) = 0.61566 0.71941
# Poissons Ratio (z) = 0.10634 0.31186
#
# Static dielectric constant tensor:
#      x y z
#    x 3.721250 0.000000 0.000000 
#    y 0.000000 3.572110 0.000000 
#    z 0.000000 0.000000 3.626630 
# 
# 
# High freq. dielectric constant tensor:
#      x y z
#    x 1.757050 0.000000 0.000000 
#    y 0.000000 1.749360 0.000000 
#    z 0.000000 0.000000 1.752160 
# 
# From -- ./inp_files/33587.got.cif
#   From: 2010.03.12/outbox.cif.g09.slc.cpg/sg51_17_cif.got.tgz:33587.got - 2010.04.16 13:43:02.
