data_PCOD8214532
_publ_section_title
;
Structure prediction by ZEFSAII (Michael W. Deem and Ramdas Pophale) SiO2 
 PCOD8214532
Probable space group: P M M A
;
_chemical_formula_sum "Si O2"
_cell_formula_units_Z 56
_cell_length_a 9.038330
_cell_length_b 19.338782
_cell_length_c 18.629357
_cell_angle_alpha 90.000000
_cell_angle_beta 90.000000
_cell_angle_gamma 90.000000
_cell_volume 3256.230778
_symmetry_space_group_name_H-M "P M M A"
_symmetry_group_IT_number 51
_symmetry_cell_setting 'orthorhombic'
loop_
_space_group_symop_operation_xyz
x,y,z
1/2-x,-y,z
1/2+x,-y,-z
-x,y,-z
-x,-y,-z
1/2+x,y,-z
1/2-x,y,z
x,-y,z
loop_
_atom_site_type_symbol
_atom_site_label
_atom_site_fract_x
_atom_site_fract_y
_atom_site_fract_z
Si Si1 0.419848 0.576991 0.344219
Si Si2 0.925270 0.425156 0.194705
Si Si3 0.075780 0.713380 0.424962
Si Si4 0.574643 0.152091 0.073204
Si Si5 0.924929 0.718693 0.155211
Si Si6 0.575216 0.208090 0.299342
Si Si7 0.074822 0.076329 0.784662
O O1 0.250000 0.586744 0.320778
O O2 0.445604 0.500000 0.377126
O O3 0.518881 0.587315 0.274580
O O4 0.465734 0.634941 0.401855
O O5 0.750000 0.424581 0.198937
O O6 0.981585 0.500000 0.164801
O O7 0.979292 0.361116 0.144324
O O8 0.250000 0.723348 0.432540
O O9 0.000000 0.729221 0.500000
O O10 0.014897 0.769456 0.368982
O O11 0.750000 0.149234 0.063548
O O12 0.517395 0.230204 0.092758
O O13 0.519802 0.102310 0.137309
O O14 0.500000 0.127232 0.000000
O O15 0.750000 0.724329 0.154247
O O16 0.977191 0.743573 0.233616
O O17 0.750000 0.214579 0.314241
O O18 0.529279 0.129301 0.278589
O O19 0.250000 0.073561 0.788147
O O20 0.008345 0.000000 0.768909
#
# Coordination Sequence:
#
# PCOD8214532 Si02
#       7
#     8   8   8   8   8   8   8
#     4   9  18  31  44  62  91 122 150 187 236 279
#     4   9  15  24  43  67  86 110 150 196 235 274
#     4  11  22  33  47  67  93 125 158 193 232 275
#     4   9  17  29  45  67  97 129 156 186 221 266
#     4   8  14  26  44  64  88 118 152 189 231 272
#     4   9  16  30  51  70  91 118 152 193 230 274
#     4   8  15  29  51  76  98 124 154 183 224 276
#
# _framework density 17.197797000000001
#
# number of rings (size 3 to 8) (size 9 to 14) (size 15 to 20)
#    0.000    3.000    1.429    2.143    0.000    1.143 
#    0.000    3.571    0.000    2.143    0.000    0.000 
#    0.000    0.000    0.000    0.000    0.000    0.000 
#
# Total GULP energy -693835.298589 kJ/mol
# GULP energy per Si atom -12389.916046 kJ/mol
# Density = 1.715865 g / cm^3
# Si number density = 17.197797 Si / 1000 Ang^3
#
#
#
# Elastic Constant Matrix: (Units=GPa)
#
#
# Indices 1 2 3 4 5 6 
#
# 1 27.7807 26.6463 18.7171 0.0000 0.0000 0.0000
# 2 26.6463 147.1347 47.7301 0.0000 0.0000 0.0000
# 3 18.7171 47.7301 69.4550 0.0000 0.0000 0.0000
# 4 0.0000 0.0000 0.0000 19.5193 0.0000 0.0000
# 5 0.0000 0.0000 0.0000 0.0000 23.1749 0.0000
# 6 0.0000 0.0000 0.0000 0.0000 0.0000 14.7816
#
#
#
# Elastic Compliance Matrix: (Units=1/GPa)
#
#
# Indices 1 2 3 4 5 6 
#
# 1 0.047450 -0.005720 -0.008856 0.000000 0.000000 0.000000
# 2 -0.005720 0.009436 -0.004943 0.000000 0.000000 0.000000
# 3 -0.008856 -0.004943 0.020181 0.000000 0.000000 0.000000
# 4 0.000000 0.000000 0.000000 0.051231 0.000000 0.000000
# 5 0.000000 0.000000 0.000000 0.000000 0.043150 0.000000
# 6 0.000000 0.000000 0.000000 0.000000 0.000000 0.067652
#
#
# Mechanical properties :
#
#
# Convention : Reuss Voigt Hill
#
# Bulk Modulus (GPa) = 26.29615 47.83971 37.06793
# Shear Modulus (GPa) = 17.19309 21.58028 19.38668
#
# Velocity S-wave (km/s) = 3.16528 3.54620 3.36114
# Velocity P-wave (km/s) = 5.35558 6.68170 6.05505
#
# Compressibility (1/GPa) = 0.03802838
#
# Stress axis : x y z
#
# Youngs Moduli (GPa) = 21.07498 105.97800 49.55122
#
# Poissons Ratio (x) = 0.60623 0.43882
# Poissons Ratio (y) = 0.12056 0.24493
# Poissons Ratio (z) = 0.18664 0.52384
#
# Static dielectric constant tensor:
#      x y z
#    x 2.793040 0.000000 0.000000 
#    y 0.000000 3.923660 0.000000 
#    z 0.000000 0.000000 2.952020 
# 
# 
# High freq. dielectric constant tensor:
#      x y z
#    x 1.634220 0.000000 0.000000 
#    y 0.000000 1.676180 0.000000 
#    z 0.000000 0.000000 1.631590 
# 
# From -- ./inp_files/28166.got.cif
#   From: 2010.03.12/outbox.cif.g09.slc.cpg/sg51_15_cif.got.tgz:28166.got - 2010.04.16 13:43:02.
