data_PCOD8214630
_publ_section_title
;
Structure prediction by ZEFSAII (Michael W. Deem and Ramdas Pophale) SiO2 
 PCOD8214630
Probable space group: P M M A
;
_chemical_formula_sum "Si O2"
_cell_formula_units_Z 44
_cell_length_a 8.670586
_cell_length_b 13.351124
_cell_length_c 18.965076
_cell_angle_alpha 90.000000
_cell_angle_beta 90.000000
_cell_angle_gamma 90.000000
_cell_volume 2195.436433
_symmetry_space_group_name_H-M "P M M A"
_symmetry_group_IT_number 51
_symmetry_cell_setting 'orthorhombic'
loop_
_space_group_symop_operation_xyz
x,y,z
1/2-x,-y,z
1/2+x,-y,-z
-x,y,-z
-x,-y,-z
1/2+x,y,-z
1/2-x,y,z
x,-y,z
loop_
_atom_site_type_symbol
_atom_site_label
_atom_site_fract_x
_atom_site_fract_y
_atom_site_fract_z
Si Si1 0.924115 0.614661 0.294322
Si Si2 0.430264 0.707783 0.423609
Si Si3 0.430280 0.888177 0.816433
Si Si4 0.929410 0.687433 0.841315
Si Si5 0.432091 0.500000 0.922708
Si Si6 0.073185 0.112682 0.651944
O O1 0.750000 0.657820 0.289500
O O2 0.925389 0.500000 0.271919
O O3 0.988980 0.627146 0.372718
O O4 0.033285 0.674712 0.241197
O O5 0.500000 0.692045 0.500000
O O6 0.250000 0.686973 0.426311
O O7 0.462463 0.818947 0.394847
O O8 0.250000 0.876281 0.830685
O O9 0.517354 0.800989 0.860954
O O10 0.467717 0.875601 0.733941
O O11 0.484320 0.000000 0.840763
O O12 0.750000 0.675299 0.856579
O O13 0.017044 0.601998 0.884577
O O14 0.250000 0.500000 0.926047
O O15 0.500000 0.500000 0.000000
O O16 0.250000 0.143979 0.638386
O O17 0.044022 0.000000 0.626687
#
# Coordination Sequence:
#
# PCOD8214630 Si02
#       6
#     8   8   8   8   4   8
#     4  11  23  40  62  85 113 152 198 249 306 367
#     4  12  25  39  56  78 109 150 196 252 310 373
#     4   9  18  34  59  90 125 166 210 257 309 364
#     4  12  23  37  63  98 132 167 208 254 304 365
#     4  12  26  46  70 100 137 174 209 252 302 360
#     4   9  18  34  56  80 110 148 193 247 305 364
#
# _framework density 20.041573
#
# number of rings (size 3 to 8) (size 9 to 14) (size 15 to 20)
#    0.000    1.273    2.727    5.727    0.000    2.545 
#    0.000    1.818    0.000    0.545    0.000    0.000 
#    0.000    0.000    0.000    0.000    0.000    0.000 
#
# Total GULP energy -545588.676807 kJ/mol
# GULP energy per Si atom -12399.742655 kJ/mol
# Density = 1.999596 g / cm^3
# Si number density = 20.041573 Si / 1000 Ang^3
#
#
#
# Elastic Constant Matrix: (Units=GPa)
#
#
# Indices 1 2 3 4 5 6 
#
# 1 131.2341 48.7492 34.7760 0.0000 0.0000 0.0000
# 2 48.7492 126.5170 46.3540 0.0000 0.0000 0.0000
# 3 34.7760 46.3540 66.5022 0.0000 0.0000 0.0000
# 4 0.0000 0.0000 0.0000 14.0334 0.0000 0.0000
# 5 0.0000 0.0000 0.0000 0.0000 26.3726 0.0000
# 6 0.0000 0.0000 0.0000 0.0000 0.0000 32.4450
#
#
#
# Elastic Compliance Matrix: (Units=1/GPa)
#
#
# Indices 1 2 3 4 5 6 
#
# 1 0.009375 -0.002439 -0.003202 0.000000 0.000000 0.000000
# 2 -0.002439 0.011249 -0.006566 0.000000 0.000000 0.000000
# 3 -0.003202 -0.006566 0.021288 0.000000 0.000000 0.000000
# 4 0.000000 0.000000 0.000000 0.071258 0.000000 0.000000
# 5 0.000000 0.000000 0.000000 0.000000 0.037918 0.000000
# 6 0.000000 0.000000 0.000000 0.000000 0.000000 0.030821
#
#
# Mechanical properties :
#
#
# Convention : Reuss Voigt Hill
#
# Bulk Modulus (GPa) = 57.14853 64.89017 61.01935
# Shear Modulus (GPa) = 23.56749 27.52850 25.54799
#
# Velocity S-wave (km/s) = 3.43290 3.71019 3.57424
# Velocity P-wave (km/s) = 6.65507 7.12756 6.89536
#
# Compressibility (1/GPa) = 0.01749826
#
# Stress axis : x y z
#
# Youngs Moduli (GPa) = 106.67226 88.89328 46.97442
#
# Poissons Ratio (x) = 0.21680 0.15042
# Poissons Ratio (y) = 0.26016 0.30842
# Poissons Ratio (z) = 0.34159 0.58366
#
# Static dielectric constant tensor:
#      x y z
#    x 3.602650 0.000000 0.000000 
#    y 0.000000 3.955190 0.000000 
#    z 0.000000 0.000000 3.349700 
# 
# 
# High freq. dielectric constant tensor:
#      x y z
#    x 1.781570 0.000000 0.000000 
#    y 0.000000 1.804920 0.000000 
#    z 0.000000 0.000000 1.747230 
# 
# From -- ./inp_files/27407.got.cif
#   From: 2010.03.12/outbox.cif.g09.slc.cpg/sg51_14_cif.got.tgz:27407.got - 2010.04.16 13:43:02.
