data_PCOD8214649
_publ_section_title
;
Structure prediction by ZEFSAII (Michael W. Deem and Ramdas Pophale) SiO2 
 PCOD8214649
Probable space group: P M M A
;
_chemical_formula_sum "Si O2"
_cell_formula_units_Z 40
_cell_length_a 9.283983
_cell_length_b 14.781570
_cell_length_c 14.660554
_cell_angle_alpha 90.000000
_cell_angle_beta 90.000000
_cell_angle_gamma 90.000000
_cell_volume 2011.894868
_symmetry_space_group_name_H-M "P M M A"
_symmetry_group_IT_number 51
_symmetry_cell_setting 'orthorhombic'
loop_
_space_group_symop_operation_xyz
x,y,z
1/2-x,-y,z
1/2+x,-y,-z
-x,y,-z
-x,-y,-z
1/2+x,y,-z
1/2-x,y,z
x,-y,z
loop_
_atom_site_type_symbol
_atom_site_label
_atom_site_fract_x
_atom_site_fract_y
_atom_site_fract_z
Si Si1 0.912193 0.392424 0.414240
Si Si2 0.415166 0.603368 0.239418
Si Si3 0.081943 0.105555 0.785563
Si Si4 0.581493 0.245892 0.906191
Si Si5 0.408579 0.892904 0.582529
O O1 0.750000 0.354484 0.416883
O O2 0.913573 0.500000 0.417961
O O3 0.000000 0.352680 0.500000
O O4 0.986979 0.358933 0.321449
O O5 0.250000 0.610585 0.271508
O O6 0.455080 0.500000 0.214525
O O7 0.445794 0.663409 0.151178
O O8 0.250000 0.130485 0.798012
O O9 0.029492 0.130767 0.682768
O O10 0.983356 0.159160 0.855723
O O11 0.057881 0.000000 0.804941
O O12 0.750000 0.228494 0.923608
O O13 0.500000 0.260984 0.000000
O O14 0.500000 0.849588 0.500000
O O15 0.250000 0.851089 0.573428
O O16 0.401067 0.000000 0.571972
#
# Coordination Sequence:
#
# PCOD8214649 Si02
#       5
#     8   8   8   8   8
#     4   9  16  27  48  79 112 146 182 220 265 317
#     4   9  19  37  58  80 109 144 182 224 270 323
#     4   9  19  37  59  82 111 147 184 223 268 318
#     4  11  24  40  59  82 107 138 178 227 281 331
#     4   8  14  26  47  76 108 141 175 211 254 305
#
# _framework density 19.881754999999998
#
# number of rings (size 3 to 8) (size 9 to 14) (size 15 to 20)
#    0.000    2.800    0.000    2.400    0.000    6.000 
#    0.000    3.000    0.000    2.400    0.000    0.000 
#    0.000    0.000    0.000    0.000    0.000    0.000 
#
# Total GULP energy -495922.169980 kJ/mol
# GULP energy per Si atom -12398.054250 kJ/mol
# Density = 1.983650 g / cm^3
# Si number density = 19.881755 Si / 1000 Ang^3
#
#
#
# Elastic Constant Matrix: (Units=GPa)
#
#
# Indices 1 2 3 4 5 6 
#
# 1 138.2251 43.7155 102.5902 0.0000 0.0000 0.0000
# 2 43.7155 66.1489 47.8490 0.0000 0.0000 0.0000
# 3 102.5902 47.8490 172.8380 0.0000 0.0000 0.0000
# 4 0.0000 0.0000 0.0000 113.7529 0.0000 0.0000
# 5 0.0000 0.0000 0.0000 0.0000 43.8152 0.0000
# 6 0.0000 0.0000 0.0000 0.0000 0.0000 15.2032
#
#
#
# Elastic Compliance Matrix: (Units=1/GPa)
#
#
# Indices 1 2 3 4 5 6 
#
# 1 0.013718 -0.003971 -0.007043 0.000000 0.000000 0.000000
# 2 -0.003971 0.020052 -0.003194 0.000000 0.000000 0.000000
# 3 -0.007043 -0.003194 0.010851 0.000000 0.000000 0.000000
# 4 0.000000 0.000000 0.000000 0.008791 0.000000 0.000000
# 5 0.000000 0.000000 0.000000 0.000000 0.022823 0.000000
# 6 0.000000 0.000000 0.000000 0.000000 0.000000 0.065775
#
#
# Mechanical properties :
#
#
# Convention : Reuss Voigt Hill
#
# Bulk Modulus (GPa) = 61.71316 85.05792 73.38554
# Shear Modulus (GPa) = 28.43687 46.75809 37.59748
#
# Velocity S-wave (km/s) = 3.78603 4.85481 4.35334
# Velocity P-wave (km/s) = 7.08658 8.61976 7.89050
#
# Compressibility (1/GPa) = 0.01620400
#
# Stress axis : x y z
#
# Youngs Moduli (GPa) = 72.89834 49.86954 92.16134
#
# Poissons Ratio (x) = 0.19803 0.64909
# Poissons Ratio (y) = 0.28948 0.29439
# Poissons Ratio (z) = 0.51342 0.15930
#
# Static dielectric constant tensor:
#      x y z
#    x 3.831010 0.000000 0.000000 
#    y 0.000000 3.356370 0.000000 
#    z 0.000000 0.000000 3.665010 
# 
# 
# High freq. dielectric constant tensor:
#      x y z
#    x 1.775360 0.000000 0.000000 
#    y 0.000000 1.763980 0.000000 
#    z 0.000000 0.000000 1.775870 
# 
# From -- ./inp_files/14031.got.cif
#   From: 2010.03.12/outbox.cif.g09.slc.cpg/sg51_8_cif.got.tgz:14031.got - 2010.04.16 13:43:02.
