data_PCOD8214287
_publ_section_title
;
Structure prediction by ZEFSAII (Michael W. Deem and Ramdas Pophale) SiO2 
 PCOD8214287
Probable space group: P M M A
;
_chemical_formula_sum "Si O2"
_cell_formula_units_Z 64
_cell_length_a 17.500613
_cell_length_b 9.028562
_cell_length_c 20.255138
_cell_angle_alpha 90.000000
_cell_angle_beta 90.000000
_cell_angle_gamma 90.000000
_cell_volume 3200.420564
_symmetry_space_group_name_H-M "P M M A"
_symmetry_group_IT_number 51
_symmetry_cell_setting 'orthorhombic'
loop_
_space_group_symop_operation_xyz
x,y,z
1/2-x,-y,z
1/2+x,-y,-z
-x,y,-z
-x,-y,-z
1/2+x,y,-z
1/2-x,y,z
x,-y,z
loop_
_atom_site_type_symbol
_atom_site_label
_atom_site_fract_x
_atom_site_fract_y
_atom_site_fract_z
Si Si1 0.064322 0.668408 0.826736
Si Si2 0.839554 0.162870 0.414325
Si Si3 0.415403 0.176907 0.213584
Si Si4 0.666260 0.334868 0.295682
Si Si5 0.839877 0.675880 0.660093
Si Si6 0.833273 0.174841 0.916897
Si Si7 0.578357 0.174239 0.538434
Si Si8 0.338909 0.174129 0.935508
O O1 0.036575 0.500000 0.840819
O O2 0.133069 0.671630 0.776256
O O3 0.098304 0.740410 0.892600
O O4 0.001330 0.764265 0.788293
O O5 0.750000 0.165127 0.404765
O O6 0.879496 0.247912 0.353288
O O7 0.857402 0.226683 0.486366
O O8 0.875811 0.000000 0.411423
O O9 0.364913 0.251160 0.270704
O O10 0.386094 0.232457 0.141946
O O11 0.413007 0.000000 0.222545
O O12 0.750000 0.264735 0.287878
O O13 0.670137 0.500000 0.323034
O O14 0.750000 0.715840 0.646406
O O15 0.850597 0.500000 0.664805
O O16 0.898957 0.736896 0.604617
O O17 0.750000 0.246442 0.906459
O O18 0.826296 0.000000 0.912513
O O19 0.863350 0.217115 0.989737
O O20 0.500000 0.217896 0.500000
O O21 0.579871 0.000000 0.556251
O O22 0.250000 0.220287 0.922310
O O23 0.348104 0.000000 0.922281
#
# Coordination Sequence:
#
# PCOD8214287 Si02
#       8
#     8   8   8   8   8   8   8   8
#     4  11  23  37  53  80 121 160 196 241 297 361
#     4   9  18  33  54  80 110 143 184 236 285 331
#     4  11  23  39  62  88 116 155 202 252 302 352
#     4   9  19  35  54  75 104 147 192 230 276 343
#     4  11  25  44  65  91 124 161 201 245 296 358
#     4   8  16  34  60  87 112 143 192 250 302 353
#     4  10  22  39  61  91 122 154 194 242 291 344
#     4   9  18  35  60  87 114 149 197 249 297 353
#
# _framework density 19.997373
#
# number of rings (size 3 to 8) (size 9 to 14) (size 15 to 20)
#    0.000    2.250    0.000    3.000    1.750    5.000 
#    0.000    6.250    0.000    1.500    0.000    0.000 
#    0.000    0.000    0.000    0.000    0.000    0.000 
#
# Total GULP energy -792879.863807 kJ/mol
# GULP energy per Si atom -12388.747872 kJ/mol
# Density = 1.995186 g / cm^3
# Si number density = 19.997373 Si / 1000 Ang^3
#
#
#
# Elastic Constant Matrix: (Units=GPa)
#
#
# Indices 1 2 3 4 5 6 
#
# 1 77.1151 41.3377 41.1052 0.0000 0.0000 0.0000
# 2 41.3377 81.5150 54.3926 0.0000 0.0000 0.0000
# 3 41.1052 54.3926 129.7262 0.0000 0.0000 0.0000
# 4 0.0000 0.0000 0.0000 -54.3044 0.0000 0.0000
# 5 0.0000 0.0000 0.0000 0.0000 24.1306 0.0000
# 6 0.0000 0.0000 0.0000 0.0000 0.0000 24.5167
#
#
#
# Elastic Compliance Matrix: (Units=1/GPa)
#
#
# Indices 1 2 3 4 5 6 
#
# 1 0.018452 -0.007575 -0.002670 0.000000 0.000000 0.000000
# 2 -0.007575 0.020143 -0.006045 0.000000 0.000000 0.000000
# 3 -0.002670 -0.006045 0.011089 0.000000 0.000000 0.000000
# 4 0.000000 0.000000 0.000000 -0.018415 0.000000 0.000000
# 5 0.000000 0.000000 0.000000 0.000000 0.041441 0.000000
# 6 0.000000 0.000000 0.000000 0.000000 0.000000 0.040789
#
#
# Mechanical properties :
#
#
# Convention : Reuss Voigt Hill
#
# Bulk Modulus (GPa) = 58.47246 62.44748 60.45997
# Shear Modulus (GPa) = 32.94181 8.96997 20.95589
#
# Velocity S-wave (km/s) = 4.06311 2.12022 3.24069
# Velocity P-wave (km/s) = 7.16347 6.10650 6.65600
#
# Compressibility (1/GPa) = 0.01710207
#
# Stress axis : x y z
#
# Youngs Moduli (GPa) = 54.19508 49.64440 90.17549
#
# Poissons Ratio (x) = 0.37607 0.24081
# Poissons Ratio (y) = 0.41055 0.54515
# Poissons Ratio (z) = 0.14472 0.30012
#
# Static dielectric constant tensor:
#      x y z
#    x 3.715820 0.000000 0.000000 
#    y 0.000000 3.636930 0.000000 
#    z 0.000000 0.000000 3.870120 
# 
# 
# High freq. dielectric constant tensor:
#      x y z
#    x 1.776320 0.000000 0.000000 
#    y 0.000000 1.763490 0.000000 
#    z 0.000000 0.000000 1.797210 
# 
# From -- ./inp_files/33776.got.cif
#   From: 2010.03.12/outbox.cif.g09.slc.cpg/sg51_17_cif.got.tgz:33776.got - 2010.04.16 13:43:02.
