data_PCOD8214028
_publ_section_title
;
Structure prediction by ZEFSAII (Michael W. Deem and Ramdas Pophale) SiO2 
 PCOD8214028
Probable space group: P M M A
;
_chemical_formula_sum "Si O2"
_cell_formula_units_Z 52
_cell_length_a 8.903189
_cell_length_b 15.045936
_cell_length_c 20.142951
_cell_angle_alpha 90.000000
_cell_angle_beta 90.000000
_cell_angle_gamma 90.000000
_cell_volume 2698.285498
_symmetry_space_group_name_H-M "P M M A"
_symmetry_group_IT_number 51
_symmetry_cell_setting 'orthorhombic'
loop_
_space_group_symop_operation_xyz
x,y,z
1/2-x,-y,z
1/2+x,-y,-z
-x,y,-z
-x,-y,-z
1/2+x,y,-z
1/2-x,y,z
x,-y,z
loop_
_atom_site_type_symbol
_atom_site_label
_atom_site_fract_x
_atom_site_fract_y
_atom_site_fract_z
Si Si1 0.573877 0.397560 0.069065
Si Si2 0.920576 0.000000 0.431813
Si Si3 0.077961 0.400871 0.708128
Si Si4 0.080711 0.158068 0.371518
Si Si5 0.080636 0.099263 0.223730
Si Si6 0.429091 0.716121 0.184665
Si Si7 0.924861 0.328472 0.431343
O O1 0.750000 0.380597 0.064276
O O2 0.537156 0.500000 0.085616
O O3 0.505324 0.337196 0.125920
O O4 0.500000 0.368931 0.000000
O O5 0.000000 0.000000 0.500000
O O6 0.962975 0.084580 0.390438
O O7 0.750000 0.000000 0.448735
O O8 0.250000 0.379758 0.727359
O O9 0.033595 0.500000 0.731809
O O10 0.059398 0.399666 0.627948
O O11 0.975702 0.328485 0.745114
O O12 0.250000 0.140616 0.397968
O O13 0.078511 0.152852 0.292637
O O14 0.019746 0.246216 0.404690
O O15 0.250000 0.078959 0.203022
O O16 0.015542 0.179383 0.177591
O O17 0.999233 0.000000 0.222100
O O18 0.250000 0.711088 0.179227
O O19 0.750000 0.304517 0.444202
O O20 0.000000 0.363457 0.500000
#
# Coordination Sequence:
#
# PCOD8214028 Si02
#       7
#     8   4   8   8   8   8   8
#     4  10  21  38  61  91 128 165 197 232 276 328
#     4  12  24  36  50  74 102 134 177 228 291 356
#     4  10  22  39  57  79 110 148 190 238 292 347
#     4  11  20  36  57  76 102 138 181 232 291 349
#     4   9  18  34  57  83 111 145 186 232 282 334
#     4  11  21  35  60  91 120 153 191 234 284 339
#     4  11  23  38  55  75 103 140 186 239 295 352
#
# _framework density 19.271497
#
# number of rings (size 3 to 8) (size 9 to 14) (size 15 to 20)
#    0.000    1.538    2.308    3.462    0.000    4.000 
#    0.000    0.000    0.000    0.462    0.000    0.000 
#    0.000    0.000    0.000    0.000    0.000    0.000 
#
# Total GULP energy -644194.376829 kJ/mol
# GULP energy per Si atom -12388.353401 kJ/mol
# Density = 1.922763 g / cm^3
# Si number density = 19.271497 Si / 1000 Ang^3
#
#
#
# Elastic Constant Matrix: (Units=GPa)
#
#
# Indices 1 2 3 4 5 6 
#
# 1 100.1453 38.6026 37.2738 0.0000 0.0000 0.0000
# 2 38.6026 113.4735 44.6474 0.0000 0.0000 0.0000
# 3 37.2738 44.6474 96.4213 0.0000 0.0000 0.0000
# 4 0.0000 0.0000 0.0000 20.9354 0.0000 0.0000
# 5 0.0000 0.0000 0.0000 0.0000 31.7966 0.0000
# 6 0.0000 0.0000 0.0000 0.0000 0.0000 23.7612
#
#
#
# Elastic Compliance Matrix: (Units=1/GPa)
#
#
# Indices 1 2 3 4 5 6 
#
# 1 0.012372 -0.002845 -0.003465 0.000000 0.000000 0.000000
# 2 -0.002845 0.011430 -0.004193 0.000000 0.000000 0.000000
# 3 -0.003465 -0.004193 0.013652 0.000000 0.000000 0.000000
# 4 0.000000 0.000000 0.000000 0.047766 0.000000 0.000000
# 5 0.000000 0.000000 0.000000 0.000000 0.031450 0.000000
# 6 0.000000 0.000000 0.000000 0.000000 0.000000 0.042085
#
#
# Mechanical properties :
#
#
# Convention : Reuss Voigt Hill
#
# Bulk Modulus (GPa) = 60.79854 61.23199 61.01527
# Shear Modulus (GPa) = 26.99127 27.93305 27.46216
#
# Velocity S-wave (km/s) = 3.74649 3.81129 3.77903
# Velocity P-wave (km/s) = 7.09449 7.15613 7.12538
#
# Compressibility (1/GPa) = 0.01644776
#
# Stress axis : x y z
#
# Youngs Moduli (GPa) = 80.82750 87.48656 73.24871
#
# Poissons Ratio (x) = 0.24894 0.25381
# Poissons Ratio (y) = 0.22999 0.30712
# Poissons Ratio (z) = 0.28008 0.36681
#
# Static dielectric constant tensor:
#      x y z
#    x 3.508060 0.000000 0.000000 
#    y 0.000000 3.643280 0.000000 
#    z 0.000000 0.000000 3.538990 
# 
# 
# High freq. dielectric constant tensor:
#      x y z
#    x 1.744730 0.000000 0.000000 
#    y 0.000000 1.757230 0.000000 
#    z 0.000000 0.000000 1.734980 
# 
# From -- ./inp_files/31727.got.cif
#   From: 2010.03.12/outbox.cif.g09.slc.cpg/sg51_16_cif.got.tgz:31727.got - 2010.04.16 13:43:02.
