data_PCOD8214434
_publ_section_title
;
Structure prediction by ZEFSAII (Michael W. Deem and Ramdas Pophale) SiO2 
 PCOD8214434
Probable space group: P M M A
;
_chemical_formula_sum "Si O2"
_cell_formula_units_Z 64
_cell_length_a 27.804490
_cell_length_b 14.037229
_cell_length_c 10.113895
_cell_angle_alpha 90.000000
_cell_angle_beta 90.000000
_cell_angle_gamma 90.000000
_cell_volume 3947.432924
_symmetry_space_group_name_H-M "P M M A"
_symmetry_group_IT_number 51
_symmetry_cell_setting 'orthorhombic'
loop_
_space_group_symop_operation_xyz
x,y,z
1/2-x,-y,z
1/2+x,-y,-z
-x,y,-z
-x,-y,-z
1/2+x,y,-z
1/2-x,y,z
x,-y,z
loop_
_atom_site_type_symbol
_atom_site_label
_atom_site_fract_x
_atom_site_fract_y
_atom_site_fract_z
Si Si1 0.804822 0.301005 0.445531
Si Si2 0.693029 0.895675 0.837381
Si Si3 0.806009 0.706930 0.971803
Si Si4 0.807171 0.104282 0.541213
Si Si5 0.639729 0.388529 0.209327
Si Si6 0.162097 0.388000 0.289850
Si Si7 0.440617 0.386922 0.370874
Si Si8 0.544569 0.612670 0.335644
O O1 0.750000 0.304689 0.396432
O O2 0.824168 0.190857 0.446447
O O3 0.835687 0.366552 0.349283
O O4 0.807259 0.340061 0.594312
O O5 0.750000 0.889362 0.829569
O O6 0.672146 0.880103 0.689618
O O7 0.676979 0.000000 0.891173
O O8 0.674912 0.812693 0.934968
O O9 0.750000 0.705839 0.011931
O O10 0.837212 0.673767 0.095138
O O11 0.814029 0.636984 0.849155
O O12 0.750000 0.106762 0.549569
O O13 0.824172 0.000000 0.487202
O O14 0.646054 0.500000 0.176717
O O15 0.583426 0.358670 0.223551
O O16 0.164455 0.500000 0.310938
O O17 0.106632 0.350426 0.293710
O O18 0.440224 0.500000 0.373008
O O19 0.439625 0.346577 0.520903
O O20 0.490359 0.351550 0.299954
O O21 0.544450 0.500000 0.348815
#
# Coordination Sequence:
#
# PCOD8214434 Si02
#       8
#     8   8   8   8   8   8   8   8
#     4  11  20  30  45  67  93 124 162 195 223 269
#     4   8  14  28  49  67  84 113 155 200 242 275
#     4  11  22  34  45  64  97 135 165 190 225 270
#     4   8  14  27  47  68  88 111 146 200 252 275
#     4  11  22  34  45  63  96 136 166 187 223 278
#     4  11  20  30  45  68  94 123 162 198 224 264
#     4   8  14  27  48  69  86 110 152 205 247 272
#     4   8  14  28  48  66  86 115 152 197 247 282
#
# _framework density 16.213069000000001
#
# number of rings (size 3 to 8) (size 9 to 14) (size 15 to 20)
#    0.000    2.500    2.500    3.000    0.000    3.000 
#    0.000    1.250    0.000    6.000    0.000    0.000 
#    0.000    6.000    0.000    0.000    0.000    0.000 
#
# Total GULP energy -792999.423629 kJ/mol
# GULP energy per Si atom -12390.615994 kJ/mol
# Density = 1.617617 g / cm^3
# Si number density = 16.213069 Si / 1000 Ang^3
#
#
#
# Elastic Constant Matrix: (Units=GPa)
#
#
# Indices 1 2 3 4 5 6 
#
# 1 44.3585 16.0925 4.7361 0.0000 0.0000 0.0000
# 2 16.0925 66.7634 4.4856 0.0000 0.0000 0.0000
# 3 4.7361 4.4856 36.3055 0.0000 0.0000 0.0000
# 4 0.0000 0.0000 0.0000 24.0314 0.0000 0.0000
# 5 0.0000 0.0000 0.0000 0.0000 21.6034 0.0000
# 6 0.0000 0.0000 0.0000 0.0000 0.0000 1.2183
#
#
#
# Elastic Compliance Matrix: (Units=1/GPa)
#
#
# Indices 1 2 3 4 5 6 
#
# 1 0.024932 -0.005840 -0.002531 0.000000 0.000000 0.000000
# 2 -0.005840 0.016471 -0.001273 0.000000 0.000000 0.000000
# 3 -0.002531 -0.001273 0.028032 0.000000 0.000000 0.000000
# 4 0.000000 0.000000 0.000000 0.041612 0.000000 0.000000
# 5 0.000000 0.000000 0.000000 0.000000 0.046289 0.000000
# 6 0.000000 0.000000 0.000000 0.000000 0.000000 0.820783
#
#
# Mechanical properties :
#
#
# Convention : Reuss Voigt Hill
#
# Bulk Modulus (GPa) = 19.94115 22.00620 20.97368
# Shear Modulus (GPa) = 4.93037 17.51151 11.22094
#
# Velocity S-wave (km/s) = 1.74573 3.29003 2.63362
# Velocity P-wave (km/s) = 4.04840 5.29481 4.71299
#
# Compressibility (1/GPa) = 0.05014755
#
# Stress axis : x y z
#
# Youngs Moduli (GPa) = 40.10860 60.71142 35.67412
#
# Poissons Ratio (x) = 0.35453 0.09029
# Poissons Ratio (y) = 0.23422 0.04542
# Poissons Ratio (z) = 0.10151 0.07730
#
# Static dielectric constant tensor:
#      x y z
#    x 3.259120 0.000000 0.000000 
#    y 0.000000 3.189930 0.000000 
#    z 0.000000 0.000000 2.876890 
# 
# 
# High freq. dielectric constant tensor:
#      x y z
#    x 1.603890 0.000000 0.000000 
#    y 0.000000 1.605220 0.000000 
#    z 0.000000 0.000000 1.601310 
# 
# From -- ./inp_files/13229.got.cif
#   From: 2010.03.12/outbox.cif.g09.slc.cpg/sg51_7_cif.got.tgz:13229.got - 2010.04.16 13:43:02.
