data_PCOD8214035
_publ_section_title
;
Structure prediction by ZEFSAII (Michael W. Deem and Ramdas Pophale) SiO2 
 PCOD8214035
Probable space group: P M M A
;
_chemical_formula_sum "Si O2"
_cell_formula_units_Z 56
_cell_length_a 14.407026
_cell_length_b 14.979764
_cell_length_c 12.151680
_cell_angle_alpha 90.000000
_cell_angle_beta 90.000000
_cell_angle_gamma 90.000000
_cell_volume 2622.500838
_symmetry_space_group_name_H-M "P M M A"
_symmetry_group_IT_number 51
_symmetry_cell_setting 'orthorhombic'
loop_
_space_group_symop_operation_xyz
x,y,z
1/2-x,-y,z
1/2+x,-y,-z
-x,y,-z
-x,-y,-z
1/2+x,y,-z
1/2-x,y,z
x,-y,z
loop_
_atom_site_type_symbol
_atom_site_label
_atom_site_fract_x
_atom_site_fract_y
_atom_site_fract_z
Si Si1 0.643466 0.101639 0.704604
Si Si2 0.650088 0.346643 0.332218
Si Si3 0.645134 0.742761 0.549399
Si Si4 0.048552 0.402530 0.311612
Si Si5 0.850707 0.740724 0.101498
Si Si6 0.016039 0.097646 0.872519
Si Si7 0.359467 0.603084 0.083876
O O1 0.750000 0.119244 0.741170
O O2 0.614059 0.161734 0.599132
O O3 0.578605 0.125203 0.809041
O O4 0.629952 0.000000 0.666148
O O5 0.750000 0.392871 0.365326
O O6 0.632567 0.263368 0.417217
O O7 0.562424 0.412263 0.327987
O O8 0.663384 0.313807 0.210492
O O9 0.750000 0.724909 0.586288
O O10 0.583479 0.664352 0.597442
O O11 0.092310 0.500000 0.332625
O O12 0.079746 0.369910 0.190433
O O13 0.750000 0.774551 0.059118
O O14 0.910168 0.824801 0.139733
O O15 0.893226 0.673061 0.009872
O O16 0.050602 0.000000 0.828066
O O17 0.000000 0.087228 0.000000
O O18 0.250000 0.614027 0.109066
O O19 0.380184 0.500000 0.048105
#
# Coordination Sequence:
#
# PCOD8214035 Si02
#       7
#     8   8   8   8   8   8   8
#     4   9  19  38  64  91 118 154 201 249 299 350
#     4  10  23  40  56  83 120 159 201 243 290 353
#     4  10  21  38  62  90 121 153 196 254 302 345
#     4  11  23  38  60  87 116 155 200 246 300 355
#     4  10  22  39  61  84 115 160 199 237 298 359
#     4  10  22  37  56  87 124 155 190 238 289 351
#     4   9  20  39  62  90 118 147 197 258 305 351
#
# _framework density 21.353663000000001
#
# number of rings (size 3 to 8) (size 9 to 14) (size 15 to 20)
#    0.000    2.143    0.000    1.714    4.000    3.714 
#    0.000    6.429    0.000    6.000    0.000    0.000 
#    0.000    0.000    0.000    0.000    0.000    0.000 
#
# Total GULP energy -693775.694228 kJ/mol
# GULP energy per Si atom -12388.851683 kJ/mol
# Density = 2.130506 g / cm^3
# Si number density = 21.353663 Si / 1000 Ang^3
#
#
#
# Elastic Constant Matrix: (Units=GPa)
#
#
# Indices 1 2 3 4 5 6 
#
# 1 87.7014 33.4697 25.2392 0.0000 0.0000 0.0000
# 2 33.4697 70.2563 13.8257 0.0000 0.0000 0.0000
# 3 25.2392 13.8257 91.7219 0.0000 0.0000 0.0000
# 4 0.0000 0.0000 0.0000 13.5098 0.0000 0.0000
# 5 0.0000 0.0000 0.0000 0.0000 26.1818 0.0000
# 6 0.0000 0.0000 0.0000 0.0000 0.0000 26.4326
#
#
#
# Elastic Compliance Matrix: (Units=1/GPa)
#
#
# Indices 1 2 3 4 5 6 
#
# 1 0.014739 -0.006414 -0.003089 0.000000 0.000000 0.000000
# 2 -0.006414 0.017460 -0.000867 0.000000 0.000000 0.000000
# 3 -0.003089 -0.000867 0.011883 0.000000 0.000000 0.000000
# 4 0.000000 0.000000 0.000000 0.074020 0.000000 0.000000
# 5 0.000000 0.000000 0.000000 0.000000 0.038195 0.000000
# 6 0.000000 0.000000 0.000000 0.000000 0.000000 0.037832
#
#
# Mechanical properties :
#
#
# Convention : Reuss Voigt Hill
#
# Bulk Modulus (GPa) = 42.84002 43.86097 43.35049
# Shear Modulus (GPa) = 22.45691 25.03450 23.74571
#
# Velocity S-wave (km/s) = 3.24646 3.42771 3.33831
# Velocity P-wave (km/s) = 5.84451 6.02083 5.93333
#
# Compressibility (1/GPa) = 0.02334266
#
# Stress axis : x y z
#
# Youngs Moduli (GPa) = 67.84739 57.27496 84.15254
#
# Poissons Ratio (x) = 0.36734 0.25994
# Poissons Ratio (y) = 0.43515 0.07295
# Poissons Ratio (z) = 0.20958 0.04965
#
# Static dielectric constant tensor:
#      x y z
#    x 4.458640 0.000000 0.000000 
#    y 0.000000 4.580000 0.000000 
#    z 0.000000 0.000000 3.857080 
# 
# 
# High freq. dielectric constant tensor:
#      x y z
#    x 1.846110 0.000000 0.000000 
#    y 0.000000 1.826860 0.000000 
#    z 0.000000 0.000000 1.835120 
# 
# From -- ./inp_files/16614.got.cif
#   From: 2010.03.12/outbox.cif.g09.slc.cpg/sg51_9_cif.got.tgz:16614.got - 2010.04.16 13:43:02.
