data_PCOD8214579
_publ_section_title
;
Structure prediction by ZEFSAII (Michael W. Deem and Ramdas Pophale) SiO2 
 PCOD8214579
Probable space group: P M M A
;
_chemical_formula_sum "Si O2"
_cell_formula_units_Z 56
_cell_length_a 14.925630
_cell_length_b 19.428953
_cell_length_c 9.268172
_cell_angle_alpha 90.000000
_cell_angle_beta 90.000000
_cell_angle_gamma 90.000000
_cell_volume 2687.671302
_symmetry_space_group_name_H-M "P M M A"
_symmetry_group_IT_number 51
_symmetry_cell_setting 'orthorhombic'
loop_
_space_group_symop_operation_xyz
x,y,z
1/2-x,-y,z
1/2+x,-y,-z
-x,y,-z
-x,-y,-z
1/2+x,y,-z
1/2-x,y,z
x,-y,z
loop_
_atom_site_type_symbol
_atom_site_label
_atom_site_fract_x
_atom_site_fract_y
_atom_site_fract_z
Si Si1 0.646738 0.790986 0.183827
Si Si2 0.023016 0.658981 0.841289
Si Si3 0.092427 0.423855 0.582806
Si Si4 0.853375 0.077825 0.689303
Si Si5 0.154217 0.673312 0.342040
Si Si6 0.643703 0.075621 0.013481
Si Si7 0.400458 0.198930 0.493599
O O1 0.750000 0.774047 0.137501
O O2 0.578824 0.729720 0.141964
O O3 0.609719 0.860733 0.109180
O O4 0.645501 0.806388 0.352335
O O5 0.081538 0.606651 0.744664
O O6 0.926427 0.665891 0.767987
O O7 0.000000 0.629278 0.000000
O O8 0.135734 0.500000 0.597739
O O9 0.152514 0.374410 0.484977
O O10 0.000000 0.430204 0.500000
O O11 0.750000 0.099922 0.681452
O O12 0.909249 0.124569 0.579733
O O13 0.865989 0.000000 0.637163
O O14 0.891105 0.087713 0.850893
O O15 0.250000 0.658129 0.264290
O O16 0.158428 0.751691 0.394640
O O17 0.750000 0.073236 0.012774
O O18 0.608772 0.000000 0.068601
O O19 0.500000 0.232092 0.500000
#
# Coordination Sequence:
#
# PCOD8214579 Si02
#       7
#     8   8   8   8   8   8   8
#     4  11  22  37  59  87 121 162 207 261 320 375
#     4  11  24  40  60  95 135 167 209 258 310 379
#     4   9  19  40  67  94 125 163 203 246 298 359
#     4   9  19  36  57  82 112 152 202 253 312 380
#     4  11  22  41  65  91 124 167 213 256 306 367
#     4   8  17  35  57  82 114 155 204 253 310 384
#     4  12  22  37  57  83 121 153 203 264 314 366
#
# _framework density 20.835881000000001
#
# number of rings (size 3 to 8) (size 9 to 14) (size 15 to 20)
#    0.000    1.857    2.857    2.571    2.000    2.000 
#    0.000    1.429    0.000    2.143    0.000    2.000 
#    0.000    0.000    0.000    0.000    0.000    0.000 
#
# Total GULP energy -694097.450029 kJ/mol
# GULP energy per Si atom -12394.597322 kJ/mol
# Density = 2.078846 g / cm^3
# Si number density = 20.835881 Si / 1000 Ang^3
#
#
#
# Elastic Constant Matrix: (Units=GPa)
#
#
# Indices 1 2 3 4 5 6 
#
# 1 92.6909 22.5454 14.4412 0.0000 0.0000 0.0000
# 2 22.5454 112.8769 35.7837 0.0000 0.0000 0.0000
# 3 14.4412 35.7837 98.5529 0.0000 0.0000 0.0000
# 4 0.0000 0.0000 0.0000 24.4146 0.0000 0.0000
# 5 0.0000 0.0000 0.0000 0.0000 19.7056 0.0000
# 6 0.0000 0.0000 0.0000 0.0000 0.0000 -12.4494
#
#
#
# Elastic Compliance Matrix: (Units=1/GPa)
#
#
# Indices 1 2 3 4 5 6 
#
# 1 0.011418 -0.001978 -0.000955 0.000000 0.000000 0.000000
# 2 -0.001978 0.010354 -0.003470 0.000000 0.000000 0.000000
# 3 -0.000955 -0.003470 0.011547 0.000000 0.000000 0.000000
# 4 0.000000 0.000000 0.000000 0.040959 0.000000 0.000000
# 5 0.000000 0.000000 0.000000 0.000000 0.050747 0.000000
# 6 0.000000 0.000000 0.000000 0.000000 0.000000 -0.080325
#
#
# Mechanical properties :
#
#
# Convention : Reuss Voigt Hill
#
# Bulk Modulus (GPa) = 48.74716 49.96236 49.35476
# Shear Modulus (GPa) = 77.70807 21.75753 49.73280
#
# Velocity S-wave (km/s) = 6.11361 3.23497 4.89087
# Velocity P-wave (km/s) = 8.56047 6.16315 7.45875
#
# Compressibility (1/GPa) = 0.02051402
#
# Stress axis : x y z
#
# Youngs Moduli (GPa) = 87.57770 96.57910 86.60566
#
# Poissons Ratio (x) = 0.19102 0.08271
# Poissons Ratio (y) = 0.17322 0.30050
# Poissons Ratio (z) = 0.08364 0.33510
#
# Static dielectric constant tensor:
#      x y z
#    x 3.602250 0.000000 0.000000 
#    y 0.000000 4.062740 0.000000 
#    z 0.000000 0.000000 3.722290 
# 
# 
# High freq. dielectric constant tensor:
#      x y z
#    x 1.808570 0.000000 0.000000 
#    y 0.000000 1.814580 0.000000 
#    z 0.000000 0.000000 1.804160 
# 
# From -- ./inp_files/8497.got.cif
#   From: 2010.03.12/outbox.cif.g09.slc.cpg/sg51_5_cif.got.tgz:8497.got - 2010.04.16 13:43:02.
