data_PCOD8214520
_publ_section_title
;
Structure prediction by ZEFSAII (Michael W. Deem and Ramdas Pophale) SiO2 
 PCOD8214520
Probable space group: P M M A
;
_chemical_formula_sum "Si O2"
_cell_formula_units_Z 40
_cell_length_a 8.837824
_cell_length_b 10.262083
_cell_length_c 24.901522
_cell_angle_alpha 90.000000
_cell_angle_beta 90.000000
_cell_angle_gamma 90.000000
_cell_volume 2258.430674
_symmetry_space_group_name_H-M "P M M A"
_symmetry_group_IT_number 51
_symmetry_cell_setting 'orthorhombic'
loop_
_space_group_symop_operation_xyz
x,y,z
1/2-x,-y,z
1/2+x,-y,-z
-x,y,-z
-x,-y,-z
1/2+x,y,-z
1/2-x,y,z
x,-y,z
loop_
_atom_site_type_symbol
_atom_site_label
_atom_site_fract_x
_atom_site_fract_y
_atom_site_fract_z
Si Si1 0.418352 0.844552 0.157777
Si Si2 0.431790 0.000000 0.558590
Si Si3 0.930136 0.250204 0.614538
Si Si4 0.928675 0.144347 0.726276
Si Si5 0.919091 0.155325 0.052921
Si Si6 0.431030 0.500000 0.559123
O O1 0.250000 0.788009 0.151472
O O2 0.489994 0.803035 0.215907
O O3 0.512271 0.786876 0.107976
O O4 0.415951 0.000000 0.155786
O O5 0.500000 0.000000 0.500000
O O6 0.495275 0.873869 0.587606
O O7 0.250000 0.000000 0.557511
O O8 0.750000 0.253064 0.603595
O O9 0.967756 0.243617 0.678207
O O10 0.010238 0.375910 0.591085
O O11 0.750000 0.129795 0.732467
O O12 0.995750 0.000000 0.713255
O O13 0.750000 0.206091 0.049814
O O14 0.930307 0.000000 0.053621
O O15 0.000000 0.211410 0.000000
O O16 0.250000 0.500000 0.555569
O O17 0.500000 0.500000 0.500000
#
# Coordination Sequence:
#
# PCOD8214520 Si02
#       6
#     8   4   8   8   8   4
#     4   8  13  22  37  56  80 112 150 191 237 286
#     4  12  24  38  56  82 110 138 169 210 257 302
#     4  11  21  38  61  83 106 137 174 213 256 309
#     4   8  14  27  49  74  97 124 160 202 246 298
#     4   9  15  21  29  44  70 107 152 197 239 283
#     4  12  26  44  60  80 108 138 173 212 261 316
#
# _framework density 17.711413
#
# number of rings (size 3 to 8) (size 9 to 14) (size 15 to 20)
#    0.000    2.400    1.000    4.800    0.000    2.400 
#    0.000    2.000    0.000    0.000    0.000    0.000 
#    0.000    0.000    0.000    0.900    0.000   10.400 
#
# Total GULP energy -495665.872405 kJ/mol
# GULP energy per Si atom -12391.646810 kJ/mol
# Density = 1.767110 g / cm^3
# Si number density = 17.711413 Si / 1000 Ang^3
#
#
#
# Elastic Constant Matrix: (Units=GPa)
#
#
# Indices 1 2 3 4 5 6 
#
# 1 125.6998 37.9499 78.3338 0.0000 0.0000 0.0000
# 2 37.9499 76.7512 53.7145 0.0000 0.0000 0.0000
# 3 78.3338 53.7145 202.3522 0.0000 0.0000 0.0000
# 4 0.0000 0.0000 0.0000 13.3056 0.0000 0.0000
# 5 0.0000 0.0000 0.0000 0.0000 29.8963 0.0000
# 6 0.0000 0.0000 0.0000 0.0000 0.0000 20.6649
#
#
#
# Elastic Compliance Matrix: (Units=1/GPa)
#
#
# Indices 1 2 3 4 5 6 
#
# 1 0.011030 -0.003028 -0.003466 0.000000 0.000000 0.000000
# 2 -0.003028 0.016833 -0.003296 0.000000 0.000000 0.000000
# 3 -0.003466 -0.003296 0.007159 0.000000 0.000000 0.000000
# 4 0.000000 0.000000 0.000000 0.075157 0.000000 0.000000
# 5 0.000000 0.000000 0.000000 0.000000 0.033449 0.000000
# 6 0.000000 0.000000 0.000000 0.000000 0.000000 0.048391
#
#
# Mechanical properties :
#
#
# Convention : Reuss Voigt Hill
#
# Bulk Modulus (GPa) = 64.76230 82.75552 73.75891
# Shear Modulus (GPa) = 23.06856 28.42701 25.74778
#
# Velocity S-wave (km/s) = 3.61289 4.01060 3.81693
# Velocity P-wave (km/s) = 7.35178 8.26271 7.82052
#
# Compressibility (1/GPa) = 0.01544108
#
# Stress axis : x y z
#
# Youngs Moduli (GPa) = 90.66557 59.40661 139.69243
#
# Poissons Ratio (x) = 0.17988 0.48417
# Poissons Ratio (y) = 0.27453 0.46045
# Poissons Ratio (z) = 0.31424 0.19582
#
# Static dielectric constant tensor:
#      x y z
#    x 3.309470 0.000000 0.000000 
#    y 0.000000 2.724000 0.000000 
#    z 0.000000 0.000000 3.882550 
# 
# 
# High freq. dielectric constant tensor:
#      x y z
#    x 1.676750 0.000000 0.000000 
#    y 0.000000 1.616880 0.000000 
#    z 0.000000 0.000000 1.715260 
# 
# From -- ./inp_files/36045.got.cif
#   From: 2010.03.12/outbox.cif.g09.slc.cpg/sg51_19_cif.got.tgz:36045.got - 2010.04.16 13:43:02.
