data_PCOD8214439
_publ_section_title
;
Structure prediction by ZEFSAII (Michael W. Deem and Ramdas Pophale) SiO2 
 PCOD8214439
Probable space group: P M M A
;
_chemical_formula_sum "Si O2"
_cell_formula_units_Z 40
_cell_length_a 20.822031
_cell_length_b 8.664453
_cell_length_c 12.498148
_cell_angle_alpha 90.000000
_cell_angle_beta 90.000000
_cell_angle_gamma 90.000000
_cell_volume 2254.809740
_symmetry_space_group_name_H-M "P M M A"
_symmetry_group_IT_number 51
_symmetry_cell_setting 'orthorhombic'
loop_
_space_group_symop_operation_xyz
x,y,z
1/2-x,-y,z
1/2+x,-y,-z
-x,y,-z
-x,-y,-z
1/2+x,y,-z
1/2-x,y,z
x,-y,z
loop_
_atom_site_type_symbol
_atom_site_label
_atom_site_fract_x
_atom_site_fract_y
_atom_site_fract_z
Si Si1 0.324180 0.320803 0.756170
Si Si2 0.082923 0.180850 0.920873
Si Si3 0.591321 0.179717 0.417816
Si Si4 0.947983 0.319733 0.866051
Si Si5 0.051904 0.820789 0.351176
O O1 0.250000 0.275721 0.749996
O O2 0.334495 0.500000 0.780842
O O3 0.354850 0.222208 0.851933
O O4 0.355488 0.280189 0.642035
O O5 0.022176 0.270398 0.872537
O O6 0.068997 0.000000 0.914202
O O7 0.093649 0.231363 0.043892
O O8 0.521630 0.225010 0.373162
O O9 0.594527 0.217497 0.544342
O O10 0.604743 0.000000 0.396917
O O11 0.941201 0.500000 0.886571
O O12 0.921112 0.276551 0.748805
O O13 0.056628 0.000000 0.322426
#
# Coordination Sequence:
#
# PCOD8214439 Si02
#       5
#     8   8   8   8   8
#     4  11  23  37  53  76 108 140 174 218 261 305
#     4  11  21  34  52  74 103 139 178 215 256 311
#     4   9  18  32  52  76 105 138 175 213 255 307
#     4  11  20  31  51  79 109 137 167 213 269 316
#     4   9  17  31  51  78 108 137 168 213 263 307
#
# _framework density 17.739854999999999
#
# number of rings (size 3 to 8) (size 9 to 14) (size 15 to 20)
#    0.000    1.800    2.000    6.600    0.000    2.400 
#    0.000    2.000    0.000    1.200    0.000    5.600 
#    0.000    0.000    0.000    0.000    0.000    0.000 
#
# Total GULP energy -496062.524617 kJ/mol
# GULP energy per Si atom -12401.563115 kJ/mol
# Density = 1.769948 g / cm^3
# Si number density = 17.739855 Si / 1000 Ang^3
#
#
#
# Elastic Constant Matrix: (Units=GPa)
#
#
# Indices 1 2 3 4 5 6 
#
# 1 70.0548 24.2575 38.1184 0.0000 0.0000 0.0000
# 2 24.2575 62.5697 32.8984 0.0000 0.0000 0.0000
# 3 38.1184 32.8984 139.0358 0.0000 0.0000 0.0000
# 4 0.0000 0.0000 0.0000 28.2996 0.0000 0.0000
# 5 0.0000 0.0000 0.0000 0.0000 21.9023 0.0000
# 6 0.0000 0.0000 0.0000 0.0000 0.0000 19.9997
#
#
#
# Elastic Compliance Matrix: (Units=1/GPa)
#
#
# Indices 1 2 3 4 5 6 
#
# 1 0.018062 -0.005024 -0.003763 0.000000 0.000000 0.000000
# 2 -0.005024 0.019650 -0.003272 0.000000 0.000000 0.000000
# 3 -0.003763 -0.003272 0.008998 0.000000 0.000000 0.000000
# 4 0.000000 0.000000 0.000000 0.035336 0.000000 0.000000
# 5 0.000000 0.000000 0.000000 0.000000 0.045657 0.000000
# 6 0.000000 0.000000 0.000000 0.000000 0.000000 0.050001
#
#
# Mechanical properties :
#
#
# Convention : Reuss Voigt Hill
#
# Bulk Modulus (GPa) = 44.26318 51.35653 47.80985
# Shear Modulus (GPa) = 23.88304 25.79939 24.84121
#
# Velocity S-wave (km/s) = 3.67317 3.81769 3.74613
# Velocity P-wave (km/s) = 6.55705 6.96029 6.76168
#
# Compressibility (1/GPa) = 0.02259214
#
# Stress axis : x y z
#
# Youngs Moduli (GPa) = 55.36587 50.88974 111.13087
#
# Poissons Ratio (x) = 0.25565 0.41820
# Poissons Ratio (y) = 0.27814 0.36366
# Poissons Ratio (z) = 0.20835 0.16653
#
# Static dielectric constant tensor:
#      x y z
#    x 2.882600 0.000000 0.000000 
#    y 0.000000 3.266880 0.000000 
#    z 0.000000 0.000000 3.605660 
# 
# 
# High freq. dielectric constant tensor:
#      x y z
#    x 1.632090 0.000000 0.000000 
#    y 0.000000 1.692740 0.000000 
#    z 0.000000 0.000000 1.705910 
# 
# From -- ./inp_files/17916.got.cif
#   From: 2010.03.12/outbox.cif.g09.slc.cpg/sg51_9_cif.got.tgz:17916.got - 2010.04.16 13:43:02.
