data_PCOD8214289
_publ_section_title
;
Structure prediction by ZEFSAII (Michael W. Deem and Ramdas Pophale) SiO2 
 PCOD8214289
Probable space group: P M M A
;
_chemical_formula_sum "Si O2"
_cell_formula_units_Z 48
_cell_length_a 9.996292
_cell_length_b 8.935582
_cell_length_c 29.234457
_cell_angle_alpha 90.000000
_cell_angle_beta 90.000000
_cell_angle_gamma 90.000000
_cell_volume 2611.300248
_symmetry_space_group_name_H-M "P M M A"
_symmetry_group_IT_number 51
_symmetry_cell_setting 'orthorhombic'
loop_
_space_group_symop_operation_xyz
x,y,z
1/2-x,-y,z
1/2+x,-y,-z
-x,y,-z
-x,-y,-z
1/2+x,y,-z
1/2-x,y,z
x,-y,z
loop_
_atom_site_type_symbol
_atom_site_label
_atom_site_fract_x
_atom_site_fract_y
_atom_site_fract_z
Si Si1 0.901692 0.671429 0.303091
Si Si2 0.408356 0.163308 0.136711
Si Si3 0.399952 0.178060 0.234864
Si Si4 0.250000 0.826221 0.430152
Si Si5 0.750000 0.826315 0.462020
Si Si6 0.599428 0.820597 0.961551
Si Si7 0.477957 0.324471 0.594265
O O1 0.750000 0.706195 0.288339
O O2 0.939345 0.500000 0.293682
O O3 0.999867 0.773082 0.274030
O O4 0.916283 0.709146 0.356325
O O5 0.250000 0.142961 0.136536
O O6 0.446837 0.244758 0.184855
O O7 0.447327 0.244225 0.088584
O O8 0.477280 0.000000 0.136656
O O9 0.250000 0.234899 0.246900
O O10 0.400148 0.000000 0.231446
O O11 0.250000 0.802946 0.484087
O O12 0.122845 0.748392 0.407667
O O13 0.250000 0.000000 0.416807
O O14 0.616688 0.749635 0.443388
O O15 0.750000 0.000000 0.448315
O O16 0.750000 0.767193 0.973288
O O17 0.594366 0.000000 0.959678
O O18 0.500000 0.755890 0.000000
O O19 0.487353 0.500000 0.584004
#
# Coordination Sequence:
#
# PCOD8214289 Si02
#       7
#     8   8   8   4   4   8   8
#     4  10  22  40  56  74 104 138 171 211 259 308
#     4   7  11  22  38  57  87 123 157 198 247 297
#     4   9  18  32  52  78 102 129 170 215 258 308
#     4  11  25  41  59  89 121 143 175 223 270 309
#     4  11  23  41  63  87 117 149 177 217 268 315
#     4   8  12  18  30  49  77 117 159 195 236 287
#     4  11  23  41  62  84 111 147 186 220 261 318
#
# _framework density 18.381647000000001
#
# number of rings (size 3 to 8) (size 9 to 14) (size 15 to 20)
#    0.000    2.667    0.833    3.500    1.167    5.333 
#    0.000    0.833    0.000    3.000    0.000    0.000 
#    0.000    0.667    0.000    1.500    0.000    4.333 
#
# Total GULP energy -594799.063421 kJ/mol
# GULP energy per Si atom -12391.647155 kJ/mol
# Density = 1.833981 g / cm^3
# Si number density = 18.381647 Si / 1000 Ang^3
#
#
#
# Elastic Constant Matrix: (Units=GPa)
#
#
# Indices 1 2 3 4 5 6 
#
# 1 89.4650 27.3105 29.8824 0.0000 0.0000 0.0000
# 2 27.3105 50.5452 33.7414 0.0000 0.0000 0.0000
# 3 29.8824 33.7414 78.6556 0.0000 0.0000 0.0000
# 4 0.0000 0.0000 0.0000 -2.9627 0.0000 0.0000
# 5 0.0000 0.0000 0.0000 0.0000 33.2565 0.0000
# 6 0.0000 0.0000 0.0000 0.0000 0.0000 23.9701
#
#
#
# Elastic Compliance Matrix: (Units=1/GPa)
#
#
# Indices 1 2 3 4 5 6 
#
# 1 0.013833 -0.005558 -0.002871 0.000000 0.000000 0.000000
# 2 -0.005558 0.029956 -0.010739 0.000000 0.000000 0.000000
# 3 -0.002871 -0.010739 0.018411 0.000000 0.000000 0.000000
# 4 0.000000 0.000000 0.000000 -0.337534 0.000000 0.000000
# 5 0.000000 0.000000 0.000000 0.000000 0.030069 0.000000
# 6 0.000000 0.000000 0.000000 0.000000 0.000000 0.041719
#
#
# Mechanical properties :
#
#
# Convention : Reuss Voigt Hill
#
# Bulk Modulus (GPa) = 41.90310 44.50382 43.20346
# Shear Modulus (GPa) = -31.79537 19.36824 -6.21356
#
# Velocity S-wave (km/s) = -4.16352 3.24955 -1.84056
# Velocity P-wave (km/s) = 0.51724 6.19218 4.36323
#
# Compressibility (1/GPa) = 0.02386458
#
# Stress axis : x y z
#
# Youngs Moduli (GPa) = 72.29022 33.38247 54.31452
#
# Poissons Ratio (x) = 0.18552 0.15596
# Poissons Ratio (y) = 0.40175 0.58328
# Poissons Ratio (z) = 0.20757 0.35849
#
# Static dielectric constant tensor:
#      x y z
#    x 3.268560 0.000000 0.000000 
#    y 0.000000 3.039920 0.000000 
#    z 0.000000 0.000000 3.827000 
# 
# 
# High freq. dielectric constant tensor:
#      x y z
#    x 1.701120 0.000000 0.000000 
#    y 0.000000 1.671490 0.000000 
#    z 0.000000 0.000000 1.731490 
# 
# From -- ./inp_files/37134.got.cif
#   From: 2010.03.12/outbox.cif.g09.slc.cpg/sg51_19_cif.got.tgz:37134.got - 2010.04.16 13:43:02.
