data_PCOD8214653
_publ_section_title
;
Structure prediction by ZEFSAII (Michael W. Deem and Ramdas Pophale) SiO2 
 PCOD8214653
Probable space group: P M M A
;
_chemical_formula_sum "Si O2"
_cell_formula_units_Z 52
_cell_length_a 10.016494
_cell_length_b 10.328168
_cell_length_c 28.316244
_cell_angle_alpha 90.000000
_cell_angle_beta 90.000000
_cell_angle_gamma 90.000000
_cell_volume 2929.373003
_symmetry_space_group_name_H-M "P M M A"
_symmetry_group_IT_number 51
_symmetry_cell_setting 'orthorhombic'
loop_
_space_group_symop_operation_xyz
x,y,z
1/2-x,-y,z
1/2+x,-y,-z
-x,y,-z
-x,-y,-z
1/2+x,y,-z
1/2-x,y,z
x,-y,z
loop_
_atom_site_type_symbol
_atom_site_label
_atom_site_fract_x
_atom_site_fract_y
_atom_site_fract_z
Si Si1 0.406687 0.150400 0.144977
Si Si2 0.509527 0.252827 0.599135
Si Si3 0.592721 0.350319 0.200766
Si Si4 0.603785 0.847965 0.963013
Si Si5 0.250000 0.845214 0.547392
Si Si6 0.250000 0.139333 0.443966
Si Si7 0.097673 0.500000 0.456165
Si Si8 0.598736 0.649398 0.308731
O O1 0.250000 0.177923 0.155182
O O2 0.501054 0.249080 0.172940
O O3 0.441259 0.178187 0.090449
O O4 0.439343 0.000000 0.157652
O O5 0.375682 0.213983 0.573385
O O6 0.621325 0.146630 0.589397
O O7 0.572313 0.380011 0.577281
O O8 0.490366 0.266853 0.655455
O O9 0.750000 0.320204 0.192898
O O10 0.563702 0.500000 0.185881
O O11 0.551306 0.330323 0.255194
O O12 0.750000 0.786329 0.972141
O O13 0.612945 0.000000 0.972117
O O14 0.500000 0.783983 0.000000
O O15 0.250000 0.782511 0.494013
O O16 0.250000 0.000000 0.552217
O O17 0.250000 0.000000 0.467305
O O18 0.250000 0.500000 0.473978
O O19 0.000000 0.500000 0.500000
O O20 0.750000 0.697336 0.313937
O O21 0.588019 0.500000 0.323414
#
# Coordination Sequence:
#
# PCOD8214653 Si02
#       8
#     8   8   8   8   4   4   4   8
#     4   9  18  33  52  79 115 148 180 226 280 327
#     4  12  22  38  61  82 108 136 175 218 261 317
#     4   9  19  36  58  79 103 138 186 230 271 327
#     4   8  14  25  43  70 106 145 182 221 267 321
#     4  11  24  41  61  81 105 148 187 207 246 317
#     4  11  24  41  55  75 111 148 175 211 252 303
#     4  12  26  38  56  88 116 136 166 214 271 318
#     4   9  18  36  58  81 104 134 168 214 274 325
#
# _framework density 17.751238000000001
#
# number of rings (size 3 to 8) (size 9 to 14) (size 15 to 20)
#    0.000    2.154    2.308    3.692    1.077    2.462 
#    1.385    3.077    0.000    0.462    0.000    0.000 
#    0.000    0.000    0.000    0.000    0.000    0.000 
#
# Total GULP energy -644363.404945 kJ/mol
# GULP energy per Si atom -12391.603941 kJ/mol
# Density = 1.771084 g / cm^3
# Si number density = 17.751238 Si / 1000 Ang^3
#
#
#
# Elastic Constant Matrix: (Units=GPa)
#
#
# Indices 1 2 3 4 5 6 
#
# 1 130.6497 48.3570 70.2427 0.0000 0.0000 0.0000
# 2 48.3570 68.9701 43.7812 0.0000 0.0000 0.0000
# 3 70.2427 43.7812 118.3491 0.0000 0.0000 0.0000
# 4 0.0000 0.0000 0.0000 32.7868 0.0000 0.0000
# 5 0.0000 0.0000 0.0000 0.0000 29.4341 0.0000
# 6 0.0000 0.0000 0.0000 0.0000 0.0000 28.9355
#
#
#
# Elastic Compliance Matrix: (Units=1/GPa)
#
#
# Indices 1 2 3 4 5 6 
#
# 1 0.012583 -0.005334 -0.005495 0.000000 0.000000 0.000000
# 2 -0.005334 0.021210 -0.004680 0.000000 0.000000 0.000000
# 3 -0.005495 -0.004680 0.013442 0.000000 0.000000 0.000000
# 4 0.000000 0.000000 0.000000 0.030500 0.000000 0.000000
# 5 0.000000 0.000000 0.000000 0.000000 0.033974 0.000000
# 6 0.000000 0.000000 0.000000 0.000000 0.000000 0.034560
#
#
# Mechanical properties :
#
#
# Convention : Reuss Voigt Hill
#
# Bulk Modulus (GPa) = 61.66608 71.41453 66.54030
# Shear Modulus (GPa) = 27.36842 28.60382 27.98612
#
# Velocity S-wave (km/s) = 3.93080 4.01854 3.97492
# Velocity P-wave (km/s) = 7.44420 7.86445 7.65721
#
# Compressibility (1/GPa) = 0.01621637
#
# Stress axis : x y z
#
# Youngs Moduli (GPa) = 79.47535 47.14780 74.39216
#
# Poissons Ratio (x) = 0.25149 0.40877
# Poissons Ratio (y) = 0.42392 0.34819
# Poissons Ratio (z) = 0.43670 0.22067
#
# Static dielectric constant tensor:
#      x y z
#    x 7.722060 0.000000 0.000000 
#    y 0.000000 3.107390 0.000000 
#    z 0.000000 0.000000 3.294410 
# 
# 
# High freq. dielectric constant tensor:
#      x y z
#    x 1.692180 0.000000 0.000000 
#    y 0.000000 1.667900 0.000000 
#    z 0.000000 0.000000 1.683290 
# 
# From -- ./inp_files/36285.got.cif
#   From: 2010.03.12/outbox.cif.g09.slc.cpg/sg51_19_cif.got.tgz:36285.got - 2010.04.16 13:43:02.
