data_PCOD8214132
_publ_section_title
;
Structure prediction by ZEFSAII (Michael W. Deem and Ramdas Pophale) SiO2 
 PCOD8214132
Probable space group: P M M A
;
_chemical_formula_sum "Si O2"
_cell_formula_units_Z 56
_cell_length_a 13.618954
_cell_length_b 19.363552
_cell_length_c 10.058547
_cell_angle_alpha 90.000000
_cell_angle_beta 90.000000
_cell_angle_gamma 90.000000
_cell_volume 2652.552747
_symmetry_space_group_name_H-M "P M M A"
_symmetry_group_IT_number 51
_symmetry_cell_setting 'orthorhombic'
loop_
_space_group_symop_operation_xyz
x,y,z
1/2-x,-y,z
1/2+x,-y,-z
-x,y,-z
-x,-y,-z
1/2+x,y,-z
1/2-x,y,z
x,-y,z
loop_
_atom_site_type_symbol
_atom_site_label
_atom_site_fract_x
_atom_site_fract_y
_atom_site_fract_z
Si Si1 0.361265 0.701391 0.984803
Si Si2 0.365647 0.079178 0.876547
Si Si3 0.479050 0.846498 0.647258
Si Si4 0.136629 0.577914 0.149871
Si Si5 0.134186 0.284805 0.697228
Si Si6 0.467955 0.575683 0.648690
Si Si7 0.637273 0.162810 0.865911
O O1 0.250000 0.689687 0.944378
O O2 0.402878 0.627850 0.032947
O O3 0.375766 0.756938 0.099571
O O4 0.408434 0.726746 0.847230
O O5 0.250000 0.089578 0.870018
O O6 0.404845 0.108839 0.736995
O O7 0.397629 0.000000 0.889503
O O8 0.404676 0.118135 0.009557
O O9 0.500000 0.878490 0.500000
O O10 0.430441 0.771112 0.616993
O O11 0.580785 0.848072 0.728400
O O12 0.250000 0.595449 0.188734
O O13 0.127452 0.500000 0.096884
O O14 0.068725 0.592835 0.275359
O O15 0.250000 0.269952 0.676648
O O16 0.113140 0.364444 0.660879
O O17 0.500000 0.570192 0.500000
O O18 0.425618 0.500000 0.694362
O O19 0.750000 0.142949 0.838994
#
# Coordination Sequence:
#
# PCOD8214132 Si02
#       7
#     8   8   8   8   8   8   8
#     4   9  18  34  57  82 110 146 196 249 301 363
#     4  10  22  43  70  97 127 165 209 255 302 357
#     4  12  25  39  62  95 131 168 206 252 308 373
#     4   9  18  33  54  80 111 146 188 250 319 373
#     4  11  23  39  59  84 118 158 202 256 313 367
#     4  10  22  38  54  78 111 152 204 250 301 374
#     4  10  21  39  63  92 123 163 213 260 306 359
#
# _framework density 21.111737999999999
#
# number of rings (size 3 to 8) (size 9 to 14) (size 15 to 20)
#    0.000    1.857    1.429    2.143    0.000    5.714 
#    0.000    5.714    0.000    1.714    0.000    0.000 
#    0.000    0.000    0.000    0.000    0.000    0.000 
#
# Total GULP energy -694010.235236 kJ/mol
# GULP energy per Si atom -12393.039915 kJ/mol
# Density = 2.106369 g / cm^3
# Si number density = 21.111738 Si / 1000 Ang^3
#
#
#
# Elastic Constant Matrix: (Units=GPa)
#
#
# Indices 1 2 3 4 5 6 
#
# 1 82.4071 34.7970 30.2983 0.0000 0.0000 0.0000
# 2 34.7970 104.3725 32.4075 0.0000 0.0000 0.0000
# 3 30.2983 32.4075 119.5195 0.0000 0.0000 0.0000
# 4 0.0000 0.0000 0.0000 15.4508 0.0000 0.0000
# 5 0.0000 0.0000 0.0000 0.0000 23.8636 0.0000
# 6 0.0000 0.0000 0.0000 0.0000 0.0000 27.8862
#
#
#
# Elastic Compliance Matrix: (Units=1/GPa)
#
#
# Indices 1 2 3 4 5 6 
#
# 1 0.014851 -0.004130 -0.002645 0.000000 0.000000 0.000000
# 2 -0.004130 0.011610 -0.002101 0.000000 0.000000 0.000000
# 3 -0.002645 -0.002101 0.009607 0.000000 0.000000 0.000000
# 4 0.000000 0.000000 0.000000 0.064721 0.000000 0.000000
# 5 0.000000 0.000000 0.000000 0.000000 0.041905 0.000000
# 6 0.000000 0.000000 0.000000 0.000000 0.000000 0.035860
#
#
# Mechanical properties :
#
#
# Convention : Reuss Voigt Hill
#
# Bulk Modulus (GPa) = 54.59589 55.70051 55.14820
# Shear Modulus (GPa) = 24.70199 27.35989 26.03094
#
# Velocity S-wave (km/s) = 3.42432 3.60384 3.51523
# Velocity P-wave (km/s) = 6.44603 6.61497 6.53105
#
# Compressibility (1/GPa) = 0.01831640
#
# Stress axis : x y z
#
# Youngs Moduli (GPa) = 67.33430 86.12963 104.09006
#
# Poissons Ratio (x) = 0.35572 0.27531
# Poissons Ratio (y) = 0.27809 0.21871
# Poissons Ratio (z) = 0.17810 0.18097
#
# Static dielectric constant tensor:
#      x y z
#    x -22.839300 0.000000 0.000000 
#    y 0.000000 4.091090 0.000000 
#    z 0.000000 0.000000 3.785700 
# 
# 
# High freq. dielectric constant tensor:
#      x y z
#    x 1.833470 0.000000 0.000000 
#    y 0.000000 1.828750 0.000000 
#    z 0.000000 0.000000 1.812940 
# 
# From -- ./inp_files/8569.got.cif
#   From: 2010.03.12/outbox.cif.g09.slc.cpg/sg51_5_cif.got.tgz:8569.got - 2010.04.16 13:43:02.
