data_PCOD8214303
_publ_section_title
;
Structure prediction by ZEFSAII (Michael W. Deem and Ramdas Pophale) SiO2 
 PCOD8214303
Probable space group: P M M A
;
_chemical_formula_sum "Si O2"
_cell_formula_units_Z 48
_cell_length_a 14.634612
_cell_length_b 8.627744
_cell_length_c 18.275876
_cell_angle_alpha 90.000000
_cell_angle_beta 90.000000
_cell_angle_gamma 90.000000
_cell_volume 2307.579466
_symmetry_space_group_name_H-M "P M M A"
_symmetry_group_IT_number 51
_symmetry_cell_setting 'orthorhombic'
loop_
_space_group_symop_operation_xyz
x,y,z
1/2-x,-y,z
1/2+x,-y,-z
-x,y,-z
-x,-y,-z
1/2+x,y,-z
1/2-x,y,z
x,-y,z
loop_
_atom_site_type_symbol
_atom_site_label
_atom_site_fract_x
_atom_site_fract_y
_atom_site_fract_z
Si Si1 0.604748 0.674650 0.980426
Si Si2 0.250000 0.820265 0.917140
Si Si3 0.448731 0.814843 0.427569
Si Si4 0.250000 0.682809 0.756465
Si Si5 0.919549 0.317787 0.817892
Si Si6 0.750000 0.832754 0.582349
Si Si7 0.439469 0.816626 0.714213
Si Si8 0.750000 0.830817 0.750503
O O1 0.644461 0.500000 0.985075
O O2 0.611160 0.740063 0.898093
O O3 0.500000 0.676765 0.000000
O O4 0.660526 0.782023 0.035469
O O5 0.250000 0.727760 0.841645
O O6 0.250000 0.000000 0.897066
O O7 0.500000 0.758663 0.500000
O O8 0.345474 0.743541 0.434925
O O9 0.503407 0.753678 0.356062
O O10 0.441330 0.000000 0.422239
O O11 0.250000 0.500000 0.750802
O O12 0.338107 0.747209 0.713800
O O13 0.938890 0.500000 0.818444
O O14 0.837918 0.272531 0.765199
O O15 0.011182 0.234591 0.789462
O O16 0.750000 0.869846 0.666862
O O17 0.750000 0.000000 0.540614
O O18 0.431737 0.000000 0.712155
O O19 0.750000 0.000000 0.791432
#
# Coordination Sequence:
#
# PCOD8214303 Si02
#       8
#     8   4   8   4   8   4   8   4
#     4  10  22  40  60  82 116 161 203 245 302 371
#     4  12  25  41  63  92 122 156 203 259 313 364
#     4   9  18  33  58  93 130 164 201 252 309 366
#     4  12  26  44  64  85 120 167 206 251 312 375
#     4  11  22  36  58  89 122 161 205 249 307 377
#     4   9  16  31  53  84 122 160 195 238 301 353
#     4  11  22  39  63  93 122 155 208 263 308 363
#     4  11  20  34  56  83 116 155 198 254 304 346
#
# _framework density 20.801017999999999
#
# number of rings (size 3 to 8) (size 9 to 14) (size 15 to 20)
#    0.000    1.500    1.667    4.250    0.000    5.667 
#    0.000    2.500    0.000    2.000    0.000    0.000 
#    0.000    0.000    0.000    0.000    0.000    0.000 
#
# Total GULP energy -595065.104549 kJ/mol
# GULP energy per Si atom -12397.189678 kJ/mol
# Density = 2.075367 g / cm^3
# Si number density = 20.801018 Si / 1000 Ang^3
#
#
#
# Elastic Constant Matrix: (Units=GPa)
#
#
# Indices 1 2 3 4 5 6 
#
# 1 176.1516 32.4123 55.3812 0.0000 0.0000 0.0000
# 2 32.4123 70.2779 24.5700 0.0000 0.0000 0.0000
# 3 55.3812 24.5700 100.7596 0.0000 0.0000 0.0000
# 4 0.0000 0.0000 0.0000 5.7320 0.0000 0.0000
# 5 0.0000 0.0000 0.0000 0.0000 36.2529 0.0000
# 6 0.0000 0.0000 0.0000 0.0000 0.0000 51.1278
#
#
#
# Elastic Compliance Matrix: (Units=1/GPa)
#
#
# Indices 1 2 3 4 5 6 
#
# 1 0.007135 -0.002099 -0.003410 0.000000 0.000000 0.000000
# 2 -0.002099 0.016173 -0.002790 0.000000 0.000000 0.000000
# 3 -0.003410 -0.002790 0.012479 0.000000 0.000000 0.000000
# 4 0.000000 0.000000 0.000000 0.174459 0.000000 0.000000
# 5 0.000000 0.000000 0.000000 0.000000 0.027584 0.000000
# 6 0.000000 0.000000 0.000000 0.000000 0.000000 0.019559
#
#
# Mechanical properties :
#
#
# Convention : Reuss Voigt Hill
#
# Bulk Modulus (GPa) = 52.11199 63.54624 57.82912
# Shear Modulus (GPa) = 17.83279 34.27757 26.05518
#
# Velocity S-wave (km/s) = 2.93115 4.06381 3.54304
# Velocity P-wave (km/s) = 6.04670 7.25502 6.67824
#
# Compressibility (1/GPa) = 0.01918944
#
# Stress axis : x y z
#
# Youngs Moduli (GPa) = 140.15099 61.83305 80.13290
#
# Poissons Ratio (x) = 0.12976 0.27325
# Poissons Ratio (y) = 0.29412 0.22359
# Poissons Ratio (z) = 0.47792 0.17253
#
# Static dielectric constant tensor:
#      x y z
#    x 4.065700 0.000000 0.000000 
#    y 0.000000 3.505170 0.000000 
#    z 0.000000 0.000000 4.022480 
# 
# 
# High freq. dielectric constant tensor:
#      x y z
#    x 1.835300 0.000000 0.000000 
#    y 0.000000 1.785100 0.000000 
#    z 0.000000 0.000000 1.811790 
# 
# From -- ./inp_files/29718.got.cif
#   From: 2010.03.12/outbox.cif.g09.slc.cpg/sg51_15_cif.got.tgz:29718.got - 2010.04.16 13:43:02.
