data_PCOD8214116
_publ_section_title
;
Structure prediction by ZEFSAII (Michael W. Deem and Ramdas Pophale) SiO2 
 PCOD8214116
Probable space group: P M M A
;
_chemical_formula_sum "Si O2"
_cell_formula_units_Z 40
_cell_length_a 8.697519
_cell_length_b 25.191096
_cell_length_c 9.226988
_cell_angle_alpha 90.000000
_cell_angle_beta 90.000000
_cell_angle_gamma 90.000000
_cell_volume 2021.633404
_symmetry_space_group_name_H-M "P M M A"
_symmetry_group_IT_number 51
_symmetry_cell_setting 'orthorhombic'
loop_
_space_group_symop_operation_xyz
x,y,z
1/2-x,-y,z
1/2+x,-y,-z
-x,y,-z
-x,-y,-z
1/2+x,y,-z
1/2-x,y,z
x,-y,z
loop_
_atom_site_type_symbol
_atom_site_label
_atom_site_fract_x
_atom_site_fract_y
_atom_site_fract_z
Si Si1 0.432262 0.756771 0.341699
Si Si2 0.431711 0.440515 0.346417
Si Si3 0.929219 0.061900 0.652616
Si Si4 0.930805 0.655376 0.843702
Si Si5 0.567819 0.148726 0.157653
O O1 0.500000 0.750505 0.500000
O O2 0.250000 0.764324 0.347743
O O3 0.481890 0.704436 0.254894
O O4 0.507372 0.807322 0.267248
O O5 0.500000 0.423614 0.500000
O O6 0.250000 0.436986 0.360521
O O7 0.485008 0.500000 0.302543
O O8 0.493664 0.399368 0.226431
O O9 0.750000 0.076102 0.651961
O O10 0.000000 0.080683 0.500000
O O11 0.012827 0.091671 0.784105
O O12 0.959398 0.000000 0.678149
O O13 0.750000 0.652885 0.859698
O O14 0.000000 0.663645 0.000000
O O15 0.750000 0.150418 0.148290
O O16 0.500000 0.159725 0.000000
#
# Coordination Sequence:
#
# PCOD8214116 Si02
#       5
#     8   8   8   8   8
#     4  11  23  40  61  85 113 147 190 235 283 339
#     4   9  18  34  55  80 110 144 185 231 278 331
#     4  10  21  39  63  90 120 155 195 237 282 334
#     4  10  22  37  55  81 113 148 185 230 282 336
#     4  12  25  41  61  86 118 153 191 236 287 340
#
# _framework density 19.785979999999999
#
# number of rings (size 3 to 8) (size 9 to 14) (size 15 to 20)
#    0.000    1.600    0.000    4.800    0.000    6.000 
#    0.000    0.000    0.000    0.000    0.000    0.000 
#    0.000    0.000    0.000    0.000    0.000    0.000 
#
# Total GULP energy -496187.495097 kJ/mol
# GULP energy per Si atom -12404.687377 kJ/mol
# Density = 1.974095 g / cm^3
# Si number density = 19.785980 Si / 1000 Ang^3
#
#
#
# Elastic Constant Matrix: (Units=GPa)
#
#
# Indices 1 2 3 4 5 6 
#
# 1 91.2170 49.7607 57.4782 0.0000 0.0000 0.0000
# 2 49.7607 116.1801 75.7001 0.0000 0.0000 0.0000
# 3 57.4782 75.7001 163.3278 0.0000 0.0000 0.0000
# 4 0.0000 0.0000 0.0000 34.8407 0.0000 0.0000
# 5 0.0000 0.0000 0.0000 0.0000 39.8549 0.0000
# 6 0.0000 0.0000 0.0000 0.0000 0.0000 15.5044
#
#
#
# Elastic Compliance Matrix: (Units=1/GPa)
#
#
# Indices 1 2 3 4 5 6 
#
# 1 0.015529 -0.004427 -0.003413 0.000000 0.000000 0.000000
# 2 -0.004427 0.013594 -0.004742 0.000000 0.000000 0.000000
# 3 -0.003413 -0.004742 0.009522 0.000000 0.000000 0.000000
# 4 0.000000 0.000000 0.000000 0.028702 0.000000 0.000000
# 5 0.000000 0.000000 0.000000 0.000000 0.025091 0.000000
# 6 0.000000 0.000000 0.000000 0.000000 0.000000 0.064498
#
#
# Mechanical properties :
#
#
# Convention : Reuss Voigt Hill
#
# Bulk Modulus (GPa) = 74.19007 81.84475 78.01741
# Shear Modulus (GPa) = 26.79633 30.55907 28.67770
#
# Velocity S-wave (km/s) = 3.68409 3.93425 3.81122
# Velocity P-wave (km/s) = 7.46152 7.87989 7.67356
#
# Compressibility (1/GPa) = 0.01347889
#
# Stress axis : x y z
#
# Youngs Moduli (GPa) = 64.39765 73.56422 105.02308
#
# Poissons Ratio (x) = 0.32569 0.35842
# Poissons Ratio (y) = 0.28510 0.49806
# Poissons Ratio (z) = 0.21978 0.34887
#
# Static dielectric constant tensor:
#      x y z
#    x 3.638210 0.000000 0.000000 
#    y 0.000000 3.913960 0.000000 
#    z 0.000000 0.000000 3.583170 
# 
# 
# High freq. dielectric constant tensor:
#      x y z
#    x 1.775620 0.000000 0.000000 
#    y 0.000000 1.788470 0.000000 
#    z 0.000000 0.000000 1.777340 
# 
# From -- ./inp_files/5193.got.cif
#   From: 2010.03.12/outbox.cif.g09.slc.cpg/sg51_3_cif.got.tgz:5193.got - 2010.04.16 13:43:02.
