data_PCOD8214251
_publ_section_title
;
Structure prediction by ZEFSAII (Michael W. Deem and Ramdas Pophale) SiO2 
 PCOD8214251
Probable space group: P M M A
;
_chemical_formula_sum "Si O2"
_cell_formula_units_Z 56
_cell_length_a 15.034954
_cell_length_b 13.984484
_cell_length_c 12.286692
_cell_angle_alpha 90.000000
_cell_angle_beta 90.000000
_cell_angle_gamma 90.000000
_cell_volume 2583.351618
_symmetry_space_group_name_H-M "P M M A"
_symmetry_group_IT_number 51
_symmetry_cell_setting 'orthorhombic'
loop_
_space_group_symop_operation_xyz
x,y,z
1/2-x,-y,z
1/2+x,-y,-z
-x,y,-z
-x,-y,-z
1/2+x,y,-z
1/2-x,y,z
x,-y,z
loop_
_atom_site_type_symbol
_atom_site_label
_atom_site_fract_x
_atom_site_fract_y
_atom_site_fract_z
Si Si1 0.149289 0.237184 0.815078
Si Si2 0.104522 0.890685 0.009621
Si Si3 0.149727 0.105726 0.627086
Si Si4 0.909327 0.229673 0.562985
Si Si5 0.852007 0.890240 0.749345
Si Si6 0.649289 0.390763 0.710285
Si Si7 0.492282 0.388372 0.874113
O O1 0.250000 0.269320 0.785263
O O2 0.153369 0.178239 0.926253
O O3 0.105321 0.168949 0.722527
O O4 0.089222 0.331673 0.820582
O O5 0.134427 0.000000 0.988027
O O6 0.134788 0.855627 0.127853
O O7 0.000000 0.878744 0.000000
O O8 0.250000 0.087662 0.663123
O O9 0.151246 0.165314 0.515364
O O10 0.103611 0.000000 0.614555
O O11 0.919856 0.168362 0.673519
O O12 0.867673 0.330687 0.599601
O O13 0.000000 0.249184 0.500000
O O14 0.750000 0.870863 0.713938
O O15 0.878378 0.000000 0.738000
O O16 0.750000 0.371804 0.751753
O O17 0.635565 0.500000 0.675323
O O18 0.583243 0.363711 0.809465
O O19 0.469300 0.500000 0.865499
O O20 0.500000 0.356631 0.000000
#
# Coordination Sequence:
#
# PCOD8214251 Si02
#       7
#     8   8   8   8   8   8   8
#     4  11  23  39  63  94 131 177 225 269 328 399
#     4  10  22  38  60  91 131 174 223 277 333 394
#     4  10  22  40  60  86 125 170 213 258 311 377
#     4  12  25  39  62  92 127 166 213 269 327 393
#     4  10  22  40  61  89 126 170 221 273 324 385
#     4  10  23  45  72 100 129 167 220 278 337 400
#     4  10  23  43  66  95 132 169 213 272 336 400
#
# _framework density 21.677267000000001
#
# number of rings (size 3 to 8) (size 9 to 14) (size 15 to 20)
#    0.000    1.571    0.000    3.857    6.000    4.857 
#    0.000    2.143    0.000    0.857    0.000    0.000 
#    0.000    0.000    0.000    0.000    0.000    0.000 
#
# Total GULP energy -694328.560076 kJ/mol
# GULP energy per Si atom -12398.724287 kJ/mol
# Density = 2.162793 g / cm^3
# Si number density = 21.677267 Si / 1000 Ang^3
#
#
#
# Elastic Constant Matrix: (Units=GPa)
#
#
# Indices 1 2 3 4 5 6 
#
# 1 107.7480 49.0354 44.0582 0.0000 0.0000 0.0000
# 2 49.0354 132.2156 74.0127 0.0000 0.0000 0.0000
# 3 44.0582 74.0127 130.1347 0.0000 0.0000 0.0000
# 4 0.0000 0.0000 0.0000 34.2815 0.0000 0.0000
# 5 0.0000 0.0000 0.0000 0.0000 37.6616 0.0000
# 6 0.0000 0.0000 0.0000 0.0000 0.0000 20.8541
#
#
#
# Elastic Compliance Matrix: (Units=1/GPa)
#
#
# Indices 1 2 3 4 5 6 
#
# 1 0.011567 -0.003078 -0.002166 0.000000 0.000000 0.000000
# 2 -0.003078 0.011915 -0.005735 0.000000 0.000000 0.000000
# 3 -0.002166 -0.005735 0.011679 0.000000 0.000000 0.000000
# 4 0.000000 0.000000 0.000000 0.029170 0.000000 0.000000
# 5 0.000000 0.000000 0.000000 0.000000 0.026552 0.000000
# 6 0.000000 0.000000 0.000000 0.000000 0.000000 0.047952
#
#
# Mechanical properties :
#
#
# Convention : Reuss Voigt Hill
#
# Bulk Modulus (GPa) = 75.72747 78.25677 76.99212
# Shear Modulus (GPa) = 30.26757 32.09224 31.17991
#
# Velocity S-wave (km/s) = 3.74074 3.85184 3.79670
# Velocity P-wave (km/s) = 7.32580 7.48074 7.40368
#
# Compressibility (1/GPa) = 0.01320525
#
# Stress axis : x y z
#
# Youngs Moduli (GPa) = 86.45219 83.92844 85.62330
#
# Poissons Ratio (x) = 0.25829 0.18544
# Poissons Ratio (y) = 0.26606 0.49101
# Poissons Ratio (z) = 0.18724 0.48129
#
# Static dielectric constant tensor:
#      x y z
#    x 3.778440 0.000000 0.000000 
#    y 0.000000 4.066950 0.000000 
#    z 0.000000 0.000000 3.970500 
# 
# 
# High freq. dielectric constant tensor:
#      x y z
#    x 1.849460 0.000000 0.000000 
#    y 0.000000 1.856950 0.000000 
#    z 0.000000 0.000000 1.853340 
# 
# From -- ./inp_files/16681.got.cif
#   From: 2010.03.12/outbox.cif.g09.slc.cpg/sg51_9_cif.got.tgz:16681.got - 2010.04.16 13:43:02.
