data_PCOD8214454
_publ_section_title
;
Structure prediction by ZEFSAII (Michael W. Deem and Ramdas Pophale) SiO2 
 PCOD8214454
Probable space group: P M M A
;
_chemical_formula_sum "Si O2"
_cell_formula_units_Z 64
_cell_length_a 13.999537
_cell_length_b 9.466179
_cell_length_c 30.997878
_cell_angle_alpha 90.000000
_cell_angle_beta 90.000000
_cell_angle_gamma 90.000000
_cell_volume 4107.904606
_symmetry_space_group_name_H-M "P M M A"
_symmetry_group_IT_number 51
_symmetry_cell_setting 'orthorhombic'
loop_
_space_group_symop_operation_xyz
x,y,z
1/2-x,-y,z
1/2+x,-y,-z
-x,y,-z
-x,-y,-z
1/2+x,y,-z
1/2-x,y,z
x,-y,z
loop_
_atom_site_type_symbol
_atom_site_label
_atom_site_fract_x
_atom_site_fract_y
_atom_site_fract_z
Si Si1 0.027712 0.167243 0.401480
Si Si2 0.859740 0.666497 0.859137
Si Si3 0.140156 0.164406 0.316382
Si Si4 0.637696 0.658579 0.529374
Si Si5 0.540242 0.167258 0.932828
Si Si6 0.136618 0.344046 0.237121
Si Si7 0.641031 0.337665 0.430359
Si Si8 0.855637 0.832751 0.018710
O O1 0.080562 0.212504 0.357787
O O2 0.086540 0.225166 0.441899
O O3 0.923105 0.237300 0.400400
O O4 0.018795 0.000000 0.406109
O O5 0.750000 0.712343 0.867168
O O6 0.871115 0.500000 0.866904
O O7 0.929778 0.751663 0.890064
O O8 0.893056 0.707295 0.810660
O O9 0.250000 0.207016 0.324808
O O10 0.097179 0.240626 0.274110
O O11 0.129702 0.000000 0.307517
O O12 0.750000 0.678502 0.534475
O O13 0.607721 0.500000 0.543925
O O14 0.607818 0.681653 0.479805
O O15 0.431415 0.213071 0.944602
O O16 0.547908 0.000000 0.925029
O O17 0.609013 0.217433 0.971694
O O18 0.250000 0.349322 0.238632
O O19 0.094834 0.500000 0.246097
O O20 0.750000 0.289432 0.424356
O O21 0.628326 0.500000 0.416276
O O22 0.750000 0.768896 0.028285
O O23 0.851254 0.000000 0.017882
#
# Coordination Sequence:
#
# PCOD8214454 Si02
#       8
#     8   8   8   8   8   8   8   8
#     4  11  21  30  44  68  94 117 141 173 216 261
#     4   9  17  28  41  60  88 115 136 168 215 255
#     4   9  18  31  44  62  91 119 139 165 204 250
#     4   9  18  32  48  65  87 117 150 180 209 245
#     4   9  16  25  41  63  81 107 149 183 207 245
#     4   8  15  28  44  61  82 110 141 169 203 251
#     4   9  19  35  50  63  83 113 150 188 217 244
#     4   8  14  25  39  57  85 115 142 178 217 246
#
# _framework density 15.579719000000001
#
# number of rings (size 3 to 8) (size 9 to 14) (size 15 to 20)
#    0.000    3.000    0.000    3.750    0.000    5.250 
#    0.000    5.000    0.000    1.125    0.000    0.875 
#    0.000    3.000    0.000    0.000    0.000    0.000 
#
# Total GULP energy -793361.540176 kJ/mol
# GULP energy per Si atom -12396.274065 kJ/mol
# Density = 1.554426 g / cm^3
# Si number density = 15.579719 Si / 1000 Ang^3
#
#
#
# Elastic Constant Matrix: (Units=GPa)
#
#
# Indices 1 2 3 4 5 6 
#
# 1 83.2759 38.4098 60.1938 0.0000 0.0000 0.0000
# 2 38.4098 57.0883 54.5066 0.0000 0.0000 0.0000
# 3 60.1938 54.5066 106.0886 0.0000 0.0000 0.0000
# 4 0.0000 0.0000 0.0000 21.8781 0.0000 0.0000
# 5 0.0000 0.0000 0.0000 0.0000 22.3559 0.0000
# 6 0.0000 0.0000 0.0000 0.0000 0.0000 22.2739
#
#
#
# Elastic Compliance Matrix: (Units=1/GPa)
#
#
# Indices 1 2 3 4 5 6 
#
# 1 0.021188 -0.005452 -0.009221 0.000000 0.000000 0.000000
# 2 -0.005452 0.035786 -0.015293 0.000000 0.000000 0.000000
# 3 -0.009221 -0.015293 0.022515 0.000000 0.000000 0.000000
# 4 0.000000 0.000000 0.000000 0.045708 0.000000 0.000000
# 5 0.000000 0.000000 0.000000 0.000000 0.044731 0.000000
# 6 0.000000 0.000000 0.000000 0.000000 0.000000 0.044896
#
#
# Mechanical properties :
#
#
# Convention : Reuss Voigt Hill
#
# Bulk Modulus (GPa) = 51.12975 61.40814 56.26894
# Shear Modulus (GPa) = 17.77623 19.52441 18.65032
#
# Velocity S-wave (km/s) = 3.38151 3.54389 3.46365
# Velocity P-wave (km/s) = 6.93798 7.49977 7.22434
#
# Compressibility (1/GPa) = 0.01955809
#
# Stress axis : x y z
#
# Youngs Moduli (GPa) = 47.19700 27.94364 44.41412
#
# Poissons Ratio (x) = 0.15234 0.40954
# Poissons Ratio (y) = 0.25730 0.67924
# Poissons Ratio (z) = 0.43520 0.42735
#
# Static dielectric constant tensor:
#      x y z
#    x 3.056300 0.000000 0.000000 
#    y 0.000000 2.858280 0.000000 
#    z 0.000000 0.000000 2.974970 
# 
# 
# High freq. dielectric constant tensor:
#      x y z
#    x 1.581990 0.000000 0.000000 
#    y 0.000000 1.587080 0.000000 
#    z 0.000000 0.000000 1.585690 
# 
# From -- ./inp_files/37812.got.cif
#   From: 2010.03.12/outbox.cif.g09.slc.cpg/sg51_19_cif.got.tgz:37812.got - 2010.04.16 13:43:02.
