data_PCOD8214470
_publ_section_title
;
Structure prediction by ZEFSAII (Michael W. Deem and Ramdas Pophale) SiO2 
 PCOD8214470
Probable space group: P M M A
;
_chemical_formula_sum "Si O2"
_cell_formula_units_Z 48
_cell_length_a 9.015889
_cell_length_b 23.860116
_cell_length_c 13.690049
_cell_angle_alpha 90.000000
_cell_angle_beta 90.000000
_cell_angle_gamma 90.000000
_cell_volume 2945.005495
_symmetry_space_group_name_H-M "P M M A"
_symmetry_group_IT_number 51
_symmetry_cell_setting 'orthorhombic'
loop_
_space_group_symop_operation_xyz
x,y,z
1/2-x,-y,z
1/2+x,-y,-z
-x,y,-z
-x,-y,-z
1/2+x,y,-z
1/2-x,y,z
x,-y,z
loop_
_atom_site_type_symbol
_atom_site_label
_atom_site_fract_x
_atom_site_fract_y
_atom_site_fract_z
Si Si1 0.076904 0.937813 0.099886
Si Si2 0.576586 0.563038 0.599548
Si Si3 0.076025 0.665864 0.273910
Si Si4 0.923351 0.171907 0.794226
Si Si5 0.573235 0.273356 0.102773
Si Si6 0.079430 0.229260 0.400238
O O1 0.250000 0.937542 0.078559
O O2 0.035600 0.892555 0.182786
O O3 0.024456 0.000000 0.133849
O O4 0.000000 0.919585 0.000000
O O5 0.500000 0.582745 0.500000
O O6 0.750000 0.566780 0.579561
O O7 0.527393 0.500000 0.628575
O O8 0.531786 0.604186 0.687926
O O9 0.250000 0.670867 0.247500
O O10 0.034377 0.709820 0.359155
O O11 0.979720 0.678847 0.178365
O O12 0.750000 0.185163 0.813932
O O13 0.962495 0.182693 0.681054
O O14 0.018763 0.212232 0.863342
O O15 0.750000 0.273696 0.094272
O O16 0.500000 0.288570 0.000000
O O17 0.250000 0.227538 0.426166
O O18 0.000000 0.214230 0.500000
#
# Coordination Sequence:
#
# PCOD8214470 Si02
#       6
#     8   8   8   8   8   8
#     4   9  17  29  46  67  90 117 148 182 222 268
#     4   9  17  29  47  71  98 127 156 188 227 270
#     4   9  18  32  47  66  94 123 152 187 226 267
#     4   9  18  32  47  66  93 121 150 185 225 268
#     4  11  21  32  48  69  92 119 151 186 227 273
#     4   9  17  28  43  63  88 118 149 184 222 261
#
# _framework density 16.298781999999999
#
# number of rings (size 3 to 8) (size 9 to 14) (size 15 to 20)
#    0.000    2.667    0.000    3.500    0.000    5.333 
#    0.000    0.000    0.000    1.000    0.000    0.000 
#    0.000    0.000    0.000    0.000    0.000    0.333 
#
# Total GULP energy -595103.537613 kJ/mol
# GULP energy per Si atom -12397.990367 kJ/mol
# Density = 1.626169 g / cm^3
# Si number density = 16.298782 Si / 1000 Ang^3
#
#
#
# Elastic Constant Matrix: (Units=GPa)
#
#
# Indices 1 2 3 4 5 6 
#
# 1 64.9999 39.0140 54.5242 0.0000 0.0000 0.0000
# 2 39.0140 114.8081 70.7129 0.0000 0.0000 0.0000
# 3 54.5242 70.7129 129.0069 0.0000 0.0000 0.0000
# 4 0.0000 0.0000 0.0000 23.5757 0.0000 0.0000
# 5 0.0000 0.0000 0.0000 0.0000 30.6191 0.0000
# 6 0.0000 0.0000 0.0000 0.0000 0.0000 19.3077
#
#
#
# Elastic Compliance Matrix: (Units=1/GPa)
#
#
# Indices 1 2 3 4 5 6 
#
# 1 0.024474 -0.002937 -0.008734 0.000000 0.000000 0.000000
# 2 -0.002937 0.013502 -0.006159 0.000000 0.000000 0.000000
# 3 -0.008734 -0.006159 0.014819 0.000000 0.000000 0.000000
# 4 0.000000 0.000000 0.000000 0.042417 0.000000 0.000000
# 5 0.000000 0.000000 0.000000 0.000000 0.032659 0.000000
# 6 0.000000 0.000000 0.000000 0.000000 0.000000 0.051793
#
#
# Mechanical properties :
#
#
# Convention : Reuss Voigt Hill
#
# Bulk Modulus (GPa) = 58.36406 70.81301 64.58853
# Shear Modulus (GPa) = 22.62075 24.33810 23.47943
#
# Velocity S-wave (km/s) = 3.72947 3.86845 3.79959
# Velocity P-wave (km/s) = 7.37779 7.96833 7.67874
#
# Compressibility (1/GPa) = 0.01713383
#
# Stress axis : x y z
#
# Youngs Moduli (GPa) = 40.86002 74.06239 67.48110
#
# Poissons Ratio (x) = 0.21755 0.58936
# Poissons Ratio (y) = 0.12002 0.41565
# Poissons Ratio (z) = 0.35686 0.45619
#
# Static dielectric constant tensor:
#      x y z
#    x 2.993500 0.000000 0.000000 
#    y 0.000000 3.269670 0.000000 
#    z 0.000000 0.000000 3.077940 
# 
# 
# High freq. dielectric constant tensor:
#      x y z
#    x 1.624850 0.000000 0.000000 
#    y 0.000000 1.621080 0.000000 
#    z 0.000000 0.000000 1.615430 
# 
# From -- ./inp_files/14430.got.cif
#   From: 2010.03.12/outbox.cif.g09.slc.cpg/sg51_8_cif.got.tgz:14430.got - 2010.04.16 13:43:02.
