data_PCOD8214195
_publ_section_title
;
Structure prediction by ZEFSAII (Michael W. Deem and Ramdas Pophale) SiO2 
 PCOD8214195
Probable space group: P M M A
;
_chemical_formula_sum "Si O2"
_cell_formula_units_Z 48
_cell_length_a 17.119817
_cell_length_b 15.050409
_cell_length_c 9.286250
_cell_angle_alpha 90.000000
_cell_angle_beta 90.000000
_cell_angle_gamma 90.000000
_cell_volume 2392.697477
_symmetry_space_group_name_H-M "P M M A"
_symmetry_group_IT_number 51
_symmetry_cell_setting 'orthorhombic'
loop_
_space_group_symop_operation_xyz
x,y,z
1/2-x,-y,z
1/2+x,-y,-z
-x,y,-z
-x,-y,-z
1/2+x,y,-z
1/2-x,y,z
x,-y,z
loop_
_atom_site_type_symbol
_atom_site_label
_atom_site_fract_x
_atom_site_fract_y
_atom_site_fract_z
Si Si1 0.918217 0.397908 0.427484
Si Si2 0.837914 0.265044 0.221926
Si Si3 0.605326 0.898181 0.376140
Si Si4 0.071260 0.898642 0.299104
Si Si5 0.157332 0.239445 0.106129
Si Si6 0.159544 0.403671 0.284170
O O1 0.920691 0.500000 0.373745
O O2 0.897799 0.334824 0.293432
O O3 0.852305 0.381787 0.547846
O O4 0.000000 0.369688 0.500000
O O5 0.750000 0.304352 0.224476
O O6 0.835790 0.170082 0.301839
O O7 0.865810 0.248136 0.059700
O O8 0.610399 0.880113 0.546462
O O9 0.520052 0.877065 0.312564
O O10 0.629307 0.000000 0.342604
O O11 0.111952 0.842940 0.174125
O O12 0.083596 0.000000 0.253857
O O13 0.250000 0.226355 0.129178
O O14 0.123787 0.327665 0.183836
O O15 0.250000 0.409939 0.251065
O O16 0.119975 0.500000 0.249371
#
# Coordination Sequence:
#
# PCOD8214195 Si02
#       6
#     8   8   8   8   8   8
#     4  10  22  39  60  87 116 149 193 243 290 342
#     4  11  24  38  57  87 120 156 193 237 295 352
#     4   9  20  38  60  86 114 149 197 247 291 341
#     4   9  19  37  60  84 112 151 196 240 290 346
#     4  10  22  37  54  84 122 157 194 235 289 354
#     4   9  18  35  58  80 107 148 192 232 277 334
#
# _framework density 20.061042
#
# number of rings (size 3 to 8) (size 9 to 14) (size 15 to 20)
#    0.000    2.333    0.000    2.500    4.667    5.667 
#    0.000    6.667    0.000    3.000    0.000    0.000 
#    0.000    0.000    0.000    0.000    0.000    0.000 
#
# Total GULP energy -595151.765999 kJ/mol
# GULP energy per Si atom -12398.995125 kJ/mol
# Density = 2.001538 g / cm^3
# Si number density = 20.061042 Si / 1000 Ang^3
#
#
#
# Elastic Constant Matrix: (Units=GPa)
#
#
# Indices 1 2 3 4 5 6 
#
# 1 52.5764 40.3888 41.3527 0.0000 0.0000 0.0000
# 2 40.3888 126.1767 78.8790 0.0000 0.0000 0.0000
# 3 41.3527 78.8790 130.0964 0.0000 0.0000 0.0000
# 4 0.0000 0.0000 0.0000 15.9749 0.0000 0.0000
# 5 0.0000 0.0000 0.0000 0.0000 31.9757 0.0000
# 6 0.0000 0.0000 0.0000 0.0000 0.0000 24.5829
#
#
#
# Elastic Compliance Matrix: (Units=1/GPa)
#
#
# Indices 1 2 3 4 5 6 
#
# 1 0.027444 -0.005365 -0.005471 0.000000 0.000000 0.000000
# 2 -0.005365 0.013812 -0.006669 0.000000 0.000000 0.000000
# 3 -0.005471 -0.006669 0.013469 0.000000 0.000000 0.000000
# 4 0.000000 0.000000 0.000000 0.062598 0.000000 0.000000
# 5 0.000000 0.000000 0.000000 0.000000 0.031274 0.000000
# 6 0.000000 0.000000 0.000000 0.000000 0.000000 0.040679
#
#
# Mechanical properties :
#
#
# Convention : Reuss Voigt Hill
#
# Bulk Modulus (GPa) = 50.72052 70.01005 60.36529
# Shear Modulus (GPa) = 21.65851 24.38862 23.02356
#
# Velocity S-wave (km/s) = 3.28934 3.49050 3.39141
# Velocity P-wave (km/s) = 6.30589 7.15675 6.74475
#
# Compressibility (1/GPa) = 0.01971588
#
# Stress axis : x y z
#
# Youngs Moduli (GPa) = 36.43792 72.40233 74.24451
#
# Poissons Ratio (x) = 0.38842 0.40617
# Poissons Ratio (y) = 0.19548 0.49513
# Poissons Ratio (z) = 0.19934 0.48285
#
# Static dielectric constant tensor:
#      x y z
#    x 3.429030 0.000000 0.000000 
#    y 0.000000 3.847790 0.000000 
#    z 0.000000 0.000000 3.532830 
# 
# 
# High freq. dielectric constant tensor:
#      x y z
#    x 1.770000 0.000000 0.000000 
#    y 0.000000 1.794810 0.000000 
#    z 0.000000 0.000000 1.773290 
# 
# From -- ./inp_files/9569.got.cif
#   From: 2010.03.12/outbox.cif.g09.slc.cpg/sg51_5_cif.got.tgz:9569.got - 2010.04.16 13:43:02.
