data_PCOD8214419
_publ_section_title
;
Structure prediction by ZEFSAII (Michael W. Deem and Ramdas Pophale) SiO2 
 PCOD8214419
Probable space group: P M M A
;
_chemical_formula_sum "Si O2"
_cell_formula_units_Z 56
_cell_length_a 16.531987
_cell_length_b 14.097271
_cell_length_c 14.645080
_cell_angle_alpha 90.000000
_cell_angle_beta 90.000000
_cell_angle_gamma 90.000000
_cell_volume 3413.122313
_symmetry_space_group_name_H-M "P M M A"
_symmetry_group_IT_number 51
_symmetry_cell_setting 'orthorhombic'
loop_
_space_group_symop_operation_xyz
x,y,z
1/2-x,-y,z
1/2+x,-y,-z
-x,y,-z
-x,-y,-z
1/2+x,y,-z
1/2-x,y,z
x,-y,z
loop_
_atom_site_type_symbol
_atom_site_label
_atom_site_fract_x
_atom_site_fract_y
_atom_site_fract_z
Si Si1 0.840123 0.606041 0.345056
Si Si2 0.073897 0.715102 0.805501
Si Si3 0.113142 0.293373 0.164143
Si Si4 0.750000 0.614205 0.717581
Si Si5 0.250000 0.388414 0.486738
Si Si6 0.905065 0.393333 0.017372
Si Si7 0.844287 0.890615 0.121414
Si Si8 0.345249 0.103134 0.084438
O O1 0.750000 0.605699 0.300883
O O2 0.877558 0.500000 0.338207
O O3 0.896742 0.679179 0.292545
O O4 0.830047 0.638102 0.452299
O O5 0.117154 0.658007 0.887883
O O6 0.098815 0.825381 0.814719
O O7 0.979067 0.693462 0.807324
O O8 0.169316 0.343439 0.238249
O O9 0.127421 0.180708 0.157738
O O10 0.136754 0.339219 0.066718
O O11 0.750000 0.500000 0.724730
O O12 0.750000 0.655422 0.614024
O O13 0.250000 0.500000 0.474459
O O14 0.871045 0.500000 0.021784
O O15 0.000000 0.392624 0.000000
O O16 0.750000 0.862949 0.133356
O O17 0.857594 0.000000 0.149545
O O18 0.875500 0.873119 0.017951
O O19 0.250000 0.097259 0.079909
O O20 0.379886 0.000000 0.114771
#
# Coordination Sequence:
#
# PCOD8214419 Si02
#       8
#     8   8   8   4   4   8   8   8
#     4   8  16  32  53  75  96 123 163 203 248 304
#     4  11  19  29  50  74 103 136 167 208 244 292
#     4  11  21  32  47  74 101 134 177 205 244 299
#     4  11  22  38  54  70  99 134 168 214 261 301
#     4   7  16  36  57  72  93 126 161 210 264 305
#     4   9  18  30  41  61 100 140 167 196 236 284
#     4   9  18  31  48  72 103 139 174 208 249 292
#     4   9  17  32  50  66  95 138 180 217 241 274
#
# _framework density 16.407264000000001
#
# number of rings (size 3 to 8) (size 9 to 14) (size 15 to 20)
#    0.429    2.143    2.143    2.143    0.000    2.286 
#    1.286    2.143    0.000    2.571    0.000    2.000 
#    0.000    2.286    0.000    0.000    0.000    0.000 
#
# Total GULP energy -693950.961807 kJ/mol
# GULP energy per Si atom -12391.981461 kJ/mol
# Density = 1.636992 g / cm^3
# Si number density = 16.407264 Si / 1000 Ang^3
#
#
#
# Elastic Constant Matrix: (Units=GPa)
#
#
# Indices 1 2 3 4 5 6 
#
# 1 57.5433 30.5780 40.3648 0.0000 0.0000 0.0000
# 2 30.5780 106.4632 51.4060 0.0000 0.0000 0.0000
# 3 40.3648 51.4060 111.2461 0.0000 0.0000 0.0000
# 4 0.0000 0.0000 0.0000 15.2742 0.0000 0.0000
# 5 0.0000 0.0000 0.0000 0.0000 15.5974 0.0000
# 6 0.0000 0.0000 0.0000 0.0000 0.0000 20.3030
#
#
#
# Elastic Compliance Matrix: (Units=1/GPa)
#
#
# Indices 1 2 3 4 5 6 
#
# 1 0.024285 -0.003502 -0.007194 0.000000 0.000000 0.000000
# 2 -0.003502 0.012595 -0.004550 0.000000 0.000000 0.000000
# 3 -0.007194 -0.004550 0.013702 0.000000 0.000000 0.000000
# 4 0.000000 0.000000 0.000000 0.065470 0.000000 0.000000
# 5 0.000000 0.000000 0.000000 0.000000 0.064113 0.000000
# 6 0.000000 0.000000 0.000000 0.000000 0.000000 0.049254
#
#
# Mechanical properties :
#
#
# Convention : Reuss Voigt Hill
#
# Bulk Modulus (GPa) = 49.77045 57.77224 53.77134
# Shear Modulus (GPa) = 18.75427 20.42852 19.59140
#
# Velocity S-wave (km/s) = 3.38457 3.53241 3.45928
# Velocity P-wave (km/s) = 6.75825 7.20590 6.98566
#
# Compressibility (1/GPa) = 0.02009225
#
# Stress axis : x y z
#
# Youngs Moduli (GPa) = 41.17772 79.39346 72.98413
#
# Poissons Ratio (x) = 0.27801 0.52501
# Poissons Ratio (y) = 0.14419 0.33206
# Poissons Ratio (z) = 0.29621 0.36122
#
# Static dielectric constant tensor:
#      x y z
#    x 2.844050 0.000000 0.000000 
#    y 0.000000 2.797760 0.000000 
#    z 0.000000 0.000000 3.032190 
# 
# 
# High freq. dielectric constant tensor:
#      x y z
#    x 1.615600 0.000000 0.000000 
#    y 0.000000 1.632940 0.000000 
#    z 0.000000 0.000000 1.596490 
# 
# From -- ./inp_files/25297.got.cif
#   From: 2010.03.12/outbox.cif.g09.slc.cpg/sg51_13_cif.got.tgz:25297.got - 2010.04.16 13:43:02.
