data_PCOD8214684
_publ_section_title
;
Structure prediction by ZEFSAII (Michael W. Deem and Ramdas Pophale) SiO2 
 PCOD8214684
Probable space group: P M M A
;
_chemical_formula_sum "Si O2"
_cell_formula_units_Z 48
_cell_length_a 13.980335
_cell_length_b 9.334438
_cell_length_c 23.983451
_cell_angle_alpha 90.000000
_cell_angle_beta 90.000000
_cell_angle_gamma 90.000000
_cell_volume 3129.806066
_symmetry_space_group_name_H-M "P M M A"
_symmetry_group_IT_number 51
_symmetry_cell_setting 'orthorhombic'
loop_
_space_group_symop_operation_xyz
x,y,z
1/2-x,-y,z
1/2+x,-y,-z
-x,y,-z
-x,-y,-z
1/2+x,y,-z
1/2-x,y,z
x,-y,z
loop_
_atom_site_type_symbol
_atom_site_label
_atom_site_fract_x
_atom_site_fract_y
_atom_site_fract_z
Si Si1 0.960162 0.830479 0.086704
Si Si2 0.644262 0.830160 0.976169
Si Si3 0.860665 0.667550 0.183356
Si Si4 0.856397 0.670255 0.308100
Si Si5 0.144496 0.670558 0.476784
Si Si6 0.036769 0.670456 0.585622
O O1 0.930246 0.754059 0.143197
O O2 0.068830 0.782731 0.071362
O O3 0.953136 0.000000 0.095300
O O4 0.890770 0.777974 0.036911
O O5 0.750000 0.766110 0.963603
O O6 0.647786 0.000000 0.977493
O O7 0.750000 0.705663 0.171502
O O8 0.878520 0.500000 0.174439
O O9 0.888929 0.715661 0.246104
O O10 0.750000 0.729922 0.320440
O O11 0.853204 0.500000 0.311248
O O12 0.929051 0.733211 0.354678
O O13 0.250000 0.734340 0.464835
O O14 0.147714 0.500000 0.477080
O O15 0.108375 0.724371 0.537175
O O16 0.070944 0.723679 0.428694
O O17 0.038640 0.500000 0.587347
#
# Coordination Sequence:
#
# PCOD8214684 Si02
#       6
#     8   8   8   8   8   8
#     4   9  16  26  43  63  78  97 125 154 185 220
#     4   8  14  25  41  61  82 100 120 149 185 225
#     4   9  17  27  38  54  77 103 128 155 187 221
#     4   8  13  21  32  44  60  87 120 146 171 211
#     4   8  12  16  23  38  58  77 102 140 180 212
#     4   8  12  17  26  39  55  79 110 141 172 207
#
# _framework density 15.336414
#
# number of rings (size 3 to 8) (size 9 to 14) (size 15 to 20)
#    0.000    3.667    0.000    4.000    0.000    3.000 
#    0.000    1.667    0.000    2.500    0.000    2.333 
#    0.000    0.000    0.000    3.000    0.000    9.333 
#
# Total GULP energy -594677.858830 kJ/mol
# GULP energy per Si atom -12389.122059 kJ/mol
# Density = 1.530151 g / cm^3
# Si number density = 15.336414 Si / 1000 Ang^3
#
#
#
# Elastic Constant Matrix: (Units=GPa)
#
#
# Indices 1 2 3 4 5 6 
#
# 1 147.9413 17.9773 85.2949 0.0000 0.0000 0.0000
# 2 17.9773 12.2879 21.5085 0.0000 0.0000 0.0000
# 3 85.2949 21.5085 137.0154 0.0000 0.0000 0.0000
# 4 0.0000 0.0000 0.0000 -3.1484 0.0000 0.0000
# 5 0.0000 0.0000 0.0000 0.0000 28.0237 0.0000
# 6 0.0000 0.0000 0.0000 0.0000 0.0000 10.4260
#
#
#
# Elastic Compliance Matrix: (Units=1/GPa)
#
#
# Indices 1 2 3 4 5 6 
#
# 1 0.010813 -0.005567 -0.005857 0.000000 0.000000 0.000000
# 2 -0.005567 0.115081 -0.014600 0.000000 0.000000 0.000000
# 3 -0.005857 -0.014600 0.013237 0.000000 0.000000 0.000000
# 4 0.000000 0.000000 0.000000 -0.317626 0.000000 0.000000
# 5 0.000000 0.000000 0.000000 0.000000 0.035684 0.000000
# 6 0.000000 0.000000 0.000000 0.000000 0.000000 0.095914
#
#
# Mechanical properties :
#
#
# Convention : Reuss Voigt Hill
#
# Bulk Modulus (GPa) = 11.48339 60.75621 36.11980
# Shear Modulus (GPa) = 146.29331 18.55787 82.42559
#
# Velocity S-wave (km/s) = 9.77735 3.48235 7.33905
# Velocity P-wave (km/s) = 11.61749 7.47467 9.76823
#
# Compressibility (1/GPa) = 0.08708229
#
# Stress axis : x y z
#
# Youngs Moduli (GPa) = 92.48157 8.68957 75.54781
#
# Poissons Ratio (x) = 0.04837 0.44252
# Poissons Ratio (y) = 0.51483 1.10298
# Poissons Ratio (z) = 0.54170 0.12687
#
# Static dielectric constant tensor:
#      x y z
#    x 3.344400 0.000000 0.000000 
#    y 0.000000 2.310480 0.000000 
#    z 0.000000 0.000000 3.066030 
# 
# 
# High freq. dielectric constant tensor:
#      x y z
#    x 1.588350 0.000000 0.000000 
#    y 0.000000 1.520190 0.000000 
#    z 0.000000 0.000000 1.583680 
# 
# From -- ./inp_files/35488.got.cif
#   From: 2010.03.12/outbox.cif.g09.slc.cpg/sg51_18_cif.got.tgz:35488.got - 2010.04.16 13:43:02.
