data_PCOD8214637
_publ_section_title
;
Structure prediction by ZEFSAII (Michael W. Deem and Ramdas Pophale) SiO2 
 PCOD8214637
Probable space group: P M M A
;
_chemical_formula_sum "Si O2"
_cell_formula_units_Z 32
_cell_length_a 11.627652
_cell_length_b 10.200179
_cell_length_c 13.940670
_cell_angle_alpha 90.000000
_cell_angle_beta 90.000000
_cell_angle_gamma 90.000000
_cell_volume 1653.421061
_symmetry_space_group_name_H-M "P M M A"
_symmetry_group_IT_number 51
_symmetry_cell_setting 'orthorhombic'
loop_
_space_group_symop_operation_xyz
x,y,z
1/2-x,-y,z
1/2+x,-y,-z
-x,y,-z
-x,-y,-z
1/2+x,y,-z
1/2-x,y,z
x,-y,z
loop_
_atom_site_type_symbol
_atom_site_label
_atom_site_fract_x
_atom_site_fract_y
_atom_site_fract_z
Si Si1 0.250000 0.000000 0.314837
Si Si2 0.997113 0.500000 0.615154
Si Si3 0.387538 0.752975 0.711645
Si Si4 0.750000 0.500000 0.700146
Si Si5 0.250000 0.757092 0.179801
Si Si6 0.979792 0.849860 0.888001
Si Si7 0.499038 0.000000 0.611469
O O1 0.250000 0.867845 0.257633
O O2 0.365558 0.000000 0.373993
O O3 0.058203 0.375404 0.663461
O O4 0.000000 0.500000 0.500000
O O5 0.861700 0.500000 0.634225
O O6 0.250000 0.744322 0.708437
O O7 0.426461 0.772857 0.823102
O O8 0.433783 0.873847 0.651051
O O9 0.750000 0.379820 0.770251
O O10 0.138393 0.771476 0.115209
O O11 0.970275 0.000000 0.848590
O O12 0.000000 0.851350 0.000000
O O13 0.500000 0.000000 0.500000
#
# Coordination Sequence:
#
# PCOD8214637 Si02
#       7
#     2   4   8   2   4   8   4
#     4  12  20  42  68  86 134 168 226 278 326 384
#     4  12  27  48  69  98 129 182 227 269 332 398
#     4  12  25  45  65  98 139 171 218 279 334 396
#     4  12  24  42  76  90 132 174 228 280 326 392
#     4  12  20  44  64  98 129 171 223 285 320 388
#     4  11  23  41  70 102 131 177 223 272 334 393
#     4  12  25  42  65  98 129 176 219 275 340 392
#
# _framework density 19.353812999999999
#
# number of rings (size 3 to 8) (size 9 to 14) (size 15 to 20)
#    0.000    0.250    7.500    1.500    5.250    0.000 
#    0.000    2.500    0.000    0.000    0.000    0.000 
#    0.000    0.000    0.000    0.000    0.000    0.000 
#
# Total GULP energy -396640.293762 kJ/mol
# GULP energy per Si atom -12395.009180 kJ/mol
# Density = 1.930976 g / cm^3
# Si number density = 19.353813 Si / 1000 Ang^3
#
#
#
# Elastic Constant Matrix: (Units=GPa)
#
#
# Indices 1 2 3 4 5 6 
#
# 1 198.4480 60.3589 53.9966 0.0000 0.0000 0.0000
# 2 60.3589 161.0200 62.9861 0.0000 0.0000 0.0000
# 3 53.9966 62.9861 118.3167 0.0000 0.0000 0.0000
# 4 0.0000 0.0000 0.0000 4.2554 0.0000 0.0000
# 5 0.0000 0.0000 0.0000 0.0000 57.2143 0.0000
# 6 0.0000 0.0000 0.0000 0.0000 0.0000 42.1869
#
#
#
# Elastic Compliance Matrix: (Units=1/GPa)
#
#
# Indices 1 2 3 4 5 6 
#
# 1 0.006025 -0.001494 -0.001954 0.000000 0.000000 0.000000
# 2 -0.001494 0.008214 -0.003691 0.000000 0.000000 0.000000
# 3 -0.001954 -0.003691 0.011309 0.000000 0.000000 0.000000
# 4 0.000000 0.000000 0.000000 0.234995 0.000000 0.000000
# 5 0.000000 0.000000 0.000000 0.000000 0.017478 0.000000
# 6 0.000000 0.000000 0.000000 0.000000 0.000000 0.023704
#
#
# Mechanical properties :
#
#
# Convention : Reuss Voigt Hill
#
# Bulk Modulus (GPa) = 88.73668 92.49643 90.61655
# Shear Modulus (GPa) = 15.63669 40.76088 28.19878
#
# Velocity S-wave (km/s) = 2.84551 4.59419 3.82123
# Velocity P-wave (km/s) = 7.53294 8.71999 8.14811
#
# Compressibility (1/GPa) = 0.01126930
#
# Stress axis : x y z
#
# Youngs Moduli (GPa) = 165.96607 121.73898 88.42708
#
# Poissons Ratio (x) = 0.18189 0.17282
# Poissons Ratio (y) = 0.24797 0.32639
# Poissons Ratio (z) = 0.32437 0.44934
#
# Static dielectric constant tensor:
#      x y z
#    x 3.984410 0.000000 0.000000 
#    y 0.000000 3.685710 0.000000 
#    z 0.000000 0.000000 3.583730 
# 
# 
# High freq. dielectric constant tensor:
#      x y z
#    x 1.775200 0.000000 0.000000 
#    y 0.000000 1.763250 0.000000 
#    z 0.000000 0.000000 1.761940 
# 
# From -- ./inp_files/22938.got.cif
#   From: 2010.03.12/outbox.cif.g09.slc.cpg/sg51_12_cif.got.tgz:22938.got - 2010.04.16 13:43:02.
