data_PCOD8214329
_publ_section_title
;
Structure prediction by ZEFSAII (Michael W. Deem and Ramdas Pophale) SiO2 
 PCOD8214329
Probable space group: P M M A
;
_chemical_formula_sum "Si O2"
_cell_formula_units_Z 40
_cell_length_a 19.910008
_cell_length_b 11.524986
_cell_length_c 8.776447
_cell_angle_alpha 90.000000
_cell_angle_beta 90.000000
_cell_angle_gamma 90.000000
_cell_volume 2013.866027
_symmetry_space_group_name_H-M "P M M A"
_symmetry_group_IT_number 51
_symmetry_cell_setting 'orthorhombic'
loop_
_space_group_symop_operation_xyz
x,y,z
1/2-x,-y,z
1/2+x,-y,-z
-x,y,-z
-x,-y,-z
1/2+x,y,-z
1/2-x,y,z
x,-y,z
loop_
_atom_site_type_symbol
_atom_site_label
_atom_site_fract_x
_atom_site_fract_y
_atom_site_fract_z
Si Si1 0.560422 0.000000 0.617566
Si Si2 0.672831 0.000000 0.362258
Si Si3 0.750000 0.371895 0.734191
Si Si4 0.486134 0.202451 0.171004
Si Si5 0.865706 0.763087 0.227042
Si Si6 0.126395 0.637987 0.085631
Si Si7 0.250000 0.371861 0.620963
O O1 0.500000 0.000000 0.500000
O O2 0.628917 0.000000 0.518260
O O3 0.555777 0.888194 0.727432
O O4 0.658241 0.894315 0.248606
O O5 0.750000 0.000000 0.417190
O O6 0.750000 0.500000 0.806002
O O7 0.681502 0.316080 0.794503
O O8 0.750000 0.374690 0.556984
O O9 0.554341 0.238466 0.260009
O O10 0.445166 0.321884 0.151170
O O11 0.500000 0.150709 0.000000
O O12 0.820237 0.688253 0.339763
O O13 0.852624 0.710933 0.061792
O O14 0.123391 0.500000 0.054963
O O15 0.250000 0.500000 0.693508
#
# Coordination Sequence:
#
# PCOD8214329 Si02
#       7
#     4   4   4   8   8   8   4
#     4  12  23  42  69  92 131 171 211 264 331 378
#     4  12  26  42  64  98 130 165 214 269 313 384
#     4   9  21  39  57  86 126 165 208 259 314 373
#     4  10  23  40  66  95 128 169 216 266 319 385
#     4  11  22  40  65  90 126 165 217 261 319 379
#     4  10  22  40  65  94 129 170 215 265 319 383
#     4  11  23  38  63  92 128 170 211 263 324 389
#
# _framework density 19.862293999999999
#
# number of rings (size 3 to 8) (size 9 to 14) (size 15 to 20)
#    0.000    1.400    3.000    1.500    2.800    7.600 
#    0.000    0.000    0.000    4.200    0.000    0.000 
#    0.000    0.000    0.000    0.000    0.000    0.000 
#
# Total GULP energy -495652.129498 kJ/mol
# GULP energy per Si atom -12391.303237 kJ/mol
# Density = 1.981709 g / cm^3
# Si number density = 19.862294 Si / 1000 Ang^3
#
#
#
# Elastic Constant Matrix: (Units=GPa)
#
#
# Indices 1 2 3 4 5 6 
#
# 1 152.6081 61.3272 50.7558 0.0000 0.0000 0.0000
# 2 61.3272 144.0553 63.3319 0.0000 0.0000 0.0000
# 3 50.7558 63.3319 74.2337 0.0000 0.0000 0.0000
# 4 0.0000 0.0000 0.0000 22.4632 0.0000 0.0000
# 5 0.0000 0.0000 0.0000 0.0000 38.4467 0.0000
# 6 0.0000 0.0000 0.0000 0.0000 0.0000 27.0291
#
#
#
# Elastic Compliance Matrix: (Units=1/GPa)
#
#
# Indices 1 2 3 4 5 6 
#
# 1 0.008749 -0.001752 -0.004488 0.000000 0.000000 0.000000
# 2 -0.001752 0.011459 -0.008578 0.000000 0.000000 0.000000
# 3 -0.004488 -0.008578 0.023858 0.000000 0.000000 0.000000
# 4 0.000000 0.000000 0.000000 0.044517 0.000000 0.000000
# 5 0.000000 0.000000 0.000000 0.000000 0.026010 0.000000
# 6 0.000000 0.000000 0.000000 0.000000 0.000000 0.036997
#
#
# Mechanical properties :
#
#
# Convention : Reuss Voigt Hill
#
# Bulk Modulus (GPa) = 69.29752 80.19188 74.74470
# Shear Modulus (GPa) = 26.87656 30.61996 28.74826
#
# Velocity S-wave (km/s) = 3.68250 3.93060 3.80857
# Velocity P-wave (km/s) = 7.28326 7.81416 7.55337
#
# Compressibility (1/GPa) = 0.01443053
#
# Stress axis : x y z
#
# Youngs Moduli (GPa) = 114.29573 87.26845 41.91511
#
# Poissons Ratio (x) = 0.15288 0.18810
# Poissons Ratio (y) = 0.20023 0.35956
# Poissons Ratio (z) = 0.51291 0.74861
#
# Static dielectric constant tensor:
#      x y z
#    x 3.977920 0.000000 0.000000 
#    y 0.000000 3.890790 0.000000 
#    z 0.000000 0.000000 3.657390 
# 
# 
# High freq. dielectric constant tensor:
#      x y z
#    x 1.792260 0.000000 0.000000 
#    y 0.000000 1.773170 0.000000 
#    z 0.000000 0.000000 1.772770 
# 
# From -- ./inp_files/10723.got.cif
#   From: 2010.03.12/outbox.cif.g09.slc.cpg/sg51_6_cif.got.tgz:10723.got - 2010.04.16 13:43:02.
