data_PCOD8214910
_publ_section_title
;
Structure prediction by ZEFSAII (Michael W. Deem and Ramdas Pophale) SiO2 
 PCOD8214910
Probable space group: P N N A
;
_chemical_formula_sum "Si O2"
_cell_formula_units_Z 32
_cell_length_a 5.280648
_cell_length_b 38.094551
_cell_length_c 7.906784
_cell_angle_alpha 90.000000
_cell_angle_beta 90.000000
_cell_angle_gamma 90.000000
_cell_volume 1590.559621
_symmetry_space_group_name_H-M "P N N A"
_symmetry_group_IT_number 52
_symmetry_cell_setting 'orthorhombic'
loop_
_space_group_symop_operation_xyz
x,y,z
1/2-x,-y,z
x,1/2-y,1/2-z
1/2-x,1/2+y,1/2-z
-x,-y,-z
1/2+x,y,-z
-x,1/2+y,1/2+z
1/2+x,1/2-y,1/2+z
loop_
_atom_site_type_symbol
_atom_site_label
_atom_site_fract_x
_atom_site_fract_y
_atom_site_fract_z
Si Si1 0.747511 0.958983 0.325226
Si Si2 0.752463 0.429833 0.798248
Si Si3 0.210865 0.144440 0.394632
Si Si4 0.770799 0.221584 0.607731
O O1 0.749316 0.937711 0.500644
O O2 0.497987 0.947955 0.218565
O O3 0.995557 0.947341 0.218162
O O4 0.750000 0.000000 0.365340
O O5 0.751845 0.387843 0.764638
O O6 0.423578 0.141159 0.539743
O O7 0.246842 0.182661 0.308452
O O8 0.724550 0.250000 0.750000
O O9 0.550968 0.226471 0.468532
#
# Coordination Sequence:
#
# PCOD8214910 Si02
#       4
#     8   8   8   8
#     4  10  16  20  29  45  72 104 148 184 218 264
#     4  10  14  22  31  45  70 101 147 183 214 260
#     4  10  16  27  41  59  81 114 151 199 224 282
#     4  10  21  35  55  77 103 131 170 212 258 306
#
# _framework density 20.118704999999999
#
# number of rings (size 3 to 8) (size 9 to 14) (size 15 to 20)
#    0.000    2.000    5.000    4.500    0.000    0.000 
#    0.000    0.000    0.000    0.000    0.000    0.000 
#    0.000    0.000    0.000    0.000    0.000   42.500 
#
# Total GULP energy -396438.590932 kJ/mol
# GULP energy per Si atom -12388.705967 kJ/mol
# Density = 2.007291 g / cm^3
# Si number density = 20.118705 Si / 1000 Ang^3
#
#
#
# Elastic Constant Matrix: (Units=GPa)
#
#
# Indices 1 2 3 4 5 6 
#
# 1 177.4374 41.5929 2.2761 0.0000 0.0000 0.0000
# 2 41.5929 181.4923 20.8349 0.0000 0.0000 0.0000
# 3 2.2761 20.8349 7.8391 0.0000 0.0000 0.0000
# 4 0.0000 0.0000 0.0000 10.0063 0.0000 0.0000
# 5 0.0000 0.0000 0.0000 0.0000 5.1914 0.0000
# 6 0.0000 0.0000 0.0000 0.0000 0.0000 34.4798
#
#
#
# Elastic Compliance Matrix: (Units=1/GPa)
#
#
# Indices 1 2 3 4 5 6 
#
# 1 0.005997 -0.001690 0.002751 0.000000 0.000000 0.000000
# 2 -0.001690 0.008405 -0.021850 0.000000 0.000000 0.000000
# 3 0.002751 -0.021850 0.184840 0.000000 0.000000 0.000000
# 4 0.000000 0.000000 0.000000 0.099937 0.000000 0.000000
# 5 0.000000 0.000000 0.000000 0.000000 0.192627 0.000000
# 6 0.000000 0.000000 0.000000 0.000000 0.000000 0.029002
#
#
# Mechanical properties :
#
#
# Convention : Reuss Voigt Hill
#
# Bulk Modulus (GPa) = 6.34259 55.13070 30.73665
# Shear Modulus (GPa) = 8.13085 30.07315 19.10200
#
# Velocity S-wave (km/s) = 2.01251 3.87044 3.08468
# Velocity P-wave (km/s) = 2.92570 6.88738 5.29130
#
# Compressibility (1/GPa) = 0.15766433
#
# Stress axis : x y z
#
# Youngs Moduli (GPa) = 166.75933 118.97034 5.41009
#
# Poissons Ratio (x) = 0.20106 -0.01488
# Poissons Ratio (y) = 0.28183 0.11821
# Poissons Ratio (z) = -0.45870 2.59945
#
# Static dielectric constant tensor:
#      x y z
#    x 6.081840 0.000000 0.000000 
#    y 0.000000 4.041390 0.000000 
#    z 0.000000 0.000000 2.527610 
# 
# 
# High freq. dielectric constant tensor:
#      x y z
#    x 1.832910 0.000000 0.000000 
#    y 0.000000 1.811410 0.000000 
#    z 0.000000 0.000000 1.660640 
# 
# From -- ./inp_files/6720.got.cif
#   From: 2010.06.25/outbox.cif.g09.slc.cpg/sg52_4_cif.got.tgz:6720.got - 2010.06.26 19:32:48.
