data_PCOD8214109
_publ_section_title
;
Structure prediction by ZEFSAII (Michael W. Deem and Ramdas Pophale) SiO2 
 PCOD8214109
Probable space group: P M M A
;
_chemical_formula_sum "Si O2"
_cell_formula_units_Z 48
_cell_length_a 9.478222
_cell_length_b 28.759813
_cell_length_c 9.027039
_cell_angle_alpha 90.000000
_cell_angle_beta 90.000000
_cell_angle_gamma 90.000000
_cell_volume 2460.697643
_symmetry_space_group_name_H-M "P M M A"
_symmetry_group_IT_number 51
_symmetry_cell_setting 'orthorhombic'
loop_
_space_group_symop_operation_xyz
x,y,z
1/2-x,-y,z
1/2+x,-y,-z
-x,y,-z
-x,-y,-z
1/2+x,y,-z
1/2-x,y,z
x,-y,z
loop_
_atom_site_type_symbol
_atom_site_label
_atom_site_fract_x
_atom_site_fract_y
_atom_site_fract_z
Si Si1 0.583846 0.763382 0.346517
Si Si2 0.588578 0.051000 0.146208
Si Si3 0.081213 0.307861 0.151375
Si Si4 0.511119 0.600436 0.676048
Si Si5 0.410264 0.131123 0.643766
Si Si6 0.250000 0.552277 0.167627
Si Si7 0.750000 0.443502 0.164745
O O1 0.500000 0.755684 0.500000
O O2 0.750000 0.747831 0.362530
O O3 0.499851 0.736207 0.219523
O O4 0.576789 0.816738 0.292813
O O5 0.750000 0.061100 0.104357
O O6 0.528423 0.092764 0.245032
O O7 0.573578 0.000000 0.223886
O O8 0.500000 0.051342 0.000000
O O9 0.250000 0.298616 0.127513
O O10 0.061308 0.349709 0.266049
O O11 0.000000 0.320315 0.000000
O O12 0.500000 0.603143 0.500000
O O13 0.620093 0.562090 0.727897
O O14 0.373299 0.581390 0.750149
O O15 0.500000 0.125853 0.500000
O O16 0.250000 0.119217 0.602901
O O17 0.250000 0.500000 0.117449
O O18 0.250000 0.576425 0.004836
O O19 0.750000 0.500000 0.179309
#
# Coordination Sequence:
#
# PCOD8214109 Si02
#       7
#     8   8   8   8   8   4   4
#     4  10  21  39  63  89 122 160 201 252 307 368
#     4   9  18  33  52  76 110 151 196 247 300 358
#     4  12  26  44  66  92 123 161 207 257 314 377
#     4  12  26  42  66  96 128 164 208 256 308 368
#     4   9  19  35  55  83 116 153 196 244 301 360
#     4  11  23  45  67  93 129 167 209 251 306 367
#     4  11  25  43  69  97 129 171 207 253 308 367
#
# _framework density 19.506661000000001
#
# number of rings (size 3 to 8) (size 9 to 14) (size 15 to 20)
#    0.000    1.500    0.833    4.000    2.333    5.667 
#    0.000    1.667    0.000    0.000    0.000    0.000 
#    0.000    0.000    0.000    0.000    0.000    0.000 
#
# Total GULP energy -594834.185832 kJ/mol
# GULP energy per Si atom -12392.378872 kJ/mol
# Density = 1.946226 g / cm^3
# Si number density = 19.506661 Si / 1000 Ang^3
#
#
#
# Elastic Constant Matrix: (Units=GPa)
#
#
# Indices 1 2 3 4 5 6 
#
# 1 137.1842 41.3685 50.2928 0.0000 0.0000 0.0000
# 2 41.3685 92.3719 43.1026 0.0000 0.0000 0.0000
# 3 50.2928 43.1026 124.1195 0.0000 0.0000 0.0000
# 4 0.0000 0.0000 0.0000 52.7576 0.0000 0.0000
# 5 0.0000 0.0000 0.0000 0.0000 27.4736 0.0000
# 6 0.0000 0.0000 0.0000 0.0000 0.0000 32.4534
#
#
#
# Elastic Compliance Matrix: (Units=1/GPa)
#
#
# Indices 1 2 3 4 5 6 
#
# 1 0.009139 -0.002822 -0.002723 0.000000 0.000000 0.000000
# 2 -0.002822 0.013791 -0.003646 0.000000 0.000000 0.000000
# 3 -0.002723 -0.003646 0.010426 0.000000 0.000000 0.000000
# 4 0.000000 0.000000 0.000000 0.018955 0.000000 0.000000
# 5 0.000000 0.000000 0.000000 0.000000 0.036399 0.000000
# 6 0.000000 0.000000 0.000000 0.000000 0.000000 0.030813
#
#
# Mechanical properties :
#
#
# Convention : Reuss Voigt Hill
#
# Bulk Modulus (GPa) = 66.78126 69.24483 68.01305
# Shear Modulus (GPa) = 34.99072 37.13102 36.06087
#
# Velocity S-wave (km/s) = 4.23990 4.36765 4.30425
# Velocity P-wave (km/s) = 7.63403 7.81091 7.72298
#
# Compressibility (1/GPa) = 0.01497426
#
# Stress axis : x y z
#
# Youngs Moduli (GPa) = 109.42395 72.51208 95.91357
#
# Poissons Ratio (x) = 0.20464 0.26117
# Poissons Ratio (y) = 0.30882 0.34966
# Poissons Ratio (z) = 0.29796 0.26435
#
# Static dielectric constant tensor:
#      x y z
#    x 3.647770 0.000000 0.000000 
#    y 0.000000 4.038750 0.000000 
#    z 0.000000 0.000000 3.538630 
# 
# 
# High freq. dielectric constant tensor:
#      x y z
#    x 1.777520 0.000000 0.000000 
#    y 0.000000 1.772400 0.000000 
#    z 0.000000 0.000000 1.754880 
# 
# From -- ./inp_files/6249.got.cif
#   From: 2010.03.12/outbox.cif.g09.slc.cpg/sg51_4_cif.got.tgz:6249.got - 2010.04.16 13:43:02.
