data_PCOD8214400
_publ_section_title
;
Structure prediction by ZEFSAII (Michael W. Deem and Ramdas Pophale) SiO2 
 PCOD8214400
Probable space group: P M M A
;
_chemical_formula_sum "Si O2"
_cell_formula_units_Z 48
_cell_length_a 15.142512
_cell_length_b 15.563905
_cell_length_c 10.002655
_cell_angle_alpha 90.000000
_cell_angle_beta 90.000000
_cell_angle_gamma 90.000000
_cell_volume 2357.391904
_symmetry_space_group_name_H-M "P M M A"
_symmetry_group_IT_number 51
_symmetry_cell_setting 'orthorhombic'
loop_
_space_group_symop_operation_xyz
x,y,z
1/2-x,-y,z
1/2+x,-y,-z
-x,y,-z
-x,-y,-z
1/2+x,y,-z
1/2-x,y,z
x,-y,z
loop_
_atom_site_type_symbol
_atom_site_label
_atom_site_fract_x
_atom_site_fract_y
_atom_site_fract_z
Si Si1 0.583005 0.000000 0.906460
Si Si2 0.851562 0.815012 0.969258
Si Si3 0.488731 0.401505 0.655649
Si Si4 0.605417 0.178368 0.503176
Si Si5 0.148222 0.263141 0.757947
Si Si6 0.149608 0.697314 0.267936
Si Si7 0.416317 0.000000 0.404382
O O1 0.555871 0.000000 0.750959
O O2 0.500000 0.000000 0.000000
O O3 0.637570 0.915667 0.943571
O O4 0.750000 0.794418 0.979589
O O5 0.893014 0.780910 0.108473
O O6 0.889445 0.760204 0.846023
O O7 0.500000 0.379482 0.500000
O O8 0.462983 0.500000 0.679604
O O9 0.410379 0.345126 0.718098
O O10 0.582999 0.383169 0.726371
O O11 0.500000 0.186453 0.500000
O O12 0.642609 0.189400 0.354400
O O13 0.647933 0.252193 0.592863
O O14 0.638146 0.086340 0.561370
O O15 0.250000 0.292899 0.775732
O O16 0.250000 0.665209 0.241138
O O17 0.500000 0.000000 0.500000
#
# Coordination Sequence:
#
# PCOD8214400 Si02
#       7
#     4   8   8   8   8   8   4
#     4  12  25  37  63  91 122 173 215 251 307 362
#     4  10  25  42  61  90 129 168 209 258 305 366
#     4  11  24  42  66  96 126 156 201 263 316 377
#     4  11  20  38  62  88 128 163 209 261 300 362
#     4  11  23  42  65  92 126 166 206 254 316 375
#     4  11  21  40  65  92 123 164 206 251 311 368
#     4  10  24  37  55  95 130 162 215 269 300 353
#
# _framework density 20.361485999999999
#
# number of rings (size 3 to 8) (size 9 to 14) (size 15 to 20)
#    0.000    1.167    5.000    0.750    7.000    0.667 
#    0.000    5.833    0.000    3.000    0.000    0.000 
#    0.000    0.000    0.000    0.000    0.000    0.000 
#
# Total GULP energy -595109.594327 kJ/mol
# GULP energy per Si atom -12398.116548 kJ/mol
# Density = 2.031514 g / cm^3
# Si number density = 20.361486 Si / 1000 Ang^3
#
#
#
# Elastic Constant Matrix: (Units=GPa)
#
#
# Indices 1 2 3 4 5 6 
#
# 1 89.1598 34.4306 24.5843 0.0000 0.0000 0.0000
# 2 34.4306 118.9356 55.5446 0.0000 0.0000 0.0000
# 3 24.5843 55.5446 149.3660 0.0000 0.0000 0.0000
# 4 0.0000 0.0000 0.0000 27.3556 0.0000 0.0000
# 5 0.0000 0.0000 0.0000 0.0000 26.1507 0.0000
# 6 0.0000 0.0000 0.0000 0.0000 0.0000 20.3019
#
#
#
# Elastic Compliance Matrix: (Units=1/GPa)
#
#
# Indices 1 2 3 4 5 6 
#
# 1 0.012722 -0.003273 -0.000877 0.000000 0.000000 0.000000
# 2 -0.003273 0.011017 -0.003558 0.000000 0.000000 0.000000
# 3 -0.000877 -0.003558 0.008162 0.000000 0.000000 0.000000
# 4 0.000000 0.000000 0.000000 0.036556 0.000000 0.000000
# 5 0.000000 0.000000 0.000000 0.000000 0.038240 0.000000
# 6 0.000000 0.000000 0.000000 0.000000 0.000000 0.049256
#
#
# Mechanical properties :
#
#
# Convention : Reuss Voigt Hill
#
# Bulk Modulus (GPa) = 60.66151 65.17560 62.91856
# Shear Modulus (GPa) = 28.27021 30.95508 29.61265
#
# Velocity S-wave (km/s) = 3.73019 3.90330 3.81773
# Velocity P-wave (km/s) = 6.95768 7.23831 7.09938
#
# Compressibility (1/GPa) = 0.01648492
#
# Stress axis : x y z
#
# Youngs Moduli (GPa) = 78.60643 90.76665 122.51248
#
# Poissons Ratio (x) = 0.29711 0.10739
# Poissons Ratio (y) = 0.25731 0.43593
# Poissons Ratio (z) = 0.06891 0.32297
#
# Static dielectric constant tensor:
#      x y z
#    x 3.635240 0.000000 0.000000 
#    y 0.000000 3.702430 0.000000 
#    z 0.000000 0.000000 4.211110 
# 
# 
# High freq. dielectric constant tensor:
#      x y z
#    x 1.790860 0.000000 0.000000 
#    y 0.000000 1.786020 0.000000 
#    z 0.000000 0.000000 1.807680 
# 
# From -- ./inp_files/8329.got.cif
#   From: 2010.03.12/outbox.cif.g09.slc.cpg/sg51_5_cif.got.tgz:8329.got - 2010.04.16 13:43:02.
