data_PCOD8214816
_publ_section_title
;
Structure prediction by ZEFSAII (Michael W. Deem and Ramdas Pophale) SiO2 
 PCOD8214816
Probable space group: P M M A
;
_chemical_formula_sum "Si O2"
_cell_formula_units_Z 48
_cell_length_a 9.419430
_cell_length_b 9.848526
_cell_length_c 30.602560
_cell_angle_alpha 90.000000
_cell_angle_beta 90.000000
_cell_angle_gamma 90.000000
_cell_volume 2838.923023
_symmetry_space_group_name_H-M "P M M A"
_symmetry_group_IT_number 51
_symmetry_cell_setting 'orthorhombic'
loop_
_space_group_symop_operation_xyz
x,y,z
1/2-x,-y,z
1/2+x,-y,-z
-x,y,-z
-x,-y,-z
1/2+x,y,-z
1/2-x,y,z
x,-y,z
loop_
_atom_site_type_symbol
_atom_site_label
_atom_site_fract_x
_atom_site_fract_y
_atom_site_fract_z
Si Si1 0.084996 0.844093 0.957252
Si Si2 0.418626 0.847819 0.380741
Si Si3 0.415683 0.343333 0.457159
Si Si4 0.584200 0.656364 0.792274
Si Si5 0.081366 0.152273 0.283959
Si Si6 0.085108 0.656289 0.877861
O O1 0.250000 0.821420 0.967213
O O2 0.033236 0.749544 0.917709
O O3 0.052183 0.000000 0.944850
O O4 0.000000 0.798757 0.000000
O O5 0.250000 0.841892 0.380373
O O6 0.477524 0.743112 0.416639
O O7 0.475177 0.807384 0.332356
O O8 0.469808 0.000000 0.392622
O O9 0.500000 0.297065 0.500000
O O10 0.250000 0.314889 0.465335
O O11 0.444444 0.500000 0.446086
O O12 0.750000 0.684209 0.799984
O O13 0.554163 0.500000 0.781054
O O14 0.521692 0.743572 0.752003
O O15 0.502758 0.702047 0.835662
O O16 0.250000 0.159014 0.284234
O O17 0.030645 0.000000 0.272126
O O18 0.250000 0.680243 0.867568
O O19 0.054020 0.500000 0.890065
#
# Coordination Sequence:
#
# PCOD8214816 Si02
#       6
#     8   8   8   8   8   8
#     4   9  18  32  48  66  88 113 142 176 212 249
#     4   8  14  25  41  61  84 109 138 172 209 249
#     4   9  17  28  42  61  84 109 138 172 209 249
#     4   9  17  28  43  65  89 110 137 175 212 244
#     4   8  14  25  41  62  87 111 136 171 213 251
#     4   9  18  32  47  63  87 118 146 171 205 251
#
# _framework density 16.907821999999999
#
# number of rings (size 3 to 8) (size 9 to 14) (size 15 to 20)
#    0.000    3.333    0.000    1.000    0.000    2.667 
#    0.000    3.333    0.000    1.000    0.000    7.000 
#    0.000    0.000    0.000    0.000    0.000    0.000 
#
# Total GULP energy -595066.266971 kJ/mol
# GULP energy per Si atom -12397.213895 kJ/mol
# Density = 1.686934 g / cm^3
# Si number density = 16.907822 Si / 1000 Ang^3
#
#
#
# Elastic Constant Matrix: (Units=GPa)
#
#
# Indices 1 2 3 4 5 6 
#
# 1 27.6388 29.7820 45.6435 0.0000 0.0000 0.0000
# 2 29.7820 98.0839 105.7621 0.0000 0.0000 0.0000
# 3 45.6435 105.7621 183.6604 0.0000 0.0000 0.0000
# 4 0.0000 0.0000 0.0000 42.1364 0.0000 0.0000
# 5 0.0000 0.0000 0.0000 0.0000 24.8945 0.0000
# 6 0.0000 0.0000 0.0000 0.0000 0.0000 14.4698
#
#
#
# Elastic Compliance Matrix: (Units=1/GPa)
#
#
# Indices 1 2 3 4 5 6 
#
# 1 0.062632 -0.005892 -0.012172 0.000000 0.000000 0.000000
# 2 -0.005892 0.027451 -0.014343 0.000000 0.000000 0.000000
# 3 -0.012172 -0.014343 0.016729 0.000000 0.000000 0.000000
# 4 0.000000 0.000000 0.000000 0.023732 0.000000 0.000000
# 5 0.000000 0.000000 0.000000 0.000000 0.040169 0.000000
# 6 0.000000 0.000000 0.000000 0.000000 0.000000 0.069109
#
#
# Mechanical properties :
#
#
# Convention : Reuss Voigt Hill
#
# Bulk Modulus (GPa) = 23.81164 74.63981 49.22573
# Shear Modulus (GPa) = 15.69184 24.84653 20.26918
#
# Velocity S-wave (km/s) = 3.04975 3.83760 3.46613
# Velocity P-wave (km/s) = 5.14928 7.99232 6.72281
#
# Compressibility (1/GPa) = 0.04199627
#
# Stress axis : x y z
#
# Youngs Moduli (GPa) = 15.96637 36.42916 59.77475
#
# Poissons Ratio (x) = 0.21466 0.72758
# Poissons Ratio (y) = 0.09408 0.85736
# Poissons Ratio (z) = 0.19434 0.52251
#
# Static dielectric constant tensor:
#      x y z
#    x 2.809580 0.000000 0.000000 
#    y 0.000000 3.287720 0.000000 
#    z 0.000000 0.000000 3.428890 
# 
# 
# High freq. dielectric constant tensor:
#      x y z
#    x 1.610930 0.000000 0.000000 
#    y 0.000000 1.653710 0.000000 
#    z 0.000000 0.000000 1.659010 
# 
# From -- ./inp_files/29008.got.cif
#   From: 2010.03.12/outbox.cif.g09.slc.cpg/sg51_15_cif.got.tgz:29008.got - 2010.04.16 13:43:02.
