data_PCOD8214868
_publ_section_title
;
Structure prediction by ZEFSAII (Michael W. Deem and Ramdas Pophale) SiO2 
 PCOD8214868
Probable space group: P M M A
;
_chemical_formula_sum "Si O2"
_cell_formula_units_Z 40
_cell_length_a 9.150243
_cell_length_b 9.283205
_cell_length_c 26.005025
_cell_angle_alpha 90.000000
_cell_angle_beta 90.000000
_cell_angle_gamma 90.000000
_cell_volume 2208.959962
_symmetry_space_group_name_H-M "P M M A"
_symmetry_group_IT_number 51
_symmetry_cell_setting 'orthorhombic'
loop_
_space_group_symop_operation_xyz
x,y,z
1/2-x,-y,z
1/2+x,-y,-z
-x,y,-z
-x,-y,-z
1/2+x,y,-z
1/2-x,y,z
x,-y,z
loop_
_atom_site_type_symbol
_atom_site_label
_atom_site_fract_x
_atom_site_fract_y
_atom_site_fract_z
Si Si1 0.085028 0.171461 0.350547
Si Si2 0.576110 0.337324 0.149871
Si Si3 0.921175 0.166217 0.051331
Si Si4 0.579530 0.832428 0.249233
Si Si5 0.084627 0.171811 0.550034
O O1 0.250000 0.231326 0.352165
O O2 0.006908 0.225569 0.298773
O O3 0.997051 0.232343 0.399536
O O4 0.084337 0.000000 0.352129
O O5 0.750000 0.333166 0.149458
O O6 0.516189 0.500000 0.150500
O O7 0.516620 0.257718 0.099077
O O8 0.519026 0.254855 0.200321
O O9 0.750000 0.190621 0.043754
O O10 0.958333 0.000000 0.062334
O O11 0.000000 0.221691 0.000000
O O12 0.750000 0.803946 0.259138
O O13 0.549139 0.000000 0.238752
O O14 0.250000 0.230992 0.549327
O O15 0.000000 0.230124 0.500000
O O16 0.085024 0.000000 0.550386
#
# Coordination Sequence:
#
# PCOD8214868 Si02
#       5
#     8   8   8   8   8
#     4   9  16  25  37  55  80 110 144 181 221 265
#     4   9  17  29  46  67  89 114 146 183 221 262
#     4   9  17  30  48  69  92 118 148 181 217 259
#     4   9  16  27  44  63  82 108 144 183 220 260
#     4   9  15  22  33  51  78 112 147 182 222 268
#
# _framework density 18.108069
#
# number of rings (size 3 to 8) (size 9 to 14) (size 15 to 20)
#    0.000    3.000    0.000    1.800    0.000    7.600 
#    0.000    1.000    0.000    6.600    0.000    0.000 
#    0.000    0.800    0.000    2.200    0.000    4.000 
#
# Total GULP energy -495972.060167 kJ/mol
# GULP energy per Si atom -12399.301504 kJ/mol
# Density = 1.806685 g / cm^3
# Si number density = 18.108069 Si / 1000 Ang^3
#
#
#
# Elastic Constant Matrix: (Units=GPa)
#
#
# Indices 1 2 3 4 5 6 
#
# 1 92.5895 26.8604 77.4926 0.0000 0.0000 0.0000
# 2 26.8604 53.3192 60.1545 0.0000 0.0000 0.0000
# 3 77.4926 60.1545 214.1088 0.0000 0.0000 0.0000
# 4 0.0000 0.0000 0.0000 3.4779 0.0000 0.0000
# 5 0.0000 0.0000 0.0000 0.0000 34.4358 0.0000
# 6 0.0000 0.0000 0.0000 0.0000 0.0000 7.6346
#
#
#
# Elastic Compliance Matrix: (Units=1/GPa)
#
#
# Indices 1 2 3 4 5 6 
#
# 1 0.015666 -0.002189 -0.005055 0.000000 0.000000 0.000000
# 2 -0.002189 0.027764 -0.007008 0.000000 0.000000 0.000000
# 3 -0.005055 -0.007008 0.008469 0.000000 0.000000 0.000000
# 4 0.000000 0.000000 0.000000 0.287533 0.000000 0.000000
# 5 0.000000 0.000000 0.000000 0.000000 0.029040 0.000000
# 6 0.000000 0.000000 0.000000 0.000000 0.000000 0.130982
#
#
# Mechanical properties :
#
#
# Convention : Reuss Voigt Hill
#
# Bulk Modulus (GPa) = 42.74403 76.55918 59.65160
# Shear Modulus (GPa) = 9.33259 22.14367 15.73813
#
# Velocity S-wave (km/s) = 2.27267 3.50074 2.95129
# Velocity P-wave (km/s) = 5.52656 7.66231 6.68034
#
# Compressibility (1/GPa) = 0.02339508
#
# Stress axis : x y z
#
# Youngs Moduli (GPa) = 63.83156 36.01740 118.07639
#
# Poissons Ratio (x) = 0.07884 0.59689
# Poissons Ratio (y) = 0.13973 0.82750
# Poissons Ratio (z) = 0.32267 0.25242
#
# Static dielectric constant tensor:
#      x y z
#    x 3.220010 0.000000 0.000000 
#    y 0.000000 2.917940 0.000000 
#    z 0.000000 0.000000 3.610010 
# 
# 
# High freq. dielectric constant tensor:
#      x y z
#    x 1.682730 0.000000 0.000000 
#    y 0.000000 1.647110 0.000000 
#    z 0.000000 0.000000 1.720930 
# 
# From -- ./inp_files/34327.got.cif
#   From: 2010.03.12/outbox.cif.g09.slc.cpg/sg51_18_cif.got.tgz:34327.got - 2010.04.16 13:43:02.
