data_PCOD8214086
_publ_section_title
;
Structure prediction by ZEFSAII (Michael W. Deem and Ramdas Pophale) SiO2 
 PCOD8214086
Probable space group: P M M A
;
_chemical_formula_sum "Si O2"
_cell_formula_units_Z 64
_cell_length_a 14.410381
_cell_length_b 23.156037
_cell_length_c 9.171381
_cell_angle_alpha 90.000000
_cell_angle_beta 90.000000
_cell_angle_gamma 90.000000
_cell_volume 3060.373506
_symmetry_space_group_name_H-M "P M M A"
_symmetry_group_IT_number 51
_symmetry_cell_setting 'orthorhombic'
loop_
_space_group_symop_operation_xyz
x,y,z
1/2-x,-y,z
1/2+x,-y,-z
-x,y,-z
-x,-y,-z
1/2+x,y,-z
1/2-x,y,z
x,-y,z
loop_
_atom_site_type_symbol
_atom_site_label
_atom_site_fract_x
_atom_site_fract_y
_atom_site_fract_z
Si Si1 0.357459 0.240768 0.721687
Si Si2 0.145500 0.731425 0.407708
Si Si3 0.476520 0.133673 0.832483
Si Si4 0.357170 0.064452 0.641815
Si Si5 0.640455 0.631921 0.802682
Si Si6 0.644935 0.359465 0.134175
Si Si7 0.853962 0.135661 0.640960
Si Si8 0.009650 0.566371 0.666815
O O1 0.250000 0.217302 0.700419
O O2 0.398925 0.266939 0.569908
O O3 0.427887 0.191893 0.774895
O O4 0.358209 0.291272 0.838659
O O5 0.250000 0.709118 0.428512
O O6 0.100549 0.687273 0.289904
O O7 0.142628 0.795657 0.346779
O O8 0.407971 0.081192 0.792501
O O9 0.573013 0.114804 0.758688
O O10 0.500000 0.139280 0.000000
O O11 0.250000 0.067006 0.678263
O O12 0.384066 0.111155 0.517217
O O13 0.386356 0.000000 0.591419
O O14 0.750000 0.625341 0.790376
O O15 0.591690 0.575108 0.737966
O O16 0.607763 0.635436 0.969661
O O17 0.750000 0.382752 0.148445
O O18 0.584613 0.395233 0.248585
O O19 0.750000 0.113075 0.678068
O O20 0.040059 0.500000 0.679297
O O21 0.000000 0.586339 0.500000
#
# Coordination Sequence:
#
# PCOD8214086 Si02
#       8
#     8   8   8   8   8   8   8   8
#     4  10  21  39  61  87 126 167 210 260 316 380
#     4   9  18  35  60  87 120 158 205 258 308 366
#     4  12  26  37  59  96 132 173 210 258 322 389
#     4  10  22  45  72  93 121 165 218 272 321 377
#     4  10  22  40  64  93 124 164 207 259 326 383
#     4  10  23  41  63  92 127 167 208 259 321 386
#     4  10  22  40  61  91 124 164 215 264 313 370
#     4  11  25  43  64  91 124 167 216 265 309 370
#
# _framework density 20.912479000000001
#
# number of rings (size 3 to 8) (size 9 to 14) (size 15 to 20)
#    0.000    1.750    1.250    1.875    3.500    5.250 
#    0.000    2.500    0.000    1.500    0.000    0.000 
#    0.000    0.000    0.000    0.000    0.000    0.000 
#
# Total GULP energy -793312.326973 kJ/mol
# GULP energy per Si atom -12395.505109 kJ/mol
# Density = 2.086488 g / cm^3
# Si number density = 20.912479 Si / 1000 Ang^3
#
#
#
# Elastic Constant Matrix: (Units=GPa)
#
#
# Indices 1 2 3 4 5 6 
#
# 1 84.9511 42.4354 67.5351 0.0000 0.0000 0.0000
# 2 42.4354 78.9022 45.9607 0.0000 0.0000 0.0000
# 3 67.5351 45.9607 160.7476 0.0000 0.0000 0.0000
# 4 0.0000 0.0000 0.0000 14.7195 0.0000 0.0000
# 5 0.0000 0.0000 0.0000 0.0000 31.1021 0.0000
# 6 0.0000 0.0000 0.0000 0.0000 0.0000 27.7501
#
#
#
# Elastic Compliance Matrix: (Units=1/GPa)
#
#
# Indices 1 2 3 4 5 6 
#
# 1 0.020642 -0.007259 -0.006597 0.000000 0.000000 0.000000
# 2 -0.007259 0.017759 -0.002028 0.000000 0.000000 0.000000
# 3 -0.006597 -0.002028 0.009572 0.000000 0.000000 0.000000
# 4 0.000000 0.000000 0.000000 0.067937 0.000000 0.000000
# 5 0.000000 0.000000 0.000000 0.000000 0.032152 0.000000
# 6 0.000000 0.000000 0.000000 0.000000 0.000000 0.036036
#
#
# Mechanical properties :
#
#
# Convention : Reuss Voigt Hill
#
# Bulk Modulus (GPa) = 61.70604 70.71815 66.21209
# Shear Modulus (GPa) = 22.59701 25.95901 24.27801
#
# Velocity S-wave (km/s) = 3.29074 3.52705 3.41094
# Velocity P-wave (km/s) = 6.63396 7.10468 6.87335
#
# Compressibility (1/GPa) = 0.01620587
#
# Stress axis : x y z
#
# Youngs Moduli (GPa) = 48.44495 56.30854 104.46811
#
# Poissons Ratio (x) = 0.40875 0.68916
# Poissons Ratio (y) = 0.35167 0.21186
# Poissons Ratio (z) = 0.31958 0.11419
#
# Static dielectric constant tensor:
#      x y z
#    x 3.937080 0.000000 0.000000 
#    y 0.000000 3.713210 0.000000 
#    z 0.000000 0.000000 3.875740 
# 
# 
# High freq. dielectric constant tensor:
#      x y z
#    x 1.828780 0.000000 0.000000 
#    y 0.000000 1.806080 0.000000 
#    z 0.000000 0.000000 1.816780 
# 
# From -- ./inp_files/8723.got.cif
#   From: 2010.03.12/outbox.cif.g09.slc.cpg/sg51_5_cif.got.tgz:8723.got - 2010.04.16 13:43:02.
