data_PCOD8214362
_publ_section_title
;
Structure prediction by ZEFSAII (Michael W. Deem and Ramdas Pophale) SiO2 
 PCOD8214362
Probable space group: P M M A
;
_chemical_formula_sum "Si O2"
_cell_formula_units_Z 48
_cell_length_a 16.684667
_cell_length_b 14.049237
_cell_length_c 9.784042
_cell_angle_alpha 90.000000
_cell_angle_beta 90.000000
_cell_angle_gamma 90.000000
_cell_volume 2293.446377
_symmetry_space_group_name_H-M "P M M A"
_symmetry_group_IT_number 51
_symmetry_cell_setting 'orthorhombic'
loop_
_space_group_symop_operation_xyz
x,y,z
1/2-x,-y,z
1/2+x,-y,-z
-x,y,-z
-x,-y,-z
1/2+x,y,-z
1/2-x,y,z
x,-y,z
loop_
_atom_site_type_symbol
_atom_site_label
_atom_site_fract_x
_atom_site_fract_y
_atom_site_fract_z
Si Si1 0.842927 0.000000 0.267595
Si Si2 0.911292 0.000000 0.561065
Si Si3 0.844007 0.500000 0.826297
Si Si4 0.841825 0.702814 0.943016
Si Si5 0.586154 0.196975 0.696578
Si Si6 0.906000 0.500000 0.521886
Si Si7 0.093554 0.202193 0.795114
Si Si8 0.340906 0.303782 0.544129
O O1 0.851290 0.000000 0.432382
O O2 0.884645 0.909088 0.198143
O O3 0.750000 0.000000 0.229709
O O4 0.896050 0.911876 0.660409
O O5 0.000000 0.000000 0.500000
O O6 0.750000 0.500000 0.791688
O O7 0.890756 0.500000 0.683833
O O8 0.868025 0.593829 0.912292
O O9 0.750000 0.706585 0.991229
O O10 0.897901 0.747432 0.059002
O O11 0.850748 0.767126 0.808223
O O12 0.497234 0.214627 0.749266
O O13 0.596664 0.256313 0.558882
O O14 0.864743 0.586942 0.443946
O O15 0.000000 0.500000 0.500000
O O16 0.152942 0.254011 0.690567
O O17 0.250000 0.292814 0.490781
#
# Coordination Sequence:
#
# PCOD8214362 Si02
#       8
#     4   4   4   8   8   4   8   8
#     4  12  24  41  69  99 137 179 221 281 348 399
#     4  12  22  43  69  98 133 177 230 277 337 406
#     4  10  22  45  73  95 134 186 230 277 344 405
#     4  11  25  45  69  98 137 183 231 283 343 411
#     4  12  23  42  69  99 131 179 230 280 333 410
#     4  12  24  41  68 103 134 174 225 284 337 398
#     4  12  25  44  66 102 139 178 224 284 346 403
#     4  12  24  41  68  99 135 177 228 281 339 400
#
# _framework density 20.929200000000002
#
# number of rings (size 3 to 8) (size 9 to 14) (size 15 to 20)
#    0.000    0.333    5.000    4.750    0.000    2.000 
#    0.000    6.667    0.000    0.000    0.000    0.000 
#    0.000    0.000    0.000    0.000    0.000    0.000 
#
# Total GULP energy -595530.381337 kJ/mol
# GULP energy per Si atom -12406.882945 kJ/mol
# Density = 2.088156 g / cm^3
# Si number density = 20.929200 Si / 1000 Ang^3
#
#
#
# Elastic Constant Matrix: (Units=GPa)
#
#
# Indices 1 2 3 4 5 6 
#
# 1 79.8531 39.4371 8.1569 0.0000 0.0000 0.0000
# 2 39.4371 183.6233 66.9993 0.0000 0.0000 0.0000
# 3 8.1569 66.9993 106.3391 0.0000 0.0000 0.0000
# 4 0.0000 0.0000 0.0000 32.1116 0.0000 0.0000
# 5 0.0000 0.0000 0.0000 0.0000 37.3046 0.0000
# 6 0.0000 0.0000 0.0000 0.0000 0.0000 19.0602
#
#
#
# Elastic Compliance Matrix: (Units=1/GPa)
#
#
# Indices 1 2 3 4 5 6 
#
# 1 0.014103 -0.003420 0.001073 0.000000 0.000000 0.000000
# 2 -0.003420 0.007901 -0.004716 0.000000 0.000000 0.000000
# 3 0.001073 -0.004716 0.012293 0.000000 0.000000 0.000000
# 4 0.000000 0.000000 0.000000 0.031141 0.000000 0.000000
# 5 0.000000 0.000000 0.000000 0.000000 0.026806 0.000000
# 6 0.000000 0.000000 0.000000 0.000000 0.000000 0.052465
#
#
# Mechanical properties :
#
#
# Convention : Reuss Voigt Hill
#
# Bulk Modulus (GPa) = 49.57693 66.55578 58.06635
# Shear Modulus (GPa) = 30.20070 34.71011 32.45540
#
# Velocity S-wave (km/s) = 3.80280 4.07683 3.94219
# Velocity P-wave (km/s) = 6.55904 7.35052 6.96603
#
# Compressibility (1/GPa) = 0.02017067
#
# Stress axis : x y z
#
# Youngs Moduli (GPa) = 70.90873 126.56251 81.34865
#
# Poissons Ratio (x) = 0.43290 -0.08731
# Poissons Ratio (y) = 0.24254 0.38363
# Poissons Ratio (z) = -0.07611 0.59685
#
# Static dielectric constant tensor:
#      x y z
#    x 3.759020 0.000000 0.000000 
#    y 0.000000 8.802270 0.000000 
#    z 0.000000 0.000000 4.203310 
# 
# 
# High freq. dielectric constant tensor:
#      x y z
#    x 1.826630 0.000000 0.000000 
#    y 0.000000 1.838210 0.000000 
#    z 0.000000 0.000000 1.813320 
# 
# From -- ./inp_files/9738.got.cif
#   From: 2010.03.12/outbox.cif.g09.slc.cpg/sg51_5_cif.got.tgz:9738.got - 2010.04.16 13:43:02.
