data_PCOD8214480
_publ_section_title
;
Structure prediction by ZEFSAII (Michael W. Deem and Ramdas Pophale) SiO2 
 PCOD8214480
Probable space group: P M M A
;
_chemical_formula_sum "Si O2"
_cell_formula_units_Z 64
_cell_length_a 9.095051
_cell_length_b 18.348079
_cell_length_c 26.874295
_cell_angle_alpha 90.000000
_cell_angle_beta 90.000000
_cell_angle_gamma 90.000000
_cell_volume 4484.694048
_symmetry_space_group_name_H-M "P M M A"
_symmetry_group_IT_number 51
_symmetry_cell_setting 'orthorhombic'
loop_
_space_group_symop_operation_xyz
x,y,z
1/2-x,-y,z
1/2+x,-y,-z
-x,y,-z
-x,-y,-z
1/2+x,y,-z
1/2-x,y,z
x,-y,z
loop_
_atom_site_type_symbol
_atom_site_label
_atom_site_fract_x
_atom_site_fract_y
_atom_site_fract_z
Si Si1 0.912485 0.586804 0.953446
Si Si2 0.421890 0.916050 0.637363
Si Si3 0.073870 0.168428 0.449078
Si Si4 0.088041 0.210115 0.703197
Si Si5 0.577618 0.330832 0.751511
Si Si6 0.425951 0.418374 0.155070
Si Si7 0.422284 0.416015 0.347113
Si Si8 0.415739 0.703882 0.600501
O O1 0.750000 0.619784 0.957451
O O2 0.907569 0.500000 0.957045
O O3 0.982147 0.607996 0.899565
O O4 0.000000 0.620691 0.000000
O O5 0.250000 0.901952 0.623801
O O6 0.523907 0.889257 0.592486
O O7 0.462665 0.871708 0.688071
O O8 0.454796 0.000000 0.648145
O O9 0.250000 0.169558 0.452868
O O10 0.000000 0.141154 0.500000
O O11 0.013771 0.249646 0.437793
O O12 0.250000 0.208887 0.726976
O O13 0.087115 0.254810 0.652388
O O14 0.983096 0.249070 0.743158
O O15 0.750000 0.323491 0.755785
O O16 0.512278 0.364266 0.802555
O O17 0.532349 0.384424 0.706691
O O18 0.250000 0.419591 0.154825
O O19 0.483694 0.500000 0.166559
O O20 0.250000 0.404866 0.356455
O O21 0.468434 0.500000 0.348609
O O22 0.509689 0.374886 0.391050
O O23 0.250000 0.694186 0.579494
#
# Coordination Sequence:
#
# PCOD8214480 Si02
#       8
#     8   8   8   8   8   8   8   8
#     4   8  13  21  32  44  60  86 122 163 203 239
#     4   9  18  33  50  66  85 108 132 155 179 212
#     4  11  21  33  49  67  86 106 128 154 186 222
#     4   8  15  27  41  57  78 102 125 152 185 219
#     4   9  15  23  37  55  75 101 131 160 190 228
#     4   8  13  21  33  49  69  95 129 167 202 233
#     4   9  16  25  39  60  82 102 127 161 198 233
#     4   9  17  30  45  60  79 104 133 159 186 225
#
# _framework density 14.270762
#
# number of rings (size 3 to 8) (size 9 to 14) (size 15 to 20)
#    0.000    3.125    0.000    3.375    0.000    5.250 
#    0.000    0.625    0.000    2.250    0.000    0.000 
#    0.000    0.000    0.000    0.000    0.000    0.625 
#
# Total GULP energy -793125.075935 kJ/mol
# GULP energy per Si atom -12392.579311 kJ/mol
# Density = 1.423828 g / cm^3
# Si number density = 14.270762 Si / 1000 Ang^3
#
#
#
# Elastic Constant Matrix: (Units=GPa)
#
#
# Indices 1 2 3 4 5 6 
#
# 1 56.0617 32.9168 28.8449 0.0000 0.0000 0.0000
# 2 32.9168 91.7870 42.6790 0.0000 0.0000 0.0000
# 3 28.8449 42.6790 69.5466 0.0000 0.0000 0.0000
# 4 0.0000 0.0000 0.0000 11.6031 0.0000 0.0000
# 5 0.0000 0.0000 0.0000 0.0000 17.7142 0.0000
# 6 0.0000 0.0000 0.0000 0.0000 0.0000 19.1151
#
#
#
# Elastic Compliance Matrix: (Units=1/GPa)
#
#
# Indices 1 2 3 4 5 6 
#
# 1 0.024649 -0.005718 -0.006715 0.000000 0.000000 0.000000
# 2 -0.005718 0.016571 -0.007798 0.000000 0.000000 0.000000
# 3 -0.006715 -0.007798 0.021949 0.000000 0.000000 0.000000
# 4 0.000000 0.000000 0.000000 0.086184 0.000000 0.000000
# 5 0.000000 0.000000 0.000000 0.000000 0.056452 0.000000
# 6 0.000000 0.000000 0.000000 0.000000 0.000000 0.052315
#
#
# Mechanical properties :
#
#
# Convention : Reuss Voigt Hill
#
# Bulk Modulus (GPa) = 44.03485 47.36408 45.69947
# Shear Modulus (GPa) = 16.33183 17.21678 16.77431
#
# Velocity S-wave (km/s) = 3.38661 3.47715 3.43218
# Velocity P-wave (km/s) = 6.79822 7.02726 6.91369
#
# Compressibility (1/GPa) = 0.02270929
#
# Stress axis : x y z
#
# Youngs Moduli (GPa) = 40.56878 60.34615 45.55979
#
# Poissons Ratio (x) = 0.34504 0.30593
# Poissons Ratio (y) = 0.23196 0.35527
# Poissons Ratio (z) = 0.27241 0.47057
#
# Static dielectric constant tensor:
#      x y z
#    x 2.804630 0.000000 0.000000 
#    y 0.000000 2.774010 0.000000 
#    z 0.000000 0.000000 2.841900 
# 
# 
# High freq. dielectric constant tensor:
#      x y z
#    x 1.538980 0.000000 0.000000 
#    y 0.000000 1.516930 0.000000 
#    z 0.000000 0.000000 1.520940 
# 
# From -- ./inp_files/36463.got.cif
#   From: 2010.03.12/outbox.cif.g09.slc.cpg/sg51_19_cif.got.tgz:36463.got - 2010.04.16 13:43:02.
