data_PCOD8214577
_publ_section_title
;
Structure prediction by ZEFSAII (Michael W. Deem and Ramdas Pophale) SiO2 
 PCOD8214577
Probable space group: P M M A
;
_chemical_formula_sum "Si O2"
_cell_formula_units_Z 64
_cell_length_a 14.958391
_cell_length_b 8.891127
_cell_length_c 23.968569
_cell_angle_alpha 90.000000
_cell_angle_beta 90.000000
_cell_angle_gamma 90.000000
_cell_volume 3187.746671
_symmetry_space_group_name_H-M "P M M A"
_symmetry_group_IT_number 51
_symmetry_cell_setting 'orthorhombic'
loop_
_space_group_symop_operation_xyz
x,y,z
1/2-x,-y,z
1/2+x,-y,-z
-x,y,-z
-x,-y,-z
1/2+x,y,-z
1/2-x,y,z
x,-y,z
loop_
_atom_site_type_symbol
_atom_site_label
_atom_site_fract_x
_atom_site_fract_y
_atom_site_fract_z
Si Si1 0.112742 0.169277 0.617372
Si Si2 0.147623 0.670308 0.502100
Si Si3 0.591749 0.169513 0.605700
Si Si4 0.506238 0.822059 0.789729
Si Si5 0.505104 0.821311 0.915297
Si Si6 0.148217 0.821274 0.996364
Si Si7 0.350400 0.329573 0.287839
Si Si8 0.849309 0.670286 0.272801
O O1 0.135915 0.234861 0.557556
O O2 0.157850 0.272323 0.663859
O O3 0.007803 0.167741 0.629470
O O4 0.150987 0.000000 0.620652
O O5 0.250000 0.673127 0.482732
O O6 0.114180 0.500000 0.511903
O O7 0.090072 0.744790 0.453118
O O8 0.651159 0.254374 0.651191
O O9 0.628051 0.000000 0.597070
O O10 0.510563 0.758009 0.852639
O O11 0.588608 0.757424 0.755576
O O12 0.412017 0.775728 0.763744
O O13 0.513635 0.000000 0.788366
O O14 0.411977 0.765459 0.943771
O O15 0.503828 0.000000 0.915606
O O16 0.593831 0.766329 0.948584
O O17 0.250000 0.753835 0.994733
O O18 0.155148 0.000000 0.996120
O O19 0.250000 0.324671 0.264220
O O20 0.385164 0.500000 0.294030
O O21 0.750000 0.676722 0.246823
O O22 0.886355 0.500000 0.272798
#
# Coordination Sequence:
#
# PCOD8214577 Si02
#       8
#     8   8   8   8   8   8   8   8
#     4  11  23  39  60  86 113 144 187 241 299 354
#     4  11  24  39  56  82 114 149 190 234 286 354
#     4  11  23  39  60  86 113 144 187 241 299 354
#     4  11  22  37  58  87 121 156 195 244 297 346
#     4   8  16  28  45  76 115 151 191 234 281 341
#     4   8  13  25  46  73 111 156 192 228 280 338
#     4  11  24  41  61  84 113 154 200 244 294 354
#     4  11  24  41  61  84 113 154 200 244 294 354
#
# _framework density 20.076878000000001
#
# number of rings (size 3 to 8) (size 9 to 14) (size 15 to 20)
#    0.000    1.750    1.250    4.125    0.000   10.000 
#    0.000    2.500    0.000    0.000    0.000    7.000 
#    0.000   12.000    0.000    0.000    0.000    0.000 
#
# Total GULP energy -793632.341441 kJ/mol
# GULP energy per Si atom -12400.505335 kJ/mol
# Density = 2.003118 g / cm^3
# Si number density = 20.076878 Si / 1000 Ang^3
#
#
#
# Elastic Constant Matrix: (Units=GPa)
#
#
# Indices 1 2 3 4 5 6 
#
# 1 112.5442 24.3189 38.7147 0.0000 0.0000 0.0000
# 2 24.3189 90.2980 28.4287 0.0000 0.0000 0.0000
# 3 38.7147 28.4287 135.2635 0.0000 0.0000 0.0000
# 4 0.0000 0.0000 0.0000 -2.7044 0.0000 0.0000
# 5 0.0000 0.0000 0.0000 0.0000 6.9027 0.0000
# 6 0.0000 0.0000 0.0000 0.0000 0.0000 34.6142
#
#
#
# Elastic Compliance Matrix: (Units=1/GPa)
#
#
# Indices 1 2 3 4 5 6 
#
# 1 0.010167 -0.001951 -0.002500 0.000000 0.000000 0.000000
# 2 -0.001951 0.012234 -0.002013 0.000000 0.000000 0.000000
# 3 -0.002500 -0.002013 0.008532 0.000000 0.000000 0.000000
# 4 0.000000 0.000000 0.000000 -0.369772 0.000000 0.000000
# 5 0.000000 0.000000 0.000000 0.000000 0.144870 0.000000
# 6 0.000000 0.000000 0.000000 0.000000 0.000000 0.028890
#
#
# Mechanical properties :
#
#
# Convention : Reuss Voigt Hill
#
# Bulk Modulus (GPa) = 55.54133 57.89225 56.71679
# Shear Modulus (GPa) = -34.21112 24.20541 -5.00286
#
# Velocity S-wave (km/s) = -4.13244 3.47599 -1.58027
# Velocity P-wave (km/s) = 2.22598 6.70879 4.99815
#
# Compressibility (1/GPa) = 0.01800461
#
# Stress axis : x y z
#
# Youngs Moduli (GPa) = 98.35795 81.74220 117.21259
#
# Poissons Ratio (x) = 0.15949 0.29302
# Poissons Ratio (y) = 0.19191 0.23592
# Poissons Ratio (z) = 0.24588 0.16453
#
# Static dielectric constant tensor:
#      x y z
#    x 3.825060 0.000000 0.000000 
#    y 0.000000 3.530680 0.000000 
#    z 0.000000 0.000000 3.714200 
# 
# 
# High freq. dielectric constant tensor:
#      x y z
#    x 1.795330 0.000000 0.000000 
#    y 0.000000 1.766920 0.000000 
#    z 0.000000 0.000000 1.778130 
# 
# From -- ./inp_files/35766.got.cif
#   From: 2010.03.12/outbox.cif.g09.slc.cpg/sg51_18_cif.got.tgz:35766.got - 2010.04.16 13:43:02.
