data_PCOD8214361
_publ_section_title
;
Structure prediction by ZEFSAII (Michael W. Deem and Ramdas Pophale) SiO2 
 PCOD8214361
Probable space group: P M M A
;
_chemical_formula_sum "Si O2"
_cell_formula_units_Z 48
_cell_length_a 17.890228
_cell_length_b 8.867922
_cell_length_c 15.599452
_cell_angle_alpha 90.000000
_cell_angle_beta 90.000000
_cell_angle_gamma 90.000000
_cell_volume 2474.839745
_symmetry_space_group_name_H-M "P M M A"
_symmetry_group_IT_number 51
_symmetry_cell_setting 'orthorhombic'
loop_
_space_group_symop_operation_xyz
x,y,z
1/2-x,-y,z
1/2+x,-y,-z
-x,y,-z
-x,-y,-z
1/2+x,y,-z
1/2-x,y,z
x,-y,z
loop_
_atom_site_type_symbol
_atom_site_label
_atom_site_fract_x
_atom_site_fract_y
_atom_site_fract_z
Si Si1 0.523645 0.828797 0.141534
Si Si2 0.532162 0.677014 0.319761
Si Si3 0.615379 0.829575 0.979605
Si Si4 0.750000 0.673471 0.901658
Si Si5 0.336378 0.175630 0.583070
Si Si6 0.615029 0.176801 0.609485
Si Si7 0.750000 0.679792 0.711002
O O1 0.526091 0.712639 0.219286
O O2 0.451204 0.796236 0.085387
O O3 0.523315 0.000000 0.177206
O O4 0.593648 0.803141 0.078607
O O5 0.522473 0.500000 0.334186
O O6 0.613629 0.729124 0.351440
O O7 0.467854 0.762520 0.372533
O O8 0.679354 0.713963 0.958089
O O9 0.643928 0.000000 0.967296
O O10 0.750000 0.500000 0.883190
O O11 0.750000 0.747815 0.807316
O O12 0.250000 0.225699 0.592421
O O13 0.364679 0.211249 0.488076
O O14 0.345475 0.000000 0.604808
O O15 0.674905 0.260123 0.668055
O O16 0.618121 0.000000 0.629811
O O17 0.750000 0.500000 0.705628
#
# Coordination Sequence:
#
# PCOD8214361 Si02
#       7
#     8   8   8   4   8   8   4
#     4   9  19  39  63  86 111 148 197 246 290 341
#     4  12  25  38  58  92 124 157 197 241 298 358
#     4   9  19  37  62  86 111 147 196 245 290 338
#     4  11  23  35  51  84 123 156 187 225 288 357
#     4  10  22  43  65  86 114 155 205 250 295 347
#     4  11  22  40  64  89 117 157 204 247 293 349
#     4  11  23  37  57  90 129 160 191 243 304 359
#
# _framework density 19.395195999999999
#
# number of rings (size 3 to 8) (size 9 to 14) (size 15 to 20)
#    0.000    1.667    0.833    5.000    0.000    9.000 
#    1.500    1.667    0.000    0.000    0.000    0.000 
#    0.000    0.000    0.000    0.000    0.000    0.000 
#
# Total GULP energy -595322.235832 kJ/mol
# GULP energy per Si atom -12402.546580 kJ/mol
# Density = 1.935105 g / cm^3
# Si number density = 19.395196 Si / 1000 Ang^3
#
#
#
# Elastic Constant Matrix: (Units=GPa)
#
#
# Indices 1 2 3 4 5 6 
#
# 1 104.3838 38.3267 39.9913 0.0000 0.0000 0.0000
# 2 38.3267 76.3483 28.4132 0.0000 0.0000 0.0000
# 3 39.9913 28.4132 57.3697 0.0000 0.0000 0.0000
# 4 0.0000 0.0000 0.0000 23.7800 0.0000 0.0000
# 5 0.0000 0.0000 0.0000 0.0000 19.0330 0.0000
# 6 0.0000 0.0000 0.0000 0.0000 0.0000 232.4978
#
#
#
# Elastic Compliance Matrix: (Units=1/GPa)
#
#
# Indices 1 2 3 4 5 6 
#
# 1 0.014085 -0.004189 -0.007744 0.000000 0.000000 0.000000
# 2 -0.004189 0.017303 -0.005650 0.000000 0.000000 0.000000
# 3 -0.007744 -0.005650 0.025627 0.000000 0.000000 0.000000
# 4 0.000000 0.000000 0.000000 0.042052 0.000000 0.000000
# 5 0.000000 0.000000 0.000000 0.000000 0.052540 0.000000
# 6 0.000000 0.000000 0.000000 0.000000 0.000000 0.004301
#
#
# Mechanical properties :
#
#
# Convention : Reuss Voigt Hill
#
# Bulk Modulus (GPa) = 45.76558 50.17381 47.96969
# Shear Modulus (GPa) = 25.20714 63.82017 44.51365
#
# Velocity S-wave (km/s) = 3.60899 5.74252 4.79590
# Velocity P-wave (km/s) = 6.40422 8.36027 7.44675
#
# Compressibility (1/GPa) = 0.02185048
#
# Stress axis : x y z
#
# Youngs Moduli (GPa) = 70.99875 57.79287 39.02141
#
# Poissons Ratio (x) = 0.24208 0.30217
# Poissons Ratio (y) = 0.29739 0.22046
# Poissons Ratio (z) = 0.54979 0.32652
#
# Static dielectric constant tensor:
#      x y z
#    x 3.543100 0.000000 0.000000 
#    y 0.000000 3.460850 0.000000 
#    z 0.000000 0.000000 3.579290 
# 
# 
# High freq. dielectric constant tensor:
#      x y z
#    x 1.762130 0.000000 0.000000 
#    y 0.000000 1.750720 0.000000 
#    z 0.000000 0.000000 1.761390 
# 
# From -- ./inp_files/24860.got.cif
#   From: 2010.03.12/outbox.cif.g09.slc.cpg/sg51_13_cif.got.tgz:24860.got - 2010.04.16 13:43:02.
