data_PCOD8214063
_publ_section_title
;
Structure prediction by ZEFSAII (Michael W. Deem and Ramdas Pophale) SiO2 
 PCOD8214063
Probable space group: P M M A
;
_chemical_formula_sum "Si O2"
_cell_formula_units_Z 40
_cell_length_a 9.825274
_cell_length_b 14.718340
_cell_length_c 13.440868
_cell_angle_alpha 90.000000
_cell_angle_beta 90.000000
_cell_angle_gamma 90.000000
_cell_volume 1943.707084
_symmetry_space_group_name_H-M "P M M A"
_symmetry_group_IT_number 51
_symmetry_cell_setting 'orthorhombic'
loop_
_space_group_symop_operation_xyz
x,y,z
1/2-x,-y,z
1/2+x,-y,-z
-x,y,-z
-x,-y,-z
1/2+x,y,-z
1/2-x,y,z
x,-y,z
loop_
_atom_site_type_symbol
_atom_site_label
_atom_site_fract_x
_atom_site_fract_y
_atom_site_fract_z
Si Si1 0.399362 0.397205 0.577721
Si Si2 0.750000 0.108609 0.147244
Si Si3 0.091680 0.000000 0.399192
Si Si4 0.402070 0.357699 0.255347
Si Si5 0.750000 0.101356 0.927326
Si Si6 0.465171 0.149204 0.233783
Si Si7 0.399461 0.500000 0.089218
O O1 0.500000 0.345554 0.500000
O O2 0.250000 0.349305 0.583678
O O3 0.376433 0.500000 0.541614
O O4 0.474991 0.398480 0.682021
O O5 0.622922 0.147373 0.207865
O O6 0.750000 0.000000 0.152049
O O7 0.750000 0.152007 0.034847
O O8 0.062830 0.088808 0.331758
O O9 0.000000 0.000000 0.500000
O O10 0.250000 0.000000 0.431640
O O11 0.250000 0.381259 0.297670
O O12 0.414866 0.250230 0.252651
O O13 0.419996 0.406700 0.150037
O O14 0.615384 0.115790 0.862941
O O15 0.750000 0.000000 0.965349
O O16 0.250000 0.500000 0.042543
O O17 0.500000 0.500000 0.000000
#
# Coordination Sequence:
#
# PCOD8214063 Si02
#       7
#     8   4   4   8   4   8   4
#     4  10  21  38  64  94 123 158 207 267 328 383
#     4  11  24  38  70 103 131 168 213 274 328 400
#     4  12  26  46  71  95 134 180 217 271 335 406
#     4  11  23  42  66  92 129 177 221 272 325 386
#     4  11  20  42  68  95 129 170 213 262 336 386
#     4  12  23  44  65  97 139 172 218 272 331 400
#     4  10  24  44  65  92 131 178 225 274 330 392
#
# _framework density 20.579232000000001
#
# number of rings (size 3 to 8) (size 9 to 14) (size 15 to 20)
#    0.000    1.000    5.000    1.200    2.800    5.600 
#    0.000    2.000    0.000    0.000    0.000    0.000 
#    0.000    0.000    0.000    0.000    0.000    0.000 
#
# Total GULP energy -495726.993742 kJ/mol
# GULP energy per Si atom -12393.174844 kJ/mol
# Density = 2.053239 g / cm^3
# Si number density = 20.579232 Si / 1000 Ang^3
#
#
#
# Elastic Constant Matrix: (Units=GPa)
#
#
# Indices 1 2 3 4 5 6 
#
# 1 217.7267 22.1462 87.1895 0.0000 0.0000 0.0000
# 2 22.1462 98.3634 32.6331 0.0000 0.0000 0.0000
# 3 87.1895 32.6331 123.0693 0.0000 0.0000 0.0000
# 4 0.0000 0.0000 0.0000 9.5782 0.0000 0.0000
# 5 0.0000 0.0000 0.0000 0.0000 45.4754 0.0000
# 6 0.0000 0.0000 0.0000 0.0000 0.0000 20.7302
#
#
#
# Elastic Compliance Matrix: (Units=1/GPa)
#
#
# Indices 1 2 3 4 5 6 
#
# 1 0.006412 0.000070 -0.004561 0.000000 0.000000 0.000000
# 2 0.000070 0.011148 -0.003005 0.000000 0.000000 0.000000
# 3 -0.004561 -0.003005 0.012154 0.000000 0.000000 0.000000
# 4 0.000000 0.000000 0.000000 0.104403 0.000000 0.000000
# 5 0.000000 0.000000 0.000000 0.000000 0.021990 0.000000
# 6 0.000000 0.000000 0.000000 0.000000 0.000000 0.048239
#
#
# Mechanical properties :
#
#
# Convention : Reuss Voigt Hill
#
# Bulk Modulus (GPa) = 67.93479 80.34410 74.13945
# Shear Modulus (GPa) = 22.29685 34.96948 28.63317
#
# Velocity S-wave (km/s) = 3.29517 4.12668 3.73414
# Velocity P-wave (km/s) = 6.89642 7.86334 7.39570
#
# Compressibility (1/GPa) = 0.01472000
#
# Stress axis : x y z
#
# Youngs Moduli (GPa) = 155.94605 89.70436 82.27783
#
# Poissons Ratio (x) = -0.00624 0.37530
# Poissons Ratio (y) = -0.01085 0.24726
# Poissons Ratio (z) = 0.71133 0.26958
#
# Static dielectric constant tensor:
#      x y z
#    x 3.832530 0.000000 0.000000 
#    y 0.000000 3.897320 0.000000 
#    z 0.000000 0.000000 3.684270 
# 
# 
# High freq. dielectric constant tensor:
#      x y z
#    x 1.830520 0.000000 0.000000 
#    y 0.000000 1.788390 0.000000 
#    z 0.000000 0.000000 1.800000 
# 
# From -- ./inp_files/20620.got.cif
#   From: 2010.03.12/outbox.cif.g09.slc.cpg/sg51_11_cif.got.tgz:20620.got - 2010.04.16 13:43:02.
