data_PCOD8214304
_publ_section_title
;
Structure prediction by ZEFSAII (Michael W. Deem and Ramdas Pophale) SiO2 
 PCOD8214304
Probable space group: P M M A
;
_chemical_formula_sum "Si O2"
_cell_formula_units_Z 40
_cell_length_a 16.181305
_cell_length_b 8.765242
_cell_length_c 12.868054
_cell_angle_alpha 90.000000
_cell_angle_beta 90.000000
_cell_angle_gamma 90.000000
_cell_volume 1825.115400
_symmetry_space_group_name_H-M "P M M A"
_symmetry_group_IT_number 51
_symmetry_cell_setting 'orthorhombic'
loop_
_space_group_symop_operation_xyz
x,y,z
1/2-x,-y,z
1/2+x,-y,-z
-x,y,-z
-x,-y,-z
1/2+x,y,-z
1/2-x,y,z
x,-y,z
loop_
_atom_site_type_symbol
_atom_site_label
_atom_site_fract_x
_atom_site_fract_y
_atom_site_fract_z
Si Si1 0.250000 0.328079 0.190493
Si Si2 0.391658 0.178601 0.068110
Si Si3 0.250000 0.329232 0.435464
Si Si4 0.841290 0.326520 0.142053
Si Si5 0.007446 0.675524 0.227035
Si Si6 0.923035 0.180150 0.569836
O O1 0.250000 0.500000 0.143390
O O2 0.327987 0.232431 0.155080
O O3 0.250000 0.335143 0.312720
O O4 0.474568 0.263116 0.108960
O O5 0.407350 0.000000 0.073161
O O6 0.359604 0.218797 0.954839
O O7 0.250000 0.500000 0.482523
O O8 0.164568 0.247388 0.471243
O O9 0.750000 0.288098 0.186431
O O10 0.845891 0.500000 0.101239
O O11 0.907751 0.303664 0.235099
O O12 0.035173 0.500000 0.238447
O O13 0.056030 0.770700 0.312973
O O14 0.000000 0.238926 0.500000
O O15 0.914728 0.000000 0.565029
#
# Coordination Sequence:
#
# PCOD8214304 Si02
#       6
#     4   8   4   8   8   8
#     4  11  21  35  59  90 122 159 204 254 305 357
#     4  12  23  35  58  91 124 162 206 254 307 362
#     4  11  23  41  71 100 124 163 210 260 317 377
#     4  10  22  40  60  83 121 169 212 255 304 365
#     4  11  23  40  63  90 122 163 210 258 310 367
#     4  11  25  45  69  97 131 166 204 259 324 382
#
# _framework density 21.916422000000001
#
# number of rings (size 3 to 8) (size 9 to 14) (size 15 to 20)
#    0.000    1.000    3.000    4.200    0.000    6.400 
#    1.800    0.000    0.000    0.000    0.000    0.000 
#    0.000    0.000    0.000    0.000    0.000    0.000 
#
# Total GULP energy -495835.732139 kJ/mol
# GULP energy per Si atom -12395.893303 kJ/mol
# Density = 2.186654 g / cm^3
# Si number density = 21.916422 Si / 1000 Ang^3
#
#
#
# Elastic Constant Matrix: (Units=GPa)
#
#
# Indices 1 2 3 4 5 6 
#
# 1 175.2673 53.4269 21.8076 0.0000 0.0000 0.0000
# 2 53.4269 107.4562 14.9867 0.0000 0.0000 0.0000
# 3 21.8076 14.9867 30.5848 0.0000 0.0000 0.0000
# 4 0.0000 0.0000 0.0000 23.5700 0.0000 0.0000
# 5 0.0000 0.0000 0.0000 0.0000 30.6047 0.0000
# 6 0.0000 0.0000 0.0000 0.0000 0.0000 39.9489
#
#
#
# Elastic Compliance Matrix: (Units=1/GPa)
#
#
# Indices 1 2 3 4 5 6 
#
# 1 0.007069 -0.003018 -0.003561 0.000000 0.000000 0.000000
# 2 -0.003018 0.011277 -0.003374 0.000000 0.000000 0.000000
# 3 -0.003561 -0.003374 0.036889 0.000000 0.000000 0.000000
# 4 0.000000 0.000000 0.000000 0.042427 0.000000 0.000000
# 5 0.000000 0.000000 0.000000 0.000000 0.032675 0.000000
# 6 0.000000 0.000000 0.000000 0.000000 0.000000 0.025032
#
#
# Mechanical properties :
#
#
# Convention : Reuss Voigt Hill
#
# Bulk Modulus (GPa) = 28.30624 54.86116 41.58370
# Shear Modulus (GPa) = 26.73079 33.69719 30.21399
#
# Velocity S-wave (km/s) = 3.49617 3.92539 3.71698
# Velocity P-wave (km/s) = 5.40751 6.75509 6.11851
#
# Compressibility (1/GPa) = 0.03532790
#
# Stress axis : x y z
#
# Youngs Moduli (GPa) = 141.47063 88.67502 27.10867
#
# Poissons Ratio (x) = 0.26760 0.09654
# Poissons Ratio (y) = 0.42693 0.09147
# Poissons Ratio (z) = 0.50382 0.29920
#
# Static dielectric constant tensor:
#      x y z
#    x 4.397230 0.000000 0.000000 
#    y 0.000000 3.967680 0.000000 
#    z 0.000000 0.000000 3.551100 
# 
# 
# High freq. dielectric constant tensor:
#      x y z
#    x 1.893810 0.000000 0.000000 
#    y 0.000000 1.862150 0.000000 
#    z 0.000000 0.000000 1.827570 
# 
# From -- ./inp_files/23759.got.cif
#   From: 2010.03.12/outbox.cif.g09.slc.cpg/sg51_12_cif.got.tgz:23759.got - 2010.04.16 13:43:02.
