data_PCOD8214652
_publ_section_title
;
Structure prediction by ZEFSAII (Michael W. Deem and Ramdas Pophale) SiO2 
 PCOD8214652
Probable space group: P M M A
;
_chemical_formula_sum "Si O2"
_cell_formula_units_Z 36
_cell_length_a 10.033662
_cell_length_b 11.153976
_cell_length_c 18.861041
_cell_angle_alpha 90.000000
_cell_angle_beta 90.000000
_cell_angle_gamma 90.000000
_cell_volume 2110.837650
_symmetry_space_group_name_H-M "P M M A"
_symmetry_group_IT_number 51
_symmetry_cell_setting 'orthorhombic'
loop_
_space_group_symop_operation_xyz
x,y,z
1/2-x,-y,z
1/2+x,-y,-z
-x,y,-z
-x,-y,-z
1/2+x,y,-z
1/2-x,y,z
x,-y,z
loop_
_atom_site_type_symbol
_atom_site_label
_atom_site_fract_x
_atom_site_fract_y
_atom_site_fract_z
Si Si1 0.592640 0.864733 0.784493
Si Si2 0.250000 0.644964 0.431011
Si Si3 0.090684 0.000000 0.568819
Si Si4 0.002364 0.240121 0.644831
Si Si5 0.250000 0.637103 0.590691
Si Si6 0.101688 0.857069 0.057851
O O1 0.750000 0.864769 0.773088
O O2 0.526429 0.775918 0.728050
O O3 0.556765 0.816986 0.863284
O O4 0.538224 0.000000 0.773931
O O5 0.250000 0.500000 0.423654
O O6 0.377812 0.702671 0.394819
O O7 0.250000 0.695004 0.511852
O O8 0.000000 0.000000 0.500000
O O9 0.049065 0.114796 0.613314
O O10 0.250000 0.000000 0.552413
O O11 0.122100 0.332308 0.637061
O O12 0.250000 0.500000 0.573276
O O13 0.250000 0.808380 0.040809
O O14 0.103158 0.000000 0.055168
O O15 0.000000 0.802973 0.000000
#
# Coordination Sequence:
#
# PCOD8214652 Si02
#       6
#     8   4   4   8   4   8
#     4   9  17  31  49  74 108 143 170 205 259 316
#     4  11  24  41  61  79  98 140 192 232 275 322
#     4  12  26  38  54  80 109 142 179 222 275 338
#     4  12  22  37  57  79 109 138 180 224 269 329
#     4  11  24  41  55  73 104 140 178 236 283 306
#     4   8  14  26  44  67  99 138 175 201 236 299
#
# _framework density 17.054841
#
# number of rings (size 3 to 8) (size 9 to 14) (size 15 to 20)
#    0.000    1.778    3.333    4.000    1.556    1.778 
#    2.000    0.000    0.000    0.000    0.000    0.000 
#    0.000    5.333    0.000    0.000    0.000    0.000 
#
# Total GULP energy -446255.896636 kJ/mol
# GULP energy per Si atom -12395.997129 kJ/mol
# Density = 1.701602 g / cm^3
# Si number density = 17.054841 Si / 1000 Ang^3
#
#
#
# Elastic Constant Matrix: (Units=GPa)
#
#
# Indices 1 2 3 4 5 6 
#
# 1 128.0371 32.8340 75.0600 0.0000 0.0000 0.0000
# 2 32.8340 44.7068 27.1488 0.0000 0.0000 0.0000
# 3 75.0600 27.1488 158.3823 0.0000 0.0000 0.0000
# 4 0.0000 0.0000 0.0000 3.3220 0.0000 0.0000
# 5 0.0000 0.0000 0.0000 0.0000 31.2447 0.0000
# 6 0.0000 0.0000 0.0000 0.0000 0.0000 29.0232
#
#
#
# Elastic Compliance Matrix: (Units=1/GPa)
#
#
# Indices 1 2 3 4 5 6 
#
# 1 0.012120 -0.006042 -0.004708 0.000000 0.000000 0.000000
# 2 -0.006042 0.027979 -0.001933 0.000000 0.000000 0.000000
# 3 -0.004708 -0.001933 0.008876 0.000000 0.000000 0.000000
# 4 0.000000 0.000000 0.000000 0.301023 0.000000 0.000000
# 5 0.000000 0.000000 0.000000 0.000000 0.032005 0.000000
# 6 0.000000 0.000000 0.000000 0.000000 0.000000 0.034455
#
#
# Mechanical properties :
#
#
# Convention : Reuss Voigt Hill
#
# Bulk Modulus (GPa) = 42.35535 66.80129 54.57832
# Shear Modulus (GPa) = 11.11867 25.79021 18.45444
#
# Velocity S-wave (km/s) = 2.55607 3.89291 3.29304
# Velocity P-wave (km/s) = 5.79656 7.71102 6.82129
#
# Compressibility (1/GPa) = 0.02360977
#
# Stress axis : x y z
#
# Youngs Moduli (GPa) = 82.51038 35.74108 112.65941
#
# Poissons Ratio (x) = 0.21595 0.53040
# Poissons Ratio (y) = 0.49853 0.21772
# Poissons Ratio (z) = 0.38846 0.06907
#
# Static dielectric constant tensor:
#      x y z
#    x -2.271450 0.000000 0.000000 
#    y 0.000000 2.985760 0.000000 
#    z 0.000000 0.000000 3.386040 
# 
# 
# High freq. dielectric constant tensor:
#      x y z
#    x 1.664850 0.000000 0.000000 
#    y 0.000000 1.622160 0.000000 
#    z 0.000000 0.000000 1.661100 
# 
# From -- ./inp_files/31336.got.cif
#   From: 2010.03.12/outbox.cif.g09.slc.cpg/sg51_16_cif.got.tgz:31336.got - 2010.04.16 13:43:02.
