data_PCOD8214588
_publ_section_title
;
Structure prediction by ZEFSAII (Michael W. Deem and Ramdas Pophale) SiO2 
 PCOD8214588
Probable space group: P M M A
;
_chemical_formula_sum "Si O2"
_cell_formula_units_Z 32
_cell_length_a 16.222960
_cell_length_b 8.489117
_cell_length_c 11.200354
_cell_angle_alpha 90.000000
_cell_angle_beta 90.000000
_cell_angle_gamma 90.000000
_cell_volume 1542.497134
_symmetry_space_group_name_H-M "P M M A"
_symmetry_group_IT_number 51
_symmetry_cell_setting 'orthorhombic'
loop_
_space_group_symop_operation_xyz
x,y,z
1/2-x,-y,z
1/2+x,-y,-z
-x,y,-z
-x,-y,-z
1/2+x,y,-z
1/2-x,y,z
x,-y,z
loop_
_atom_site_type_symbol
_atom_site_label
_atom_site_fract_x
_atom_site_fract_y
_atom_site_fract_z
Si Si1 0.250000 0.675791 0.800163
Si Si2 0.551767 0.681937 0.834795
Si Si3 0.419658 0.814339 0.422677
Si Si4 0.750000 0.322000 0.480840
Si Si5 0.391611 0.180776 0.943162
O O1 0.250000 0.500000 0.852955
O O2 0.250000 0.671315 0.659580
O O3 0.171382 0.769804 0.842600
O O4 0.525123 0.500000 0.837713
O O5 0.580152 0.726511 0.703385
O O6 0.478693 0.793414 0.879147
O O7 0.621959 0.716875 0.935011
O O8 0.500000 0.760530 0.500000
O O9 0.333227 0.768435 0.482565
O O10 0.422712 0.000000 0.402165
O O11 0.750000 0.500000 0.533996
O O12 0.379837 0.000000 0.977620
#
# Coordination Sequence:
#
# PCOD8214588 Si02
#       5
#     4   8   8   4   8
#     4  11  23  40  61  88 121 155 197 247 302 359
#     4  11  22  39  62  88 120 157 200 247 301 361
#     4  11  24  42  65  92 125 165 208 256 309 366
#     4  11  25  42  63  92 125 163 207 255 306 369
#     4  11  22  38  61  89 120 155 198 246 300 360
#
# _framework density 20.745581999999999
#
# number of rings (size 3 to 8) (size 9 to 14) (size 15 to 20)
#    0.000    1.000    0.000    9.000    0.000    9.000 
#    0.000    5.000    0.000    0.000    0.000    0.000 
#    0.000    0.000    0.000    0.000    0.000    0.000 
#
# Total GULP energy -396766.664569 kJ/mol
# GULP energy per Si atom -12398.958268 kJ/mol
# Density = 2.069836 g / cm^3
# Si number density = 20.745582 Si / 1000 Ang^3
#
#
#
# Elastic Constant Matrix: (Units=GPa)
#
#
# Indices 1 2 3 4 5 6 
#
# 1 101.4693 24.9212 38.4737 0.0000 0.0000 0.0000
# 2 24.9212 115.3245 33.1670 0.0000 0.0000 0.0000
# 3 38.4737 33.1670 113.1575 0.0000 0.0000 0.0000
# 4 0.0000 0.0000 0.0000 35.9823 0.0000 0.0000
# 5 0.0000 0.0000 0.0000 0.0000 26.5209 0.0000
# 6 0.0000 0.0000 0.0000 0.0000 0.0000 29.2824
#
#
#
# Elastic Compliance Matrix: (Units=1/GPa)
#
#
# Indices 1 2 3 4 5 6 
#
# 1 0.011544 -0.001492 -0.003488 0.000000 0.000000 0.000000
# 2 -0.001492 0.009662 -0.002325 0.000000 0.000000 0.000000
# 3 -0.003488 -0.002325 0.010705 0.000000 0.000000 0.000000
# 4 0.000000 0.000000 0.000000 0.027791 0.000000 0.000000
# 5 0.000000 0.000000 0.000000 0.000000 0.037706 0.000000
# 6 0.000000 0.000000 0.000000 0.000000 0.000000 0.034150
#
#
# Mechanical properties :
#
#
# Convention : Reuss Voigt Hill
#
# Bulk Modulus (GPa) = 57.79612 58.11946 57.95779
# Shear Modulus (GPa) = 32.90900 33.91643 33.41271
#
# Velocity S-wave (km/s) = 3.98718 4.04775 4.01757
# Velocity P-wave (km/s) = 7.00833 7.06554 7.03699
#
# Compressibility (1/GPa) = 0.01730220
#
# Stress axis : x y z
#
# Youngs Moduli (GPa) = 86.62531 103.49678 93.41836
#
# Poissons Ratio (x) = 0.15437 0.32582
# Poissons Ratio (y) = 0.12920 0.21719
# Poissons Ratio (z) = 0.30213 0.24062
#
# Static dielectric constant tensor:
#      x y z
#    x 3.764890 0.000000 0.000000 
#    y 0.000000 3.921970 0.000000 
#    z 0.000000 0.000000 4.056810 
# 
# 
# High freq. dielectric constant tensor:
#      x y z
#    x 1.806210 0.000000 0.000000 
#    y 0.000000 1.827880 0.000000 
#    z 0.000000 0.000000 1.827330 
# 
# From -- ./inp_files/15978.got.cif
#   From: 2010.03.12/outbox.cif.g09.slc.cpg/sg51_8_cif.got.tgz:15978.got - 2010.04.16 13:43:02.
