data_PCOD8214920
_publ_section_title
;
Structure prediction by ZEFSAII (Michael W. Deem and Ramdas Pophale) SiO2 
 PCOD8214920
Probable space group: P N N A
;
_chemical_formula_sum "Si O2"
_cell_formula_units_Z 56
_cell_length_a 21.293663
_cell_length_b 5.319559
_cell_length_c 28.443385
_cell_angle_alpha 90.000000
_cell_angle_beta 90.000000
_cell_angle_gamma 90.000000
_cell_volume 3221.864610
_symmetry_space_group_name_H-M "P N N A"
_symmetry_group_IT_number 52
_symmetry_cell_setting 'orthorhombic'
loop_
_space_group_symop_operation_xyz
x,y,z
1/2-x,-y,z
x,1/2-y,1/2-z
1/2-x,1/2+y,1/2-z
-x,-y,-z
1/2+x,y,-z
-x,1/2+y,1/2+z
1/2+x,1/2-y,1/2+z
loop_
_atom_site_type_symbol
_atom_site_label
_atom_site_fract_x
_atom_site_fract_y
_atom_site_fract_z
Si Si1 0.183929 0.156515 0.653549
Si Si2 0.922473 0.728519 0.016016
Si Si3 0.022822 0.770907 0.941900
Si Si4 0.711658 0.252138 0.046232
Si Si5 0.462175 0.317769 0.665813
Si Si6 0.180518 0.656112 0.696584
Si Si7 0.051760 0.316738 0.801607
O O1 0.189215 0.238950 0.600039
O O2 0.210950 0.374613 0.689690
O O3 0.110536 0.114302 0.664811
O O4 0.213234 0.872423 0.663209
O O5 0.934636 0.455492 0.038678
O O6 0.847916 0.758981 0.011677
O O7 0.948924 0.955424 0.047571
O O8 0.953361 0.745261 0.964320
O O9 0.019001 0.743464 0.886437
O O10 0.750000 0.500000 0.032795
O O11 0.750000 0.000000 0.037039
O O12 0.388953 0.386232 0.675602
O O13 0.492845 0.588388 0.679726
O O14 0.485844 0.083375 0.698111
O O15 0.178679 0.750000 0.750000
O O16 0.077270 0.250000 0.750000
#
# Coordination Sequence:
#
# PCOD8214920 Si02
#       7
#     8   8   8   8   8   8   8
#     4  10  18  30  45  60  80 108 154 197 225 268
#     4  10  20  35  51  73  98 119 154 197 253 304
#     4  10  19  32  54  76  96 120 148 203 254 292
#     4  12  24  37  52  69  92 126 164 202 244 285
#     4  10  16  25  41  66  90 113 150 182 226 285
#     4  10  17  27  46  65  86 116 149 189 238 288
#     4  10  18  28  45  65  90 122 155 192 236 288
#
# _framework density 17.381239000000001
#
# number of rings (size 3 to 8) (size 9 to 14) (size 15 to 20)
#    0.000    1.714    0.000   10.286    0.000    0.000 
#    0.000    0.000    0.000   14.571    0.000    0.000 
#    0.000    0.000    0.000    0.000    0.000   24.286 
#
# Total GULP energy -694204.327637 kJ/mol
# GULP energy per Si atom -12396.505851 kJ/mol
# Density = 1.734168 g / cm^3
# Si number density = 17.381239 Si / 1000 Ang^3
#
#
#
# Elastic Constant Matrix: (Units=GPa)
#
#
# Indices 1 2 3 4 5 6 
#
# 1 64.3481 26.3822 39.0866 0.0000 0.0000 0.0000
# 2 26.3822 156.7427 35.6387 0.0000 0.0000 0.0000
# 3 39.0866 35.6387 62.6101 0.0000 0.0000 0.0000
# 4 0.0000 0.0000 0.0000 3.7132 0.0000 0.0000
# 5 0.0000 0.0000 0.0000 0.0000 45.7721 0.0000
# 6 0.0000 0.0000 0.0000 0.0000 0.0000 15.3545
#
#
#
# Elastic Compliance Matrix: (Units=1/GPa)
#
#
# Indices 1 2 3 4 5 6 
#
# 1 0.025112 -0.000761 -0.015244 0.000000 0.000000 0.000000
# 2 -0.000761 0.007351 -0.003710 0.000000 0.000000 0.000000
# 3 -0.015244 -0.003710 0.027600 0.000000 0.000000 0.000000
# 4 0.000000 0.000000 0.000000 0.269306 0.000000 0.000000
# 5 0.000000 0.000000 0.000000 0.000000 0.021847 0.000000
# 6 0.000000 0.000000 0.000000 0.000000 0.000000 0.065127
#
#
# Mechanical properties :
#
#
# Convention : Reuss Voigt Hill
#
# Bulk Modulus (GPa) = 48.46206 53.99064 51.22635
# Shear Modulus (GPa) = 10.80729 25.14088 17.97408
#
# Velocity S-wave (km/s) = 2.49625 3.80733 3.21924
# Velocity P-wave (km/s) = 6.02086 7.10336 6.58439
#
# Compressibility (1/GPa) = 0.02063470
#
# Stress axis : x y z
#
# Youngs Moduli (GPa) = 39.82172 136.02887 36.23182
#
# Poissons Ratio (x) = 0.10347 0.55232
# Poissons Ratio (y) = 0.03029 0.13441
# Poissons Ratio (z) = 0.60704 0.50462
#
# Static dielectric constant tensor:
#      x y z
#    x 2.959140 0.000000 0.000000 
#    y 0.000000 4.300890 0.000000 
#    z 0.000000 0.000000 3.055890 
# 
# 
# High freq. dielectric constant tensor:
#      x y z
#    x 1.608770 0.000000 0.000000 
#    y 0.000000 1.732420 0.000000 
#    z 0.000000 0.000000 1.642980 
# 
# From -- ./inp_files/43278.got.cif
#   From: 2010.06.25/outbox.cif.g09.slc.cpg/sg52_22_cif.got.tgz:43278.got - 2010.06.26 19:32:48.
