data_PCOD8214125
_publ_section_title
;
Structure prediction by ZEFSAII (Michael W. Deem and Ramdas Pophale) SiO2 
 PCOD8214125
Probable space group: P M M A
;
_chemical_formula_sum "Si O2"
_cell_formula_units_Z 48
_cell_length_a 8.561068
_cell_length_b 31.012100
_cell_length_c 9.179947
_cell_angle_alpha 90.000000
_cell_angle_beta 90.000000
_cell_angle_gamma 90.000000
_cell_volume 2437.245606
_symmetry_space_group_name_H-M "P M M A"
_symmetry_group_IT_number 51
_symmetry_cell_setting 'orthorhombic'
loop_
_space_group_symop_operation_xyz
x,y,z
1/2-x,-y,z
1/2+x,-y,-z
-x,y,-z
-x,-y,-z
1/2+x,y,-z
1/2-x,y,z
x,-y,z
loop_
_atom_site_type_symbol
_atom_site_label
_atom_site_fract_x
_atom_site_fract_y
_atom_site_fract_z
Si Si1 0.932604 0.949909 0.344806
Si Si2 0.934318 0.122601 0.840051
Si Si3 0.565605 0.545502 0.660437
Si Si4 0.935492 0.719849 0.839379
Si Si5 0.065091 0.200671 0.660681
Si Si6 0.434845 0.638455 0.339249
O O1 0.750000 0.939379 0.341166
O O2 0.000000 0.934778 0.500000
O O3 0.019246 0.924923 0.215023
O O4 0.967626 0.000000 0.318384
O O5 0.750000 0.128225 0.843802
O O6 0.008305 0.156043 0.728076
O O7 0.000000 0.131033 0.000000
O O8 0.500000 0.544492 0.500000
O O9 0.750000 0.545812 0.650665
O O10 0.511917 0.500000 0.739938
O O11 0.511398 0.591527 0.729101
O O12 0.750000 0.722487 0.840149
O O13 0.998296 0.675911 0.765214
O O14 0.002687 0.760234 0.755149
O O15 0.000000 0.720983 0.000000
O O16 0.250000 0.201509 0.656785
O O17 0.000000 0.205675 0.500000
O O18 0.500000 0.645774 0.500000
O O19 0.250000 0.641070 0.350536
#
# Coordination Sequence:
#
# PCOD8214125 Si02
#       6
#     8   8   8   8   8   8
#     4  10  21  39  63  91 123 160 202 246 291 339
#     4  12  25  42  63  89 122 158 196 238 287 340
#     4   8  13  23  41  67  98 131 168 213 265 318
#     4  11  23  39  57  80 110 145 185 228 279 334
#     4  12  25  43  65  89 116 147 186 230 279 334
#     4   9  18  31  50  76 105 137 176 222 271 326
#
# _framework density 19.694362999999999
#
# number of rings (size 3 to 8) (size 9 to 14) (size 15 to 20)
#    0.000    1.667    0.000    5.500    0.000    4.000 
#    0.000    0.000    0.000    0.500    0.000    0.000 
#    0.000    0.000    0.000    0.000    0.000    0.167 
#
# Total GULP energy -594940.144023 kJ/mol
# GULP energy per Si atom -12394.586334 kJ/mol
# Density = 1.964954 g / cm^3
# Si number density = 19.694363 Si / 1000 Ang^3
#
#
#
# Elastic Constant Matrix: (Units=GPa)
#
#
# Indices 1 2 3 4 5 6 
#
# 1 62.1165 35.1393 49.4432 0.0000 0.0000 0.0000
# 2 35.1393 134.8104 59.5700 0.0000 0.0000 0.0000
# 3 49.4432 59.5700 108.4433 0.0000 0.0000 0.0000
# 4 0.0000 0.0000 0.0000 -5.3594 0.0000 0.0000
# 5 0.0000 0.0000 0.0000 0.0000 33.3484 0.0000
# 6 0.0000 0.0000 0.0000 0.0000 0.0000 21.2211
#
#
#
# Elastic Compliance Matrix: (Units=1/GPa)
#
#
# Indices 1 2 3 4 5 6 
#
# 1 0.025674 -0.002007 -0.010603 0.000000 0.000000 0.000000
# 2 -0.002007 0.009952 -0.004552 0.000000 0.000000 0.000000
# 3 -0.010603 -0.004552 0.016556 0.000000 0.000000 0.000000
# 4 0.000000 0.000000 0.000000 -0.186587 0.000000 0.000000
# 5 0.000000 0.000000 0.000000 0.000000 0.029986 0.000000
# 6 0.000000 0.000000 0.000000 0.000000 0.000000 0.047123
#
#
# Mechanical properties :
#
#
# Convention : Reuss Voigt Hill
#
# Bulk Modulus (GPa) = 55.99595 65.96392 60.97993
# Shear Modulus (GPa) = -293.81349 20.58986 -136.61182
#
# Velocity S-wave (km/s) = -12.22745 3.23688 -8.33766
# Velocity P-wave (km/s) = 13.07108 6.89466 7.85228
#
# Compressibility (1/GPa) = 0.01785843
#
# Stress axis : x y z
#
# Youngs Moduli (GPa) = 38.94987 100.47862 60.39944
#
# Poissons Ratio (x) = 0.20163 0.64044
# Poissons Ratio (y) = 0.07816 0.27494
# Poissons Ratio (z) = 0.41300 0.45739
#
# Static dielectric constant tensor:
#      x y z
#    x 3.709700 0.000000 0.000000 
#    y 0.000000 4.371130 0.000000 
#    z 0.000000 0.000000 3.455960 
# 
# 
# High freq. dielectric constant tensor:
#      x y z
#    x 1.775970 0.000000 0.000000 
#    y 0.000000 1.799610 0.000000 
#    z 0.000000 0.000000 1.743990 
# 
# From -- ./inp_files/6030.got.cif
#   From: 2010.03.12/outbox.cif.g09.slc.cpg/sg51_4_cif.got.tgz:6030.got - 2010.04.16 13:43:02.
