data_PCOD8214180
_publ_section_title
;
Structure prediction by ZEFSAII (Michael W. Deem and Ramdas Pophale) SiO2 
 PCOD8214180
Probable space group: P M M A
;
_chemical_formula_sum "Si O2"
_cell_formula_units_Z 48
_cell_length_a 8.987089
_cell_length_b 31.094381
_cell_length_c 9.138174
_cell_angle_alpha 90.000000
_cell_angle_beta 90.000000
_cell_angle_gamma 90.000000
_cell_volume 2553.644169
_symmetry_space_group_name_H-M "P M M A"
_symmetry_group_IT_number 51
_symmetry_cell_setting 'orthorhombic'
loop_
_space_group_symop_operation_xyz
x,y,z
1/2-x,-y,z
1/2+x,-y,-z
-x,y,-z
-x,-y,-z
1/2+x,y,-z
1/2-x,y,z
x,-y,z
loop_
_atom_site_type_symbol
_atom_site_label
_atom_site_fract_x
_atom_site_fract_y
_atom_site_fract_z
Si Si1 0.423263 0.548241 0.352490
Si Si2 0.923463 0.045394 0.345287
Si Si3 0.925737 0.861589 0.342560
Si Si4 0.577437 0.216940 0.153034
Si Si5 0.925542 0.373350 0.843674
Si Si6 0.575254 0.699681 0.344937
O O1 0.500000 0.565367 0.500000
O O2 0.250000 0.548894 0.386018
O O3 0.478540 0.500000 0.312971
O O4 0.462014 0.579037 0.216792
O O5 0.750000 0.046024 0.376146
O O6 0.966271 0.091209 0.270711
O O7 0.000000 0.044165 0.500000
O O8 0.965408 0.000000 0.260255
O O9 0.750000 0.855690 0.364729
O O10 0.987986 0.825529 0.232474
O O11 0.000000 0.855658 0.500000
O O12 0.750000 0.210862 0.121472
O O13 0.544670 0.257715 0.253007
O O14 0.500000 0.224530 0.000000
O O15 0.750000 0.364954 0.857256
O O16 0.996281 0.339965 0.732418
O O17 0.000000 0.367809 0.000000
O O18 0.500000 0.707099 0.500000
O O19 0.750000 0.690098 0.362826
#
# Coordination Sequence:
#
# PCOD8214180 Si02
#       6
#     8   8   8   8   8   8
#     4   9  19  36  57  81 109 142 181 223 265 310
#     4   8  13  22  39  64  93 123 155 196 245 293
#     4   9  17  30  48  72  99 127 164 206 249 299
#     4  10  22  37  53  74 101 134 170 209 253 303
#     4  11  23  38  57  82 113 146 180 219 264 313
#     4  11  23  39  59  82 107 136 173 215 261 312
#
# _framework density 18.796665999999998
#
# number of rings (size 3 to 8) (size 9 to 14) (size 15 to 20)
#    0.000    2.333    0.000    2.500    0.000    6.333 
#    0.000    0.000    0.000    0.500    0.000    0.000 
#    0.000    0.000    0.000    0.000    0.000    0.000 
#
# Total GULP energy -594830.066814 kJ/mol
# GULP energy per Si atom -12392.293059 kJ/mol
# Density = 1.875388 g / cm^3
# Si number density = 18.796666 Si / 1000 Ang^3
#
#
#
# Elastic Constant Matrix: (Units=GPa)
#
#
# Indices 1 2 3 4 5 6 
#
# 1 60.4012 53.6140 49.9811 0.0000 0.0000 0.0000
# 2 53.6140 132.9405 55.3903 0.0000 0.0000 0.0000
# 3 49.9811 55.3903 112.3547 0.0000 0.0000 0.0000
# 4 0.0000 0.0000 0.0000 -18.6744 0.0000 0.0000
# 5 0.0000 0.0000 0.0000 0.0000 29.1293 0.0000
# 6 0.0000 0.0000 0.0000 0.0000 0.0000 14.6105
#
#
#
# Elastic Compliance Matrix: (Units=1/GPa)
#
#
# Indices 1 2 3 4 5 6 
#
# 1 0.033091 -0.009076 -0.010246 0.000000 0.000000 0.000000
# 2 -0.009076 0.011956 -0.001857 0.000000 0.000000 0.000000
# 3 -0.010246 -0.001857 0.014374 0.000000 0.000000 0.000000
# 4 0.000000 0.000000 0.000000 -0.053549 0.000000 0.000000
# 5 0.000000 0.000000 0.000000 0.000000 0.034330 0.000000
# 6 0.000000 0.000000 0.000000 0.000000 0.000000 0.068444
#
#
# Mechanical properties :
#
#
# Convention : Reuss Voigt Hill
#
# Bulk Modulus (GPa) = 58.60726 69.29635 63.95181
# Shear Modulus (GPa) = 31.91016 14.79382 23.35199
#
# Velocity S-wave (km/s) = 4.12472 2.80848 3.52852
# Velocity P-wave (km/s) = 7.34382 6.88934 7.12021
#
# Compressibility (1/GPa) = 0.01706273
#
# Stress axis : x y z
#
# Youngs Moduli (GPa) = 30.22004 83.63882 69.57178
#
# Poissons Ratio (x) = 0.75912 0.71282
# Poissons Ratio (y) = 0.27428 0.12918
# Poissons Ratio (z) = 0.30963 0.15530
#
# Static dielectric constant tensor:
#      x y z
#    x 3.484620 0.000000 0.000000 
#    y 0.000000 4.271850 0.000000 
#    z 0.000000 0.000000 3.177140 
# 
# 
# High freq. dielectric constant tensor:
#      x y z
#    x 1.730120 0.000000 0.000000 
#    y 0.000000 1.760940 0.000000 
#    z 0.000000 0.000000 1.702170 
# 
# From -- ./inp_files/6036.got.cif
#   From: 2010.03.12/outbox.cif.g09.slc.cpg/sg51_4_cif.got.tgz:6036.got - 2010.04.16 13:43:02.
