data_PCOD8214255
_publ_section_title
;
Structure prediction by ZEFSAII (Michael W. Deem and Ramdas Pophale) SiO2 
 PCOD8214255
Probable space group: P M M A
;
_chemical_formula_sum "Si O2"
_cell_formula_units_Z 48
_cell_length_a 17.492052
_cell_length_b 9.296109
_cell_length_c 15.351857
_cell_angle_alpha 90.000000
_cell_angle_beta 90.000000
_cell_angle_gamma 90.000000
_cell_volume 2496.335101
_symmetry_space_group_name_H-M "P M M A"
_symmetry_group_IT_number 51
_symmetry_cell_setting 'orthorhombic'
loop_
_space_group_symop_operation_xyz
x,y,z
1/2-x,-y,z
1/2+x,-y,-z
-x,y,-z
-x,-y,-z
1/2+x,y,-z
1/2-x,y,z
x,-y,z
loop_
_atom_site_type_symbol
_atom_site_label
_atom_site_fract_x
_atom_site_fract_y
_atom_site_fract_z
Si Si1 0.659135 0.659037 0.490617
Si Si2 0.598251 0.165425 0.836232
Si Si3 0.661159 0.668518 0.296669
Si Si4 0.661560 0.665563 0.992241
Si Si5 0.080250 0.166720 0.855010
Si Si6 0.837659 0.832724 0.653374
O O1 0.750000 0.656427 0.493205
O O2 0.626228 0.500000 0.506835
O O3 0.634926 0.712490 0.394365
O O4 0.626542 0.758860 0.567400
O O5 0.510162 0.185440 0.858645
O O6 0.613606 0.214695 0.737175
O O7 0.624316 0.000000 0.849092
O O8 0.648821 0.266241 0.897617
O O9 0.750000 0.703672 0.281107
O O10 0.646047 0.500000 0.279423
O O11 0.611248 0.764479 0.233037
O O12 0.750000 0.676918 0.018067
O O13 0.634658 0.500000 0.991597
O O14 0.613019 0.753040 0.061739
O O15 0.104201 0.000000 0.858609
O O16 0.750000 0.785748 0.668822
O O17 0.844293 0.000000 0.635621
#
# Coordination Sequence:
#
# PCOD8214255 Si02
#       6
#     8   8   8   8   8   8
#     4   8  15  29  50  76 105 136 173 220 267 308
#     4  10  22  39  56  78 110 144 177 215 262 315
#     4   9  18  34  55  78 106 141 180 222 267 313
#     4  11  24  40  59  83 107 134 173 219 265 315
#     4  11  23  37  55  80 109 142 178 216 262 316
#     4   9  17  31  53  78 103 135 175 218 263 309
#
# _framework density 19.228187999999999
#
# number of rings (size 3 to 8) (size 9 to 14) (size 15 to 20)
#    0.000    2.333    0.000    3.500    0.000    9.000 
#    0.000    4.167    0.000    5.000    0.000    0.000 
#    0.000    0.000    0.000    0.000    0.000    0.000 
#
# Total GULP energy -595231.306957 kJ/mol
# GULP energy per Si atom -12400.652228 kJ/mol
# Density = 1.918442 g / cm^3
# Si number density = 19.228188 Si / 1000 Ang^3
#
#
#
# Elastic Constant Matrix: (Units=GPa)
#
#
# Indices 1 2 3 4 5 6 
#
# 1 36.9249 28.9073 18.3078 0.0000 0.0000 0.0000
# 2 28.9073 94.9271 61.8982 0.0000 0.0000 0.0000
# 3 18.3078 61.8982 128.0411 0.0000 0.0000 0.0000
# 4 0.0000 0.0000 0.0000 55.9221 0.0000 0.0000
# 5 0.0000 0.0000 0.0000 0.0000 47.8458 0.0000
# 6 0.0000 0.0000 0.0000 0.0000 0.0000 21.9681
#
#
#
# Elastic Compliance Matrix: (Units=1/GPa)
#
#
# Indices 1 2 3 4 5 6 
#
# 1 0.035563 -0.010973 0.000220 0.000000 0.000000 0.000000
# 2 -0.010973 0.018769 -0.007505 0.000000 0.000000 0.000000
# 3 0.000220 -0.007505 0.011406 0.000000 0.000000 0.000000
# 4 0.000000 0.000000 0.000000 0.017882 0.000000 0.000000
# 5 0.000000 0.000000 0.000000 0.000000 0.020900 0.000000
# 6 0.000000 0.000000 0.000000 0.000000 0.000000 0.045521
#
#
# Mechanical properties :
#
#
# Convention : Reuss Voigt Hill
#
# Bulk Modulus (GPa) = 34.21920 53.12441 43.67180
# Shear Modulus (GPa) = 25.47128 35.19919 30.33524
#
# Velocity S-wave (km/s) = 3.64357 4.28320 3.97627
# Velocity P-wave (km/s) = 5.96119 7.22146 6.62138
#
# Compressibility (1/GPa) = 0.02922336
#
# Stress axis : x y z
#
# Youngs Moduli (GPa) = 28.11872 53.27832 87.66933
#
# Poissons Ratio (x) = 0.58462 -0.01926
# Poissons Ratio (y) = 0.30855 0.65792
# Poissons Ratio (z) = -0.00618 0.39983
#
# Static dielectric constant tensor:
#      x y z
#    x 3.279890 0.000000 0.000000 
#    y 0.000000 3.613400 0.000000 
#    z 0.000000 0.000000 3.758970 
# 
# 
# High freq. dielectric constant tensor:
#      x y z
#    x 1.726310 0.000000 0.000000 
#    y 0.000000 1.747450 0.000000 
#    z 0.000000 0.000000 1.766000 
# 
# From -- ./inp_files/24744.got.cif
#   From: 2010.03.12/outbox.cif.g09.slc.cpg/sg51_13_cif.got.tgz:24744.got - 2010.04.16 13:43:02.
