data_PCOD8214491
_publ_section_title
;
Structure prediction by ZEFSAII (Michael W. Deem and Ramdas Pophale) SiO2 
 PCOD8214491
Probable space group: P M M A
;
_chemical_formula_sum "Si O2"
_cell_formula_units_Z 36
_cell_length_a 8.680557
_cell_length_b 23.547115
_cell_length_c 9.412870
_cell_angle_alpha 90.000000
_cell_angle_beta 90.000000
_cell_angle_gamma 90.000000
_cell_volume 1924.010150
_symmetry_space_group_name_H-M "P M M A"
_symmetry_group_IT_number 51
_symmetry_cell_setting 'orthorhombic'
loop_
_space_group_symop_operation_xyz
x,y,z
1/2-x,-y,z
1/2+x,-y,-z
-x,y,-z
-x,-y,-z
1/2+x,y,-z
1/2-x,y,z
x,-y,z
loop_
_atom_site_type_symbol
_atom_site_label
_atom_site_fract_x
_atom_site_fract_y
_atom_site_fract_z
Si Si1 0.932238 0.264891 0.842425
Si Si2 0.931215 0.063558 0.147920
Si Si3 0.067610 0.834916 0.655758
Si Si4 0.929474 0.500000 0.153802
Si Si5 0.567884 0.621279 0.156694
O O1 0.750000 0.261883 0.850291
O O2 0.995106 0.215436 0.744994
O O3 0.985554 0.324765 0.769654
O O4 0.000000 0.258511 0.000000
O O5 0.750000 0.063688 0.129788
O O6 0.982539 0.105463 0.273450
O O7 0.992218 0.000000 0.183327
O O8 0.000000 0.085926 0.000000
O O9 0.250000 0.827447 0.651336
O O10 0.000000 0.833880 0.500000
O O11 0.750000 0.500000 0.126013
O O12 0.972142 0.440033 0.233146
O O13 0.000000 0.500000 0.000000
O O14 0.750000 0.632582 0.152310
O O15 0.500000 0.617665 0.000000
#
# Coordination Sequence:
#
# PCOD8214491 Si02
#       5
#     8   8   8   4   8
#     4  11  21  34  52  75 103 137 177 219 262 309
#     4   9  19  36  58  83 109 137 171 210 253 303
#     4  11  23  38  55  77 106 139 175 216 262 310
#     4   8  14  22  36  60  93 128 161 202 253 306
#     4   9  15  25  41  65  96 130 167 208 256 307
#
# _framework density 18.710920000000002
#
# number of rings (size 3 to 8) (size 9 to 14) (size 15 to 20)
#    0.000    2.222    0.000    5.333    0.000    4.889 
#    0.000    0.000    0.000    0.000    0.000    0.778 
#    0.000    0.000    0.000    0.000    0.000    0.000 
#
# Total GULP energy -446019.570265 kJ/mol
# GULP energy per Si atom -12389.432507 kJ/mol
# Density = 1.866833 g / cm^3
# Si number density = 18.710920 Si / 1000 Ang^3
#
#
#
# Elastic Constant Matrix: (Units=GPa)
#
#
# Indices 1 2 3 4 5 6 
#
# 1 94.4620 69.4154 43.0577 0.0000 0.0000 0.0000
# 2 69.4154 185.0712 76.8901 0.0000 0.0000 0.0000
# 3 43.0577 76.8901 88.6777 0.0000 0.0000 0.0000
# 4 0.0000 0.0000 0.0000 -77.1460 0.0000 0.0000
# 5 0.0000 0.0000 0.0000 0.0000 24.6846 0.0000
# 6 0.0000 0.0000 0.0000 0.0000 0.0000 22.1704
#
#
#
# Elastic Compliance Matrix: (Units=1/GPa)
#
#
# Indices 1 2 3 4 5 6 
#
# 1 0.015417 -0.004177 -0.003864 0.000000 0.000000 0.000000
# 2 -0.004177 0.009578 -0.006276 0.000000 0.000000 0.000000
# 3 -0.003864 -0.006276 0.018595 0.000000 0.000000 0.000000
# 4 0.000000 0.000000 0.000000 -0.012962 0.000000 0.000000
# 5 0.000000 0.000000 0.000000 0.000000 0.040511 0.000000
# 6 0.000000 0.000000 0.000000 0.000000 0.000000 0.045105
#
#
# Mechanical properties :
#
#
# Convention : Reuss Voigt Hill
#
# Bulk Modulus (GPa) = 66.86748 82.99304 74.93026
# Shear Modulus (GPa) = 33.36372 5.86496 19.61434
#
# Velocity S-wave (km/s) = 4.22728 1.77238 3.24123
# Velocity P-wave (km/s) = 7.72277 6.97425 7.35803
#
# Compressibility (1/GPa) = 0.01495495
#
# Stress axis : x y z
#
# Youngs Moduli (GPa) = 64.86269 104.40953 53.77835
#
# Poissons Ratio (x) = 0.43615 0.20779
# Poissons Ratio (y) = 0.27095 0.33753
# Poissons Ratio (z) = 0.25062 0.65530
#
# Static dielectric constant tensor:
#      x y z
#    x 3.620570 0.000000 0.000000 
#    y 0.000000 4.755490 0.000000 
#    z 0.000000 0.000000 2.991170 
# 
# 
# High freq. dielectric constant tensor:
#      x y z
#    x 1.737150 0.000000 0.000000 
#    y 0.000000 1.762750 0.000000 
#    z 0.000000 0.000000 1.667200 
# 
# From -- ./inp_files/5254.got.cif
#   From: 2010.03.12/outbox.cif.g09.slc.cpg/sg51_3_cif.got.tgz:5254.got - 2010.04.16 13:43:02.
