data_PCOD8214241
_publ_section_title
;
Structure prediction by ZEFSAII (Michael W. Deem and Ramdas Pophale) SiO2 
 PCOD8214241
Probable space group: P M M A
;
_chemical_formula_sum "Si O2"
_cell_formula_units_Z 48
_cell_length_a 9.682360
_cell_length_b 9.087480
_cell_length_c 28.258834
_cell_angle_alpha 90.000000
_cell_angle_beta 90.000000
_cell_angle_gamma 90.000000
_cell_volume 2486.445431
_symmetry_space_group_name_H-M "P M M A"
_symmetry_group_IT_number 51
_symmetry_cell_setting 'orthorhombic'
loop_
_space_group_symop_operation_xyz
x,y,z
1/2-x,-y,z
1/2+x,-y,-z
-x,y,-z
-x,-y,-z
1/2+x,y,-z
1/2-x,y,z
x,-y,z
loop_
_atom_site_type_symbol
_atom_site_label
_atom_site_fract_x
_atom_site_fract_y
_atom_site_fract_z
Si Si1 0.092626 0.825666 0.274090
Si Si2 0.524285 0.329222 0.096002
Si Si3 0.250000 0.170350 0.074804
Si Si4 0.403717 0.331791 0.797227
Si Si5 0.907788 0.826689 0.360904
Si Si6 0.250000 0.829357 0.962959
Si Si7 0.908685 0.328125 0.456531
O O1 0.250000 0.767176 0.276892
O O2 0.019768 0.767759 0.226848
O O3 0.007131 0.767773 0.319400
O O4 0.089874 0.000000 0.272035
O O5 0.508608 0.500000 0.082165
O O6 0.378315 0.250615 0.098360
O O7 0.595267 0.309894 0.146615
O O8 0.614180 0.249173 0.056316
O O9 0.250000 0.000000 0.089595
O O10 0.250000 0.189171 0.018827
O O11 0.250000 0.286917 0.779580
O O12 0.435904 0.500000 0.783941
O O13 0.750000 0.780646 0.349152
O O14 0.958675 0.753324 0.409345
O O15 0.921166 0.000000 0.367056
O O16 0.250000 0.000000 0.947841
O O17 0.750000 0.290950 0.468016
O O18 0.932407 0.500000 0.448339
O O19 0.000000 0.269238 0.500000
#
# Coordination Sequence:
#
# PCOD8214241 Si02
#       7
#     8   8   4   8   8   4   8
#     4  10  22  38  57  85 116 146 184 231 283 340
#     4  11  23  41  63  88 118 155 197 239 287 346
#     4  11  25  41  59  89 125 155 191 239 292 343
#     4  10  22  41  61  83 112 146 187 234 280 333
#     4   9  18  34  54  76 107 146 187 229 275 331
#     4  11  23  41  63  89 121 155 193 241 288 341
#     4   9  18  32  50  74 105 141 182 228 276 329
#
# _framework density 19.304665
#
# number of rings (size 3 to 8) (size 9 to 14) (size 15 to 20)
#    0.000    2.000    0.833    2.000    1.167    7.667 
#    0.000    1.667    0.000    0.000    0.000    0.000 
#    0.000    0.000    0.000    0.000    0.000    0.000 
#
# Total GULP energy -595378.376247 kJ/mol
# GULP energy per Si atom -12403.716172 kJ/mol
# Density = 1.926073 g / cm^3
# Si number density = 19.304665 Si / 1000 Ang^3
#
#
#
# Elastic Constant Matrix: (Units=GPa)
#
#
# Indices 1 2 3 4 5 6 
#
# 1 121.2666 37.7449 35.5692 0.0000 0.0000 0.0000
# 2 37.7449 65.1561 33.4313 0.0000 0.0000 0.0000
# 3 35.5692 33.4313 73.3525 0.0000 0.0000 0.0000
# 4 0.0000 0.0000 0.0000 31.7215 0.0000 0.0000
# 5 0.0000 0.0000 0.0000 0.0000 38.2086 0.0000
# 6 0.0000 0.0000 0.0000 0.0000 0.0000 26.1063
#
#
#
# Elastic Compliance Matrix: (Units=1/GPa)
#
#
# Indices 1 2 3 4 5 6 
#
# 1 0.010556 -0.004554 -0.003043 0.000000 0.000000 0.000000
# 2 -0.004554 0.021997 -0.007817 0.000000 0.000000 0.000000
# 3 -0.003043 -0.007817 0.018671 0.000000 0.000000 0.000000
# 4 0.000000 0.000000 0.000000 0.031524 0.000000 0.000000
# 5 0.000000 0.000000 0.000000 0.000000 0.026172 0.000000
# 6 0.000000 0.000000 0.000000 0.000000 0.000000 0.038305
#
#
# Mechanical properties :
#
#
# Convention : Reuss Voigt Hill
#
# Bulk Modulus (GPa) = 49.02971 52.58511 50.80741
# Shear Modulus (GPa) = 27.04852 29.40924 28.22888
#
# Velocity S-wave (km/s) = 3.74724 3.90734 3.82813
# Velocity P-wave (km/s) = 6.64646 6.90327 6.77608
#
# Compressibility (1/GPa) = 0.02039579
#
# Stress axis : x y z
#
# Youngs Moduli (GPa) = 94.72968 45.46148 53.55803
#
# Poissons Ratio (x) = 0.20702 0.16300
# Poissons Ratio (y) = 0.43137 0.41867
# Poissons Ratio (z) = 0.28831 0.35538
#
# Static dielectric constant tensor:
#      x y z
#    x 3.629030 0.000000 0.000000 
#    y 0.000000 3.492030 0.000000 
#    z 0.000000 0.000000 3.494020 
# 
# 
# High freq. dielectric constant tensor:
#      x y z
#    x 1.760620 0.000000 0.000000 
#    y 0.000000 1.747600 0.000000 
#    z 0.000000 0.000000 1.753030 
# 
# From -- ./inp_files/37149.got.cif
#   From: 2010.03.12/outbox.cif.g09.slc.cpg/sg51_19_cif.got.tgz:37149.got - 2010.04.16 13:43:02.
