data_PCOD8214601
_publ_section_title
;
Structure prediction by ZEFSAII (Michael W. Deem and Ramdas Pophale) SiO2 
 PCOD8214601
Probable space group: P M M A
;
_chemical_formula_sum "Si O2"
_cell_formula_units_Z 30
_cell_length_a 13.374537
_cell_length_b 11.063946
_cell_length_c 9.312091
_cell_angle_alpha 90.000000
_cell_angle_beta 90.000000
_cell_angle_gamma 90.000000
_cell_volume 1377.958110
_symmetry_space_group_name_H-M "P M M A"
_symmetry_group_IT_number 51
_symmetry_cell_setting 'orthorhombic'
loop_
_space_group_symop_operation_xyz
x,y,z
1/2-x,-y,z
1/2+x,-y,-z
-x,y,-z
-x,-y,-z
1/2+x,y,-z
1/2-x,y,z
x,-y,z
loop_
_atom_site_type_symbol
_atom_site_label
_atom_site_fract_x
_atom_site_fract_y
_atom_site_fract_z
Si Si1 0.427584 0.868756 0.134216
Si Si2 0.456340 0.728849 0.653034
Si Si3 0.250000 0.751679 0.006106
Si Si4 0.750000 0.146013 0.301684
Si Si5 0.474208 0.500000 0.167676
Si Si6 0.750000 0.500000 0.914300
O O1 0.484108 0.842004 0.281939
O O2 0.344064 0.769758 0.108775
O O3 0.377594 0.000000 0.149683
O O4 0.500000 0.865661 0.000000
O O5 0.500000 0.690507 0.500000
O O6 0.343691 0.779206 0.635684
O O7 0.471845 0.616253 0.760703
O O8 0.250000 0.609999 0.971443
O O9 0.250000 0.840743 0.870944
O O10 0.750000 0.000000 0.336985
O O11 0.351905 0.500000 0.184734
O O12 0.500000 0.500000 0.000000
#
# Coordination Sequence:
#
# PCOD8214601 Si02
#       6
#     8   8   4   4   4   2
#     4  11  22  40  67 100 137 180 241 301 351 418
#     4  12  27  46  71 107 148 192 235 296 374 439
#     4  12  22  41  69 108 132 189 246 301 362 414
#     4  12  26  46  73 104 146 192 246 305 357 431
#     4  12  25  49  75 108 145 191 248 305 362 430
#     4  12  24  40  74 102 150 176 234 312 362 428
#
# _framework density 21.771345
#
# number of rings (size 3 to 8) (size 9 to 14) (size 15 to 20)
#    0.000    0.267    5.333    4.800    0.000    4.800 
#    0.000    0.000    0.000    0.000    0.000    0.000 
#    0.000    0.000    0.000    0.000    0.000    0.000 
#
# Total GULP energy -371820.640374 kJ/mol
# GULP energy per Si atom -12394.021346 kJ/mol
# Density = 2.172179 g / cm^3
# Si number density = 21.771345 Si / 1000 Ang^3
#
#
#
# Elastic Constant Matrix: (Units=GPa)
#
#
# Indices 1 2 3 4 5 6 
#
# 1 146.7478 59.1781 35.9088 0.0000 0.0000 0.0000
# 2 59.1781 161.7541 40.6905 0.0000 0.0000 0.0000
# 3 35.9088 40.6905 120.9664 0.0000 0.0000 0.0000
# 4 0.0000 0.0000 0.0000 62.5181 0.0000 0.0000
# 5 0.0000 0.0000 0.0000 0.0000 25.3434 0.0000
# 6 0.0000 0.0000 0.0000 0.0000 0.0000 35.6951
#
#
#
# Elastic Compliance Matrix: (Units=1/GPa)
#
#
# Indices 1 2 3 4 5 6 
#
# 1 0.008257 -0.002627 -0.001568 0.000000 0.000000 0.000000
# 2 -0.002627 0.007589 -0.001773 0.000000 0.000000 0.000000
# 3 -0.001568 -0.001773 0.009329 0.000000 0.000000 0.000000
# 4 0.000000 0.000000 0.000000 0.015995 0.000000 0.000000
# 5 0.000000 0.000000 0.000000 0.000000 0.039458 0.000000
# 6 0.000000 0.000000 0.000000 0.000000 0.000000 0.028015
#
#
# Mechanical properties :
#
#
# Convention : Reuss Voigt Hill
#
# Bulk Modulus (GPa) = 75.52710 77.89146 76.70928
# Shear Modulus (GPa) = 40.00274 44.29073 42.14674
#
# Velocity S-wave (km/s) = 4.29114 4.51528 4.40464
# Velocity P-wave (km/s) = 7.70184 7.93967 7.82166
#
# Compressibility (1/GPa) = 0.01324028
#
# Stress axis : x y z
#
# Youngs Moduli (GPa) = 121.10638 131.76604 107.19772
#
# Poissons Ratio (x) = 0.34609 0.16805
# Poissons Ratio (y) = 0.31809 0.19008
# Poissons Ratio (z) = 0.18985 0.23364
#
# Static dielectric constant tensor:
#      x y z
#    x 4.112750 0.000000 0.000000 
#    y 0.000000 4.247520 0.000000 
#    z 0.000000 0.000000 2.825380 
# 
# 
# High freq. dielectric constant tensor:
#      x y z
#    x 1.871080 0.000000 0.000000 
#    y 0.000000 1.879120 0.000000 
#    z 0.000000 0.000000 1.824240 
# 
# From -- ./inp_files/7547.got.cif
#   From: 2010.03.12/outbox.cif.g09.slc.cpg/sg51_4_cif.got.tgz:7547.got - 2010.04.16 13:43:02.
