data_PCOD8214189
_publ_section_title
;
Structure prediction by ZEFSAII (Michael W. Deem and Ramdas Pophale) SiO2 
 PCOD8214189
Probable space group: P M M A
;
_chemical_formula_sum "Si O2"
_cell_formula_units_Z 48
_cell_length_a 8.924717
_cell_length_b 31.250704
_cell_length_c 9.159095
_cell_angle_alpha 90.000000
_cell_angle_beta 90.000000
_cell_angle_gamma 90.000000
_cell_volume 2554.505386
_symmetry_space_group_name_H-M "P M M A"
_symmetry_group_IT_number 51
_symmetry_cell_setting 'orthorhombic'
loop_
_space_group_symop_operation_xyz
x,y,z
1/2-x,-y,z
1/2+x,-y,-z
-x,y,-z
-x,-y,-z
1/2+x,y,-z
1/2-x,y,z
x,-y,z
loop_
_atom_site_type_symbol
_atom_site_label
_atom_site_fract_x
_atom_site_fract_y
_atom_site_fract_z
Si Si1 0.426327 0.548228 0.347761
Si Si2 0.925442 0.045130 0.344447
Si Si3 0.926099 0.862312 0.343057
Si Si4 0.571794 0.218162 0.157742
Si Si5 0.923851 0.375331 0.847372
Si Si6 0.426452 0.707189 0.343096
O O1 0.500000 0.561157 0.500000
O O2 0.250000 0.553140 0.369313
O O3 0.471275 0.500000 0.301360
O O4 0.485325 0.580584 0.223563
O O5 0.750000 0.045699 0.370180
O O6 0.971744 0.090866 0.272946
O O7 0.000000 0.043655 0.500000
O O8 0.969521 0.000000 0.260164
O O9 0.750000 0.858800 0.369266
O O10 0.979044 0.826901 0.227938
O O11 0.000000 0.854292 0.500000
O O12 0.750000 0.222640 0.145661
O O13 0.507195 0.255184 0.257648
O O14 0.500000 0.221875 0.000000
O O15 0.750000 0.379455 0.879522
O O16 0.959815 0.336931 0.738426
O O17 0.000000 0.365910 0.000000
O O18 0.500000 0.703480 0.500000
O O19 0.250000 0.716710 0.355954
#
# Coordination Sequence:
#
# PCOD8214189 Si02
#       6
#     8   8   8   8   8   8
#     4   9  18  34  55  79 107 139 177 219 261 306
#     4   8  13  23  41  66  95 125 158 199 247 296
#     4   9  18  31  49  74 101 130 166 208 253 303
#     4  11  23  38  55  76 104 137 174 215 261 311
#     4  10  22  37  54  79 110 142 175 214 259 308
#     4  11  23  39  59  82 107 136 173 215 260 310
#
# _framework density 18.790327999999999
#
# number of rings (size 3 to 8) (size 9 to 14) (size 15 to 20)
#    0.000    2.333    0.000    2.500    0.000    6.333 
#    0.000    0.000    0.000    0.500    0.000    0.000 
#    0.000    0.000    0.000    0.000    0.000    0.167 
#
# Total GULP energy -594805.881594 kJ/mol
# GULP energy per Si atom -12391.789200 kJ/mol
# Density = 1.874756 g / cm^3
# Si number density = 18.790328 Si / 1000 Ang^3
#
#
#
# Elastic Constant Matrix: (Units=GPa)
#
#
# Indices 1 2 3 4 5 6 
#
# 1 51.4815 53.6779 48.4959 0.0000 0.0000 0.0000
# 2 53.6779 156.3645 72.1117 0.0000 0.0000 0.0000
# 3 48.4959 72.1117 124.7213 0.0000 0.0000 0.0000
# 4 0.0000 0.0000 0.0000 -246.2088 0.0000 0.0000
# 5 0.0000 0.0000 0.0000 0.0000 29.0842 0.0000
# 6 0.0000 0.0000 0.0000 0.0000 0.0000 21.2211
#
#
#
# Elastic Compliance Matrix: (Units=1/GPa)
#
#
# Indices 1 2 3 4 5 6 
#
# 1 0.037185 -0.008314 -0.009652 0.000000 0.000000 0.000000
# 2 -0.008314 0.010579 -0.002884 0.000000 0.000000 0.000000
# 3 -0.009652 -0.002884 0.013438 0.000000 0.000000 0.000000
# 4 0.000000 0.000000 0.000000 -0.004062 0.000000 0.000000
# 5 0.000000 0.000000 0.000000 0.000000 0.034383 0.000000
# 6 0.000000 0.000000 0.000000 0.000000 0.000000 0.047123
#
#
# Mechanical properties :
#
#
# Convention : Reuss Voigt Hill
#
# Bulk Modulus (GPa) = 51.27367 75.68204 63.47786
# Shear Modulus (GPa) = 26.75963 -28.62857 -0.93447
#
# Velocity S-wave (km/s) = 3.77784 -3.90754 -0.70597
# Velocity P-wave (km/s) = 6.80999 4.47281 5.76116
#
# Compressibility (1/GPa) = 0.01950319
#
# Stress axis : x y z
#
# Youngs Moduli (GPa) = 26.89230 94.52266 74.41352
#
# Poissons Ratio (x) = 0.78586 0.71824
# Poissons Ratio (y) = 0.22358 0.21462
# Poissons Ratio (z) = 0.25956 0.27261
#
# Static dielectric constant tensor:
#      x y z
#    x 3.481210 0.000000 0.000000 
#    y 0.000000 4.300960 0.000000 
#    z 0.000000 0.000000 3.117350 
# 
# 
# High freq. dielectric constant tensor:
#      x y z
#    x 1.728970 0.000000 0.000000 
#    y 0.000000 1.762230 0.000000 
#    z 0.000000 0.000000 1.703490 
# 
# From -- ./inp_files/6027.got.cif
#   From: 2010.03.12/outbox.cif.g09.slc.cpg/sg51_4_cif.got.tgz:6027.got - 2010.04.16 13:43:02.
