data_PCOD8214962
_publ_section_title
;
Structure prediction by ZEFSAII (Michael W. Deem and Ramdas Pophale) SiO2 
 PCOD8214962
Probable space group: P N N A
;
_chemical_formula_sum "Si O2"
_cell_formula_units_Z 56
_cell_length_a 14.884597
_cell_length_b 14.878423
_cell_length_c 11.944536
_cell_angle_alpha 90.000000
_cell_angle_beta 90.000000
_cell_angle_gamma 90.000000
_cell_volume 2645.228944
_symmetry_space_group_name_H-M "P N N A"
_symmetry_group_IT_number 52
_symmetry_cell_setting 'orthorhombic'
loop_
_space_group_symop_operation_xyz
x,y,z
1/2-x,-y,z
x,1/2-y,1/2-z
1/2-x,1/2+y,1/2-z
-x,-y,-z
1/2+x,y,-z
-x,1/2+y,1/2+z
1/2+x,1/2-y,1/2+z
loop_
_atom_site_type_symbol
_atom_site_label
_atom_site_fract_x
_atom_site_fract_y
_atom_site_fract_z
Si Si1 0.090853 0.423750 0.118434
Si Si2 0.800259 0.243736 0.381256
Si Si3 0.546340 0.627397 0.466896
Si Si4 0.396789 0.088003 0.522648
Si Si5 0.621938 0.252220 0.005175
Si Si6 0.537709 0.983996 0.824132
Si Si7 0.003176 0.669959 0.172843
O O1 0.108195 0.457796 0.247129
O O2 0.983198 0.426055 0.101396
O O3 0.136193 0.492755 0.029200
O O4 0.128046 0.322530 0.099682
O O5 0.778730 0.250000 0.250000
O O6 0.887944 0.299862 0.414924
O O7 0.818241 0.138231 0.408782
O O8 0.719898 0.283097 0.458726
O O9 0.447068 0.670977 0.483059
O O10 0.583541 0.580509 0.581289
O O11 0.536196 0.548160 0.377944
O O12 0.420699 0.154897 0.420132
O O13 0.590373 0.307407 0.113923
O O14 0.482729 0.919460 0.741668
O O15 0.039527 0.750000 0.250000
#
# Coordination Sequence:
#
# PCOD8214962 Si02
#       7
#     8   8   8   8   8   8   8
#     4   9  18  37  65  90 124 169 220 266 324 374
#     4  12  24  39  66 100 130 175 216 272 343 394
#     4  11  23  42  64  96 138 169 223 269 332 398
#     4   9  18  34  58  93 121 159 215 269 309 389
#     4  11  23  38  66  94 136 169 216 279 323 398
#     4  10  21  37  71  90 124 186 216 265 331 389
#     4  10  16  35  65  90 120 167 216 256 326 382
#
# _framework density 21.170190000000002
#
# number of rings (size 3 to 8) (size 9 to 14) (size 15 to 20)
#    0.000    1.714    4.286    2.143    0.000    0.571 
#    0.000    2.857   22.000    0.000    0.000    0.000 
#    0.000    0.000    0.000    0.000    0.000    0.000 
#
# Total GULP energy -693941.891854 kJ/mol
# GULP energy per Si atom -12391.819497 kJ/mol
# Density = 2.112201 g / cm^3
# Si number density = 21.170190 Si / 1000 Ang^3
#
#
#
# Elastic Constant Matrix: (Units=GPa)
#
#
# Indices 1 2 3 4 5 6 
#
# 1 63.6890 17.2350 13.9942 0.0000 0.0000 0.0000
# 2 17.2350 96.3349 47.5742 0.0000 0.0000 0.0000
# 3 13.9942 47.5742 107.0687 0.0000 0.0000 0.0000
# 4 0.0000 0.0000 0.0000 42.8185 0.0000 0.0000
# 5 0.0000 0.0000 0.0000 0.0000 14.5579 0.0000
# 6 0.0000 0.0000 0.0000 0.0000 0.0000 14.1914
#
#
#
# Elastic Compliance Matrix: (Units=1/GPa)
#
#
# Indices 1 2 3 4 5 6 
#
# 1 0.016599 -0.002432 -0.001089 0.000000 0.000000 0.000000
# 2 -0.002432 0.013655 -0.005749 0.000000 0.000000 0.000000
# 3 -0.001089 -0.005749 0.012037 0.000000 0.000000 0.000000
# 4 0.000000 0.000000 0.000000 0.023354 0.000000 0.000000
# 5 0.000000 0.000000 0.000000 0.000000 0.068691 0.000000
# 6 0.000000 0.000000 0.000000 0.000000 0.000000 0.070465
#
#
# Mechanical properties :
#
#
# Convention : Reuss Voigt Hill
#
# Bulk Modulus (GPa) = 42.10559 47.18881 44.64720
# Shear Modulus (GPa) = 21.62088 26.86618 24.24353
#
# Velocity S-wave (km/s) = 3.19923 3.56625 3.38771
# Velocity P-wave (km/s) = 5.79474 6.26866 6.03635
#
# Compressibility (1/GPa) = 0.02374982
#
# Stress axis : x y z
#
# Youngs Moduli (GPa) = 60.24584 73.23399 83.07852
#
# Poissons Ratio (x) = 0.17809 0.09047
# Poissons Ratio (y) = 0.14651 0.47766
# Poissons Ratio (z) = 0.06560 0.42106
#
# Static dielectric constant tensor:
#      x y z
#    x 3.213630 0.000000 0.000000 
#    y 0.000000 4.106890 0.000000 
#    z 0.000000 0.000000 4.222240 
# 
# 
# High freq. dielectric constant tensor:
#      x y z
#    x 1.766060 0.000000 0.000000 
#    y 0.000000 1.847070 0.000000 
#    z 0.000000 0.000000 1.841940 
# 
# From -- ./inp_files/19657.got.cif
#   From: 2010.06.25/outbox.cif.g09.slc.cpg/sg52_10_cif.got.tgz:19657.got - 2010.06.26 19:32:48.
