data_PCOD8214580
_publ_section_title
;
Structure prediction by ZEFSAII (Michael W. Deem and Ramdas Pophale) SiO2 
 PCOD8214580
Probable space group: P M M A
;
_chemical_formula_sum "Si O2"
_cell_formula_units_Z 48
_cell_length_a 14.710000
_cell_length_b 8.771830
_cell_length_c 18.765217
_cell_angle_alpha 90.000000
_cell_angle_beta 90.000000
_cell_angle_gamma 90.000000
_cell_volume 2421.343866
_symmetry_space_group_name_H-M "P M M A"
_symmetry_group_IT_number 51
_symmetry_cell_setting 'orthorhombic'
loop_
_space_group_symop_operation_xyz
x,y,z
1/2-x,-y,z
1/2+x,-y,-z
-x,y,-z
-x,-y,-z
1/2+x,y,-z
1/2-x,y,z
x,-y,z
loop_
_atom_site_type_symbol
_atom_site_label
_atom_site_fract_x
_atom_site_fract_y
_atom_site_fract_z
Si Si1 0.393001 0.326614 0.996690
Si Si2 0.852241 0.172103 0.149864
Si Si3 0.148269 0.827314 0.139120
Si Si4 0.013752 0.180518 0.388380
Si Si5 0.852489 0.180245 0.487799
Si Si6 0.003932 0.678197 0.237375
O O1 0.361445 0.500000 0.008845
O O2 0.359059 0.273983 0.920135
O O3 0.500000 0.310439 0.000000
O O4 0.348945 0.221010 0.056698
O O5 0.750000 0.176266 0.179121
O O6 0.913147 0.236360 0.213419
O O7 0.882699 0.000000 0.131405
O O8 0.250000 0.817365 0.170114
O O9 0.085296 0.714161 0.183330
O O10 0.111143 0.000000 0.145179
O O11 0.096718 0.230720 0.439768
O O12 0.031184 0.268315 0.315623
O O13 0.916216 0.231288 0.421585
O O14 0.015315 0.000000 0.375164
O O15 0.750000 0.251284 0.482910
O O16 0.844969 0.000000 0.487169
O O17 0.985255 0.500000 0.236000
#
# Coordination Sequence:
#
# PCOD8214580 Si02
#       6
#     8   8   8   8   8   8
#     4  11  22  37  60  89 118 151 188 237 301 357
#     4  11  24  41  62  86 112 150 200 249 294 343
#     4  11  24  41  62  86 112 150 200 249 294 343
#     4   9  18  34  57  85 115 148 189 235 278 330
#     4   8  15  31  58  88 114 144 186 233 278 327
#     4  12  25  40  58  84 121 160 194 236 293 350
#
# _framework density 19.823702000000001
#
# number of rings (size 3 to 8) (size 9 to 14) (size 15 to 20)
#    0.000    1.667    1.667    4.500    0.000    6.667 
#    0.000    5.000    0.000    1.000    0.000    0.000 
#    0.000    0.000    0.000    0.000    0.000    0.000 
#
# Total GULP energy -595279.977535 kJ/mol
# GULP energy per Si atom -12401.666199 kJ/mol
# Density = 1.977858 g / cm^3
# Si number density = 19.823702 Si / 1000 Ang^3
#
#
#
# Elastic Constant Matrix: (Units=GPa)
#
#
# Indices 1 2 3 4 5 6 
#
# 1 103.2579 26.9116 10.8441 0.0000 0.0000 0.0000
# 2 26.9116 76.7197 10.1852 0.0000 0.0000 0.0000
# 3 10.8441 10.1852 73.2539 0.0000 0.0000 0.0000
# 4 0.0000 0.0000 0.0000 16.5834 0.0000 0.0000
# 5 0.0000 0.0000 0.0000 0.0000 4.8398 0.0000
# 6 0.0000 0.0000 0.0000 0.0000 0.0000 50.4690
#
#
#
# Elastic Compliance Matrix: (Units=1/GPa)
#
#
# Indices 1 2 3 4 5 6 
#
# 1 0.010743 -0.003624 -0.001086 0.000000 0.000000 0.000000
# 2 -0.003624 0.014502 -0.001480 0.000000 0.000000 0.000000
# 3 -0.001086 -0.001480 0.014018 0.000000 0.000000 0.000000
# 4 0.000000 0.000000 0.000000 0.060301 0.000000 0.000000
# 5 0.000000 0.000000 0.000000 0.000000 0.206620 0.000000
# 6 0.000000 0.000000 0.000000 0.000000 0.000000 0.019814
#
#
# Mechanical properties :
#
#
# Convention : Reuss Voigt Hill
#
# Bulk Modulus (GPa) = 37.19958 38.79037 37.99498
# Shear Modulus (GPa) = 14.39508 28.06448 21.22978
#
# Velocity S-wave (km/s) = 2.69765 3.76667 3.27606
# Velocity P-wave (km/s) = 5.33938 6.20703 5.78948
#
# Compressibility (1/GPa) = 0.02688202
#
# Stress axis : x y z
#
# Youngs Moduli (GPa) = 93.08254 68.95494 71.33816
#
# Poissons Ratio (x) = 0.24991 0.07751
# Poissons Ratio (y) = 0.33735 0.10557
# Poissons Ratio (z) = 0.10113 0.10204
#
# Static dielectric constant tensor:
#      x y z
#    x 3.913840 0.000000 0.000000 
#    y 0.000000 3.473920 0.000000 
#    z 0.000000 0.000000 3.521700 
# 
# 
# High freq. dielectric constant tensor:
#      x y z
#    x 1.786370 0.000000 0.000000 
#    y 0.000000 1.759970 0.000000 
#    z 0.000000 0.000000 1.766070 
# 
# From -- ./inp_files/29454.got.cif
#   From: 2010.03.12/outbox.cif.g09.slc.cpg/sg51_15_cif.got.tgz:29454.got - 2010.04.16 13:43:02.
