data_PCOD8214561
_publ_section_title
;
Structure prediction by ZEFSAII (Michael W. Deem and Ramdas Pophale) SiO2 
 PCOD8214561
Probable space group: P M M A
;
_chemical_formula_sum "Si O2"
_cell_formula_units_Z 56
_cell_length_a 22.147890
_cell_length_b 13.457372
_cell_length_c 10.164675
_cell_angle_alpha 90.000000
_cell_angle_beta 90.000000
_cell_angle_gamma 90.000000
_cell_volume 3029.605726
_symmetry_space_group_name_H-M "P M M A"
_symmetry_group_IT_number 51
_symmetry_cell_setting 'orthorhombic'
loop_
_space_group_symop_operation_xyz
x,y,z
1/2-x,-y,z
1/2+x,-y,-z
-x,y,-z
-x,-y,-z
1/2+x,y,-z
1/2-x,y,z
x,-y,z
loop_
_atom_site_type_symbol
_atom_site_label
_atom_site_fract_x
_atom_site_fract_y
_atom_site_fract_z
Si Si1 0.505452 0.617119 0.844253
Si Si2 0.680193 0.887548 0.628172
Si Si3 0.682698 0.614947 0.482904
Si Si4 0.615491 0.703646 0.236422
Si Si5 0.867667 0.303038 0.745708
Si Si6 0.680770 0.113923 0.320667
Si Si7 0.317665 0.388085 0.004620
O O1 0.501194 0.500000 0.808650
O O2 0.455607 0.681189 0.764889
O O3 0.566733 0.665482 0.793553
O O4 0.500000 0.633307 0.000000
O O5 0.750000 0.871853 0.667315
O O6 0.637301 0.813874 0.710728
O O7 0.671395 0.863839 0.474606
O O8 0.660030 0.000000 0.660014
O O9 0.750000 0.662947 0.485543
O O10 0.687957 0.500000 0.453889
O O11 0.644215 0.661071 0.367416
O O12 0.650256 0.631593 0.620886
O O13 0.633800 0.820259 0.235162
O O14 0.638954 0.651157 0.106646
O O15 0.821188 0.323809 0.863416
O O16 0.750000 0.138150 0.280466
O O17 0.665756 0.000000 0.288559
O O18 0.250000 0.384876 0.949379
O O19 0.338409 0.500000 0.038745
#
# Coordination Sequence:
#
# PCOD8214561 Si02
#       7
#     8   8   8   8   8   8   8
#     4  11  24  43  62  81 118 174 221 249 284 353
#     4   9  18  36  63  93 124 157 195 246 311 373
#     4  11  22  35  56  90 125 151 189 254 320 372
#     4  12  22  38  61  86 122 161 205 250 302 356
#     4  12  22  38  61  86 122 161 205 250 302 356
#     4   9  18  36  63  93 124 157 195 246 311 373
#     4  11  22  35  56  86 119 159 201 246 310 376
#
# _framework density 18.484252999999999
#
# number of rings (size 3 to 8) (size 9 to 14) (size 15 to 20)
#    0.000    1.286    2.857    6.000    0.000    2.857 
#    0.000    2.857    0.000    5.143    0.000    0.000 
#    0.000    0.000    0.000    0.000    0.000    0.000 
#
# Total GULP energy -694409.499684 kJ/mol
# GULP energy per Si atom -12400.169637 kJ/mol
# Density = 1.844218 g / cm^3
# Si number density = 18.484253 Si / 1000 Ang^3
#
#
#
# Elastic Constant Matrix: (Units=GPa)
#
#
# Indices 1 2 3 4 5 6 
#
# 1 112.2424 49.2728 27.2593 0.0000 0.0000 0.0000
# 2 49.2728 138.9845 40.4914 0.0000 0.0000 0.0000
# 3 27.2593 40.4914 82.2096 0.0000 0.0000 0.0000
# 4 0.0000 0.0000 0.0000 33.1893 0.0000 0.0000
# 5 0.0000 0.0000 0.0000 0.0000 34.3298 0.0000
# 6 0.0000 0.0000 0.0000 0.0000 0.0000 26.7294
#
#
#
# Elastic Compliance Matrix: (Units=1/GPa)
#
#
# Indices 1 2 3 4 5 6 
#
# 1 0.010821 -0.003259 -0.001983 0.000000 0.000000 0.000000
# 2 -0.003259 0.009382 -0.003540 0.000000 0.000000 0.000000
# 3 -0.001983 -0.003540 0.014565 0.000000 0.000000 0.000000
# 4 0.000000 0.000000 0.000000 0.030130 0.000000 0.000000
# 5 0.000000 0.000000 0.000000 0.000000 0.029129 0.000000
# 6 0.000000 0.000000 0.000000 0.000000 0.000000 0.037412
#
#
# Mechanical properties :
#
#
# Convention : Reuss Voigt Hill
#
# Bulk Modulus (GPa) = 58.12545 63.05373 60.58959
# Shear Modulus (GPa) = 32.31246 33.27722 32.79484
#
# Velocity S-wave (km/s) = 4.18557 4.24760 4.21670
# Velocity P-wave (km/s) = 7.40762 7.63167 7.52048
#
# Compressibility (1/GPa) = 0.01720417
#
# Stress axis : x y z
#
# Youngs Moduli (GPa) = 92.40926 106.59006 68.65584
#
# Poissons Ratio (x) = 0.34734 0.13616
# Poissons Ratio (y) = 0.30113 0.24307
# Poissons Ratio (z) = 0.18327 0.37737
#
# Static dielectric constant tensor:
#      x y z
#    x 3.418580 0.000000 0.000000 
#    y 0.000000 3.613960 0.000000 
#    z 0.000000 0.000000 3.355920 
# 
# 
# High freq. dielectric constant tensor:
#      x y z
#    x 1.707170 0.000000 0.000000 
#    y 0.000000 1.723400 0.000000 
#    z 0.000000 0.000000 1.713600 
# 
# From -- ./inp_files/10978.got.cif
#   From: 2010.03.12/outbox.cif.g09.slc.cpg/sg51_6_cif.got.tgz:10978.got - 2010.04.16 13:43:02.
