data_PCOD8214141
_publ_section_title
;
Structure prediction by ZEFSAII (Michael W. Deem and Ramdas Pophale) SiO2 
 PCOD8214141
Probable space group: P M M A
;
_chemical_formula_sum "Si O2"
_cell_formula_units_Z 52
_cell_length_a 13.031579
_cell_length_b 20.683799
_cell_length_c 8.708844
_cell_angle_alpha 90.000000
_cell_angle_beta 90.000000
_cell_angle_gamma 90.000000
_cell_volume 2347.404112
_symmetry_space_group_name_H-M "P M M A"
_symmetry_group_IT_number 51
_symmetry_cell_setting 'orthorhombic'
loop_
_space_group_symop_operation_xyz
x,y,z
1/2-x,-y,z
1/2+x,-y,-z
-x,y,-z
-x,-y,-z
1/2+x,y,-z
1/2-x,y,z
x,-y,z
loop_
_atom_site_type_symbol
_atom_site_label
_atom_site_fract_x
_atom_site_fract_y
_atom_site_fract_z
Si Si1 0.868715 0.071673 0.260108
Si Si2 0.371343 0.802753 0.916379
Si Si3 0.133383 0.687304 0.707330
Si Si4 0.000000 0.139018 0.500000
Si Si5 0.133266 0.354907 0.377534
Si Si6 0.867942 0.783263 0.744667
Si Si7 0.526654 0.571774 0.177355
O O1 0.750000 0.073232 0.300640
O O2 0.895595 0.124102 0.130904
O O3 0.924893 0.090460 0.415000
O O4 0.902256 0.000000 0.203574
O O5 0.250000 0.788102 0.928618
O O6 0.417398 0.750543 0.791025
O O7 0.418772 0.797159 0.087605
O O8 0.250000 0.705195 0.678529
O O9 0.085410 0.668583 0.541787
O O10 0.118930 0.623396 0.810440
O O11 0.066598 0.183364 0.387611
O O12 0.250000 0.380884 0.398891
O O13 0.129948 0.293611 0.267110
O O14 0.066956 0.409465 0.291591
O O15 0.750000 0.808515 0.734044
O O16 0.563024 0.500000 0.227638
O O17 0.500000 0.570897 0.000000
#
# Coordination Sequence:
#
# PCOD8214141 Si02
#       7
#     8   8   8   4   8   8   8
#     4  10  22  41  62  87 123 164 207 255 307 364
#     4   9  19  39  64  88 119 161 207 255 306 360
#     4  10  21  39  65  92 121 157 204 256 307 365
#     4  12  23  36  62  92 125 166 202 250 309 370
#     4  10  22  40  62  88 120 159 205 256 311 362
#     4  10  22  39  61  93 125 158 205 258 307 362
#     4  11  25  41  59  88 126 164 204 250 303 364
#
# _framework density 22.152131000000001
#
# number of rings (size 3 to 8) (size 9 to 14) (size 15 to 20)
#    0.000    1.846    0.000    3.000    4.308    6.769 
#    0.000    5.385    0.000    3.692    0.000    0.000 
#    0.000    0.000    0.000    0.000    0.000    0.000 
#
# Total GULP energy -644606.391030 kJ/mol
# GULP energy per Si atom -12396.276751 kJ/mol
# Density = 2.210171 g / cm^3
# Si number density = 22.152131 Si / 1000 Ang^3
#
#
#
# Elastic Constant Matrix: (Units=GPa)
#
#
# Indices 1 2 3 4 5 6 
#
# 1 29.6898 27.1651 30.6659 0.0000 0.0000 0.0000
# 2 27.1651 159.0596 59.1431 0.0000 0.0000 0.0000
# 3 30.6659 59.1431 150.7427 0.0000 0.0000 0.0000
# 4 0.0000 0.0000 0.0000 28.1593 0.0000 0.0000
# 5 0.0000 0.0000 0.0000 0.0000 38.4048 0.0000
# 6 0.0000 0.0000 0.0000 0.0000 0.0000 30.5809
#
#
#
# Elastic Compliance Matrix: (Units=1/GPa)
#
#
# Indices 1 2 3 4 5 6 
#
# 1 0.045944 -0.005118 -0.007339 0.000000 0.000000 0.000000
# 2 -0.005118 0.007931 -0.002070 0.000000 0.000000 0.000000
# 3 -0.007339 -0.002070 0.008939 0.000000 0.000000 0.000000
# 4 0.000000 0.000000 0.000000 0.035512 0.000000 0.000000
# 5 0.000000 0.000000 0.000000 0.000000 0.026038 0.000000
# 6 0.000000 0.000000 0.000000 0.000000 0.000000 0.032700
#
#
# Mechanical properties :
#
#
# Convention : Reuss Voigt Hill
#
# Bulk Modulus (GPa) = 29.62071 63.71559 46.66815
# Shear Modulus (GPa) = 25.33288 34.26355 29.79821
#
# Velocity S-wave (km/s) = 3.38536 3.93713 3.67162
# Velocity P-wave (km/s) = 5.35551 7.03514 6.25198
#
# Compressibility (1/GPa) = 0.03376016
#
# Stress axis : x y z
#
# Youngs Moduli (GPa) = 21.76562 126.08929 111.86859
#
# Poissons Ratio (x) = 0.64531 0.82095
# Poissons Ratio (y) = 0.11139 0.23162
# Poissons Ratio (z) = 0.15973 0.26107
#
# Static dielectric constant tensor:
#      x y z
#    x 4.252250 0.000000 0.000000 
#    y 0.000000 4.177290 0.000000 
#    z 0.000000 0.000000 4.153090 
# 
# 
# High freq. dielectric constant tensor:
#      x y z
#    x 1.888590 0.000000 0.000000 
#    y 0.000000 1.861120 0.000000 
#    z 0.000000 0.000000 1.881160 
# 
# From -- ./inp_files/8439.got.cif
#   From: 2010.03.12/outbox.cif.g09.slc.cpg/sg51_5_cif.got.tgz:8439.got - 2010.04.16 13:43:02.
