data_PCOD8214935
_publ_section_title
;
Structure prediction by ZEFSAII (Michael W. Deem and Ramdas Pophale) SiO2 
 PCOD8214935
Probable space group: P N N A
;
_chemical_formula_sum "Si O2"
_cell_formula_units_Z 36
_cell_length_a 20.277295
_cell_length_b 5.192364
_cell_length_c 19.382016
_cell_angle_alpha 90.000000
_cell_angle_beta 90.000000
_cell_angle_gamma 90.000000
_cell_volume 2040.676190
_symmetry_space_group_name_H-M "P N N A"
_symmetry_group_IT_number 52
_symmetry_cell_setting 'orthorhombic'
loop_
_space_group_symop_operation_xyz
x,y,z
1/2-x,-y,z
x,1/2-y,1/2-z
1/2-x,1/2+y,1/2-z
-x,-y,-z
1/2+x,y,-z
-x,1/2+y,1/2+z
1/2+x,1/2-y,1/2+z
loop_
_atom_site_type_symbol
_atom_site_label
_atom_site_fract_x
_atom_site_fract_y
_atom_site_fract_z
Si Si1 0.640284 0.035912 0.117222
Si Si2 0.176389 0.956944 0.537322
Si Si3 0.505528 0.478759 0.582676
Si Si4 0.790041 0.750000 0.250000
Si Si5 0.057053 0.975013 0.442594
O O1 0.647219 0.283340 0.069333
O O2 0.665343 0.117239 0.192049
O O3 0.680594 0.787129 0.089626
O O4 0.564668 0.943979 0.119651
O O5 0.250000 0.000000 0.509384
O O6 0.128179 0.901497 0.473618
O O7 0.500000 0.500000 0.500000
O O8 0.553905 0.239614 0.601138
O O9 0.539336 0.741400 0.609282
O O10 0.750000 0.500000 0.219855
O O11 0.000000 0.000000 0.500000
#
# Coordination Sequence:
#
# PCOD8214935 Si02
#       5
#     8   8   8   4   8
#     4  12  21  35  50  64  92 130 173 208 234 279
#     4  12  21  30  48  71  93 124 162 202 244 298
#     4  10  16  30  51  69  83 113 160 205 253 289
#     4  12  26  40  46  64 100 142 180 210 238 278
#     4  10  16  30  46  68  91 111 153 199 252 298
#
# _framework density 17.641211999999999
#
# number of rings (size 3 to 8) (size 9 to 14) (size 15 to 20)
#    0.000    0.889    8.889    4.000    0.000    0.000 
#    0.000    0.000    0.000    0.000    0.000    0.000 
#    0.000    0.000    0.000    4.000    0.000    2.889 
#
# Total GULP energy -446036.461574 kJ/mol
# GULP energy per Si atom -12389.901710 kJ/mol
# Density = 1.760106 g / cm^3
# Si number density = 17.641212 Si / 1000 Ang^3
#
#
#
# Elastic Constant Matrix: (Units=GPa)
#
#
# Indices 1 2 3 4 5 6 
#
# 1 116.1556 36.4984 37.8505 0.0000 0.0000 0.0000
# 2 36.4984 163.7052 16.8307 0.0000 0.0000 0.0000
# 3 37.8505 16.8307 29.2261 0.0000 0.0000 0.0000
# 4 0.0000 0.0000 0.0000 19.5789 0.0000 0.0000
# 5 0.0000 0.0000 0.0000 0.0000 18.8760 0.0000
# 6 0.0000 0.0000 0.0000 0.0000 0.0000 27.9290
#
#
#
# Elastic Compliance Matrix: (Units=1/GPa)
#
#
# Indices 1 2 3 4 5 6 
#
# 1 0.015213 -0.001452 -0.018866 0.000000 0.000000 0.000000
# 2 -0.001452 0.006632 -0.001938 0.000000 0.000000 0.000000
# 3 -0.018866 -0.001938 0.059766 0.000000 0.000000 0.000000
# 4 0.000000 0.000000 0.000000 0.051076 0.000000 0.000000
# 5 0.000000 0.000000 0.000000 0.000000 0.052977 0.000000
# 6 0.000000 0.000000 0.000000 0.000000 0.000000 0.035805
#
#
# Mechanical properties :
#
#
# Convention : Reuss Voigt Hill
#
# Bulk Modulus (GPa) = 26.95630 54.60512 40.78071
# Shear Modulus (GPa) = 17.96318 27.80393 22.88355
#
# Velocity S-wave (km/s) = 3.19447 3.97429 3.60552
# Velocity P-wave (km/s) = 5.37770 7.21667 6.36396
#
# Compressibility (1/GPa) = 0.03709708
#
# Stress axis : x y z
#
# Youngs Moduli (GPa) = 65.73255 150.79358 16.73203
#
# Poissons Ratio (x) = 0.21897 0.31567
# Poissons Ratio (y) = 0.09545 0.03243
# Poissons Ratio (z) = 1.24012 0.29229
#
# Static dielectric constant tensor:
#      x y z
#    x 3.300700 0.000000 0.000000 
#    y 0.000000 1.287040 0.000000 
#    z 0.000000 0.000000 2.536230 
# 
# 
# High freq. dielectric constant tensor:
#      x y z
#    x 1.676670 0.000000 0.000000 
#    y 0.000000 1.732000 0.000000 
#    z 0.000000 0.000000 1.590510 
# 
# From -- ./inp_files/37500.got.cif
#   From: 2010.06.25/outbox.cif.g09.slc.cpg/sg52_19_cif.got.tgz:37500.got - 2010.06.26 19:32:48.
