data_PCOD8214205
_publ_section_title
;
Structure prediction by ZEFSAII (Michael W. Deem and Ramdas Pophale) SiO2 
 PCOD8214205
Probable space group: P M M A
;
_chemical_formula_sum "Si O2"
_cell_formula_units_Z 20
_cell_length_a 7.998485
_cell_length_b 11.566526
_cell_length_c 8.756602
_cell_angle_alpha 90.000000
_cell_angle_beta 90.000000
_cell_angle_gamma 90.000000
_cell_volume 810.114273
_symmetry_space_group_name_H-M "P M M A"
_symmetry_group_IT_number 51
_symmetry_cell_setting 'orthorhombic'
loop_
_space_group_symop_operation_xyz
x,y,z
1/2-x,-y,z
1/2+x,-y,-z
-x,y,-z
-x,-y,-z
1/2+x,y,-z
1/2-x,y,z
x,-y,z
loop_
_atom_site_type_symbol
_atom_site_label
_atom_site_fract_x
_atom_site_fract_y
_atom_site_fract_z
Si Si1 0.947426 0.000000 0.325310
Si Si2 0.750000 0.365487 0.324195
Si Si3 0.750000 0.634974 0.966169
Si Si4 0.432233 0.754103 0.281238
O O1 0.000000 0.000000 0.500000
O O2 0.024705 0.887110 0.245972
O O3 0.750000 0.000000 0.305350
O O4 0.750000 0.500000 0.368590
O O5 0.579074 0.304882 0.383983
O O6 0.750000 0.338036 0.143928
O O7 0.750000 0.500000 0.932805
O O8 0.585616 0.688469 0.881856
O O9 0.250000 0.744482 0.368128
#
# Coordination Sequence:
#
# PCOD8214205 Si02
#       4
#     4   4   4   8
#     4  12  24  46  69  85 112 155 202 259 318 363
#     4  11  20  37  61  92 130 171 202 232 287 353
#     4   9  20  37  61  90 130 169 198 234 287 353
#     4  10  22  37  60  93 120 156 208 249 290 354
#
# _framework density 24.687877
#
# number of rings (size 3 to 8) (size 9 to 14) (size 15 to 20)
#    1.200    0.400    2.000    4.200    0.000    3.200 
#    0.000    6.000    0.000    7.200    0.000    0.000 
#    0.000    0.000    0.000    0.000    0.000    0.000 
#
# Total GULP energy -247848.047313 kJ/mol
# GULP energy per Si atom -12392.402366 kJ/mol
# Density = 2.463169 g / cm^3
# Si number density = 24.687877 Si / 1000 Ang^3
#
#
#
# Elastic Constant Matrix: (Units=GPa)
#
#
# Indices 1 2 3 4 5 6 
#
# 1 242.1495 83.0865 9.5164 0.0000 0.0000 0.0000
# 2 83.0865 215.2966 9.7470 0.0000 0.0000 0.0000
# 3 9.5164 9.7470 36.7619 0.0000 0.0000 0.0000
# 4 0.0000 0.0000 0.0000 16.0878 0.0000 0.0000
# 5 0.0000 0.0000 0.0000 0.0000 26.1372 0.0000
# 6 0.0000 0.0000 0.0000 0.0000 0.0000 55.7635
#
#
#
# Elastic Compliance Matrix: (Units=1/GPa)
#
#
# Indices 1 2 3 4 5 6 
#
# 1 0.004781 -0.001811 -0.000757 0.000000 0.000000 0.000000
# 2 -0.001811 0.005387 -0.000960 0.000000 0.000000 0.000000
# 3 -0.000757 -0.000960 0.027653 0.000000 0.000000 0.000000
# 4 0.000000 0.000000 0.000000 0.062159 0.000000 0.000000
# 5 0.000000 0.000000 0.000000 0.000000 0.038260 0.000000
# 6 0.000000 0.000000 0.000000 0.000000 0.000000 0.017933
#
#
# Mechanical properties :
#
#
# Convention : Reuss Voigt Hill
#
# Bulk Modulus (GPa) = 32.50468 77.65641 55.08054
# Shear Modulus (GPa) = 28.82145 45.72160 37.27152
#
# Velocity S-wave (km/s) = 3.42048 4.30814 3.88971
# Velocity P-wave (km/s) = 5.36604 7.50135 6.52168
#
# Compressibility (1/GPa) = 0.03076480
#
# Stress axis : x y z
#
# Youngs Moduli (GPa) = 209.17327 185.63336 36.16302
#
# Poissons Ratio (x) = 0.33612 0.02739
# Poissons Ratio (y) = 0.37874 0.03470
# Poissons Ratio (z) = 0.15845 0.17813
#
# Static dielectric constant tensor:
#      x y z
#    x 5.042690 0.000000 0.000000 
#    y 0.000000 4.885650 0.000000 
#    z 0.000000 0.000000 3.841970 
# 
# 
# High freq. dielectric constant tensor:
#      x y z
#    x 2.021660 0.000000 0.000000 
#    y 0.000000 1.981640 0.000000 
#    z 0.000000 0.000000 1.956360 
# 
# From -- ./inp_files/4380.got.cif
#   From: 2010.03.12/outbox.cif.g09.slc.cpg/sg51_3_cif.got.tgz:4380.got - 2010.04.16 13:43:02.
