data_PCOD8214046
_publ_section_title
;
Structure prediction by ZEFSAII (Michael W. Deem and Ramdas Pophale) SiO2 
 PCOD8214046
Probable space group: P M M A
;
_chemical_formula_sum "Si O2"
_cell_formula_units_Z 64
_cell_length_a 8.941071
_cell_length_b 24.649147
_cell_length_c 14.898364
_cell_angle_alpha 90.000000
_cell_angle_beta 90.000000
_cell_angle_gamma 90.000000
_cell_volume 3283.447066
_symmetry_space_group_name_H-M "P M M A"
_symmetry_group_IT_number 51
_symmetry_cell_setting 'orthorhombic'
loop_
_space_group_symop_operation_xyz
x,y,z
1/2-x,-y,z
1/2+x,-y,-z
-x,y,-z
-x,-y,-z
1/2+x,y,-z
1/2-x,y,z
x,-y,z
loop_
_atom_site_type_symbol
_atom_site_label
_atom_site_fract_x
_atom_site_fract_y
_atom_site_fract_z
Si Si1 0.076497 0.768168 0.911718
Si Si2 0.577762 0.063962 0.907934
Si Si3 0.574635 0.405784 0.411910
Si Si4 0.417362 0.329334 0.162670
Si Si5 0.581838 0.700700 0.632856
Si Si6 0.926937 0.858751 0.228636
Si Si7 0.576890 0.440202 0.765477
Si Si8 0.927471 0.822779 0.592390
O O1 0.250000 0.769025 0.929425
O O2 0.031657 0.804163 0.825996
O O3 0.025428 0.705775 0.899682
O O4 0.000000 0.793336 0.000000
O O5 0.750000 0.082840 0.910350
O O6 0.492935 0.090014 0.823887
O O7 0.563586 0.000000 0.895719
O O8 0.500000 0.083148 0.000000
O O9 0.500000 0.432309 0.500000
O O10 0.750000 0.412968 0.417479
O O11 0.532423 0.342181 0.409227
O O12 0.516305 0.437708 0.325546
O O13 0.250000 0.326065 0.122839
O O14 0.422627 0.303361 0.260566
O O15 0.473400 0.392395 0.166113
O O16 0.750000 0.688600 0.597932
O O17 0.527557 0.759962 0.603878
O O18 0.750000 0.865646 0.239743
O O19 0.002988 0.856873 0.325987
O O20 0.750000 0.429506 0.740307
O O21 0.553843 0.500000 0.809126
O O22 0.750000 0.831304 0.591173
O O23 0.000000 0.844358 0.500000
#
# Coordination Sequence:
#
# PCOD8214046 Si02
#       8
#     8   8   8   8   8   8   8   8
#     4  11  23  36  55  84 117 151 185 225 277 339
#     4  10  21  38  62  92 125 162 203 246 294 347
#     4  11  21  31  46  68  97 131 171 221 274 331
#     4   9  17  33  55  78 105 137 173 217 274 335
#     4   9  18  33  52  74 102 141 183 226 277 330
#     4  11  23  38  58  87 122 160 200 242 290 343
#     4   9  19  36  55  73  95 128 171 218 273 337
#     4  11  22  36  55  80 114 156 200 246 290 341
#
# _framework density 19.491710999999999
#
# number of rings (size 3 to 8) (size 9 to 14) (size 15 to 20)
#    0.000    1.875    1.250    4.125    0.000    7.750 
#    0.000    0.000    0.000    0.750    0.000    0.000 
#    0.000    0.000    0.000    0.000    0.000    0.000 
#
# Total GULP energy -793657.791963 kJ/mol
# GULP energy per Si atom -12400.902999 kJ/mol
# Density = 1.944735 g / cm^3
# Si number density = 19.491711 Si / 1000 Ang^3
#
#
#
# Elastic Constant Matrix: (Units=GPa)
#
#
# Indices 1 2 3 4 5 6 
#
# 1 103.0600 34.7301 45.2217 0.0000 0.0000 0.0000
# 2 34.7301 67.1354 34.5158 0.0000 0.0000 0.0000
# 3 45.2217 34.5158 101.9405 0.0000 0.0000 0.0000
# 4 0.0000 0.0000 0.0000 11.7309 0.0000 0.0000
# 5 0.0000 0.0000 0.0000 0.0000 34.2107 0.0000
# 6 0.0000 0.0000 0.0000 0.0000 0.0000 23.6443
#
#
#
# Elastic Compliance Matrix: (Units=1/GPa)
#
#
# Indices 1 2 3 4 5 6 
#
# 1 0.013124 -0.004596 -0.004266 0.000000 0.000000 0.000000
# 2 -0.004596 0.019644 -0.004612 0.000000 0.000000 0.000000
# 3 -0.004266 -0.004612 0.013264 0.000000 0.000000 0.000000
# 4 0.000000 0.000000 0.000000 0.085245 0.000000 0.000000
# 5 0.000000 0.000000 0.000000 0.000000 0.029231 0.000000
# 6 0.000000 0.000000 0.000000 0.000000 0.000000 0.042294
#
#
# Mechanical properties :
#
#
# Convention : Reuss Voigt Hill
#
# Bulk Modulus (GPa) = 52.40173 55.67455 54.03814
# Shear Modulus (GPa) = 21.17662 24.42839 22.80251
#
# Velocity S-wave (km/s) = 3.29970 3.54400 3.42403
# Velocity P-wave (km/s) = 6.43893 6.73586 6.58907
#
# Compressibility (1/GPa) = 0.01908334
#
# Stress axis : x y z
#
# Youngs Moduli (GPa) = 76.19867 50.90559 75.39420
#
# Poissons Ratio (x) = 0.23396 0.32160
# Poissons Ratio (y) = 0.35021 0.34775
# Poissons Ratio (z) = 0.32503 0.23480
#
# Static dielectric constant tensor:
#      x y z
#    x 3.540410 0.000000 0.000000 
#    y 0.000000 3.478010 0.000000 
#    z 0.000000 0.000000 3.431930 
# 
# 
# High freq. dielectric constant tensor:
#      x y z
#    x 1.763430 0.000000 0.000000 
#    y 0.000000 1.744900 0.000000 
#    z 0.000000 0.000000 1.745160 
# 
# From -- ./inp_files/22398.got.cif
#   From: 2010.03.12/outbox.cif.g09.slc.cpg/sg51_12_cif.got.tgz:22398.got - 2010.04.16 13:43:02.
