data_PCOD8214877
_publ_section_title
;
Structure prediction by ZEFSAII (Michael W. Deem and Ramdas Pophale) SiO2 
 PCOD8214877
Probable space group: P M M A
;
_chemical_formula_sum "Si O2"
_cell_formula_units_Z 56
_cell_length_a 18.055856
_cell_length_b 9.465681
_cell_length_c 18.974012
_cell_angle_alpha 90.000000
_cell_angle_beta 90.000000
_cell_angle_gamma 90.000000
_cell_volume 3242.866854
_symmetry_space_group_name_H-M "P M M A"
_symmetry_group_IT_number 51
_symmetry_cell_setting 'orthorhombic'
loop_
_space_group_symop_operation_xyz
x,y,z
1/2-x,-y,z
1/2+x,-y,-z
-x,y,-z
-x,-y,-z
1/2+x,y,-z
1/2-x,y,z
x,-y,z
loop_
_atom_site_type_symbol
_atom_site_label
_atom_site_fract_x
_atom_site_fract_y
_atom_site_fract_z
Si Si1 0.019672 0.334069 0.577714
Si Si2 0.167956 0.337403 0.651264
Si Si3 0.956951 0.838287 0.700482
Si Si4 0.664667 0.163198 0.809837
Si Si5 0.108141 0.837196 0.774430
Si Si6 0.661904 0.340091 0.942997
Si Si7 0.163143 0.162547 0.924911
O O1 0.005661 0.500000 0.584065
O O2 0.105168 0.292776 0.594632
O O3 0.000000 0.278779 0.500000
O O4 0.964303 0.259117 0.632029
O O5 0.250000 0.310729 0.618784
O O6 0.157022 0.500000 0.671959
O O7 0.161052 0.249852 0.722864
O O8 0.880646 0.799679 0.739403
O O9 0.022835 0.809342 0.755629
O O10 0.957871 0.000000 0.674898
O O11 0.750000 0.196281 0.792975
O O12 0.634045 0.258769 0.873510
O O13 0.653125 0.000000 0.831599
O O14 0.120825 0.788258 0.854525
O O15 0.130870 0.000000 0.765806
O O16 0.750000 0.337568 0.944171
O O17 0.631268 0.500000 0.942366
O O18 0.631956 0.259187 0.011941
O O19 0.250000 0.185766 0.912787
O O20 0.145994 0.000000 0.943783
#
# Coordination Sequence:
#
# PCOD8214877 Si02
#       7
#     8   8   8   8   8   8   8
#     4   9  18  33  51  70  95 126 154 181 220 270
#     4   9  17  29  46  68  93 122 155 188 222 263
#     4   9  18  32  50  71  92 116 149 187 227 272
#     4   9  17  31  50  68  88 117 152 190 232 276
#     4   9  17  29  45  66  92 120 151 188 228 270
#     4   9  17  28  43  64  88 115 151 193 230 265
#     4   9  16  26  41  61  86 117 150 183 223 270
#
# _framework density 17.26867
#
# number of rings (size 3 to 8) (size 9 to 14) (size 15 to 20)
#    0.000    3.000    0.000    0.857    0.000    4.000 
#    0.000    2.857    0.000    5.143    0.000    0.000 
#    0.000    0.000    0.000    0.000    0.000    0.000 
#
# Total GULP energy -694373.426853 kJ/mol
# GULP energy per Si atom -12399.525480 kJ/mol
# Density = 1.722937 g / cm^3
# Si number density = 17.268670 Si / 1000 Ang^3
#
#
#
# Elastic Constant Matrix: (Units=GPa)
#
#
# Indices 1 2 3 4 5 6 
#
# 1 68.3525 35.5328 59.6488 0.0000 0.0000 0.0000
# 2 35.5328 73.4906 68.7239 0.0000 0.0000 0.0000
# 3 59.6488 68.7239 150.8607 0.0000 0.0000 0.0000
# 4 0.0000 0.0000 0.0000 30.7294 0.0000 0.0000
# 5 0.0000 0.0000 0.0000 0.0000 22.1149 0.0000
# 6 0.0000 0.0000 0.0000 0.0000 0.0000 18.1085
#
#
#
# Elastic Compliance Matrix: (Units=1/GPa)
#
#
# Indices 1 2 3 4 5 6 
#
# 1 0.023196 -0.004597 -0.007077 0.000000 0.000000 0.000000
# 2 -0.004597 0.024617 -0.009396 0.000000 0.000000 0.000000
# 3 -0.007077 -0.009396 0.013707 0.000000 0.000000 0.000000
# 4 0.000000 0.000000 0.000000 0.032542 0.000000 0.000000
# 5 0.000000 0.000000 0.000000 0.000000 0.045218 0.000000
# 6 0.000000 0.000000 0.000000 0.000000 0.000000 0.055223
#
#
# Mechanical properties :
#
#
# Convention : Reuss Voigt Hill
#
# Bulk Modulus (GPa) = 51.60323 68.94608 60.27465
# Shear Modulus (GPa) = 20.56730 22.77712 21.67221
#
# Velocity S-wave (km/s) = 3.45486 3.63572 3.54644
# Velocity P-wave (km/s) = 6.77216 7.59189 7.19371
#
# Compressibility (1/GPa) = 0.01937863
#
# Stress axis : x y z
#
# Youngs Moduli (GPa) = 43.11119 40.62255 72.95315
#
# Poissons Ratio (x) = 0.18674 0.51631
# Poissons Ratio (y) = 0.19818 0.68550
# Poissons Ratio (z) = 0.30511 0.38171
#
# Static dielectric constant tensor:
#      x y z
#    x 3.128910 0.000000 0.000000 
#    y 0.000000 3.267430 0.000000 
#    z 0.000000 0.000000 3.175290 
# 
# 
# High freq. dielectric constant tensor:
#      x y z
#    x 1.649290 0.000000 0.000000 
#    y 0.000000 1.665590 0.000000 
#    z 0.000000 0.000000 1.656630 
# 
# From -- ./inp_files/30355.got.cif
#   From: 2010.03.12/outbox.cif.g09.slc.cpg/sg51_16_cif.got.tgz:30355.got - 2010.04.16 13:43:02.
