data_PCOD8214766
_publ_section_title
;
Structure prediction by ZEFSAII (Michael W. Deem and Ramdas Pophale) SiO2 
 PCOD8214766
Probable space group: P M M A
;
_chemical_formula_sum "Si O2"
_cell_formula_units_Z 48
_cell_length_a 9.176557
_cell_length_b 9.764567
_cell_length_c 31.325314
_cell_angle_alpha 90.000000
_cell_angle_beta 90.000000
_cell_angle_gamma 90.000000
_cell_volume 2806.908071
_symmetry_space_group_name_H-M "P M M A"
_symmetry_group_IT_number 51
_symmetry_cell_setting 'orthorhombic'
loop_
_space_group_symop_operation_xyz
x,y,z
1/2-x,-y,z
1/2+x,-y,-z
-x,y,-z
-x,-y,-z
1/2+x,y,-z
1/2-x,y,z
x,-y,z
loop_
_atom_site_type_symbol
_atom_site_label
_atom_site_fract_x
_atom_site_fract_y
_atom_site_fract_z
Si Si1 0.410937 0.837121 0.039485
Si Si2 0.585330 0.337063 0.293139
Si Si3 0.423776 0.847183 0.132636
Si Si4 0.420487 0.341350 0.209023
Si Si5 0.415160 0.663334 0.375558
Si Si6 0.415205 0.336779 0.541457
O O1 0.250000 0.773795 0.036124
O O2 0.481372 0.799786 0.085756
O O3 0.403800 0.000000 0.035736
O O4 0.500000 0.773183 0.000000
O O5 0.750000 0.279844 0.294282
O O6 0.585686 0.500000 0.294706
O O7 0.506093 0.286390 0.250278
O O8 0.496905 0.279267 0.333707
O O9 0.250000 0.848231 0.130631
O O10 0.480272 0.742556 0.168443
O O11 0.480795 0.000000 0.143656
O O12 0.250000 0.315787 0.217111
O O13 0.453371 0.500000 0.200154
O O14 0.250000 0.719604 0.376307
O O15 0.414036 0.500000 0.375297
O O16 0.501079 0.718621 0.416868
O O17 0.500000 0.280981 0.500000
O O18 0.250000 0.280242 0.541333
O O19 0.413480 0.500000 0.541363
#
# Coordination Sequence:
#
# PCOD8214766 Si02
#       6
#     8   8   8   8   8   8
#     4   8  13  22  37  56  76  98 125 156 188 223
#     4   9  16  25  36  50  69  93 120 152 192 234
#     4   8  14  25  41  60  81 104 129 158 194 234
#     4   9  16  26  41  59  76  97 129 165 195 227
#     4   9  15  22  32  45  61  83 115 155 193 229
#     4   9  15  21  28  39  57  82 113 150 193 238
#
# _framework density 17.100667999999999
#
# number of rings (size 3 to 8) (size 9 to 14) (size 15 to 20)
#    0.000    3.333    0.000    2.500    0.000    6.000 
#    0.000    0.833    0.000    2.000    0.000    0.000 
#    0.000    0.000    0.000    0.000    0.000    0.833 
#
# Total GULP energy -594914.503630 kJ/mol
# GULP energy per Si atom -12394.052159 kJ/mol
# Density = 1.706175 g / cm^3
# Si number density = 17.100668 Si / 1000 Ang^3
#
#
#
# Elastic Constant Matrix: (Units=GPa)
#
#
# Indices 1 2 3 4 5 6 
#
# 1 113.0541 16.8636 83.1092 0.0000 0.0000 0.0000
# 2 16.8636 20.2709 34.6085 0.0000 0.0000 0.0000
# 3 83.1092 34.6085 200.3853 0.0000 0.0000 0.0000
# 4 0.0000 0.0000 0.0000 3.0546 0.0000 0.0000
# 5 0.0000 0.0000 0.0000 0.0000 33.4112 0.0000
# 6 0.0000 0.0000 0.0000 0.0000 0.0000 5.2155
#
#
#
# Elastic Compliance Matrix: (Units=1/GPa)
#
#
# Indices 1 2 3 4 5 6 
#
# 1 0.012797 -0.002247 -0.004919 0.000000 0.000000 0.000000
# 2 -0.002247 0.070356 -0.011219 0.000000 0.000000 0.000000
# 3 -0.004919 -0.011219 0.008968 0.000000 0.000000 0.000000
# 4 0.000000 0.000000 0.000000 0.327374 0.000000 0.000000
# 5 0.000000 0.000000 0.000000 0.000000 0.029930 0.000000
# 6 0.000000 0.000000 0.000000 0.000000 0.000000 0.191737
#
#
# Mechanical properties :
#
#
# Convention : Reuss Voigt Hill
#
# Bulk Modulus (GPa) = 18.06691 66.98588 42.52640
# Shear Modulus (GPa) = 7.17995 21.61152 14.39574
#
# Velocity S-wave (km/s) = 2.05128 3.55883 2.90457
# Velocity P-wave (km/s) = 4.02471 7.49290 6.01423
#
# Compressibility (1/GPa) = 0.05534979
#
# Stress axis : x y z
#
# Youngs Moduli (GPa) = 78.14410 14.21349 111.50317
#
# Poissons Ratio (x) = 0.03194 0.54853
# Poissons Ratio (y) = 0.17559 1.25098
# Poissons Ratio (z) = 0.38442 0.15946
#
# Static dielectric constant tensor:
#      x y z
#    x 3.249700 0.000000 0.000000 
#    y 0.000000 2.511610 0.000000 
#    z 0.000000 0.000000 3.568260 
# 
# 
# High freq. dielectric constant tensor:
#      x y z
#    x 1.651640 0.000000 0.000000 
#    y 0.000000 1.571180 0.000000 
#    z 0.000000 0.000000 1.682070 
# 
# From -- ./inp_files/36137.got.cif
#   From: 2010.03.12/outbox.cif.g09.slc.cpg/sg51_19_cif.got.tgz:36137.got - 2010.04.16 13:43:02.
