data_PCOD8214016
_publ_section_title
;
Structure prediction by ZEFSAII (Michael W. Deem and Ramdas Pophale) SiO2 
 PCOD8214016
Probable space group: P M M A
;
_chemical_formula_sum "Si O2"
_cell_formula_units_Z 48
_cell_length_a 14.321860
_cell_length_b 16.767814
_cell_length_c 9.820984
_cell_angle_alpha 90.000000
_cell_angle_beta 90.000000
_cell_angle_gamma 90.000000
_cell_volume 2358.472819
_symmetry_space_group_name_H-M "P M M A"
_symmetry_group_IT_number 51
_symmetry_cell_setting 'orthorhombic'
loop_
_space_group_symop_operation_xyz
x,y,z
1/2-x,-y,z
1/2+x,-y,-z
-x,y,-z
-x,-y,-z
1/2+x,y,-z
1/2-x,y,z
x,-y,z
loop_
_atom_site_type_symbol
_atom_site_label
_atom_site_fract_x
_atom_site_fract_y
_atom_site_fract_z
Si Si1 0.358768 0.907502 0.659968
Si Si2 0.140927 0.909435 0.352373
Si Si3 0.950124 0.640713 0.866980
Si Si4 0.250000 0.595355 0.732649
Si Si5 0.250000 0.595277 0.045522
Si Si6 0.942871 0.589605 0.379356
Si Si7 0.495110 0.824147 0.156301
O O1 0.250000 0.893719 0.684634
O O2 0.386656 0.882456 0.505662
O O3 0.411519 0.851415 0.766546
O O4 0.384987 0.000000 0.684409
O O5 0.250000 0.900176 0.331001
O O6 0.093581 0.858349 0.235087
O O7 0.108429 0.000000 0.332520
O O8 0.838854 0.633357 0.879006
O O9 0.985468 0.729656 0.838732
O O10 0.987219 0.585521 0.747014
O O11 0.000000 0.605870 0.000000
O O12 0.250000 0.500000 0.731910
O O13 0.157184 0.630174 0.657836
O O14 0.250000 0.624050 0.888968
O O15 0.250000 0.500000 0.059196
O O16 0.920198 0.500000 0.427674
O O17 0.000000 0.635036 0.500000
O O18 0.500000 0.854522 0.000000
#
# Coordination Sequence:
#
# PCOD8214016 Si02
#       7
#     8   8   8   4   4   8   8
#     4   9  19  39  64  89 116 158 218 263 294 352
#     4   9  19  37  63  88 114 158 211 259 297 349
#     4  11  24  41  59  89 123 163 204 255 303 372
#     4   9  18  35  63  91 113 152 195 247 306 358
#     4  11  22  39  71  93 112 162 219 257 299 366
#     4  10  21  38  61  89 122 151 193 253 310 371
#     4  11  24  37  54  86 126 166 190 247 311 364
#
# _framework density 20.352152
#
# number of rings (size 3 to 8) (size 9 to 14) (size 15 to 20)
#    0.000    2.000    1.667    2.500    1.167    6.000 
#    6.000    3.333    0.000    0.000    0.000    0.000 
#    0.000    0.000    0.000    0.000    0.000    0.000 
#
# Total GULP energy -595067.975060 kJ/mol
# GULP energy per Si atom -12397.249480 kJ/mol
# Density = 2.030583 g / cm^3
# Si number density = 20.352152 Si / 1000 Ang^3
#
#
#
# Elastic Constant Matrix: (Units=GPa)
#
#
# Indices 1 2 3 4 5 6 
#
# 1 146.7972 17.9366 58.5712 0.0000 0.0000 0.0000
# 2 17.9366 49.5566 28.2907 0.0000 0.0000 0.0000
# 3 58.5712 28.2907 134.6136 0.0000 0.0000 0.0000
# 4 0.0000 0.0000 0.0000 15.3538 0.0000 0.0000
# 5 0.0000 0.0000 0.0000 0.0000 41.5892 0.0000
# 6 0.0000 0.0000 0.0000 0.0000 0.0000 28.0896
#
#
#
# Elastic Compliance Matrix: (Units=1/GPa)
#
#
# Indices 1 2 3 4 5 6 
#
# 1 0.008293 -0.001070 -0.003383 0.000000 0.000000 0.000000
# 2 -0.001070 0.023068 -0.004382 0.000000 0.000000 0.000000
# 3 -0.003383 -0.004382 0.009822 0.000000 0.000000 0.000000
# 4 0.000000 0.000000 0.000000 0.065130 0.000000 0.000000
# 5 0.000000 0.000000 0.000000 0.000000 0.024045 0.000000
# 6 0.000000 0.000000 0.000000 0.000000 0.000000 0.035600
#
#
# Mechanical properties :
#
#
# Convention : Reuss Voigt Hill
#
# Bulk Modulus (GPa) = 42.53332 60.06273 51.29803
# Shear Modulus (GPa) = 26.11420 32.08447 29.09934
#
# Velocity S-wave (km/s) = 3.58595 3.97478 3.78536
# Velocity P-wave (km/s) = 6.17166 7.11625 6.66072
#
# Compressibility (1/GPa) = 0.02351098
#
# Stress axis : x y z
#
# Youngs Moduli (GPa) = 120.58641 43.34997 101.81411
#
# Poissons Ratio (x) = 0.04639 0.34448
# Poissons Ratio (y) = 0.12903 0.44620
# Poissons Ratio (z) = 0.40799 0.18998
#
# Static dielectric constant tensor:
#      x y z
#    x 3.844150 0.000000 0.000000 
#    y 0.000000 3.365730 0.000000 
#    z 0.000000 0.000000 3.859170 
# 
# 
# High freq. dielectric constant tensor:
#      x y z
#    x 1.812280 0.000000 0.000000 
#    y 0.000000 1.768540 0.000000 
#    z 0.000000 0.000000 1.799310 
# 
# From -- ./inp_files/8317.got.cif
#   From: 2010.03.12/outbox.cif.g09.slc.cpg/sg51_5_cif.got.tgz:8317.got - 2010.04.16 13:43:02.
