data_PCOD8214982
_publ_section_title
;
Structure prediction by ZEFSAII (Michael W. Deem and Ramdas Pophale) SiO2 
 PCOD8214982
Probable space group: P N N A
;
_chemical_formula_sum "Si O2"
_cell_formula_units_Z 40
_cell_length_a 9.929757
_cell_length_b 9.262251
_cell_length_c 20.673122
_cell_angle_alpha 90.000000
_cell_angle_beta 90.000000
_cell_angle_gamma 90.000000
_cell_volume 1901.346344
_symmetry_space_group_name_H-M "P N N A"
_symmetry_group_IT_number 52
_symmetry_cell_setting 'orthorhombic'
loop_
_space_group_symop_operation_xyz
x,y,z
1/2-x,-y,z
x,1/2-y,1/2-z
1/2-x,1/2+y,1/2-z
-x,-y,-z
1/2+x,y,-z
-x,1/2+y,1/2+z
1/2+x,1/2-y,1/2+z
loop_
_atom_site_type_symbol
_atom_site_label
_atom_site_fract_x
_atom_site_fract_y
_atom_site_fract_z
Si Si1 0.597438 0.534281 0.732191
Si Si2 0.829390 0.690846 0.414996
Si Si3 0.941607 0.109795 0.129491
Si Si4 0.929143 0.192612 0.645944
Si Si5 0.792763 0.665413 0.563040
O O1 0.750000 0.500000 0.712584
O O2 0.498268 0.411218 0.702848
O O3 0.554745 0.680013 0.697309
O O4 0.584970 0.547168 0.810384
O O5 0.908180 0.540290 0.406682
O O6 0.696388 0.701995 0.369398
O O7 0.781530 0.706531 0.488345
O O8 0.933178 0.818138 0.395822
O O9 0.055007 0.189541 0.087081
O O10 0.801614 0.220070 0.600074
O O11 0.750000 0.500000 0.576868
#
# Coordination Sequence:
#
# PCOD8214982 Si02
#       5
#     8   8   8   8   8
#     4  10  18  34  53  69 104 138 179 207 240 304
#     4  10  19  27  48  78 108 131 157 206 273 315
#     4  10  17  28  48  73 103 136 153 203 262 306
#     4  10  20  31  52  77 100 138 172 207 251 305
#     4  12  16  29  49  79 107 131 163 210 260 314
#
# _framework density 21.037723
#
# number of rings (size 3 to 8) (size 9 to 14) (size 15 to 20)
#    0.000    1.600    8.000    1.800    0.000    0.000 
#    0.000    0.000   30.800    1.200    0.000    0.000 
#    0.000    0.000    0.000    0.000    0.000    0.000 
#
# Total GULP energy -495780.433133 kJ/mol
# GULP energy per Si atom -12394.510828 kJ/mol
# Density = 2.098984 g / cm^3
# Si number density = 21.037723 Si / 1000 Ang^3
#
#
#
# Elastic Constant Matrix: (Units=GPa)
#
#
# Indices 1 2 3 4 5 6 
#
# 1 185.9380 20.6017 72.2585 0.0000 0.0000 0.0000
# 2 20.6017 9.2274 27.6538 0.0000 0.0000 0.0000
# 3 72.2585 27.6538 140.8051 0.0000 0.0000 0.0000
# 4 0.0000 0.0000 0.0000 12.6543 0.0000 0.0000
# 5 0.0000 0.0000 0.0000 0.0000 25.2314 0.0000
# 6 0.0000 0.0000 0.0000 0.0000 0.0000 5.4446
#
#
#
# Elastic Compliance Matrix: (Units=1/GPa)
#
#
# Indices 1 2 3 4 5 6 
#
# 1 0.007245 -0.012233 -0.001315 0.000000 0.000000 0.000000
# 2 -0.012233 0.284077 -0.049514 0.000000 0.000000 0.000000
# 3 -0.001315 -0.049514 0.017501 0.000000 0.000000 0.000000
# 4 0.000000 0.000000 0.000000 0.079025 0.000000 0.000000
# 5 0.000000 0.000000 0.000000 0.000000 0.039633 0.000000
# 6 0.000000 0.000000 0.000000 0.000000 0.000000 0.183667
#
#
# Mechanical properties :
#
#
# Convention : Reuss Voigt Hill
#
# Bulk Modulus (GPa) = 5.47352 64.11095 34.79223
# Shear Modulus (GPa) = 6.26430 23.02982 14.64706
#
# Velocity S-wave (km/s) = 1.72746 3.31220 2.64148
# Velocity P-wave (km/s) = 2.56637 6.72072 5.08696
#
# Compressibility (1/GPa) = 0.18269775
#
# Stress axis : x y z
#
# Youngs Moduli (GPa) = 138.03184 3.52017 57.13808
#
# Poissons Ratio (x) = 0.04306 0.07515
# Poissons Ratio (y) = 1.68860 2.82915
# Poissons Ratio (z) = 0.18154 0.17430
#
# Static dielectric constant tensor:
#      x y z
#    x 4.140020 0.000000 0.000000 
#    y 0.000000 3.473330 0.000000 
#    z 0.000000 0.000000 4.202120 
# 
# 
# High freq. dielectric constant tensor:
#      x y z
#    x 1.840880 0.000000 0.000000 
#    y 0.000000 1.742100 0.000000 
#    z 0.000000 0.000000 1.828120 
# 
# From -- ./inp_files/35783.got.cif
#   From: 2010.06.25/outbox.cif.g09.slc.cpg/sg52_18_cif.got.tgz:35783.got - 2010.06.26 19:32:48.
