data_PCOD8214144
_publ_section_title
;
Structure prediction by ZEFSAII (Michael W. Deem and Ramdas Pophale) SiO2 
 PCOD8214144
Probable space group: P M M A
;
_chemical_formula_sum "Si O2"
_cell_formula_units_Z 48
_cell_length_a 15.577651
_cell_length_b 9.151626
_cell_length_c 16.994280
_cell_angle_alpha 90.000000
_cell_angle_beta 90.000000
_cell_angle_gamma 90.000000
_cell_volume 2422.718762
_symmetry_space_group_name_H-M "P M M A"
_symmetry_group_IT_number 51
_symmetry_cell_setting 'orthorhombic'
loop_
_space_group_symop_operation_xyz
x,y,z
1/2-x,-y,z
1/2+x,-y,-z
-x,y,-z
-x,-y,-z
1/2+x,y,-z
1/2-x,y,z
x,-y,z
loop_
_atom_site_type_symbol
_atom_site_label
_atom_site_fract_x
_atom_site_fract_y
_atom_site_fract_z
Si Si1 0.750000 0.173214 0.231335
Si Si2 0.398819 0.165189 0.880106
Si Si3 0.909531 0.164831 0.825866
Si Si4 0.600062 0.671871 0.506542
Si Si5 0.651637 0.665042 0.972460
Si Si6 0.750000 0.824530 0.411068
Si Si7 0.149957 0.335793 0.318533
O O1 0.667104 0.231527 0.183678
O O2 0.750000 0.230686 0.320561
O O3 0.750000 0.000000 0.234370
O O4 0.490448 0.171873 0.841133
O O5 0.372435 0.000000 0.902814
O O6 0.403426 0.256111 0.960502
O O7 0.857082 0.258956 0.888381
O O8 0.898052 0.225971 0.738771
O O9 0.874601 0.000000 0.829888
O O10 0.500000 0.718230 0.500000
O O11 0.611863 0.500000 0.488743
O O12 0.662105 0.761617 0.448342
O O13 0.630814 0.713892 0.593282
O O14 0.750000 0.671227 0.999071
O O15 0.618369 0.500000 0.964279
O O16 0.750000 0.000000 0.419006
O O17 0.250000 0.327328 0.301028
O O18 0.115459 0.500000 0.304502
#
# Coordination Sequence:
#
# PCOD8214144 Si02
#       7
#     4   8   8   8   8   4   8
#     4   9  20  39  61  84 117 156 189 235 300 351
#     4  10  21  40  62  83 114 156 195 238 292 351
#     4  11  24  37  58  90 118 151 199 243 290 356
#     4  10  22  42  66  91 124 168 210 253 310 374
#     4  11  23  39  59  85 117 154 196 241 292 347
#     4  11  23  39  65  96 127 162 203 257 316 369
#     4  10  21  40  62  85 119 159 199 247 299 350
#
# _framework density 19.812452
#
# number of rings (size 3 to 8) (size 9 to 14) (size 15 to 20)
#    0.000    1.667    1.667    2.250    2.333    7.667 
#    0.000    1.667    0.000    0.000    0.000    0.000 
#    0.000    0.000    0.000    0.000    0.000    0.000 
#
# Total GULP energy -595342.883948 kJ/mol
# GULP energy per Si atom -12402.976749 kJ/mol
# Density = 1.976736 g / cm^3
# Si number density = 19.812452 Si / 1000 Ang^3
#
#
#
# Elastic Constant Matrix: (Units=GPa)
#
#
# Indices 1 2 3 4 5 6 
#
# 1 62.5619 28.1153 16.2646 0.0000 0.0000 0.0000
# 2 28.1153 103.4633 52.5860 0.0000 0.0000 0.0000
# 3 16.2646 52.5860 115.3994 0.0000 0.0000 0.0000
# 4 0.0000 0.0000 0.0000 31.7404 0.0000 0.0000
# 5 0.0000 0.0000 0.0000 0.0000 50.5566 0.0000
# 6 0.0000 0.0000 0.0000 0.0000 0.0000 24.0337
#
#
#
# Elastic Compliance Matrix: (Units=1/GPa)
#
#
# Indices 1 2 3 4 5 6 
#
# 1 0.018222 -0.004745 -0.000406 0.000000 0.000000 0.000000
# 2 -0.004745 0.013814 -0.005626 0.000000 0.000000 0.000000
# 3 -0.000406 -0.005626 0.011287 0.000000 0.000000 0.000000
# 4 0.000000 0.000000 0.000000 0.031506 0.000000 0.000000
# 5 0.000000 0.000000 0.000000 0.000000 0.019780 0.000000
# 6 0.000000 0.000000 0.000000 0.000000 0.000000 0.041608
#
#
# Mechanical properties :
#
#
# Convention : Reuss Voigt Hill
#
# Bulk Modulus (GPa) = 45.93864 52.81740 49.37802
# Shear Modulus (GPa) = 30.29789 33.56338 31.93063
#
# Velocity S-wave (km/s) = 3.91479 4.12035 4.01888
# Velocity P-wave (km/s) = 6.60842 7.02517 6.81998
#
# Compressibility (1/GPa) = 0.02176816
#
# Stress axis : x y z
#
# Youngs Moduli (GPa) = 54.87784 72.38842 88.60122
#
# Poissons Ratio (x) = 0.34352 0.03596
# Poissons Ratio (y) = 0.26042 0.49849
# Poissons Ratio (z) = 0.02227 0.40727
#
# Static dielectric constant tensor:
#      x y z
#    x 3.629420 0.000000 0.000000 
#    y 0.000000 3.656070 0.000000 
#    z 0.000000 0.000000 3.655430 
# 
# 
# High freq. dielectric constant tensor:
#      x y z
#    x 1.782060 0.000000 0.000000 
#    y 0.000000 1.763920 0.000000 
#    z 0.000000 0.000000 1.781370 
# 
# From -- ./inp_files/29523.got.cif
#   From: 2010.03.12/outbox.cif.g09.slc.cpg/sg51_15_cif.got.tgz:29523.got - 2010.04.16 13:43:02.
