data_PCOD8214104
_publ_section_title
;
Structure prediction by ZEFSAII (Michael W. Deem and Ramdas Pophale) SiO2 
 PCOD8214104
Probable space group: P M M A
;
_chemical_formula_sum "Si O2"
_cell_formula_units_Z 24
_cell_length_a 16.662372
_cell_length_b 13.612436
_cell_length_c 4.983509
_cell_angle_alpha 90.000000
_cell_angle_beta 90.000000
_cell_angle_gamma 90.000000
_cell_volume 1130.336948
_symmetry_space_group_name_H-M "P M M A"
_symmetry_group_IT_number 51
_symmetry_cell_setting 'orthorhombic'
loop_
_space_group_symop_operation_xyz
x,y,z
1/2-x,-y,z
1/2+x,-y,-z
-x,y,-z
-x,-y,-z
1/2+x,y,-z
1/2-x,y,z
x,-y,z
loop_
_atom_site_type_symbol
_atom_site_label
_atom_site_fract_x
_atom_site_fract_y
_atom_site_fract_z
Si Si1 0.158098 0.212456 0.881602
Si Si2 0.588322 0.886669 0.605095
Si Si3 0.445651 0.390295 0.741826
O O1 0.250000 0.217578 0.974152
O O2 0.150303 0.137770 0.632569
O O3 0.130219 0.319921 0.785150
O O4 0.104503 0.177104 0.130619
O O5 0.500000 0.861007 0.500000
O O6 0.597222 0.000000 0.686525
O O7 0.500000 0.348947 0.500000
O O8 0.413373 0.500000 0.673400
O O9 0.500000 0.393516 0.000000
#
# Coordination Sequence:
#
# PCOD8214104 Si02
#       3
#     8   8   8
#     4  12  24  38  61  92 125 157 194 252 314 362
#     4  11  24  42  63  86 117 162 210 250 295 361
#     4  10  21  39  63  87 115 156 201 242 288 351
#
# _framework density 21.232605
#
# number of rings (size 3 to 8) (size 9 to 14) (size 15 to 20)
#    0.000    1.000    0.000    8.000    0.000    7.333 
#    0.000    0.000    0.000   10.000    0.000    0.000 
#    0.000    0.000    0.000    0.000    0.000    0.000 
#
# Total GULP energy -297750.522428 kJ/mol
# GULP energy per Si atom -12406.271768 kJ/mol
# Density = 2.118428 g / cm^3
# Si number density = 21.232605 Si / 1000 Ang^3
#
#
#
# Elastic Constant Matrix: (Units=GPa)
#
#
# Indices 1 2 3 4 5 6 
#
# 1 104.2942 65.1704 28.5302 0.0000 0.0000 0.0000
# 2 65.1704 129.5729 43.7618 0.0000 0.0000 0.0000
# 3 28.5302 43.7618 137.6320 0.0000 0.0000 0.0000
# 4 0.0000 0.0000 0.0000 34.6324 0.0000 0.0000
# 5 0.0000 0.0000 0.0000 0.0000 28.4349 0.0000
# 6 0.0000 0.0000 0.0000 0.0000 0.0000 15.6745
#
#
#
# Elastic Compliance Matrix: (Units=1/GPa)
#
#
# Indices 1 2 3 4 5 6 
#
# 1 0.014051 -0.006815 -0.000746 0.000000 0.000000 0.000000
# 2 -0.006815 0.011952 -0.002387 0.000000 0.000000 0.000000
# 3 -0.000746 -0.002387 0.008179 0.000000 0.000000 0.000000
# 4 0.000000 0.000000 0.000000 0.028875 0.000000 0.000000
# 5 0.000000 0.000000 0.000000 0.000000 0.035168 0.000000
# 6 0.000000 0.000000 0.000000 0.000000 0.000000 0.063798
#
#
# Mechanical properties :
#
#
# Convention : Reuss Voigt Hill
#
# Bulk Modulus (GPa) = 70.00153 71.82486 70.91320
# Shear Modulus (GPa) = 26.78360 31.35080 29.06720
#
# Velocity S-wave (km/s) = 3.55552 3.84675 3.70400
# Velocity P-wave (km/s) = 7.06372 7.32332 7.19469
#
# Compressibility (1/GPa) = 0.01428540
#
# Stress axis : x y z
#
# Youngs Moduli (GPa) = 71.16992 83.66932 122.25761
#
# Poissons Ratio (x) = 0.57023 0.09116
# Poissons Ratio (y) = 0.48504 0.29189
# Poissons Ratio (z) = 0.05307 0.19976
#
# Static dielectric constant tensor:
#      x y z
#    x 3.531970 0.000000 0.000000 
#    y 0.000000 4.210310 0.000000 
#    z 0.000000 0.000000 3.956110 
# 
# 
# High freq. dielectric constant tensor:
#      x y z
#    x 1.809450 0.000000 0.000000 
#    y 0.000000 1.848860 0.000000 
#    z 0.000000 0.000000 1.851740 
# 
# From -- ./inp_files/1139.got.cif
#   From: 2010.03.12/outbox.cif.g09.slc.cpg/sg51_1_cif.got.tgz:1139.got - 2010.04.16 13:43:02.
