data_PCOD8214603
_publ_section_title
;
Structure prediction by ZEFSAII (Michael W. Deem and Ramdas Pophale) SiO2 
 PCOD8214603
Probable space group: P M M A
;
_chemical_formula_sum "Si O2"
_cell_formula_units_Z 40
_cell_length_a 17.971921
_cell_length_b 9.103344
_cell_length_c 13.911213
_cell_angle_alpha 90.000000
_cell_angle_beta 90.000000
_cell_angle_gamma 90.000000
_cell_volume 2275.938149
_symmetry_space_group_name_H-M "P M M A"
_symmetry_group_IT_number 51
_symmetry_cell_setting 'orthorhombic'
loop_
_space_group_symop_operation_xyz
x,y,z
1/2-x,-y,z
1/2+x,-y,-z
-x,y,-z
-x,-y,-z
1/2+x,y,-z
1/2-x,y,z
x,-y,z
loop_
_atom_site_type_symbol
_atom_site_label
_atom_site_fract_x
_atom_site_fract_y
_atom_site_fract_z
Si Si1 0.831285 0.174577 0.200453
Si Si2 0.902728 0.169699 0.396845
Si Si3 0.555926 0.829963 0.706423
Si Si4 0.976178 0.824814 0.102765
Si Si5 0.335418 0.326420 0.423108
O O1 0.750000 0.238190 0.172903
O O2 0.851078 0.221581 0.308696
O O3 0.893244 0.235402 0.126524
O O4 0.831666 0.000000 0.195725
O O5 0.881703 0.268644 0.486581
O O6 0.988602 0.193765 0.368612
O O7 0.888393 0.000000 0.423539
O O8 0.532398 0.774806 0.812933
O O9 0.627234 0.736978 0.673623
O O10 0.578587 0.000000 0.709591
O O11 0.974965 0.000000 0.099614
O O12 0.000000 0.758060 0.000000
O O13 0.250000 0.273147 0.428206
O O14 0.340772 0.500000 0.420510
#
# Coordination Sequence:
#
# PCOD8214603 Si02
#       5
#     8   8   8   8   8
#     4   8  13  22  39  64  90 115 145 183 228 272
#     4   9  17  30  49  70  91 118 153 191 231 278
#     4   9  18  32  50  71  93 120 154 189 230 281
#     4   8  14  26  44  66  93 120 147 186 230 269
#     4  11  23  34  44  64  95 128 159 191 227 266
#
# _framework density 17.575168999999999
#
# number of rings (size 3 to 8) (size 9 to 14) (size 15 to 20)
#    0.000    3.000    0.000    4.200    0.000    5.600 
#    0.000    1.000    0.000    4.200    0.000    0.000 
#    0.000   12.800    0.000    0.000    0.000    0.000 
#
# Total GULP energy -495815.581169 kJ/mol
# GULP energy per Si atom -12395.389529 kJ/mol
# Density = 1.753517 g / cm^3
# Si number density = 17.575169 Si / 1000 Ang^3
#
#
#
# Elastic Constant Matrix: (Units=GPa)
#
#
# Indices 1 2 3 4 5 6 
#
# 1 90.4435 30.1029 60.5582 0.0000 0.0000 0.0000
# 2 30.1029 36.4173 26.8819 0.0000 0.0000 0.0000
# 3 60.5582 26.8819 121.5538 0.0000 0.0000 0.0000
# 4 0.0000 0.0000 0.0000 -1.4461 0.0000 0.0000
# 5 0.0000 0.0000 0.0000 0.0000 18.6734 0.0000
# 6 0.0000 0.0000 0.0000 0.0000 0.0000 19.7598
#
#
#
# Elastic Compliance Matrix: (Units=1/GPa)
#
#
# Indices 1 2 3 4 5 6 
#
# 1 0.019566 -0.010729 -0.007375 0.000000 0.000000 0.000000
# 2 -0.010729 0.038700 -0.003213 0.000000 0.000000 0.000000
# 3 -0.007375 -0.003213 0.012612 0.000000 0.000000 0.000000
# 4 0.000000 0.000000 0.000000 -0.691514 0.000000 0.000000
# 5 0.000000 0.000000 0.000000 0.000000 0.053552 0.000000
# 6 0.000000 0.000000 0.000000 0.000000 0.000000 0.050608
#
#
# Mechanical properties :
#
#
# Convention : Reuss Voigt Hill
#
# Bulk Modulus (GPa) = 35.40739 53.72230 44.56485
# Shear Modulus (GPa) = -10.76596 16.12218 2.67811
#
# Velocity S-wave (km/s) = -2.47769 3.03203 1.23576
# Velocity P-wave (km/s) = 3.46478 6.54913 5.23907
#
# Compressibility (1/GPa) = 0.02824269
#
# Stress axis : x y z
#
# Youngs Moduli (GPa) = 51.10975 25.83949 79.29222
#
# Poissons Ratio (x) = 0.27724 0.58477
# Poissons Ratio (y) = 0.54838 0.25479
# Poissons Ratio (z) = 0.37693 0.08303
#
# Static dielectric constant tensor:
#      x y z
#    x 3.626310 0.000000 0.000000 
#    y 0.000000 2.785170 0.000000 
#    z 0.000000 0.000000 3.378380 
# 
# 
# High freq. dielectric constant tensor:
#      x y z
#    x 1.685120 0.000000 0.000000 
#    y 0.000000 1.629800 0.000000 
#    z 0.000000 0.000000 1.672760 
# 
# From -- ./inp_files/23722.got.cif
#   From: 2010.03.12/outbox.cif.g09.slc.cpg/sg51_12_cif.got.tgz:23722.got - 2010.04.16 13:43:02.
