data_PCOD8214271
_publ_section_title
;
Structure prediction by ZEFSAII (Michael W. Deem and Ramdas Pophale) SiO2 
 PCOD8214271
Probable space group: P M M A
;
_chemical_formula_sum "Si O2"
_cell_formula_units_Z 56
_cell_length_a 17.478001
_cell_length_b 14.236261
_cell_length_c 11.000164
_cell_angle_alpha 90.000000
_cell_angle_beta 90.000000
_cell_angle_gamma 90.000000
_cell_volume 2737.076031
_symmetry_space_group_name_H-M "P M M A"
_symmetry_group_IT_number 51
_symmetry_cell_setting 'orthorhombic'
loop_
_space_group_symop_operation_xyz
x,y,z
1/2-x,-y,z
1/2+x,-y,-z
-x,y,-z
-x,-y,-z
1/2+x,y,-z
1/2-x,y,z
x,-y,z
loop_
_atom_site_type_symbol
_atom_site_label
_atom_site_fract_x
_atom_site_fract_y
_atom_site_fract_z
Si Si1 0.164378 0.731708 0.526681
Si Si2 0.166498 0.398222 0.131154
Si Si3 0.663174 0.270462 0.090722
Si Si4 0.444927 0.891679 0.888295
Si Si5 0.931105 0.395278 0.639918
Si Si6 0.558104 0.892306 0.389744
Si Si7 0.898610 0.607286 0.288525
O O1 0.250000 0.752488 0.479336
O O2 0.111323 0.692570 0.419578
O O3 0.130982 0.825742 0.588298
O O4 0.167847 0.649051 0.626598
O O5 0.250000 0.391574 0.197433
O O6 0.162548 0.500000 0.062464
O O7 0.096169 0.395362 0.222273
O O8 0.159239 0.309640 0.044473
O O9 0.750000 0.274393 0.141418
O O10 0.634283 0.163780 0.094152
O O11 0.603524 0.334851 0.164451
O O12 0.476012 0.874136 0.748154
O O13 0.424717 0.000000 0.906056
O O14 0.500000 0.859306 0.000000
O O15 0.914318 0.500000 0.582068
O O16 0.021932 0.376631 0.638439
O O17 0.500000 0.870544 0.500000
O O18 0.585831 0.000000 0.398611
O O19 0.882791 0.500000 0.257616
#
# Coordination Sequence:
#
# PCOD8214271 Si02
#       7
#     8   8   8   8   8   8   8
#     4  12  24  37  59  89 121 162 205 254 316 376
#     4   9  19  36  57  84 121 162 203 251 311 376
#     4  11  23  37  58  89 121 160 203 253 315 374
#     4  10  23  42  66  94 122 159 206 257 312 371
#     4  10  22  39  59  85 119 164 215 261 308 372
#     4  10  22  42  67  93 123 160 205 259 317 376
#     4  11  23  37  56  84 119 159 205 254 303 361
#
# _framework density 20.459790999999999
#
# number of rings (size 3 to 8) (size 9 to 14) (size 15 to 20)
#    0.000    1.571    1.429    3.000    2.000    4.857 
#    0.000    3.571    0.000    0.000    0.000    6.000 
#    0.000    0.000    0.000    0.000    0.000    0.000 
#
# Total GULP energy -693913.432791 kJ/mol
# GULP energy per Si atom -12391.311300 kJ/mol
# Density = 2.041322 g / cm^3
# Si number density = 20.459791 Si / 1000 Ang^3
#
#
#
# Elastic Constant Matrix: (Units=GPa)
#
#
# Indices 1 2 3 4 5 6 
#
# 1 83.9372 56.9609 33.8511 0.0000 0.0000 0.0000
# 2 56.9609 107.4088 40.5689 0.0000 0.0000 0.0000
# 3 33.8511 40.5689 92.0352 0.0000 0.0000 0.0000
# 4 0.0000 0.0000 0.0000 31.4771 0.0000 0.0000
# 5 0.0000 0.0000 0.0000 0.0000 26.6162 0.0000
# 6 0.0000 0.0000 0.0000 0.0000 0.0000 21.3679
#
#
#
# Elastic Compliance Matrix: (Units=1/GPa)
#
#
# Indices 1 2 3 4 5 6 
#
# 1 0.019325 -0.009075 -0.003108 0.000000 0.000000 0.000000
# 2 -0.009075 0.015431 -0.003464 0.000000 0.000000 0.000000
# 3 -0.003108 -0.003464 0.013536 0.000000 0.000000 0.000000
# 4 0.000000 0.000000 0.000000 0.031769 0.000000 0.000000
# 5 0.000000 0.000000 0.000000 0.000000 0.037571 0.000000
# 6 0.000000 0.000000 0.000000 0.000000 0.000000 0.046799
#
#
# Mechanical properties :
#
#
# Convention : Reuss Voigt Hill
#
# Bulk Modulus (GPa) = 58.82941 60.68258 59.75599
# Shear Modulus (GPa) = 24.82730 26.02559 25.42644
#
# Velocity S-wave (km/s) = 3.48727 3.57043 3.52909
# Velocity P-wave (km/s) = 6.71050 6.83528 6.77318
#
# Compressibility (1/GPa) = 0.01699830
#
# Stress axis : x y z
#
# Youngs Moduli (GPa) = 51.74582 64.80387 73.87959
#
# Poissons Ratio (x) = 0.58807 0.22961
# Poissons Ratio (y) = 0.46958 0.25594
# Poissons Ratio (z) = 0.16082 0.22450
#
# Static dielectric constant tensor:
#      x y z
#    x 3.649300 0.000000 0.000000 
#    y 0.000000 3.831790 0.000000 
#    z 0.000000 0.000000 3.790980 
# 
# 
# High freq. dielectric constant tensor:
#      x y z
#    x 1.783140 0.000000 0.000000 
#    y 0.000000 1.807740 0.000000 
#    z 0.000000 0.000000 1.802490 
# 
# From -- ./inp_files/16571.got.cif
#   From: 2010.03.12/outbox.cif.g09.slc.cpg/sg51_9_cif.got.tgz:16571.got - 2010.04.16 13:43:02.
