data_PCOD8214147
_publ_section_title
;
Structure prediction by ZEFSAII (Michael W. Deem and Ramdas Pophale) SiO2 
 PCOD8214147
Probable space group: P M M A
;
_chemical_formula_sum "Si O2"
_cell_formula_units_Z 64
_cell_length_a 30.693512
_cell_length_b 8.813497
_cell_length_c 11.884433
_cell_angle_alpha 90.000000
_cell_angle_beta 90.000000
_cell_angle_gamma 90.000000
_cell_volume 3214.943253
_symmetry_space_group_name_H-M "P M M A"
_symmetry_group_IT_number 51
_symmetry_cell_setting 'orthorhombic'
loop_
_space_group_symop_operation_xyz
x,y,z
1/2-x,-y,z
1/2+x,-y,-z
-x,y,-z
-x,-y,-z
1/2+x,y,-z
1/2-x,y,z
x,-y,z
loop_
_atom_site_type_symbol
_atom_site_label
_atom_site_fract_x
_atom_site_fract_y
_atom_site_fract_z
Si Si1 0.372822 0.176720 0.847772
Si Si2 0.575139 0.320607 0.501731
Si Si3 0.046522 0.678914 0.251075
Si Si4 0.667831 0.820686 0.503196
Si Si5 0.621641 0.177540 0.890980
Si Si6 0.298637 0.673321 0.709252
Si Si7 0.701664 0.820087 0.742854
Si Si8 0.958673 0.820936 0.286482
O O1 0.331719 0.268557 0.803126
O O2 0.416474 0.229291 0.784426
O O3 0.363857 0.000000 0.827176
O O4 0.377695 0.215185 0.978245
O O5 0.575228 0.500000 0.491450
O O6 0.561290 0.266658 0.625380
O O7 0.622253 0.255665 0.473544
O O8 0.541793 0.254056 0.410120
O O9 0.040365 0.500000 0.244639
O O10 0.082133 0.729822 0.161466
O O11 0.000968 0.759357 0.220925
O O12 0.700201 0.773245 0.404025
O O13 0.686337 0.758852 0.621290
O O14 0.661440 0.000000 0.505471
O O15 0.667277 0.234180 0.836805
O O16 0.614417 0.000000 0.866615
O O17 0.250000 0.688178 0.759398
O O18 0.309921 0.500000 0.678936
O O19 0.750000 0.754962 0.770529
O O20 0.703895 0.000000 0.738799
O O21 0.961549 0.000000 0.298594
#
# Coordination Sequence:
#
# PCOD8214147 Si02
#       8
#     8   8   8   8   8   8   8   8
#     4  10  23  41  62  88 116 155 203 254 300 344
#     4  11  22  37  59  88 122 155 192 240 298 363
#     4  11  24  40  60  88 122 157 195 241 301 361
#     4  11  20  34  60  90 120 154 194 240 293 351
#     4  10  21  40  63  86 117 155 201 251 298 348
#     4  11  24  40  60  88 123 162 199 240 296 357
#     4   9  18  33  57  89 119 149 189 239 293 348
#     4  11  23  39  61  89 119 154 201 247 298 356
#
# _framework density 19.907039000000001
#
# number of rings (size 3 to 8) (size 9 to 14) (size 15 to 20)
#    0.000    1.500    2.500    2.625    0.000    6.500 
#    0.000    3.750    0.000    1.125    0.000    0.000 
#    0.000    0.000    0.000    0.000    0.000    0.000 
#
# Total GULP energy -793896.486841 kJ/mol
# GULP energy per Si atom -12404.632607 kJ/mol
# Density = 1.986173 g / cm^3
# Si number density = 19.907039 Si / 1000 Ang^3
#
#
#
# Elastic Constant Matrix: (Units=GPa)
#
#
# Indices 1 2 3 4 5 6 
#
# 1 133.5726 40.6873 46.9731 0.0000 0.0000 0.0000
# 2 40.6873 55.8616 36.0499 0.0000 0.0000 0.0000
# 3 46.9731 36.0499 115.3332 0.0000 0.0000 0.0000
# 4 0.0000 0.0000 0.0000 23.1665 0.0000 0.0000
# 5 0.0000 0.0000 0.0000 0.0000 12.4449 0.0000
# 6 0.0000 0.0000 0.0000 0.0000 0.0000 28.7941
#
#
#
# Elastic Compliance Matrix: (Units=1/GPa)
#
#
# Indices 1 2 3 4 5 6 
#
# 1 0.010073 -0.005874 -0.002266 0.000000 0.000000 0.000000
# 2 -0.005874 0.025850 -0.005688 0.000000 0.000000 0.000000
# 3 -0.002266 -0.005688 0.011371 0.000000 0.000000 0.000000
# 4 0.000000 0.000000 0.000000 0.043166 0.000000 0.000000
# 5 0.000000 0.000000 0.000000 0.000000 0.080354 0.000000
# 6 0.000000 0.000000 0.000000 0.000000 0.000000 0.034729
#
#
# Mechanical properties :
#
#
# Convention : Reuss Voigt Hill
#
# Bulk Modulus (GPa) = 50.92097 61.35421 56.13759
# Shear Modulus (GPa) = 20.85537 24.95157 22.90347
#
# Velocity S-wave (km/s) = 3.24024 3.54419 3.39561
# Velocity P-wave (km/s) = 6.29553 6.90186 6.60565
#
# Compressibility (1/GPa) = 0.01963828
#
# Stress axis : x y z
#
# Youngs Moduli (GPa) = 99.27655 38.68427 87.93973
#
# Poissons Ratio (x) = 0.22723 0.19931
# Poissons Ratio (y) = 0.58315 0.50017
# Poissons Ratio (z) = 0.22500 0.22002
#
# Static dielectric constant tensor:
#      x y z
#    x 3.809170 0.000000 0.000000 
#    y 0.000000 3.463720 0.000000 
#    z 0.000000 0.000000 3.617910 
# 
# 
# High freq. dielectric constant tensor:
#      x y z
#    x 1.792000 0.000000 0.000000 
#    y 0.000000 1.765900 0.000000 
#    z 0.000000 0.000000 1.773160 
# 
# From -- ./inp_files/19608.got.cif
#   From: 2010.03.12/outbox.cif.g09.slc.cpg/sg51_10_cif.got.tgz:19608.got - 2010.04.16 13:43:02.
