data_PCOD8214779
_publ_section_title
;
Structure prediction by ZEFSAII (Michael W. Deem and Ramdas Pophale) SiO2 
 PCOD8214779
Probable space group: P M M A
;
_chemical_formula_sum "Si O2"
_cell_formula_units_Z 40
_cell_length_a 18.764757
_cell_length_b 9.390707
_cell_length_c 13.000958
_cell_angle_alpha 90.000000
_cell_angle_beta 90.000000
_cell_angle_gamma 90.000000
_cell_volume 2290.955167
_symmetry_space_group_name_H-M "P M M A"
_symmetry_group_IT_number 51
_symmetry_cell_setting 'orthorhombic'
loop_
_space_group_symop_operation_xyz
x,y,z
1/2-x,-y,z
1/2+x,-y,-z
-x,y,-z
-x,-y,-z
1/2+x,y,-z
1/2-x,y,z
x,-y,z
loop_
_atom_site_type_symbol
_atom_site_label
_atom_site_fract_x
_atom_site_fract_y
_atom_site_fract_z
Si Si1 0.165088 0.341075 0.420719
Si Si2 0.670458 0.669670 0.805667
Si Si3 0.167075 0.665515 0.807309
Si Si4 0.580067 0.669502 0.994930
Si Si5 0.334847 0.160244 0.609979
O O1 0.250000 0.346727 0.425172
O O2 0.134837 0.500000 0.440780
O O3 0.142101 0.284465 0.307519
O O4 0.134181 0.236054 0.507756
O O5 0.750000 0.730282 0.825595
O O6 0.673398 0.500000 0.810351
O O7 0.617857 0.731574 0.892653
O O8 0.250000 0.693275 0.829843
O O9 0.152708 0.500000 0.784264
O O10 0.139055 0.753783 0.709740
O O11 0.123449 0.720938 0.905484
O O12 0.579711 0.500000 0.990257
O O13 0.500000 0.730267 0.000000
O O14 0.250000 0.160567 0.605987
O O15 0.364877 0.000000 0.614749
#
# Coordination Sequence:
#
# PCOD8214779 Si02
#       5
#     8   8   8   8   8
#     4   8  13  22  38  60  84 108 134 165 202 246
#     4   8  13  22  38  60  84 109 137 169 206 248
#     4   9  16  26  42  63  86 112 140 168 201 246
#     4   9  16  25  39  61  87 111 137 173 212 245
#     4   9  16  25  39  61  87 110 134 170 211 245
#
# _framework density 17.459968
#
# number of rings (size 3 to 8) (size 9 to 14) (size 15 to 20)
#    0.000    3.400    0.000    2.400    0.000    4.800 
#    0.000    0.000    0.000    3.000    0.000   14.000 
#    0.000    0.000    0.000    0.000    0.000    0.000 
#
# Total GULP energy -495784.592460 kJ/mol
# GULP energy per Si atom -12394.614811 kJ/mol
# Density = 1.742023 g / cm^3
# Si number density = 17.459968 Si / 1000 Ang^3
#
#
#
# Elastic Constant Matrix: (Units=GPa)
#
#
# Indices 1 2 3 4 5 6 
#
# 1 60.4172 22.0919 61.4401 0.0000 0.0000 0.0000
# 2 22.0919 61.8383 62.7255 0.0000 0.0000 0.0000
# 3 61.4401 62.7255 198.1588 0.0000 0.0000 0.0000
# 4 0.0000 0.0000 0.0000 4.1292 0.0000 0.0000
# 5 0.0000 0.0000 0.0000 0.0000 4.1755 0.0000
# 6 0.0000 0.0000 0.0000 0.0000 0.0000 5.4839
#
#
#
# Elastic Compliance Matrix: (Units=1/GPa)
#
#
# Indices 1 2 3 4 5 6 
#
# 1 0.024271 -0.001528 -0.007042 0.000000 0.000000 0.000000
# 2 -0.001528 0.023915 -0.007096 0.000000 0.000000 0.000000
# 3 -0.007042 -0.007096 0.009476 0.000000 0.000000 0.000000
# 4 0.000000 0.000000 0.000000 0.242176 0.000000 0.000000
# 5 0.000000 0.000000 0.000000 0.000000 0.239492 0.000000
# 6 0.000000 0.000000 0.000000 0.000000 0.000000 0.182351
#
#
# Mechanical properties :
#
#
# Convention : Reuss Voigt Hill
#
# Bulk Modulus (GPa) = 37.97939 68.10327 53.04133
# Shear Modulus (GPa) = 6.56349 14.36819 10.46584
#
# Velocity S-wave (km/s) = 1.94096 2.87177 2.45096
# Velocity P-wave (km/s) = 5.17905 7.07716 6.20116
#
# Compressibility (1/GPa) = 0.02633007
#
# Stress axis : x y z
#
# Youngs Moduli (GPa) = 41.20101 41.81408 105.52925
#
# Poissons Ratio (x) = 0.06390 0.74310
# Poissons Ratio (y) = 0.06297 0.74887
# Poissons Ratio (z) = 0.29012 0.29673
#
# Static dielectric constant tensor:
#      x y z
#    x 2.938310 0.000000 0.000000 
#    y 0.000000 2.939380 0.000000 
#    z 0.000000 0.000000 3.631770 
# 
# 
# High freq. dielectric constant tensor:
#      x y z
#    x 1.624810 0.000000 0.000000 
#    y 0.000000 1.625510 0.000000 
#    z 0.000000 0.000000 1.695740 
# 
# From -- ./inp_files/17910.got.cif
#   From: 2010.03.12/outbox.cif.g09.slc.cpg/sg51_9_cif.got.tgz:17910.got - 2010.04.16 13:43:02.
