data_PCOD8214133
_publ_section_title
;
Structure prediction by ZEFSAII (Michael W. Deem and Ramdas Pophale) SiO2 
 PCOD8214133
Probable space group: P M M A
;
_chemical_formula_sum "Si O2"
_cell_formula_units_Z 38
_cell_length_a 15.094089
_cell_length_b 10.794791
_cell_length_c 11.565769
_cell_angle_alpha 90.000000
_cell_angle_beta 90.000000
_cell_angle_gamma 90.000000
_cell_volume 1884.497904
_symmetry_space_group_name_H-M "P M M A"
_symmetry_group_IT_number 51
_symmetry_cell_setting 'orthorhombic'
loop_
_space_group_symop_operation_xyz
x,y,z
1/2-x,-y,z
1/2+x,-y,-z
-x,y,-z
-x,-y,-z
1/2+x,y,-z
1/2-x,y,z
x,-y,z
loop_
_atom_site_type_symbol
_atom_site_label
_atom_site_fract_x
_atom_site_fract_y
_atom_site_fract_z
Si Si1 0.561334 0.000000 0.117297
Si Si2 0.750000 0.743382 0.885786
Si Si3 0.081483 0.750183 0.755401
Si Si4 0.897983 0.363450 0.475558
Si Si5 0.250000 0.360345 0.874902
Si Si6 0.750000 0.000000 0.007690
Si Si7 0.893840 0.642270 0.729283
O O1 0.544525 0.117620 0.200998
O O2 0.500000 0.000000 0.000000
O O3 0.664368 0.000000 0.087997
O O4 0.839232 0.728464 0.814001
O O5 0.750000 0.882376 0.927420
O O6 0.750000 0.642385 0.987243
O O7 0.120052 0.740970 0.623193
O O8 0.160669 0.708724 0.837761
O O9 0.998084 0.657748 0.756574
O O10 0.858884 0.500000 0.439465
O O11 0.861247 0.318927 0.599923
O O12 0.000000 0.383224 0.500000
O O13 0.250000 0.500000 0.828301
O O14 0.869441 0.500000 0.750920
#
# Coordination Sequence:
#
# PCOD8214133 Si02
#       7
#     4   4   8   8   4   2   8
#     4  12  24  42  62  84 118 172 210 238 297 356
#     4  12  24  41  60  88 119 162 207 238 302 363
#     4  11  22  39  62  89 119 163 205 244 295 359
#     4   8  16  35  61  88 121 155 190 243 311 361
#     4  12  24  37  60  92 121 149 199 257 302 357
#     4  12  24  48  58  74 126 166 200 252 282 346
#     4  10  21  39  63  92 125 154 190 251 311 362
#
# _framework density 20.164522999999999
#
# number of rings (size 3 to 8) (size 9 to 14) (size 15 to 20)
#    0.000    1.474    2.105    5.368    0.000    0.842 
#    0.000    8.947    0.000    0.000    0.000    0.000 
#    0.000    0.000    0.000    0.000    0.000    0.000 
#
# Total GULP energy -470868.797168 kJ/mol
# GULP energy per Si atom -12391.284136 kJ/mol
# Density = 2.011863 g / cm^3
# Si number density = 20.164523 Si / 1000 Ang^3
#
#
#
# Elastic Constant Matrix: (Units=GPa)
#
#
# Indices 1 2 3 4 5 6 
#
# 1 79.6383 5.3032 30.4571 0.0000 0.0000 0.0000
# 2 5.3032 106.6205 49.4428 0.0000 0.0000 0.0000
# 3 30.4571 49.4428 139.2303 0.0000 0.0000 0.0000
# 4 0.0000 0.0000 0.0000 376.9516 0.0000 0.0000
# 5 0.0000 0.0000 0.0000 0.0000 18.6602 0.0000
# 6 0.0000 0.0000 0.0000 0.0000 0.0000 23.5081
#
#
#
# Elastic Compliance Matrix: (Units=1/GPa)
#
#
# Indices 1 2 3 4 5 6 
#
# 1 0.013768 0.000852 -0.003314 0.000000 0.000000 0.000000
# 2 0.000852 0.011281 -0.004192 0.000000 0.000000 0.000000
# 3 -0.003314 -0.004192 0.009396 0.000000 0.000000 0.000000
# 4 0.000000 0.000000 0.000000 0.002653 0.000000 0.000000
# 5 0.000000 0.000000 0.000000 0.000000 0.053590 0.000000
# 6 0.000000 0.000000 0.000000 0.000000 0.000000 0.042538
#
#
# Mechanical properties :
#
#
# Convention : Reuss Voigt Hill
#
# Bulk Modulus (GPa) = 47.31398 55.09947 51.20673
# Shear Modulus (GPa) = 32.55633 99.84306 66.19969
#
# Velocity S-wave (km/s) = 4.02249 7.04427 5.73594
# Velocity P-wave (km/s) = 6.71482 9.67195 8.32572
#
# Compressibility (1/GPa) = 0.02113540
#
# Stress axis : x y z
#
# Youngs Moduli (GPa) = 72.63447 88.64620 106.42661
#
# Poissons Ratio (x) = -0.07554 0.35273
# Poissons Ratio (y) = -0.06190 0.44618
# Poissons Ratio (z) = 0.24073 0.37164
#
# Static dielectric constant tensor:
#      x y z
#    x 3.614660 0.000000 0.000000 
#    y 0.000000 3.644070 0.000000 
#    z 0.000000 0.000000 4.244720 
# 
# 
# High freq. dielectric constant tensor:
#      x y z
#    x 1.789610 0.000000 0.000000 
#    y 0.000000 1.767720 0.000000 
#    z 0.000000 0.000000 1.799980 
# 
# From -- ./inp_files/16261.got.cif
#   From: 2010.03.12/outbox.cif.g09.slc.cpg/sg51_9_cif.got.tgz:16261.got - 2010.04.16 13:43:02.
