data_PCOD8214423
_publ_section_title
;
Structure prediction by ZEFSAII (Michael W. Deem and Ramdas Pophale) SiO2 
 PCOD8214423
Probable space group: P M M A
;
_chemical_formula_sum "Si O2"
_cell_formula_units_Z 32
_cell_length_a 20.847695
_cell_length_b 7.870815
_cell_length_c 10.763528
_cell_angle_alpha 90.000000
_cell_angle_beta 90.000000
_cell_angle_gamma 90.000000
_cell_volume 1766.169555
_symmetry_space_group_name_H-M "P M M A"
_symmetry_group_IT_number 51
_symmetry_cell_setting 'orthorhombic'
loop_
_space_group_symop_operation_xyz
x,y,z
1/2-x,-y,z
1/2+x,-y,-z
-x,y,-z
-x,-y,-z
1/2+x,y,-z
1/2-x,y,z
x,-y,z
loop_
_atom_site_type_symbol
_atom_site_label
_atom_site_fract_x
_atom_site_fract_y
_atom_site_fract_z
Si Si1 0.325384 0.694311 0.827764
Si Si2 0.898679 0.000000 0.059569
Si Si3 0.941307 0.813241 0.572071
Si Si4 0.319287 0.303785 0.552004
Si Si5 0.532319 0.000000 0.805194
O O1 0.250000 0.700837 0.853766
O O2 0.350494 0.500000 0.849596
O O3 0.340576 0.762333 0.688064
O O4 0.359447 0.826579 0.919635
O O5 0.960408 0.000000 0.147018
O O6 0.917021 0.000000 0.915382
O O7 0.873305 0.722661 0.552242
O O8 0.000000 0.717714 0.500000
O O9 0.934437 0.000000 0.509386
O O10 0.955855 0.831401 0.719513
O O11 0.250000 0.222174 0.511994
O O12 0.307202 0.500000 0.570462
#
# Coordination Sequence:
#
# PCOD8214423 Si02
#       5
#     8   4   8   8   4
#     4   9  19  34  54  82 106 130 176 220 252 307
#     4  11  19  36  57  70 103 147 170 212 268 292
#     4   9  18  33  51  74 104 128 165 214 259 308
#     4   9  18  32  51  78 106 132 167 213 263 312
#     4   9  21  34  49  78 103 129 182 218 236 320
#
# _framework density 18.118307000000001
#
# number of rings (size 3 to 8) (size 9 to 14) (size 15 to 20)
#    0.750    2.000    0.000    3.375    1.750    1.000 
#    0.000    7.500    0.000    3.000    0.000    0.000 
#    0.000    0.000    0.000    0.000    0.000    0.000 
#
# Total GULP energy -396418.905950 kJ/mol
# GULP energy per Si atom -12388.090811 kJ/mol
# Density = 1.807707 g / cm^3
# Si number density = 18.118307 Si / 1000 Ang^3
#
#
#
# Elastic Constant Matrix: (Units=GPa)
#
#
# Indices 1 2 3 4 5 6 
#
# 1 112.9464 32.1921 62.3503 0.0000 0.0000 0.0000
# 2 32.1921 61.2541 29.2863 0.0000 0.0000 0.0000
# 3 62.3503 29.2863 118.2229 0.0000 0.0000 0.0000
# 4 0.0000 0.0000 0.0000 8.2720 0.0000 0.0000
# 5 0.0000 0.0000 0.0000 0.0000 28.8692 0.0000
# 6 0.0000 0.0000 0.0000 0.0000 0.0000 49.5661
#
#
#
# Elastic Compliance Matrix: (Units=1/GPa)
#
#
# Indices 1 2 3 4 5 6 
#
# 1 0.013357 -0.004142 -0.006018 0.000000 0.000000 0.000000
# 2 -0.004142 0.019803 -0.002721 0.000000 0.000000 0.000000
# 3 -0.006018 -0.002721 0.012307 0.000000 0.000000 0.000000
# 4 0.000000 0.000000 0.000000 0.120889 0.000000 0.000000
# 5 0.000000 0.000000 0.000000 0.000000 0.034639 0.000000
# 6 0.000000 0.000000 0.000000 0.000000 0.000000 0.020175
#
#
# Mechanical properties :
#
#
# Convention : Reuss Voigt Hill
#
# Bulk Modulus (GPa) = 50.75194 60.00898 55.38046
# Shear Modulus (GPa) = 19.72380 28.58111 24.15246
#
# Velocity S-wave (km/s) = 3.30299 3.97605 3.65505
# Velocity P-wave (km/s) = 6.52829 7.36690 6.96023
#
# Compressibility (1/GPa) = 0.01970368
#
# Stress axis : x y z
#
# Youngs Moduli (GPa) = 74.86953 50.49638 81.25727
#
# Poissons Ratio (x) = 0.20917 0.48901
# Poissons Ratio (y) = 0.31013 0.22111
# Poissons Ratio (z) = 0.45057 0.13741
#
# Static dielectric constant tensor:
#      x y z
#    x 3.375150 0.000000 0.000000 
#    y 0.000000 3.120730 0.000000 
#    z 0.000000 0.000000 3.111090 
# 
# 
# High freq. dielectric constant tensor:
#      x y z
#    x 1.713050 0.000000 0.000000 
#    y 0.000000 1.680490 0.000000 
#    z 0.000000 0.000000 1.673560 
# 
# From -- ./inp_files/17004.got.cif
#   From: 2010.03.12/outbox.cif.g09.slc.cpg/sg51_9_cif.got.tgz:17004.got - 2010.04.16 13:43:02.
