data_PCOD8214450
_publ_section_title
;
Structure prediction by ZEFSAII (Michael W. Deem and Ramdas Pophale) SiO2 
 PCOD8214450
Probable space group: P M M A
;
_chemical_formula_sum "Si O2"
_cell_formula_units_Z 24
_cell_length_a 9.940452
_cell_length_b 10.145922
_cell_length_c 12.028702
_cell_angle_alpha 90.000000
_cell_angle_beta 90.000000
_cell_angle_gamma 90.000000
_cell_volume 1213.155349
_symmetry_space_group_name_H-M "P M M A"
_symmetry_group_IT_number 51
_symmetry_cell_setting 'orthorhombic'
loop_
_space_group_symop_operation_xyz
x,y,z
1/2-x,-y,z
1/2+x,-y,-z
-x,y,-z
-x,-y,-z
1/2+x,y,-z
1/2-x,y,z
x,-y,z
loop_
_atom_site_type_symbol
_atom_site_label
_atom_site_fract_x
_atom_site_fract_y
_atom_site_fract_z
Si Si1 0.092586 0.500000 0.890032
Si Si2 0.966500 0.758845 0.248835
Si Si3 0.250000 0.845123 0.589979
Si Si4 0.397283 0.000000 0.902395
Si Si5 0.250000 0.154134 0.328054
O O1 0.250000 0.500000 0.925223
O O2 0.058912 0.622995 0.812777
O O3 0.000000 0.500000 0.000000
O O4 0.882223 0.772184 0.362844
O O5 0.122954 0.774036 0.274781
O O6 0.913463 0.871256 0.169514
O O7 0.250000 0.826046 0.459120
O O8 0.250000 0.000000 0.622303
O O9 0.250000 0.000000 0.956728
O O10 0.500000 0.000000 0.000000
O O11 0.250000 0.000000 0.296599
#
# Coordination Sequence:
#
# PCOD8214450 Si02
#       5
#     4   8   4   4   4
#     4  12  28  48  71  95 134 182 223 277 341 398
#     4  12  23  44  66  99 136 174 222 278 333 392
#     4  11  20  43  70 101 137 177 223 275 342 389
#     4  12  24  40  65  93 126 168 225 283 331 388
#     4  11  24  39  72 107 135 177 221 273 332 407
#
# _framework density 19.783121000000001
#
# number of rings (size 3 to 8) (size 9 to 14) (size 15 to 20)
#    0.000    0.333    6.667    2.000    4.667    2.667 
#    0.000    5.000    0.000    0.000    0.000    0.000 
#    0.000    0.000    0.000    0.000    0.000    0.000 
#
# Total GULP energy -297677.280177 kJ/mol
# GULP energy per Si atom -12403.220007 kJ/mol
# Density = 1.973809 g / cm^3
# Si number density = 19.783121 Si / 1000 Ang^3
#
#
#
# Elastic Constant Matrix: (Units=GPa)
#
#
# Indices 1 2 3 4 5 6 
#
# 1 214.6401 53.2555 64.0398 0.0000 0.0000 0.0000
# 2 53.2555 153.6264 59.1645 0.0000 0.0000 0.0000
# 3 64.0398 59.1645 93.3459 0.0000 0.0000 0.0000
# 4 0.0000 0.0000 0.0000 -122.3216 0.0000 0.0000
# 5 0.0000 0.0000 0.0000 0.0000 116.4866 0.0000
# 6 0.0000 0.0000 0.0000 0.0000 0.0000 31.8038
#
#
#
# Elastic Compliance Matrix: (Units=1/GPa)
#
#
# Indices 1 2 3 4 5 6 
#
# 1 0.005906 -0.000644 -0.003643 0.000000 0.000000 0.000000
# 2 -0.000644 0.008682 -0.005061 0.000000 0.000000 0.000000
# 3 -0.003643 -0.005061 0.016420 0.000000 0.000000 0.000000
# 4 0.000000 0.000000 0.000000 -0.008175 0.000000 0.000000
# 5 0.000000 0.000000 0.000000 0.000000 0.008585 0.000000
# 6 0.000000 0.000000 0.000000 0.000000 0.000000 0.031443
#
#
# Mechanical properties :
#
#
# Convention : Reuss Voigt Hill
#
# Bulk Modulus (GPa) = 81.22858 90.50356 85.86607
# Shear Modulus (GPa) = 58.37060 24.20393 41.28727
#
# Velocity S-wave (km/s) = 5.43777 3.50160 4.57332
# Velocity P-wave (km/s) = 8.97633 7.88641 8.44896
#
# Compressibility (1/GPa) = 0.01231094
#
# Stress axis : x y z
#
# Youngs Moduli (GPa) = 169.32429 115.18698 60.90162
#
# Poissons Ratio (x) = 0.07420 0.22189
# Poissons Ratio (y) = 0.10907 0.30820
# Poissons Ratio (z) = 0.61692 0.58292
#
# Static dielectric constant tensor:
#      x y z
#    x 3.931730 0.000000 0.000000 
#    y 0.000000 3.571230 0.000000 
#    z 0.000000 0.000000 3.917290 
# 
# 
# High freq. dielectric constant tensor:
#      x y z
#    x 1.796910 0.000000 0.000000 
#    y 0.000000 1.768210 0.000000 
#    z 0.000000 0.000000 1.779880 
# 
# From -- ./inp_files/13572.got.cif
#   From: 2010.03.12/outbox.cif.g09.slc.cpg/sg51_7_cif.got.tgz:13572.got - 2010.04.16 13:43:02.
