data_PCOD8214096
_publ_section_title
;
Structure prediction by ZEFSAII (Michael W. Deem and Ramdas Pophale) SiO2 
 PCOD8214096
Probable space group: P M M A
;
_chemical_formula_sum "Si O2"
_cell_formula_units_Z 40
_cell_length_a 16.311141
_cell_length_b 8.559056
_cell_length_c 13.732163
_cell_angle_alpha 90.000000
_cell_angle_beta 90.000000
_cell_angle_gamma 90.000000
_cell_volume 1917.119390
_symmetry_space_group_name_H-M "P M M A"
_symmetry_group_IT_number 51
_symmetry_cell_setting 'orthorhombic'
loop_
_space_group_symop_operation_xyz
x,y,z
1/2-x,-y,z
1/2+x,-y,-z
-x,y,-z
-x,-y,-z
1/2+x,y,-z
1/2-x,y,z
x,-y,z
loop_
_atom_site_type_symbol
_atom_site_label
_atom_site_fract_x
_atom_site_fract_y
_atom_site_fract_z
Si Si1 0.250000 0.184766 0.745633
Si Si2 0.080386 0.182783 0.054688
Si Si3 0.750000 0.186653 0.035051
Si Si4 0.089335 0.817478 0.634953
Si Si5 0.435794 0.320913 0.262495
Si Si6 0.157181 0.318583 0.450518
O O1 0.250000 0.251068 0.854989
O O2 0.329432 0.244163 0.688736
O O3 0.250000 0.000000 0.748945
O O4 0.074104 0.212193 0.169209
O O5 0.081129 0.000000 0.033925
O O6 0.166829 0.253292 0.015493
O O7 0.000000 0.255278 0.000000
O O8 0.750000 0.000000 0.030528
O O9 0.098226 0.783370 0.519864
O O10 0.018424 0.714753 0.680349
O O11 0.072099 0.000000 0.652067
O O12 0.435228 0.500000 0.227977
O O13 0.362353 0.284898 0.337528
O O14 0.250000 0.265859 0.469185
O O15 0.143051 0.500000 0.474676
#
# Coordination Sequence:
#
# PCOD8214096 Si02
#       6
#     4   8   4   8   8   8
#     4   9  18  34  58  87 116 148 189 241 300 355
#     4  10  21  39  62  88 118 155 199 253 310 359
#     4   9  18  34  58  85 114 150 193 243 304 365
#     4  11  21  37  61  90 119 152 197 250 299 350
#     4  11  24  39  59  85 119 161 201 241 295 358
#     4  10  22  40  59  82 119 162 199 239 293 357
#
# _framework density 20.864636999999998
#
# number of rings (size 3 to 8) (size 9 to 14) (size 15 to 20)
#    0.000    1.800    1.000    3.000    1.400    7.600 
#    0.000    0.000    0.000    2.400    0.000    0.000 
#    0.000    0.000    0.000    0.000    0.000    0.000 
#
# Total GULP energy -496072.065812 kJ/mol
# GULP energy per Si atom -12401.801645 kJ/mol
# Density = 2.081715 g / cm^3
# Si number density = 20.864637 Si / 1000 Ang^3
#
#
#
# Elastic Constant Matrix: (Units=GPa)
#
#
# Indices 1 2 3 4 5 6 
#
# 1 114.3862 14.7560 36.6367 0.0000 0.0000 0.0000
# 2 14.7560 15.3219 9.4206 0.0000 0.0000 0.0000
# 3 36.6367 9.4206 121.1804 0.0000 0.0000 0.0000
# 4 0.0000 0.0000 0.0000 22.9931 0.0000 0.0000
# 5 0.0000 0.0000 0.0000 0.0000 29.8815 0.0000
# 6 0.0000 0.0000 0.0000 0.0000 0.0000 21.0738
#
#
#
# Elastic Compliance Matrix: (Units=1/GPa)
#
#
# Indices 1 2 3 4 5 6 
#
# 1 0.010685 -0.008721 -0.002552 0.000000 0.000000 0.000000
# 2 -0.008721 0.075660 -0.003245 0.000000 0.000000 0.000000
# 3 -0.002552 -0.003245 0.009276 0.000000 0.000000 0.000000
# 4 0.000000 0.000000 0.000000 0.043491 0.000000 0.000000
# 5 0.000000 0.000000 0.000000 0.000000 0.033465 0.000000
# 6 0.000000 0.000000 0.000000 0.000000 0.000000 0.047452
#
#
# Mechanical properties :
#
#
# Convention : Reuss Voigt Hill
#
# Bulk Modulus (GPa) = 15.01859 41.39057 28.20458
# Shear Modulus (GPa) = 18.43236 27.46136 22.94686
#
# Velocity S-wave (km/s) = 2.97547 3.63184 3.31992
# Velocity P-wave (km/s) = 4.36100 6.12109 5.31442
#
# Compressibility (1/GPa) = 0.06658414
#
# Stress axis : x y z
#
# Youngs Moduli (GPa) = 93.59070 13.21698 107.80364
#
# Poissons Ratio (x) = 0.11526 0.27516
# Poissons Ratio (y) = 0.81619 0.34985
# Poissons Ratio (z) = 0.23888 0.04289
#
# Static dielectric constant tensor:
#      x y z
#    x 4.135690 0.000000 0.000000 
#    y 0.000000 3.353310 0.000000 
#    z 0.000000 0.000000 3.807010 
# 
# 
# High freq. dielectric constant tensor:
#      x y z
#    x 1.832410 0.000000 0.000000 
#    y 0.000000 1.783280 0.000000 
#    z 0.000000 0.000000 1.826760 
# 
# From -- ./inp_files/23732.got.cif
#   From: 2010.03.12/outbox.cif.g09.slc.cpg/sg51_12_cif.got.tgz:23732.got - 2010.04.16 13:43:02.
