data_PCOD8214747
_publ_section_title
;
Structure prediction by ZEFSAII (Michael W. Deem and Ramdas Pophale) SiO2 
 PCOD8214747
Probable space group: P M M A
;
_chemical_formula_sum "Si O2"
_cell_formula_units_Z 48
_cell_length_a 9.719464
_cell_length_b 9.448035
_cell_length_c 30.839687
_cell_angle_alpha 90.000000
_cell_angle_beta 90.000000
_cell_angle_gamma 90.000000
_cell_volume 2832.003401
_symmetry_space_group_name_H-M "P M M A"
_symmetry_group_IT_number 51
_symmetry_cell_setting 'orthorhombic'
loop_
_space_group_symop_operation_xyz
x,y,z
1/2-x,-y,z
1/2+x,-y,-z
-x,y,-z
-x,-y,-z
1/2+x,y,-z
1/2-x,y,z
x,-y,z
loop_
_atom_site_type_symbol
_atom_site_label
_atom_site_fract_x
_atom_site_fract_y
_atom_site_fract_z
Si Si1 0.902991 0.668624 0.037400
Si Si2 0.413709 0.159363 0.787912
Si Si3 0.090517 0.664245 0.705203
Si Si4 0.414059 0.658030 0.867140
Si Si5 0.091842 0.664161 0.375847
Si Si6 0.408499 0.164444 0.459938
O O1 0.750000 0.730227 0.030113
O O2 0.898551 0.500000 0.034753
O O3 0.959960 0.712042 0.085059
O O4 0.000000 0.733179 0.000000
O O5 0.250000 0.158718 0.789854
O O6 0.463107 0.244712 0.745727
O O7 0.473435 0.236045 0.830794
O O8 0.472196 0.000000 0.785983
O O9 0.250000 0.694412 0.694926
O O10 0.066133 0.500000 0.716414
O O11 0.002205 0.713027 0.664035
O O12 0.250000 0.653035 0.865693
O O13 0.471530 0.500000 0.858002
O O14 0.250000 0.697383 0.364089
O O15 0.069542 0.500000 0.386405
O O16 0.043431 0.750939 0.417665
O O17 0.500000 0.217607 0.500000
O O18 0.250000 0.196265 0.471197
O O19 0.433938 0.000000 0.450457
#
# Coordination Sequence:
#
# PCOD8214747 Si02
#       6
#     8   8   8   8   8   8
#     4   8  13  21  35  56  79 102 131 167 204 242
#     4   9  16  25  39  61  86 109 137 175 212 245
#     4   9  17  29  45  65  88 112 138 171 212 253
#     4   8  13  22  37  56  78 106 138 170 207 250
#     4   9  18  32  48  66  89 116 144 174 209 250
#     4   9  18  32  48  66  89 117 147 177 210 248
#
# _framework density 16.949131000000001
#
# number of rings (size 3 to 8) (size 9 to 14) (size 15 to 20)
#    0.000    3.333    0.000    1.500    0.000    3.667 
#    0.000    0.000    0.000    1.500    0.000    4.667 
#    0.000    0.000    0.000    0.000    0.000    0.000 
#
# Total GULP energy -595052.430337 kJ/mol
# GULP energy per Si atom -12396.925632 kJ/mol
# Density = 1.691055 g / cm^3
# Si number density = 16.949131 Si / 1000 Ang^3
#
#
#
# Elastic Constant Matrix: (Units=GPa)
#
#
# Indices 1 2 3 4 5 6 
#
# 1 45.6136 28.3291 62.6758 0.0000 0.0000 0.0000
# 2 28.3291 73.2356 77.7202 0.0000 0.0000 0.0000
# 3 62.6758 77.7202 189.8907 0.0000 0.0000 0.0000
# 4 0.0000 0.0000 0.0000 10.6195 0.0000 0.0000
# 5 0.0000 0.0000 0.0000 0.0000 26.9045 0.0000
# 6 0.0000 0.0000 0.0000 0.0000 0.0000 12.0067
#
#
#
# Elastic Compliance Matrix: (Units=1/GPa)
#
#
# Indices 1 2 3 4 5 6 
#
# 1 0.040398 -0.002610 -0.012266 0.000000 0.000000 0.000000
# 2 -0.002610 0.024308 -0.009088 0.000000 0.000000 0.000000
# 3 -0.012266 -0.009088 0.013034 0.000000 0.000000 0.000000
# 4 0.000000 0.000000 0.000000 0.094166 0.000000 0.000000
# 5 0.000000 0.000000 0.000000 0.000000 0.037168 0.000000
# 6 0.000000 0.000000 0.000000 0.000000 0.000000 0.083287
#
#
# Mechanical properties :
#
#
# Convention : Reuss Voigt Hill
#
# Bulk Modulus (GPa) = 33.54165 71.79890 52.67027
# Shear Modulus (GPa) = 14.27648 19.24047 16.75847
#
# Velocity S-wave (km/s) = 2.90541 3.37291 3.14785
# Velocity P-wave (km/s) = 5.57564 7.59092 6.65995
#
# Compressibility (1/GPa) = 0.02981368
#
# Stress axis : x y z
#
# Youngs Moduli (GPa) = 24.75374 41.13819 76.72217
#
# Poissons Ratio (x) = 0.10738 0.94104
# Poissons Ratio (y) = 0.06461 0.69722
# Poissons Ratio (z) = 0.30362 0.37385
#
# Static dielectric constant tensor:
#      x y z
#    x 2.924040 0.000000 0.000000 
#    y 0.000000 3.096340 0.000000 
#    z 0.000000 0.000000 3.412720 
# 
# 
# High freq. dielectric constant tensor:
#      x y z
#    x 1.612320 0.000000 0.000000 
#    y 0.000000 1.633850 0.000000 
#    z 0.000000 0.000000 1.666020 
# 
# From -- ./inp_files/35293.got.cif
#   From: 2010.03.12/outbox.cif.g09.slc.cpg/sg51_18_cif.got.tgz:35293.got - 2010.04.16 13:43:02.
