data_PCOD8214757
_publ_section_title
;
Structure prediction by ZEFSAII (Michael W. Deem and Ramdas Pophale) SiO2 
 PCOD8214757
Probable space group: P M M A
;
_chemical_formula_sum "Si O2"
_cell_formula_units_Z 40
_cell_length_a 9.255343
_cell_length_b 9.752154
_cell_length_c 26.017497
_cell_angle_alpha 90.000000
_cell_angle_beta 90.000000
_cell_angle_gamma 90.000000
_cell_volume 2348.327058
_symmetry_space_group_name_H-M "P M M A"
_symmetry_group_IT_number 51
_symmetry_cell_setting 'orthorhombic'
loop_
_space_group_symop_operation_xyz
x,y,z
1/2-x,-y,z
1/2+x,-y,-z
-x,y,-z
-x,-y,-z
1/2+x,y,-z
1/2-x,y,z
x,-y,z
loop_
_atom_site_type_symbol
_atom_site_label
_atom_site_fract_x
_atom_site_fract_y
_atom_site_fract_z
Si Si1 0.418908 0.658996 0.350395
Si Si2 0.413382 0.336828 0.548956
Si Si3 0.589010 0.163087 0.854519
Si Si4 0.587497 0.163602 0.049110
Si Si5 0.421955 0.847253 0.258277
O O1 0.250000 0.685497 0.360639
O O2 0.449772 0.500000 0.339426
O O3 0.505915 0.712971 0.399735
O O4 0.478274 0.742958 0.301513
O O5 0.500000 0.277490 0.500000
O O6 0.250000 0.279298 0.548364
O O7 0.412292 0.500000 0.546617
O O8 0.750000 0.223584 0.862997
O O9 0.485301 0.221881 0.898892
O O10 0.526749 0.204361 0.798200
O O11 0.597044 0.000000 0.857592
O O12 0.750000 0.220477 0.046027
O O13 0.586736 0.000000 0.049522
O O14 0.500000 0.219273 0.000000
O O15 0.250000 0.851569 0.257663
O O16 0.482343 0.000000 0.270029
#
# Coordination Sequence:
#
# PCOD8214757 Si02
#       5
#     8   8   8   8   8
#     4   9  16  26  42  64  86 106 132 167 201 233
#     4   9  16  26  41  61  84 108 133 163 201 242
#     4   8  13  22  35  49  67  95 130 161 188 225
#     4   9  15  21  30  46  69  96 125 158 196 235
#     4   8  14  25  41  59  80 109 140 165 194 236
#
# _framework density 17.033403
#
# number of rings (size 3 to 8) (size 9 to 14) (size 15 to 20)
#    0.000    3.400    0.000    2.400    0.000    4.800 
#    0.000    1.000    0.000    2.400    0.000    0.000 
#    0.000    0.800    0.000    1.400    0.000    2.000 
#
# Total GULP energy -495770.069573 kJ/mol
# GULP energy per Si atom -12394.251739 kJ/mol
# Density = 1.699463 g / cm^3
# Si number density = 17.033403 Si / 1000 Ang^3
#
#
#
# Elastic Constant Matrix: (Units=GPa)
#
#
# Indices 1 2 3 4 5 6 
#
# 1 102.0652 19.1175 81.4065 0.0000 0.0000 0.0000
# 2 19.1175 24.8610 39.8250 0.0000 0.0000 0.0000
# 3 81.4065 39.8250 197.0550 0.0000 0.0000 0.0000
# 4 0.0000 0.0000 0.0000 9.3111 0.0000 0.0000
# 5 0.0000 0.0000 0.0000 0.0000 31.2024 0.0000
# 6 0.0000 0.0000 0.0000 0.0000 0.0000 6.5003
#
#
#
# Elastic Compliance Matrix: (Units=1/GPa)
#
#
# Indices 1 2 3 4 5 6 
#
# 1 0.014703 -0.002331 -0.005603 0.000000 0.000000 0.000000
# 2 -0.002331 0.059850 -0.011133 0.000000 0.000000 0.000000
# 3 -0.005603 -0.011133 0.009639 0.000000 0.000000 0.000000
# 4 0.000000 0.000000 0.000000 0.107399 0.000000 0.000000
# 5 0.000000 0.000000 0.000000 0.000000 0.032049 0.000000
# 6 0.000000 0.000000 0.000000 0.000000 0.000000 0.153839
#
#
# Mechanical properties :
#
#
# Convention : Reuss Voigt Hill
#
# Bulk Modulus (GPa) = 21.71130 67.18658 44.44894
# Shear Modulus (GPa) = 11.60186 21.64491 16.62338
#
# Velocity S-wave (km/s) = 2.61267 3.56860 3.12737
# Velocity P-wave (km/s) = 4.67711 7.51728 6.26039
#
# Compressibility (1/GPa) = 0.04605897
#
# Stress axis : x y z
#
# Youngs Moduli (GPa) = 68.01238 16.70850 103.74116
#
# Poissons Ratio (x) = 0.03895 0.58127
# Poissons Ratio (y) = 0.15853 1.15493
# Poissons Ratio (z) = 0.38108 0.18601
#
# Static dielectric constant tensor:
#      x y z
#    x 3.167100 0.000000 0.000000 
#    y 0.000000 2.626080 0.000000 
#    z 0.000000 0.000000 3.587750 
# 
# 
# High freq. dielectric constant tensor:
#      x y z
#    x 1.641740 0.000000 0.000000 
#    y 0.000000 1.579290 0.000000 
#    z 0.000000 0.000000 1.677530 
# 
# From -- ./inp_files/31372.got.cif
#   From: 2010.03.12/outbox.cif.g09.slc.cpg/sg51_16_cif.got.tgz:31372.got - 2010.04.16 13:43:02.
