data_PCOD8214288
_publ_section_title
;
Structure prediction by ZEFSAII (Michael W. Deem and Ramdas Pophale) SiO2 
 PCOD8214288
Probable space group: P M M A
;
_chemical_formula_sum "Si O2"
_cell_formula_units_Z 40
_cell_length_a 9.546068
_cell_length_b 17.181181
_cell_length_c 12.745158
_cell_angle_alpha 90.000000
_cell_angle_beta 90.000000
_cell_angle_gamma 90.000000
_cell_volume 2090.368058
_symmetry_space_group_name_H-M "P M M A"
_symmetry_group_IT_number 51
_symmetry_cell_setting 'orthorhombic'
loop_
_space_group_symop_operation_xyz
x,y,z
1/2-x,-y,z
1/2+x,-y,-z
-x,y,-z
-x,-y,-z
1/2+x,y,-z
1/2-x,y,z
x,-y,z
loop_
_atom_site_type_symbol
_atom_site_label
_atom_site_fract_x
_atom_site_fract_y
_atom_site_fract_z
Si Si1 0.589505 0.912468 0.715020
Si Si2 0.917291 0.844312 0.103822
Si Si3 0.489202 0.682729 0.194902
Si Si4 0.250000 0.588755 0.829334
Si Si5 0.250000 0.591032 0.078289
Si Si6 0.406371 0.762732 0.405015
O O1 0.750000 0.896504 0.754261
O O2 0.477990 0.901396 0.807710
O O3 0.552177 0.851717 0.622968
O O4 0.574756 0.000000 0.671040
O O5 0.750000 0.855776 0.091422
O O6 0.952655 0.755480 0.130005
O O7 0.000000 0.868840 0.000000
O O8 0.616311 0.627125 0.224699
O O9 0.385343 0.633734 0.122695
O O10 0.417592 0.709009 0.302505
O O11 0.250000 0.500000 0.796810
O O12 0.250000 0.600788 0.954016
O O13 0.250000 0.500000 0.110453
O O14 0.500000 0.731527 0.500000
O O15 0.250000 0.758503 0.447996
#
# Coordination Sequence:
#
# PCOD8214288 Si02
#       6
#     8   8   8   4   4   8
#     4   9  20  39  59  84 118 150 187 239 296 351
#     4  11  22  34  55  83 115 160 203 239 284 342
#     4  11  22  38  58  87 122 156 196 245 288 344
#     4  11  22  36  59  93 124 155 191 235 289 349
#     4  11  22  38  61  89 124 161 193 231 291 353
#     4  10  22  39  63  87 112 150 198 244 294 344
#
# _framework density 19.135386
#
# number of rings (size 3 to 8) (size 9 to 14) (size 15 to 20)
#    0.000    1.600    2.000    3.000    4.200    3.600 
#    0.000    0.000    0.000    3.600    0.000    0.000 
#    0.000    0.000    0.000    0.000    0.000    0.000 
#
# Total GULP energy -496026.240558 kJ/mol
# GULP energy per Si atom -12400.656014 kJ/mol
# Density = 1.909183 g / cm^3
# Si number density = 19.135386 Si / 1000 Ang^3
#
#
#
# Elastic Constant Matrix: (Units=GPa)
#
#
# Indices 1 2 3 4 5 6 
#
# 1 109.0557 13.5934 24.0724 0.0000 0.0000 0.0000
# 2 13.5934 90.7811 7.6754 0.0000 0.0000 0.0000
# 3 24.0724 7.6754 60.7783 0.0000 0.0000 0.0000
# 4 0.0000 0.0000 0.0000 10.9196 0.0000 0.0000
# 5 0.0000 0.0000 0.0000 0.0000 35.8545 0.0000
# 6 0.0000 0.0000 0.0000 0.0000 0.0000 34.7004
#
#
#
# Elastic Compliance Matrix: (Units=1/GPa)
#
#
# Indices 1 2 3 4 5 6 
#
# 1 0.010175 -0.001196 -0.003879 0.000000 0.000000 0.000000
# 2 -0.001196 0.011275 -0.000950 0.000000 0.000000 0.000000
# 3 -0.003879 -0.000950 0.018110 0.000000 0.000000 0.000000
# 4 0.000000 0.000000 0.000000 0.091578 0.000000 0.000000
# 5 0.000000 0.000000 0.000000 0.000000 0.027891 0.000000
# 6 0.000000 0.000000 0.000000 0.000000 0.000000 0.028818
#
#
# Mechanical properties :
#
#
# Convention : Reuss Voigt Hill
#
# Bulk Modulus (GPa) = 36.35097 39.03305 37.69201
# Shear Modulus (GPa) = 23.91592 30.64650 27.28121
#
# Velocity S-wave (km/s) = 3.53912 4.00629 3.77993
# Velocity P-wave (km/s) = 5.97817 6.46863 6.22823
#
# Compressibility (1/GPa) = 0.02750959
#
# Stress axis : x y z
#
# Youngs Moduli (GPa) = 98.28126 88.69271 55.21940
#
# Poissons Ratio (x) = 0.10604 0.21419
# Poissons Ratio (y) = 0.11751 0.05248
# Poissons Ratio (z) = 0.38123 0.08429
#
# Static dielectric constant tensor:
#      x y z
#    x 3.624740 0.000000 0.000000 
#    y 0.000000 3.577160 0.000000 
#    z 0.000000 0.000000 3.193690 
# 
# 
# High freq. dielectric constant tensor:
#      x y z
#    x 1.760540 0.000000 0.000000 
#    y 0.000000 1.745430 0.000000 
#    z 0.000000 0.000000 1.721510 
# 
# From -- ./inp_files/14062.got.cif
#   From: 2010.03.12/outbox.cif.g09.slc.cpg/sg51_8_cif.got.tgz:14062.got - 2010.04.16 13:43:02.
