data_PCOD8214442
_publ_section_title
;
Structure prediction by ZEFSAII (Michael W. Deem and Ramdas Pophale) SiO2 
 PCOD8214442
Probable space group: P M M A
;
_chemical_formula_sum "Si O2"
_cell_formula_units_Z 56
_cell_length_a 8.608913
_cell_length_b 21.458653
_cell_length_c 14.883693
_cell_angle_alpha 90.000000
_cell_angle_beta 90.000000
_cell_angle_gamma 90.000000
_cell_volume 2749.549099
_symmetry_space_group_name_H-M "P M M A"
_symmetry_group_IT_number 51
_symmetry_cell_setting 'orthorhombic'
loop_
_space_group_symop_operation_xyz
x,y,z
1/2-x,-y,z
1/2+x,-y,-z
-x,y,-z
-x,-y,-z
1/2+x,y,-z
1/2-x,y,z
x,-y,z
loop_
_atom_site_type_symbol
_atom_site_label
_atom_site_fract_x
_atom_site_fract_y
_atom_site_fract_z
Si Si1 0.431664 0.172924 0.234856
Si Si2 0.070157 0.252869 0.911396
Si Si3 0.068732 0.626877 0.137971
Si Si4 0.566401 0.929414 0.904427
Si Si5 0.924169 0.500000 0.139065
Si Si6 0.067647 0.233169 0.594667
Si Si7 0.419924 0.500000 0.646495
Si Si8 0.063654 0.366927 0.666697
O O1 0.250000 0.167508 0.251143
O O2 0.473722 0.232545 0.175521
O O3 0.495160 0.112701 0.178998
O O4 0.510089 0.183256 0.331397
O O5 0.250000 0.236375 0.900504
O O6 0.038096 0.326266 0.919565
O O7 0.000000 0.219322 0.000000
O O8 0.250000 0.639276 0.120328
O O9 0.020403 0.558895 0.103866
O O10 0.029940 0.637241 0.241849
O O11 0.750000 0.924024 0.910762
O O12 0.511376 0.000000 0.885198
O O13 0.500000 0.906011 0.000000
O O14 0.750000 0.500000 0.099391
O O15 0.915604 0.500000 0.246217
O O16 0.250000 0.228374 0.592031
O O17 0.016695 0.305215 0.611280
O O18 0.000000 0.211170 0.500000
O O19 0.250000 0.500000 0.603504
O O20 0.493582 0.567580 0.617535
O O21 0.250000 0.369640 0.685271
#
# Coordination Sequence:
#
# PCOD8214442 Si02
#       8
#     8   8   8   8   4   8   4   8
#     4  11  22  38  61  88 119 156 196 239 289 345
#     4  12  24  38  55  80 114 151 191 235 288 344
#     4  11  20  32  52  78 106 139 184 236 288 347
#     4   9  19  36  60  93 131 166 198 234 280 337
#     4   9  17  31  50  71 100 140 183 229 286 348
#     4  11  23  38  58  83 115 154 200 250 302 354
#     4   7  12  25  48  73  97 130 178 225 282 351
#     4   9  17  32  53  76 104 144 186 235 296 360
#
# _framework density 20.366975
#
# number of rings (size 3 to 8) (size 9 to 14) (size 15 to 20)
#    0.000    1.857    1.429    4.929    0.000    2.857 
#    0.000    0.714    0.000    0.429    0.000    0.000 
#    0.000    0.000    0.000    0.000    0.000    0.000 
#
# Total GULP energy -693960.726428 kJ/mol
# GULP energy per Si atom -12392.155829 kJ/mol
# Density = 2.032062 g / cm^3
# Si number density = 20.366975 Si / 1000 Ang^3
#
#
#
# Elastic Constant Matrix: (Units=GPa)
#
#
# Indices 1 2 3 4 5 6 
#
# 1 63.7874 25.2323 24.0484 0.0000 0.0000 0.0000
# 2 25.2323 118.2133 50.6471 0.0000 0.0000 0.0000
# 3 24.0484 50.6471 117.6520 0.0000 0.0000 0.0000
# 4 0.0000 0.0000 0.0000 21.9861 0.0000 0.0000
# 5 0.0000 0.0000 0.0000 0.0000 28.7219 0.0000
# 6 0.0000 0.0000 0.0000 0.0000 0.0000 22.5204
#
#
#
# Elastic Compliance Matrix: (Units=1/GPa)
#
#
# Indices 1 2 3 4 5 6 
#
# 1 0.017676 -0.002728 -0.002439 0.000000 0.000000 0.000000
# 2 -0.002728 0.010793 -0.004089 0.000000 0.000000 0.000000
# 3 -0.002439 -0.004089 0.010758 0.000000 0.000000 0.000000
# 4 0.000000 0.000000 0.000000 0.045483 0.000000 0.000000
# 5 0.000000 0.000000 0.000000 0.000000 0.034817 0.000000
# 6 0.000000 0.000000 0.000000 0.000000 0.000000 0.044404
#
#
# Mechanical properties :
#
#
# Convention : Reuss Voigt Hill
#
# Bulk Modulus (GPa) = 48.27075 55.50092 51.88584
# Shear Modulus (GPa) = 26.40649 27.96067 27.18358
#
# Velocity S-wave (km/s) = 3.60465 3.70921 3.65730
# Velocity P-wave (km/s) = 6.40910 6.75677 6.58523
#
# Compressibility (1/GPa) = 0.02071648
#
# Stress axis : x y z
#
# Youngs Moduli (GPa) = 56.57528 92.64979 92.95221
#
# Poissons Ratio (x) = 0.25275 0.22667
# Poissons Ratio (y) = 0.15434 0.38006
# Poissons Ratio (z) = 0.13796 0.37882
#
# Static dielectric constant tensor:
#      x y z
#    x 3.505200 0.000000 0.000000 
#    y 0.000000 4.017090 0.000000 
#    z 0.000000 0.000000 3.459020 
# 
# 
# High freq. dielectric constant tensor:
#      x y z
#    x 1.786700 0.000000 0.000000 
#    y 0.000000 1.793100 0.000000 
#    z 0.000000 0.000000 1.775390 
# 
# From -- ./inp_files/21869.got.cif
#   From: 2010.03.12/outbox.cif.g09.slc.cpg/sg51_11_cif.got.tgz:21869.got - 2010.04.16 13:43:02.
