data_PCOD8214095
_publ_section_title
;
Structure prediction by ZEFSAII (Michael W. Deem and Ramdas Pophale) SiO2 
 PCOD8214095
Probable space group: P M M A
;
_chemical_formula_sum "Si O2"
_cell_formula_units_Z 38
_cell_length_a 15.942230
_cell_length_b 12.132782
_cell_length_c 10.153828
_cell_angle_alpha 90.000000
_cell_angle_beta 90.000000
_cell_angle_gamma 90.000000
_cell_volume 1963.989978
_symmetry_space_group_name_H-M "P M M A"
_symmetry_group_IT_number 51
_symmetry_cell_setting 'orthorhombic'
loop_
_space_group_symop_operation_xyz
x,y,z
1/2-x,-y,z
1/2+x,-y,-z
-x,y,-z
-x,-y,-z
1/2+x,y,-z
1/2-x,y,z
x,-y,z
loop_
_atom_site_type_symbol
_atom_site_label
_atom_site_fract_x
_atom_site_fract_y
_atom_site_fract_z
Si Si1 0.071782 0.370874 0.393703
Si Si2 0.750000 0.210155 0.251990
Si Si3 0.580872 0.000000 0.593189
Si Si4 0.250000 0.000000 0.567394
Si Si5 0.750000 0.628765 0.481483
Si Si6 0.115071 0.127620 0.930480
Si Si7 0.058507 0.184214 0.198733
O O1 0.068239 0.500000 0.361711
O O2 0.164937 0.335229 0.442567
O O3 0.052282 0.307954 0.256448
O O4 0.000000 0.339063 0.500000
O O5 0.750000 0.107956 0.347616
O O6 0.750000 0.321231 0.335794
O O7 0.830272 0.207136 0.159336
O O8 0.500000 0.000000 0.500000
O O9 0.583138 0.890665 0.679060
O O10 0.665963 0.000000 0.514527
O O11 0.750000 0.500000 0.458620
O O12 0.023851 0.136338 0.868714
O O13 0.144662 0.000000 0.927086
O O14 0.124998 0.175035 0.079224
#
# Coordination Sequence:
#
# PCOD8214095 Si02
#       7
#     8   4   4   2   4   8   8
#     4  10  21  39  62  88 118 153 191 242 299 342
#     4  12  22  38  58  84 116 149 200 237 291 343
#     4  12  22  34  56  82 114 144 186 240 282 338
#     4  12  24  32  54  88 112 138 188 244 284 336
#     4  10  22  41  62  85 118 154 190 242 297 347
#     4  11  21  39  57  81 117 164 187 236 290 346
#     4  11  21  38  58  82 114 154 197 226 291 348
#
# _framework density 19.348367
#
# number of rings (size 3 to 8) (size 9 to 14) (size 15 to 20)
#    0.000    1.053    3.158    5.053    0.000    1.684 
#    0.000    3.158    0.000    0.000    0.000    0.000 
#    0.000    0.000    0.000    0.000    0.000    0.000 
#
# Total GULP energy -471149.351038 kJ/mol
# GULP energy per Si atom -12398.667133 kJ/mol
# Density = 1.930433 g / cm^3
# Si number density = 19.348367 Si / 1000 Ang^3
#
#
#
# Elastic Constant Matrix: (Units=GPa)
#
#
# Indices 1 2 3 4 5 6 
#
# 1 105.6875 16.9082 46.2893 0.0000 0.0000 0.0000
# 2 16.9082 73.2975 48.4937 0.0000 0.0000 0.0000
# 3 46.2893 48.4937 133.9447 0.0000 0.0000 0.0000
# 4 0.0000 0.0000 0.0000 37.2158 0.0000 0.0000
# 5 0.0000 0.0000 0.0000 0.0000 36.8346 0.0000
# 6 0.0000 0.0000 0.0000 0.0000 0.0000 17.0282
#
#
#
# Elastic Compliance Matrix: (Units=1/GPa)
#
#
# Indices 1 2 3 4 5 6 
#
# 1 0.011149 -0.000030 -0.003842 0.000000 0.000000 0.000000
# 2 -0.000030 0.017940 -0.006485 0.000000 0.000000 0.000000
# 3 -0.003842 -0.006485 0.011141 0.000000 0.000000 0.000000
# 4 0.000000 0.000000 0.000000 0.026870 0.000000 0.000000
# 5 0.000000 0.000000 0.000000 0.000000 0.027148 0.000000
# 6 0.000000 0.000000 0.000000 0.000000 0.000000 0.058726
#
#
# Mechanical properties :
#
#
# Convention : Reuss Voigt Hill
#
# Bulk Modulus (GPa) = 51.23695 59.59024 55.41360
# Shear Modulus (GPa) = 27.74764 31.63162 29.68963
#
# Velocity S-wave (km/s) = 3.79107 4.04771 3.92149
# Velocity P-wave (km/s) = 6.76030 7.26022 7.01471
#
# Compressibility (1/GPa) = 0.01951716
#
# Stress axis : x y z
#
# Youngs Moduli (GPa) = 89.69020 55.74052 89.75554
#
# Poissons Ratio (x) = 0.00167 0.34486
# Poissons Ratio (y) = 0.00268 0.58205
# Poissons Ratio (z) = 0.34461 0.36147
#
# Static dielectric constant tensor:
#      x y z
#    x 3.930100 0.000000 0.000000 
#    y 0.000000 3.868140 0.000000 
#    z 0.000000 0.000000 3.820980 
# 
# 
# High freq. dielectric constant tensor:
#      x y z
#    x 1.761710 0.000000 0.000000 
#    y 0.000000 1.746340 0.000000 
#    z 0.000000 0.000000 1.762240 
# 
# From -- ./inp_files/9326.got.cif
#   From: 2010.03.12/outbox.cif.g09.slc.cpg/sg51_5_cif.got.tgz:9326.got - 2010.04.16 13:43:02.
