data_PCOD8214333
_publ_section_title
;
Structure prediction by ZEFSAII (Michael W. Deem and Ramdas Pophale) SiO2 
 PCOD8214333
Probable space group: P M M A
;
_chemical_formula_sum "Si O2"
_cell_formula_units_Z 56
_cell_length_a 14.346588
_cell_length_b 8.826981
_cell_length_c 23.525760
_cell_angle_alpha 90.000000
_cell_angle_beta 90.000000
_cell_angle_gamma 90.000000
_cell_volume 2979.233073
_symmetry_space_group_name_H-M "P M M A"
_symmetry_group_IT_number 51
_symmetry_cell_setting 'orthorhombic'
loop_
_space_group_symop_operation_xyz
x,y,z
1/2-x,-y,z
1/2+x,-y,-z
-x,y,-z
-x,-y,-z
1/2+x,y,-z
1/2-x,y,z
x,-y,z
loop_
_atom_site_type_symbol
_atom_site_label
_atom_site_fract_x
_atom_site_fract_y
_atom_site_fract_z
Si Si1 0.102875 0.335387 0.021802
Si Si2 0.041492 0.823383 0.130148
Si Si3 0.250000 0.179267 0.406942
Si Si4 0.571879 0.675272 0.644703
Si Si5 0.351418 0.321249 0.901312
Si Si6 0.857944 0.672590 0.767175
Si Si7 0.750000 0.680056 0.470991
Si Si8 0.440940 0.820288 0.556760
O O1 0.144571 0.500000 0.039685
O O2 0.103883 0.226366 0.076176
O O3 0.156563 0.265757 0.967318
O O4 0.000000 0.360301 0.000000
O O5 0.099681 0.781202 0.185564
O O6 0.937221 0.753825 0.132125
O O7 0.027525 0.000000 0.127256
O O8 0.162627 0.241170 0.375059
O O9 0.250000 0.238593 0.469668
O O10 0.250000 0.000000 0.407977
O O11 0.571063 0.500000 0.625567
O O12 0.574070 0.690333 0.712770
O O13 0.487811 0.763984 0.615035
O O14 0.250000 0.282690 0.873113
O O15 0.370511 0.500000 0.900599
O O16 0.750000 0.717188 0.753669
O O17 0.861757 0.500000 0.788941
O O18 0.750000 0.500000 0.476667
O O19 0.657441 0.735703 0.439552
O O20 0.500000 0.774334 0.500000
O O21 0.426866 0.000000 0.558120
#
# Coordination Sequence:
#
# PCOD8214333 Si02
#       8
#     8   8   4   8   8   8   4   8
#     4   8  15  30  51  75 104 140 182 225 270 325
#     4  11  22  34  52  82 117 149 181 227 285 338
#     4  12  22  34  56  88 124 156 186 231 288 345
#     4  11  22  39  62  88 113 147 196 241 280 335
#     4   9  18  34  57  81 106 145 193 233 274 330
#     4  10  22  41  62  83 108 145 191 235 277 328
#     4  12  24  38  60  88 120 158 200 239 272 325
#     4  11  23  38  59  89 124 158 188 229 293 347
#
# _framework density 18.796785
#
# number of rings (size 3 to 8) (size 9 to 14) (size 15 to 20)
#    0.000    1.714    2.143    4.286    0.000    5.429 
#    0.000    1.429    1.571    0.000    0.000    0.000 
#    0.000    0.000    0.000    0.000    0.000    0.000 
#
# Total GULP energy -694023.565376 kJ/mol
# GULP energy per Si atom -12393.277953 kJ/mol
# Density = 1.875400 g / cm^3
# Si number density = 18.796785 Si / 1000 Ang^3
#
#
#
# Elastic Constant Matrix: (Units=GPa)
#
#
# Indices 1 2 3 4 5 6 
#
# 1 108.4624 46.2654 32.4960 0.0000 0.0000 0.0000
# 2 46.2654 118.2872 39.6972 0.0000 0.0000 0.0000
# 3 32.4960 39.6972 79.6981 0.0000 0.0000 0.0000
# 4 0.0000 0.0000 0.0000 43.4684 0.0000 0.0000
# 5 0.0000 0.0000 0.0000 0.0000 29.7783 0.0000
# 6 0.0000 0.0000 0.0000 0.0000 0.0000 28.2561
#
#
#
# Elastic Compliance Matrix: (Units=1/GPa)
#
#
# Indices 1 2 3 4 5 6 
#
# 1 0.011624 -0.003549 -0.002972 0.000000 0.000000 0.000000
# 2 -0.003549 0.011234 -0.004149 0.000000 0.000000 0.000000
# 3 -0.002972 -0.004149 0.015826 0.000000 0.000000 0.000000
# 4 0.000000 0.000000 0.000000 0.023005 0.000000 0.000000
# 5 0.000000 0.000000 0.000000 0.000000 0.033581 0.000000
# 6 0.000000 0.000000 0.000000 0.000000 0.000000 0.035391
#
#
# Mechanical properties :
#
#
# Convention : Reuss Voigt Hill
#
# Bulk Modulus (GPa) = 57.65420 60.37386 59.01403
# Shear Modulus (GPa) = 31.68924 32.83316 32.26120
#
# Velocity S-wave (km/s) = 4.11041 4.18394 4.14734
# Velocity P-wave (km/s) = 7.29837 7.45181 7.37549
#
# Compressibility (1/GPa) = 0.01734479
#
# Stress axis : x y z
#
# Youngs Moduli (GPa) = 86.02837 89.01167 63.18915
#
# Poissons Ratio (x) = 0.31592 0.18778
# Poissons Ratio (y) = 0.30533 0.26215
# Poissons Ratio (z) = 0.25566 0.36928
#
# Static dielectric constant tensor:
#      x y z
#    x 3.095510 0.000000 0.000000 
#    y 0.000000 3.464650 0.000000 
#    z 0.000000 0.000000 3.505030 
# 
# 
# High freq. dielectric constant tensor:
#      x y z
#    x 1.733130 0.000000 0.000000 
#    y 0.000000 1.729910 0.000000 
#    z 0.000000 0.000000 1.712300 
# 
# From -- ./inp_files/33555.got.cif
#   From: 2010.03.12/outbox.cif.g09.slc.cpg/sg51_17_cif.got.tgz:33555.got - 2010.04.16 13:43:02.
