data_PCOD8214564
_publ_section_title
;
Structure prediction by ZEFSAII (Michael W. Deem and Ramdas Pophale) SiO2 
 PCOD8214564
Probable space group: P M M A
;
_chemical_formula_sum "Si O2"
_cell_formula_units_Z 64
_cell_length_a 22.916537
_cell_length_b 8.971696
_cell_length_c 18.137490
_cell_angle_alpha 90.000000
_cell_angle_beta 90.000000
_cell_angle_gamma 90.000000
_cell_volume 3729.071632
_symmetry_space_group_name_H-M "P M M A"
_symmetry_group_IT_number 51
_symmetry_cell_setting 'orthorhombic'
loop_
_space_group_symop_operation_xyz
x,y,z
1/2-x,-y,z
1/2+x,-y,-z
-x,y,-z
-x,-y,-z
1/2+x,y,-z
1/2-x,y,z
x,-y,z
loop_
_atom_site_type_symbol
_atom_site_label
_atom_site_fract_x
_atom_site_fract_y
_atom_site_fract_z
Si Si1 0.180655 0.668392 0.587667
Si Si2 0.819260 0.331035 0.572746
Si Si3 0.684007 0.824542 0.267927
Si Si4 0.182819 0.672016 0.003177
Si Si5 0.184301 0.825241 0.283505
Si Si6 0.004442 0.675067 0.086563
Si Si7 0.111804 0.822478 0.873444
Si Si8 0.623975 0.822976 0.866513
O O1 0.250000 0.675949 0.588119
O O2 0.158957 0.500000 0.598828
O O3 0.158334 0.728390 0.507519
O O4 0.156192 0.764872 0.655637
O O5 0.750000 0.319302 0.573842
O O6 0.840059 0.500000 0.582949
O O7 0.844640 0.237473 0.641211
O O8 0.750000 0.764013 0.255605
O O9 0.644206 0.769852 0.200673
O O10 0.684498 0.000000 0.272895
O O11 0.250000 0.684228 0.980103
O O12 0.163067 0.500000 0.011705
O O13 0.144108 0.749350 0.941815
O O14 0.173407 0.759612 0.079191
O O15 0.250000 0.761964 0.271046
O O16 0.143594 0.778811 0.215607
O O17 0.187204 0.000000 0.291818
O O18 0.000899 0.500000 0.103145
O O19 0.063874 0.741321 0.117318
O O20 0.953523 0.760533 0.129930
O O21 0.000000 0.708766 0.000000
O O22 0.111852 0.000000 0.882649
O O23 0.617794 0.000000 0.877121
#
# Coordination Sequence:
#
# PCOD8214564 Si02
#       8
#     8   8   8   8   8   8   8   8
#     4   8  14  25  42  66  97 133 169 200 234 283
#     4   8  14  25  42  66  97 133 169 200 234 283
#     4   9  18  31  47  72 104 133 163 201 244 292
#     4  11  23  36  51  74 103 133 165 201 246 299
#     4   9  18  31  47  72 104 133 163 201 244 292
#     4  11  23  39  57  75  97 124 165 216 258 301
#     4  11  22  36  55  75  98 130 169 209 252 299
#     4  11  22  36  55  75  98 130 169 209 252 299
#
# _framework density 17.162448000000001
#
# number of rings (size 3 to 8) (size 9 to 14) (size 15 to 20)
#    0.000    2.250    1.250    3.000    0.000    5.000 
#    0.000    5.000    0.000    0.000    0.000    0.875 
#    0.000    7.000    0.000    0.000    0.000    0.000 
#
# Total GULP energy -793418.233435 kJ/mol
# GULP energy per Si atom -12397.159897 kJ/mol
# Density = 1.712339 g / cm^3
# Si number density = 17.162448 Si / 1000 Ang^3
#
#
#
# Elastic Constant Matrix: (Units=GPa)
#
#
# Indices 1 2 3 4 5 6 
#
# 1 225.5267 417.3964 131.2095 0.0000 0.0000 0.0000
# 2 417.3964 1001.4798 281.1250 0.0000 0.0000 0.0000
# 3 131.2095 281.1250 195.4809 0.0000 0.0000 0.0000
# 4 0.0000 0.0000 0.0000 28.8982 0.0000 0.0000
# 5 0.0000 0.0000 0.0000 0.0000 8.3066 0.0000
# 6 0.0000 0.0000 0.0000 0.0000 0.0000 22.2465
#
#
#
# Elastic Compliance Matrix: (Units=1/GPa)
#
#
# Indices 1 2 3 4 5 6 
#
# 1 0.020051 -0.007679 -0.002415 0.000000 0.000000 0.000000
# 2 -0.007679 0.004615 -0.001483 0.000000 0.000000 0.000000
# 3 -0.002415 -0.001483 0.008870 0.000000 0.000000 0.000000
# 4 0.000000 0.000000 0.000000 0.034604 0.000000 0.000000
# 5 0.000000 0.000000 0.000000 0.000000 0.120386 0.000000
# 6 0.000000 0.000000 0.000000 0.000000 0.000000 0.044951
#
#
# Mechanical properties :
#
#
# Convention : Reuss Voigt Hill
#
# Bulk Modulus (GPa) = 96.32765 342.43882 219.38323
# Shear Modulus (GPa) = 19.22393 51.40736 35.31564
#
# Velocity S-wave (km/s) = 3.35044 5.47891 4.54114
# Velocity P-wave (km/s) = 8.43897 15.49147 12.47401
#
# Compressibility (1/GPa) = 0.01038124
#
# Stress axis : x y z
#
# Youngs Moduli (GPa) = 49.87275 216.67428 112.74233
#
# Poissons Ratio (x) = 1.66380 0.27233
# Poissons Ratio (y) = 0.38296 0.16721
# Poissons Ratio (z) = 0.12047 0.32135
#
# Static dielectric constant tensor:
#      x y z
#    x 3.017120 0.000000 0.000000 
#    y 0.000000 3.273560 0.000000 
#    z 0.000000 0.000000 3.698060 
# 
# 
# High freq. dielectric constant tensor:
#      x y z
#    x 1.623560 0.000000 0.000000 
#    y 0.000000 1.667140 0.000000 
#    z 0.000000 0.000000 1.673560 
# 
# From -- ./inp_files/30878.got.cif
#   From: 2010.03.12/outbox.cif.g09.slc.cpg/sg51_16_cif.got.tgz:30878.got - 2010.04.16 13:43:02.
