data_PCOD8214821
_publ_section_title
;
Structure prediction by ZEFSAII (Michael W. Deem and Ramdas Pophale) SiO2 
 PCOD8214821
Probable space group: P M M A
;
_chemical_formula_sum "Si O2"
_cell_formula_units_Z 64
_cell_length_a 14.090530
_cell_length_b 9.252873
_cell_length_c 29.050799
_cell_angle_alpha 90.000000
_cell_angle_beta 90.000000
_cell_angle_gamma 90.000000
_cell_volume 3787.581719
_symmetry_space_group_name_H-M "P M M A"
_symmetry_group_IT_number 51
_symmetry_cell_setting 'orthorhombic'
loop_
_space_group_symop_operation_xyz
x,y,z
1/2-x,-y,z
1/2+x,-y,-z
-x,y,-z
-x,-y,-z
1/2+x,y,-z
1/2-x,y,z
x,-y,z
loop_
_atom_site_type_symbol
_atom_site_label
_atom_site_fract_x
_atom_site_fract_y
_atom_site_fract_z
Si Si1 0.362213 0.833769 0.431683
Si Si2 0.855844 0.828085 0.746227
Si Si3 0.537174 0.169076 0.659271
Si Si4 0.538872 0.671064 0.928876
Si Si5 0.140486 0.830430 0.151056
Si Si6 0.643912 0.168219 0.390703
Si Si7 0.362887 0.336731 0.519822
Si Si8 0.355364 0.671326 0.980305
O O1 0.250000 0.818291 0.428240
O O2 0.405791 0.769169 0.384637
O O3 0.403783 0.741402 0.474362
O O4 0.392709 0.000000 0.439172
O O5 0.750000 0.772918 0.734565
O O6 0.926620 0.762002 0.707416
O O7 0.885616 0.777088 0.797303
O O8 0.857004 0.000000 0.746095
O O9 0.424995 0.200878 0.652568
O O10 0.558533 0.000000 0.661641
O O11 0.545352 0.500000 0.922208
O O12 0.569456 0.747057 0.882172
O O13 0.430726 0.719304 0.941178
O O14 0.608330 0.723870 0.969788
O O15 0.250000 0.792116 0.140063
O O16 0.123118 0.000000 0.145271
O O17 0.750000 0.218268 0.376935
O O18 0.603139 0.252946 0.434666
O O19 0.642052 0.000000 0.403940
O O20 0.250000 0.332184 0.518210
O O21 0.401517 0.500000 0.521329
O O22 0.250000 0.735991 0.970404
O O23 0.351120 0.500000 0.981136
#
# Coordination Sequence:
#
# PCOD8214821 Si02
#       8
#     8   8   8   8   8   8   8   8
#     4   9  16  26  42  63  83 101 125 161 199 232
#     4   8  14  26  44  65  87 109 134 166 207 255
#     4   9  16  26  43  64  81 101 132 167 201 239
#     4   9  16  26  44  67  87 114 153 189 218 252
#     4   9  17  28  43  64  90 118 144 174 216 261
#     4   9  17  29  44  61  80 101 129 167 203 231
#     4   9  17  29  43  58  80 110 136 156 187 236
#     4   8  14  25  41  63  91 120 150 185 222 257
#
# _framework density 16.897326
#
# number of rings (size 3 to 8) (size 9 to 14) (size 15 to 20)
#    0.000    3.250    0.000    2.625    0.000    4.250 
#    0.000    4.375    0.000    3.375    0.000    3.500 
#    0.000    0.000    0.000    0.000    0.000    0.000 
#
# Total GULP energy -793179.336039 kJ/mol
# GULP energy per Si atom -12393.427126 kJ/mol
# Density = 1.685887 g / cm^3
# Si number density = 16.897326 Si / 1000 Ang^3
#
#
#
# Elastic Constant Matrix: (Units=GPa)
#
#
# Indices 1 2 3 4 5 6 
#
# 1 104.9103 23.1845 77.1714 0.0000 0.0000 0.0000
# 2 23.1845 37.4586 34.4430 0.0000 0.0000 0.0000
# 3 77.1714 34.4430 144.6540 0.0000 0.0000 0.0000
# 4 0.0000 0.0000 0.0000 3.4537 0.0000 0.0000
# 5 0.0000 0.0000 0.0000 0.0000 30.5348 0.0000
# 6 0.0000 0.0000 0.0000 0.0000 0.0000 11.9880
#
#
#
# Elastic Compliance Matrix: (Units=1/GPa)
#
#
# Indices 1 2 3 4 5 6 
#
# 1 0.015886 -0.002611 -0.007853 0.000000 0.000000 0.000000
# 2 -0.002611 0.034609 -0.006847 0.000000 0.000000 0.000000
# 3 -0.007853 -0.006847 0.012733 0.000000 0.000000 0.000000
# 4 0.000000 0.000000 0.000000 0.289540 0.000000 0.000000
# 5 0.000000 0.000000 0.000000 0.000000 0.032750 0.000000
# 6 0.000000 0.000000 0.000000 0.000000 0.000000 0.083417
#
#
# Mechanical properties :
#
#
# Convention : Reuss Voigt Hill
#
# Bulk Modulus (GPa) = 34.96061 61.84675 48.40368
# Shear Modulus (GPa) = 9.74483 19.34357 14.54420
#
# Velocity S-wave (km/s) = 2.40408 3.38712 2.93702
# Velocity P-wave (km/s) = 5.33302 7.20956 6.34109
#
# Compressibility (1/GPa) = 0.02860362
#
# Stress axis : x y z
#
# Youngs Moduli (GPa) = 62.94960 28.89458 78.53622
#
# Poissons Ratio (x) = 0.07545 0.61675
# Poissons Ratio (y) = 0.16439 0.53777
# Poissons Ratio (z) = 0.49435 0.19785
#
# Static dielectric constant tensor:
#      x y z
#    x 3.344430 0.000000 0.000000 
#    y 0.000000 2.814170 0.000000 
#    z 0.000000 0.000000 3.258920 
# 
# 
# High freq. dielectric constant tensor:
#      x y z
#    x 1.652540 0.000000 0.000000 
#    y 0.000000 1.608870 0.000000 
#    z 0.000000 0.000000 1.639410 
# 
# From -- ./inp_files/37800.got.cif
#   From: 2010.03.12/outbox.cif.g09.slc.cpg/sg51_19_cif.got.tgz:37800.got - 2010.04.16 13:43:02.
