data_PCOD8214326
_publ_section_title
;
Structure prediction by ZEFSAII (Michael W. Deem and Ramdas Pophale) SiO2 
 PCOD8214326
Probable space group: P M M A
;
_chemical_formula_sum "Si O2"
_cell_formula_units_Z 48
_cell_length_a 16.461711
_cell_length_b 9.070325
_cell_length_c 16.303668
_cell_angle_alpha 90.000000
_cell_angle_beta 90.000000
_cell_angle_gamma 90.000000
_cell_volume 2434.350702
_symmetry_space_group_name_H-M "P M M A"
_symmetry_group_IT_number 51
_symmetry_cell_setting 'orthorhombic'
loop_
_space_group_symop_operation_xyz
x,y,z
1/2-x,-y,z
1/2+x,-y,-z
-x,y,-z
-x,-y,-z
1/2+x,y,-z
1/2-x,y,z
x,-y,z
loop_
_atom_site_type_symbol
_atom_site_label
_atom_site_fract_x
_atom_site_fract_y
_atom_site_fract_z
Si Si1 0.921572 0.330187 0.943385
Si Si2 0.341002 0.169956 0.373533
Si Si3 0.656824 0.671553 0.469177
Si Si4 0.750000 0.331533 0.032877
Si Si5 0.750000 0.173828 0.201116
Si Si6 0.394602 0.673109 0.707877
Si Si7 0.047678 0.171928 0.222482
O O1 0.927945 0.500000 0.914899
O O2 0.923169 0.220363 0.866783
O O3 0.833740 0.301139 0.984176
O O4 0.000000 0.292250 0.000000
O O5 0.250000 0.230775 0.364803
O O6 0.382896 0.251450 0.450993
O O7 0.381061 0.201862 0.286646
O O8 0.343646 0.000000 0.396088
O O9 0.750000 0.722624 0.455279
O O10 0.651747 0.500000 0.485847
O O11 0.606056 0.715442 0.388326
O O12 0.750000 0.500000 0.064663
O O13 0.750000 0.218482 0.106811
O O14 0.827720 0.236774 0.245029
O O15 0.750000 0.000000 0.207922
O O16 0.378769 0.500000 0.720270
O O17 0.477591 0.720085 0.748690
O O18 0.021378 0.000000 0.221327
#
# Coordination Sequence:
#
# PCOD8214326 Si02
#       7
#     8   8   8   4   4   8   8
#     4  10  22  41  63  88 120 159 203 253 311 370
#     4   9  20  38  58  82 118 162 201 245 303 359
#     4   9  18  35  58  85 114 153 204 249 292 348
#     4  10  22  40  64  91 120 161 206 247 306 377
#     4  12  24  38  62  95 124 153 198 245 300 367
#     4  11  22  39  61  86 123 162 200 248 304 356
#     4  11  24  39  59  89 122 157 204 252 302 363
#
# _framework density 19.717783000000001
#
# number of rings (size 3 to 8) (size 9 to 14) (size 15 to 20)
#    0.000    1.833    0.833    2.750    1.167    5.667 
#    0.000    3.333    0.000    0.000    0.000    0.000 
#    0.000    0.000    0.000    0.000    0.000    0.000 
#
# Total GULP energy -595140.835293 kJ/mol
# GULP energy per Si atom -12398.767402 kJ/mol
# Density = 1.967290 g / cm^3
# Si number density = 19.717783 Si / 1000 Ang^3
#
#
#
# Elastic Constant Matrix: (Units=GPa)
#
#
# Indices 1 2 3 4 5 6 
#
# 1 102.5609 40.7644 55.9335 0.0000 0.0000 0.0000
# 2 40.7644 92.4275 73.2466 0.0000 0.0000 0.0000
# 3 55.9335 73.2466 149.7440 0.0000 0.0000 0.0000
# 4 0.0000 0.0000 0.0000 32.6181 0.0000 0.0000
# 5 0.0000 0.0000 0.0000 0.0000 27.5400 0.0000
# 6 0.0000 0.0000 0.0000 0.0000 0.0000 25.4119
#
#
#
# Elastic Compliance Matrix: (Units=1/GPa)
#
#
# Indices 1 2 3 4 5 6 
#
# 1 0.012740 -0.003017 -0.003283 0.000000 0.000000 0.000000
# 2 -0.003017 0.018383 -0.007865 0.000000 0.000000 0.000000
# 3 -0.003283 -0.007865 0.011751 0.000000 0.000000 0.000000
# 4 0.000000 0.000000 0.000000 0.030658 0.000000 0.000000
# 5 0.000000 0.000000 0.000000 0.000000 0.036311 0.000000
# 6 0.000000 0.000000 0.000000 0.000000 0.000000 0.039352
#
#
# Mechanical properties :
#
#
# Convention : Reuss Voigt Hill
#
# Bulk Modulus (GPa) = 68.75610 76.06904 72.41257
# Shear Modulus (GPa) = 27.41649 28.76653 28.09151
#
# Velocity S-wave (km/s) = 3.73291 3.82372 3.77859
# Velocity P-wave (km/s) = 7.31610 7.62608 7.47270
#
# Compressibility (1/GPa) = 0.01454416
#
# Stress axis : x y z
#
# Youngs Moduli (GPa) = 78.49351 54.39904 85.09689
#
# Poissons Ratio (x) = 0.16414 0.27936
# Poissons Ratio (y) = 0.23684 0.66927
# Poissons Ratio (z) = 0.25768 0.42784
#
# Static dielectric constant tensor:
#      x y z
#    x 4.618260 0.000000 0.000000 
#    y 0.000000 3.583130 0.000000 
#    z 0.000000 0.000000 3.733420 
# 
# 
# High freq. dielectric constant tensor:
#      x y z
#    x 1.769210 0.000000 0.000000 
#    y 0.000000 1.768290 0.000000 
#    z 0.000000 0.000000 1.780660 
# 
# From -- ./inp_files/24931.got.cif
#   From: 2010.03.12/outbox.cif.g09.slc.cpg/sg51_13_cif.got.tgz:24931.got - 2010.04.16 13:43:02.
