data_PCOD8214895
_publ_section_title
;
Structure prediction by ZEFSAII (Michael W. Deem and Ramdas Pophale) SiO2 
 PCOD8214895
Probable space group: P M M A
;
_chemical_formula_sum "Si O2"
_cell_formula_units_Z 48
_cell_length_a 32.608245
_cell_length_b 9.309280
_cell_length_c 9.090508
_cell_angle_alpha 90.000000
_cell_angle_beta 90.000000
_cell_angle_gamma 90.000000
_cell_volume 2759.508091
_symmetry_space_group_name_H-M "P M M A"
_symmetry_group_IT_number 51
_symmetry_cell_setting 'orthorhombic'
loop_
_space_group_symop_operation_xyz
x,y,z
1/2-x,-y,z
1/2+x,-y,-z
-x,y,-z
-x,-y,-z
1/2+x,y,-z
1/2-x,y,z
x,-y,z
loop_
_atom_site_type_symbol
_atom_site_label
_atom_site_fract_x
_atom_site_fract_y
_atom_site_fract_z
Si Si1 0.957806 0.666690 0.073810
Si Si2 0.295794 0.335512 0.628279
Si Si3 0.126058 0.331882 0.444327
Si Si4 0.665073 0.161582 0.129306
Si Si5 0.082684 0.837816 0.683957
Si Si6 0.122906 0.333413 0.107922
O O1 0.958805 0.500000 0.118418
O O2 0.952474 0.757087 0.223511
O O3 0.921843 0.698559 0.957728
O O4 0.000000 0.716362 0.000000
O O5 0.250000 0.311762 0.564458
O O6 0.303029 0.500000 0.675280
O O7 0.328496 0.291796 0.503181
O O8 0.300380 0.240968 0.775205
O O9 0.116729 0.500000 0.463141
O O10 0.091065 0.245632 0.532165
O O11 0.123269 0.282772 0.276181
O O12 0.623511 0.163979 0.220725
O O13 0.679655 0.000000 0.095572
O O14 0.657897 0.243874 0.976180
O O15 0.068407 0.000000 0.649194
O O16 0.134502 0.500000 0.093106
#
# Coordination Sequence:
#
# PCOD8214895 Si02
#       6
#     8   8   8   8   8   8
#     4   9  17  30  48  68  90 119 156 196 235 275
#     4   9  17  30  48  68  89 115 148 184 221 263
#     4   9  17  30  48  68  91 120 152 186 226 274
#     4   9  17  29  46  67  90 117 149 183 219 264
#     4   9  17  29  46  67  90 119 153 186 224 272
#     4   9  17  30  48  69  92 119 153 191 230 273
#
# _framework density 17.394404999999999
#
# number of rings (size 3 to 8) (size 9 to 14) (size 15 to 20)
#    0.000    3.000    0.000    1.000    0.000    5.333 
#    0.000    1.667    0.000    8.000    0.000    0.000 
#    0.000    0.000    0.000    0.000    0.000    0.000 
#
# Total GULP energy -595173.590473 kJ/mol
# GULP energy per Si atom -12399.449802 kJ/mol
# Density = 1.735481 g / cm^3
# Si number density = 17.394405 Si / 1000 Ang^3
#
#
#
# Elastic Constant Matrix: (Units=GPa)
#
#
# Indices 1 2 3 4 5 6 
#
# 1 52.7884 21.8819 23.7976 0.0000 0.0000 0.0000
# 2 21.8819 78.3977 50.6505 0.0000 0.0000 0.0000
# 3 23.7976 50.6505 121.5596 0.0000 0.0000 0.0000
# 4 0.0000 0.0000 0.0000 17.3603 0.0000 0.0000
# 5 0.0000 0.0000 0.0000 0.0000 17.6048 0.0000
# 6 0.0000 0.0000 0.0000 0.0000 0.0000 14.2401
#
#
#
# Elastic Compliance Matrix: (Units=1/GPa)
#
#
# Indices 1 2 3 4 5 6 
#
# 1 0.021915 -0.004577 -0.002383 0.000000 0.000000 0.000000
# 2 -0.004577 0.018410 -0.006775 0.000000 0.000000 0.000000
# 3 -0.002383 -0.006775 0.011516 0.000000 0.000000 0.000000
# 4 0.000000 0.000000 0.000000 0.057603 0.000000 0.000000
# 5 0.000000 0.000000 0.000000 0.000000 0.056803 0.000000
# 6 0.000000 0.000000 0.000000 0.000000 0.000000 0.070224
#
#
# Mechanical properties :
#
#
# Convention : Reuss Voigt Hill
#
# Bulk Modulus (GPa) = 41.03277 49.48953 45.26115
# Shear Modulus (GPa) = 18.37796 20.26874 19.32335
#
# Velocity S-wave (km/s) = 3.25398 3.41727 3.33662
# Velocity P-wave (km/s) = 6.14481 6.63954 6.39696
#
# Compressibility (1/GPa) = 0.02437076
#
# Stress axis : x y z
#
# Youngs Moduli (GPa) = 45.63038 54.31797 86.83658
#
# Poissons Ratio (x) = 0.24862 0.20694
# Poissons Ratio (y) = 0.20886 0.58831
# Poissons Ratio (z) = 0.10874 0.36800
#
# Static dielectric constant tensor:
#      x y z
#    x 3.057630 0.000000 0.000000 
#    y 0.000000 3.337460 0.000000 
#    z 0.000000 0.000000 3.200250 
# 
# 
# High freq. dielectric constant tensor:
#      x y z
#    x 1.648000 0.000000 0.000000 
#    y 0.000000 1.672600 0.000000 
#    z 0.000000 0.000000 1.662630 
# 
# From -- ./inp_files/12786.got.cif
#   From: 2010.03.12/outbox.cif.g09.slc.cpg/sg51_7_cif.got.tgz:12786.got - 2010.04.16 13:43:02.
