data_PCOD8214605
_publ_section_title
;
Structure prediction by ZEFSAII (Michael W. Deem and Ramdas Pophale) SiO2 
 PCOD8214605
Probable space group: P M M A
;
_chemical_formula_sum "Si O2"
_cell_formula_units_Z 56
_cell_length_a 14.501361
_cell_length_b 9.344821
_cell_length_c 22.211299
_cell_angle_alpha 90.000000
_cell_angle_beta 90.000000
_cell_angle_gamma 90.000000
_cell_volume 3009.911383
_symmetry_space_group_name_H-M "P M M A"
_symmetry_group_IT_number 51
_symmetry_cell_setting 'orthorhombic'
loop_
_space_group_symop_operation_xyz
x,y,z
1/2-x,-y,z
1/2+x,-y,-z
-x,y,-z
-x,-y,-z
1/2+x,y,-z
1/2-x,y,z
x,-y,z
loop_
_atom_site_type_symbol
_atom_site_label
_atom_site_fract_x
_atom_site_fract_y
_atom_site_fract_z
Si Si1 0.250000 0.331033 0.458473
Si Si2 0.908387 0.162569 0.340371
Si Si3 0.848271 0.167923 0.751556
Si Si4 0.461542 0.331032 0.909506
Si Si5 0.886771 0.835035 0.620702
Si Si6 0.037257 0.167199 0.794378
Si Si7 0.645827 0.669247 0.972230
Si Si8 0.750000 0.667148 0.401855
O O1 0.250000 0.500000 0.446649
O O2 0.342975 0.262007 0.431348
O O3 0.250000 0.292562 0.528436
O O4 0.914836 0.200176 0.269348
O O5 0.839573 0.271200 0.370378
O O6 0.003457 0.181526 0.376393
O O7 0.873032 0.000000 0.347007
O O8 0.750000 0.203802 0.782895
O O9 0.846388 0.225794 0.683434
O O10 0.931981 0.228143 0.790641
O O11 0.867277 0.000000 0.744856
O O12 0.460315 0.500000 0.899831
O O13 0.420761 0.255382 0.849762
O O14 0.567024 0.278846 0.924752
O O15 0.390738 0.285381 0.961932
O O16 0.858692 0.000000 0.609141
O O17 0.043043 0.000000 0.809822
O O18 0.750000 0.732904 0.960423
O O19 0.651601 0.500000 0.968765
O O20 0.750000 0.500000 0.391187
#
# Coordination Sequence:
#
# PCOD8214605 Si02
#       8
#     4   8   8   8   8   8   8   4
#     4  11  23  35  51  81 115 141 168 213 276 329
#     4   9  20  39  60  79 103 139 182 225 267 312
#     4   8  13  25  48  73  98 130 166 203 249 309
#     4   9  17  30  50  74  98 130 173 212 247 296
#     4   9  17  33  58  81 100 133 180 220 256 314
#     4   9  18  32  51  76 105 135 165 209 267 309
#     4   8  15  30  50  70  98 136 172 209 249 290
#     4  11  25  41  55  75 107 145 178 217 274 325
#
# _framework density 18.605198999999999
#
# number of rings (size 3 to 8) (size 9 to 14) (size 15 to 20)
#    0.000    3.000    0.714    3.000    0.000    3.429 
#    1.286    6.429    0.000    0.857    0.000    0.000 
#    0.000    0.000    0.000    0.000    0.000    0.000 
#
# Total GULP energy -693853.964353 kJ/mol
# GULP energy per Si atom -12390.249363 kJ/mol
# Density = 1.856285 g / cm^3
# Si number density = 18.605199 Si / 1000 Ang^3
#
#
#
# Elastic Constant Matrix: (Units=GPa)
#
#
# Indices 1 2 3 4 5 6 
#
# 1 74.0301 21.3790 25.8240 0.0000 0.0000 0.0000
# 2 21.3790 51.3946 50.3339 0.0000 0.0000 0.0000
# 3 25.8240 50.3339 109.6970 0.0000 0.0000 0.0000
# 4 0.0000 0.0000 0.0000 30.4690 0.0000 0.0000
# 5 0.0000 0.0000 0.0000 0.0000 16.7680 0.0000
# 6 0.0000 0.0000 0.0000 0.0000 0.0000 19.0331
#
#
#
# Elastic Compliance Matrix: (Units=1/GPa)
#
#
# Indices 1 2 3 4 5 6 
#
# 1 0.015446 -0.005201 -0.001250 0.000000 0.000000 0.000000
# 2 -0.005201 0.037088 -0.015793 0.000000 0.000000 0.000000
# 3 -0.001250 -0.015793 0.016657 0.000000 0.000000 0.000000
# 4 0.000000 0.000000 0.000000 0.032820 0.000000 0.000000
# 5 0.000000 0.000000 0.000000 0.000000 0.059638 0.000000
# 6 0.000000 0.000000 0.000000 0.000000 0.000000 0.052540
#
#
# Mechanical properties :
#
#
# Convention : Reuss Voigt Hill
#
# Bulk Modulus (GPa) = 40.48152 47.79951 44.14052
# Shear Modulus (GPa) = 18.73277 22.42633 20.57955
#
# Velocity S-wave (km/s) = 3.17654 3.47562 3.32944
# Velocity P-wave (km/s) = 5.93796 6.46946 6.20940
#
# Compressibility (1/GPa) = 0.02470263
#
# Stress axis : x y z
#
# Youngs Moduli (GPa) = 64.74167 26.96265 60.03539
#
# Poissons Ratio (x) = 0.14025 0.07502
# Poissons Ratio (y) = 0.33675 0.94816
# Poissons Ratio (z) = 0.08090 0.42583
#
# Static dielectric constant tensor:
#      x y z
#    x 3.603410 0.000000 0.000000 
#    y 0.000000 3.016390 0.000000 
#    z 0.000000 0.000000 3.329700 
# 
# 
# High freq. dielectric constant tensor:
#      x y z
#    x 1.725220 0.000000 0.000000 
#    y 0.000000 1.684950 0.000000 
#    z 0.000000 0.000000 1.718280 
# 
# From -- ./inp_files/33601.got.cif
#   From: 2010.03.12/outbox.cif.g09.slc.cpg/sg51_17_cif.got.tgz:33601.got - 2010.04.16 13:43:02.
