data_PCOD8214608
_publ_section_title
;
Structure prediction by ZEFSAII (Michael W. Deem and Ramdas Pophale) SiO2 
 PCOD8214608
Probable space group: P M M A
;
_chemical_formula_sum "Si O2"
_cell_formula_units_Z 64
_cell_length_a 9.097506
_cell_length_b 14.561430
_cell_length_c 28.738935
_cell_angle_alpha 90.000000
_cell_angle_beta 90.000000
_cell_angle_gamma 90.000000
_cell_volume 3807.124222
_symmetry_space_group_name_H-M "P M M A"
_symmetry_group_IT_number 51
_symmetry_cell_setting 'orthorhombic'
loop_
_space_group_symop_operation_xyz
x,y,z
1/2-x,-y,z
1/2+x,-y,-z
-x,y,-z
-x,-y,-z
1/2+x,y,-z
1/2-x,y,z
x,-y,z
loop_
_atom_site_type_symbol
_atom_site_label
_atom_site_fract_x
_atom_site_fract_y
_atom_site_fract_z
Si Si1 0.923002 0.393807 0.637829
Si Si2 0.920853 0.105459 0.132868
Si Si3 0.423529 0.718730 0.274523
Si Si4 0.921397 0.393526 0.913853
Si Si5 0.915143 0.390892 0.455273
Si Si6 0.077215 0.102513 0.227356
Si Si7 0.923993 0.772589 0.046050
Si Si8 0.575277 0.601279 0.809704
O O1 0.750000 0.381696 0.630229
O O2 0.960511 0.500000 0.649687
O O3 0.986158 0.328066 0.678722
O O4 0.002135 0.359431 0.591249
O O5 0.750000 0.121270 0.142439
O O6 0.975891 0.165968 0.089615
O O7 0.005126 0.135970 0.179382
O O8 0.955981 0.000000 0.120780
O O9 0.250000 0.703736 0.275393
O O10 0.464655 0.826841 0.269193
O O11 0.490809 0.669134 0.229020
O O12 0.750000 0.370407 0.921062
O O13 0.951987 0.500000 0.925109
O O14 0.973711 0.369440 0.861361
O O15 0.019393 0.331610 0.947715
O O16 0.750000 0.351320 0.454860
O O17 0.912790 0.500000 0.458265
O O18 0.000000 0.350150 0.500000
O O19 0.250000 0.104595 0.218543
O O20 0.023600 0.000000 0.241511
O O21 0.750000 0.773765 0.039684
O O22 0.000000 0.814202 0.000000
O O23 0.750000 0.600054 0.808246
O O24 0.514659 0.500000 0.798168
#
# Coordination Sequence:
#
# PCOD8214608 Si02
#       8
#     8   8   8   8   8   8   8   8
#     4   9  16  25  38  58  85 118 154 186 217 255
#     4   9  19  36  54  71  92 116 142 175 219 270
#     4   9  15  23  38  61  90 118 142 175 215 252
#     4   9  18  33  52  71  91 117 149 183 216 252
#     4   9  16  26  40  57  80 113 152 191 226 259
#     4   9  17  29  47  70  91 114 147 182 214 253
#     4  11  23  36  51  70  91 115 142 176 219 265
#     4   8  13  22  39  63  86 109 140 174 206 243
#
# _framework density 16.810589
#
# number of rings (size 3 to 8) (size 9 to 14) (size 15 to 20)
#    0.000    2.875    0.000    2.625    0.000    5.750 
#    0.000    0.625    0.000    0.750    0.000    1.750 
#    0.000    0.500    0.000    0.875    0.000    1.250 
#
# Total GULP energy -793340.224724 kJ/mol
# GULP energy per Si atom -12395.941011 kJ/mol
# Density = 1.677233 g / cm^3
# Si number density = 16.810589 Si / 1000 Ang^3
#
#
#
# Elastic Constant Matrix: (Units=GPa)
#
#
# Indices 1 2 3 4 5 6 
#
# 1 45.4259 25.5912 35.9280 0.0000 0.0000 0.0000
# 2 25.5912 75.3134 56.3038 0.0000 0.0000 0.0000
# 3 35.9280 56.3038 115.4228 0.0000 0.0000 0.0000
# 4 0.0000 0.0000 0.0000 19.0540 0.0000 0.0000
# 5 0.0000 0.0000 0.0000 0.0000 23.0608 0.0000
# 6 0.0000 0.0000 0.0000 0.0000 0.0000 14.9235
#
#
#
# Elastic Compliance Matrix: (Units=1/GPa)
#
#
# Indices 1 2 3 4 5 6 
#
# 1 0.030411 -0.005126 -0.006966 0.000000 0.000000 0.000000
# 2 -0.005126 0.021764 -0.009021 0.000000 0.000000 0.000000
# 3 -0.006966 -0.009021 0.015232 0.000000 0.000000 0.000000
# 4 0.000000 0.000000 0.000000 0.052483 0.000000 0.000000
# 5 0.000000 0.000000 0.000000 0.000000 0.043364 0.000000
# 6 0.000000 0.000000 0.000000 0.000000 0.000000 0.067008
#
#
# Mechanical properties :
#
#
# Convention : Reuss Voigt Hill
#
# Bulk Modulus (GPa) = 39.71095 52.42314 46.06704
# Shear Modulus (GPa) = 17.80120 19.29694 18.54907
#
# Velocity S-wave (km/s) = 3.25765 3.39175 3.32537
# Velocity P-wave (km/s) = 6.15009 6.82575 6.49671
#
# Compressibility (1/GPa) = 0.02518197
#
# Stress axis : x y z
#
# Youngs Moduli (GPa) = 32.88295 45.94848 65.64981
#
# Poissons Ratio (x) = 0.23554 0.45729
# Poissons Ratio (y) = 0.16856 0.59221
# Poissons Ratio (z) = 0.22905 0.41449
#
# Static dielectric constant tensor:
#      x y z
#    x 2.911360 0.000000 0.000000 
#    y 0.000000 3.155190 0.000000 
#    z 0.000000 0.000000 3.236910 
# 
# 
# High freq. dielectric constant tensor:
#      x y z
#    x 1.623700 0.000000 0.000000 
#    y 0.000000 1.628550 0.000000 
#    z 0.000000 0.000000 1.640450 
# 
# From -- ./inp_files/37600.got.cif
#   From: 2010.03.12/outbox.cif.g09.slc.cpg/sg51_19_cif.got.tgz:37600.got - 2010.04.16 13:43:02.
