data_PCOD8214719
_publ_section_title
;
Structure prediction by ZEFSAII (Michael W. Deem and Ramdas Pophale) SiO2 
 PCOD8214719
Probable space group: P M M A
;
_chemical_formula_sum "Si O2"
_cell_formula_units_Z 40
_cell_length_a 9.847499
_cell_length_b 9.199602
_cell_length_c 25.803531
_cell_angle_alpha 90.000000
_cell_angle_beta 90.000000
_cell_angle_gamma 90.000000
_cell_volume 2337.621129
_symmetry_space_group_name_H-M "P M M A"
_symmetry_group_IT_number 51
_symmetry_cell_setting 'orthorhombic'
loop_
_space_group_symop_operation_xyz
x,y,z
1/2-x,-y,z
1/2+x,-y,-z
-x,y,-z
-x,-y,-z
1/2+x,y,-z
1/2-x,y,z
x,-y,z
loop_
_atom_site_type_symbol
_atom_site_label
_atom_site_fract_x
_atom_site_fract_y
_atom_site_fract_z
Si Si1 0.097834 0.672716 0.658608
Si Si2 0.097786 0.672996 0.543726
Si Si3 0.406683 0.330453 0.047763
Si Si4 0.407086 0.670800 0.250366
Si Si5 0.411254 0.163679 0.149073
O O1 0.250000 0.728320 0.671643
O O2 0.096102 0.500000 0.659262
O O3 0.054033 0.727103 0.601184
O O4 0.991963 0.732454 0.700899
O O5 0.250000 0.726011 0.531535
O O6 0.090699 0.500000 0.541986
O O7 0.000000 0.741662 0.500000
O O8 0.250000 0.292021 0.035110
O O9 0.423131 0.500000 0.060025
O O10 0.462535 0.243938 0.097449
O O11 0.500000 0.281812 0.000000
O O12 0.250000 0.707608 0.260896
O O13 0.428893 0.500000 0.241861
O O14 0.464217 0.751125 0.199508
O O15 0.250000 0.165035 0.149464
O O16 0.468833 0.000000 0.149769
#
# Coordination Sequence:
#
# PCOD8214719 Si02
#       5
#     8   8   8   8   8
#     4   8  14  24  36  52  77 108 138 168 207 252
#     4   8  13  20  30  46  71 103 135 165 200 244
#     4   9  17  30  48  68  89 113 141 172 205 243
#     4   9  16  26  42  62  80 102 138 178 207 238
#     4   9  17  29  45  64  86 112 140 171 209 249
#
# _framework density 17.111412999999999
#
# number of rings (size 3 to 8) (size 9 to 14) (size 15 to 20)
#    0.000    3.400    0.000    1.800    0.000    3.600 
#    0.000    5.000    0.000    6.600    0.000    0.000 
#    0.000    0.800    0.000    1.800    0.000    3.600 
#
# Total GULP energy -495791.354226 kJ/mol
# GULP energy per Si atom -12394.783856 kJ/mol
# Density = 1.707247 g / cm^3
# Si number density = 17.111413 Si / 1000 Ang^3
#
#
#
# Elastic Constant Matrix: (Units=GPa)
#
#
# Indices 1 2 3 4 5 6 
#
# 1 75.5142 25.7634 87.1956 0.0000 0.0000 0.0000
# 2 25.7634 40.7328 49.0959 0.0000 0.0000 0.0000
# 3 87.1956 49.0959 193.1246 0.0000 0.0000 0.0000
# 4 0.0000 0.0000 0.0000 2.6991 0.0000 0.0000
# 5 0.0000 0.0000 0.0000 0.0000 35.0870 0.0000
# 6 0.0000 0.0000 0.0000 0.0000 0.0000 7.4948
#
#
#
# Elastic Compliance Matrix: (Units=1/GPa)
#
#
# Indices 1 2 3 4 5 6 
#
# 1 0.028021 -0.003567 -0.011745 0.000000 0.000000 0.000000
# 2 -0.003567 0.035850 -0.007503 0.000000 0.000000 0.000000
# 3 -0.011745 -0.007503 0.012388 0.000000 0.000000 0.000000
# 4 0.000000 0.000000 0.000000 0.370494 0.000000 0.000000
# 5 0.000000 0.000000 0.000000 0.000000 0.028501 0.000000
# 6 0.000000 0.000000 0.000000 0.000000 0.000000 0.133426
#
#
# Mechanical properties :
#
#
# Convention : Reuss Voigt Hill
#
# Bulk Modulus (GPa) = 32.64851 70.38681 51.51766
# Shear Modulus (GPa) = 7.52423 18.87729 13.20076
#
# Velocity S-wave (km/s) = 2.09923 3.32505 2.78053
# Velocity P-wave (km/s) = 4.99970 7.48097 6.36247
#
# Compressibility (1/GPa) = 0.03062927
#
# Stress axis : x y z
#
# Youngs Moduli (GPa) = 35.68761 27.89384 80.72253
#
# Poissons Ratio (x) = 0.09950 0.94805
# Poissons Ratio (y) = 0.12731 0.60568
# Poissons Ratio (z) = 0.41914 0.20929
#
# Static dielectric constant tensor:
#      x y z
#    x 3.146400 0.000000 0.000000 
#    y 0.000000 2.822170 0.000000 
#    z 0.000000 0.000000 3.547270 
# 
# 
# High freq. dielectric constant tensor:
#      x y z
#    x 1.637570 0.000000 0.000000 
#    y 0.000000 1.613450 0.000000 
#    z 0.000000 0.000000 1.674710 
# 
# From -- ./inp_files/28800.got.cif
#   From: 2010.03.12/outbox.cif.g09.slc.cpg/sg51_15_cif.got.tgz:28800.got - 2010.04.16 13:43:02.
