data_PCOD8214177
_publ_section_title
;
Structure prediction by ZEFSAII (Michael W. Deem and Ramdas Pophale) SiO2 
 PCOD8214177
Probable space group: P M M A
;
_chemical_formula_sum "Si O2"
_cell_formula_units_Z 44
_cell_length_a 9.679470
_cell_length_b 7.575491
_cell_length_c 33.853476
_cell_angle_alpha 90.000000
_cell_angle_beta 90.000000
_cell_angle_gamma 90.000000
_cell_volume 2482.364961
_symmetry_space_group_name_H-M "P M M A"
_symmetry_group_IT_number 51
_symmetry_cell_setting 'orthorhombic'
loop_
_space_group_symop_operation_xyz
x,y,z
1/2-x,-y,z
1/2+x,-y,-z
-x,y,-z
-x,-y,-z
1/2+x,y,-z
1/2-x,y,z
x,-y,z
loop_
_atom_site_type_symbol
_atom_site_label
_atom_site_fract_x
_atom_site_fract_y
_atom_site_fract_z
Si Si1 0.589849 0.500000 0.461118
Si Si2 0.412982 0.500000 0.097037
Si Si3 0.596925 0.209355 0.671862
Si Si4 0.090169 0.796950 0.600515
Si Si5 0.915272 0.500000 0.814874
Si Si6 0.410238 0.201713 0.037939
Si Si7 0.414525 0.195826 0.241337
O O1 0.750000 0.500000 0.473111
O O2 0.500000 0.500000 0.500000
O O3 0.552344 0.323708 0.436790
O O4 0.250000 0.500000 0.101446
O O5 0.478015 0.500000 0.140888
O O6 0.460809 0.324689 0.073825
O O7 0.750000 0.287936 0.663802
O O8 0.494181 0.276887 0.638012
O O9 0.541527 0.267368 0.715173
O O10 0.604660 0.000000 0.671576
O O11 0.250000 0.777602 0.611733
O O12 0.052154 0.000000 0.590244
O O13 0.750000 0.500000 0.815317
O O14 0.971501 0.672976 0.792207
O O15 0.250000 0.236471 0.027484
O O16 0.435169 0.000000 0.050944
O O17 0.500000 0.251900 0.000000
O O18 0.250000 0.187559 0.240418
O O19 0.475230 0.000000 0.233069
#
# Coordination Sequence:
#
# PCOD8214177 Si02
#       7
#     4   4   8   8   4   8   8
#     4  10  22  37  50  68  93 119 150 183 215 259
#     4   9  17  27  39  59  87 115 145 181 216 256
#     4   8  14  26  45  69  93 115 144 182 219 255
#     4   9  18  33  51  70  93 119 146 180 222 263
#     4   9  16  24  36  57  84 116 148 172 208 259
#     4   9  17  29  45  65  87 110 139 178 223 267
#     4   8  14  24  37  56  85 115 141 174 212 249
#
# _framework density 17.725033
#
# number of rings (size 3 to 8) (size 9 to 14) (size 15 to 20)
#    0.000    3.273    0.000    1.364    0.000    2.545 
#    0.000    4.545    0.000    0.000    0.000    2.545 
#    0.000    5.818    0.000    0.000    0.000    0.000 
#
# Total GULP energy -545381.597231 kJ/mol
# GULP energy per Si atom -12395.036301 kJ/mol
# Density = 1.768469 g / cm^3
# Si number density = 17.725033 Si / 1000 Ang^3
#
#
#
# Elastic Constant Matrix: (Units=GPa)
#
#
# Indices 1 2 3 4 5 6 
#
# 1 39.7236 30.4143 55.2282 0.0000 0.0000 0.0000
# 2 30.4143 108.1264 85.6266 0.0000 0.0000 0.0000
# 3 55.2282 85.6266 182.4736 0.0000 0.0000 0.0000
# 4 0.0000 0.0000 0.0000 27.7462 0.0000 0.0000
# 5 0.0000 0.0000 0.0000 0.0000 20.3145 0.0000
# 6 0.0000 0.0000 0.0000 0.0000 0.0000 11.6086
#
#
#
# Elastic Compliance Matrix: (Units=1/GPa)
#
#
# Indices 1 2 3 4 5 6 
#
# 1 0.044033 -0.002915 -0.011959 0.000000 0.000000 0.000000
# 2 -0.002915 0.014911 -0.006115 0.000000 0.000000 0.000000
# 3 -0.011959 -0.006115 0.011969 0.000000 0.000000 0.000000
# 4 0.000000 0.000000 0.000000 0.036041 0.000000 0.000000
# 5 0.000000 0.000000 0.000000 0.000000 0.049226 0.000000
# 6 0.000000 0.000000 0.000000 0.000000 0.000000 0.086143
#
#
# Mechanical properties :
#
#
# Convention : Reuss Voigt Hill
#
# Bulk Modulus (GPa) = 34.56038 74.76244 54.66141
# Shear Modulus (GPa) = 17.00995 22.53750 19.77372
#
# Velocity S-wave (km/s) = 3.10119 3.56969 3.34366
# Velocity P-wave (km/s) = 5.68890 7.69810 6.76847
#
# Compressibility (1/GPa) = 0.02893487
#
# Stress axis : x y z
#
# Youngs Moduli (GPa) = 22.71024 67.06634 83.54788
#
# Poissons Ratio (x) = 0.19551 0.99917
# Poissons Ratio (y) = 0.06620 0.51086
# Poissons Ratio (z) = 0.27160 0.41008
#
# Static dielectric constant tensor:
#      x y z
#    x 3.276960 0.000000 0.000000 
#    y 0.000000 3.497250 0.000000 
#    z 0.000000 0.000000 3.449000 
# 
# 
# High freq. dielectric constant tensor:
#      x y z
#    x 1.635810 0.000000 0.000000 
#    y 0.000000 1.693270 0.000000 
#    z 0.000000 0.000000 1.682920 
# 
# From -- ./inp_files/36864.got.cif
#   From: 2010.03.12/outbox.cif.g09.slc.cpg/sg51_19_cif.got.tgz:36864.got - 2010.04.16 13:43:02.
