data_PCOD8214859
_publ_section_title
;
Structure prediction by ZEFSAII (Michael W. Deem and Ramdas Pophale) SiO2 
 PCOD8214859
Probable space group: P M M A
;
_chemical_formula_sum "Si O2"
_cell_formula_units_Z 48
_cell_length_a 9.147460
_cell_length_b 9.453690
_cell_length_c 31.197938
_cell_angle_alpha 90.000000
_cell_angle_beta 90.000000
_cell_angle_gamma 90.000000
_cell_volume 2697.911919
_symmetry_space_group_name_H-M "P M M A"
_symmetry_group_IT_number 51
_symmetry_cell_setting 'orthorhombic'
loop_
_space_group_symop_operation_xyz
x,y,z
1/2-x,-y,z
1/2+x,-y,-z
-x,y,-z
-x,-y,-z
1/2+x,y,-z
1/2-x,y,z
x,-y,z
loop_
_atom_site_type_symbol
_atom_site_label
_atom_site_fract_x
_atom_site_fract_y
_atom_site_fract_z
Si Si1 0.585120 0.831489 0.041205
Si Si2 0.584964 0.331575 0.291992
Si Si3 0.420068 0.836182 0.125278
Si Si4 0.419886 0.335895 0.207884
Si Si5 0.415439 0.668722 0.374890
Si Si6 0.415513 0.331380 0.541690
O O1 0.750000 0.773433 0.040234
O O2 0.507403 0.777418 0.084349
O O3 0.582214 0.000000 0.039955
O O4 0.500000 0.770166 0.000000
O O5 0.750000 0.273267 0.293914
O O6 0.583286 0.500000 0.293152
O O7 0.509133 0.277634 0.248537
O O8 0.495810 0.271916 0.332624
O O9 0.250000 0.810867 0.115954
O O10 0.473643 0.749765 0.166519
O O11 0.454401 0.000000 0.133865
O O12 0.250000 0.309039 0.217424
O O13 0.452358 0.500000 0.199335
O O14 0.250000 0.726754 0.375872
O O15 0.415113 0.500000 0.374685
O O16 0.501520 0.726161 0.416337
O O17 0.500000 0.273544 0.500000
O O18 0.250000 0.273047 0.541490
O O19 0.414434 0.500000 0.541614
#
# Coordination Sequence:
#
# PCOD8214859 Si02
#       6
#     8   8   8   8   8   8
#     4   9  16  26  42  64  88 112 138 169 204 241
#     4   9  16  25  37  53  72  95 126 164 202 239
#     4   9  17  29  45  65  88 112 138 169 205 244
#     4   9  17  29  44  61  82 109 139 170 205 245
#     4   9  15  22  32  45  62  86 118 157 199 241
#     4   9  15  21  28  39  57  82 114 153 197 243
#
# _framework density 17.791537000000002
#
# number of rings (size 3 to 8) (size 9 to 14) (size 15 to 20)
#    0.000    3.000    0.000    2.000    0.000    8.667 
#    0.000    0.000    0.000    0.500    0.000    0.000 
#    0.000    0.000    0.000    0.000    0.000    0.833 
#
# Total GULP energy -595157.781170 kJ/mol
# GULP energy per Si atom -12399.120441 kJ/mol
# Density = 1.775104 g / cm^3
# Si number density = 17.791537 Si / 1000 Ang^3
#
#
#
# Elastic Constant Matrix: (Units=GPa)
#
#
# Indices 1 2 3 4 5 6 
#
# 1 153.9002 16.6937 109.9575 0.0000 0.0000 0.0000
# 2 16.6937 13.0459 26.3779 0.0000 0.0000 0.0000
# 3 109.9575 26.3779 208.2611 0.0000 0.0000 0.0000
# 4 0.0000 0.0000 0.0000 -0.0630 0.0000 0.0000
# 5 0.0000 0.0000 0.0000 0.0000 42.5443 0.0000
# 6 0.0000 0.0000 0.0000 0.0000 0.0000 7.3568
#
#
#
# Elastic Compliance Matrix: (Units=1/GPa)
#
#
# Indices 1 2 3 4 5 6 
#
# 1 0.010520 -0.002999 -0.005175 0.000000 0.000000 0.000000
# 2 -0.002999 0.103895 -0.011576 0.000000 0.000000 0.000000
# 3 -0.005175 -0.011576 0.009000 0.000000 0.000000 0.000000
# 4 0.000000 0.000000 0.000000-15.876931 0.000000 0.000000
# 5 0.000000 0.000000 0.000000 0.000000 0.023505 0.000000
# 6 0.000000 0.000000 0.000000 0.000000 0.000000 0.135929
#
#
# Mechanical properties :
#
#
# Convention : Reuss Voigt Hill
#
# Bulk Modulus (GPa) = 11.91657 75.69616 43.80637
# Shear Modulus (GPa) = -0.32203 24.77949 12.22873
#
# Velocity S-wave (km/s) = -0.42590 3.73603 2.62455
# Velocity P-wave (km/s) = 2.54373 7.82618 5.81892
#
# Compressibility (1/GPa) = 0.08391673
#
# Stress axis : x y z
#
# Youngs Moduli (GPa) = 95.05626 9.62506 111.11279
#
# Poissons Ratio (x) = 0.02887 0.57496
# Poissons Ratio (y) = 0.28508 1.28621
# Poissons Ratio (z) = 0.49187 0.11142
#
# Static dielectric constant tensor:
#      x y z
#    x 3.471080 0.000000 0.000000 
#    y 0.000000 2.539800 0.000000 
#    z 0.000000 0.000000 3.543540 
# 
# 
# High freq. dielectric constant tensor:
#      x y z
#    x 1.700620 0.000000 0.000000 
#    y 0.000000 1.598260 0.000000 
#    z 0.000000 0.000000 1.708070 
# 
# From -- ./inp_files/34555.got.cif
#   From: 2010.03.12/outbox.cif.g09.slc.cpg/sg51_18_cif.got.tgz:34555.got - 2010.04.16 13:43:02.
