data_PCOD8214972
_publ_section_title
;
Structure prediction by ZEFSAII (Michael W. Deem and Ramdas Pophale) SiO2 
 PCOD8214972
Probable space group: P N N A
;
_chemical_formula_sum "Si O2"
_cell_formula_units_Z 40
_cell_length_a 27.622692
_cell_length_b 5.044784
_cell_length_c 16.600133
_cell_angle_alpha 90.000000
_cell_angle_beta 90.000000
_cell_angle_gamma 90.000000
_cell_volume 2313.237077
_symmetry_space_group_name_H-M "P N N A"
_symmetry_group_IT_number 52
_symmetry_cell_setting 'orthorhombic'
loop_
_space_group_symop_operation_xyz
x,y,z
1/2-x,-y,z
x,1/2-y,1/2-z
1/2-x,1/2+y,1/2-z
-x,-y,-z
1/2+x,y,-z
-x,1/2+y,1/2+z
1/2+x,1/2-y,1/2+z
loop_
_atom_site_type_symbol
_atom_site_label
_atom_site_fract_x
_atom_site_fract_y
_atom_site_fract_z
Si Si1 0.361253 0.750786 0.116901
Si Si2 0.470788 0.114747 0.574974
Si Si3 0.013258 0.854426 0.149861
Si Si4 0.604658 0.745701 0.955792
Si Si5 0.782753 0.750000 0.750000
Si Si6 0.441310 0.750000 0.250000
O O1 0.355993 0.475406 0.069743
O O2 0.315285 0.812780 0.172274
O O3 0.409744 0.730099 0.170161
O O4 0.366987 0.976549 0.048913
O O5 0.494795 0.386050 0.602783
O O6 0.416040 0.181649 0.545186
O O7 0.500000 0.000000 0.500000
O O8 0.472854 0.882387 0.643884
O O9 0.061644 0.744906 0.109130
O O10 0.025815 0.978271 0.240131
O O11 0.750000 0.500000 0.769895
#
# Coordination Sequence:
#
# PCOD8214972 Si02
#       6
#     8   8   8   8   4   4
#     4  10  20  30  46  60  75 106 135 174 218 251
#     4  10  17  26  38  55  76 101 129 169 215 240
#     4  10  18  25  38  55  78 106 130 170 212 238
#     4  10  17  29  42  58  76  97 137 173 207 254
#     4  11  22  36  48  64  86 104 132 174 224 278
#     4   9  18  28  38  56  80 104 142 170 200 252
#
# _framework density 17.291785000000001
#
# number of rings (size 3 to 8) (size 9 to 14) (size 15 to 20)
#    0.000    2.000    0.000    9.600    0.000   10.400 
#    0.000    0.000    0.000    0.000    0.000    0.000 
#    0.000    0.000    0.000    0.000    0.000    0.000 
#
# Total GULP energy -495573.954647 kJ/mol
# GULP energy per Si atom -12389.348866 kJ/mol
# Density = 1.725243 g / cm^3
# Si number density = 17.291785 Si / 1000 Ang^3
#
#
#
# Elastic Constant Matrix: (Units=GPa)
#
#
# Indices 1 2 3 4 5 6 
#
# 1 56.2599 32.7385 26.4950 0.0000 0.0000 0.0000
# 2 32.7385 140.4366 21.6793 0.0000 0.0000 0.0000
# 3 26.4950 21.6793 39.1050 0.0000 0.0000 0.0000
# 4 0.0000 0.0000 0.0000 26.9783 0.0000 0.0000
# 5 0.0000 0.0000 0.0000 0.0000 25.0039 0.0000
# 6 0.0000 0.0000 0.0000 0.0000 0.0000 24.6908
#
#
#
# Elastic Compliance Matrix: (Units=1/GPa)
#
#
# Indices 1 2 3 4 5 6 
#
# 1 0.027955 -0.003929 -0.016762 0.000000 0.000000 0.000000
# 2 -0.003929 0.008339 -0.001961 0.000000 0.000000 0.000000
# 3 -0.016762 -0.001961 0.038016 0.000000 0.000000 0.000000
# 4 0.000000 0.000000 0.000000 0.037067 0.000000 0.000000
# 5 0.000000 0.000000 0.000000 0.000000 0.039994 0.000000
# 6 0.000000 0.000000 0.000000 0.000000 0.000000 0.040501
#
#
# Mechanical properties :
#
#
# Convention : Reuss Voigt Hill
#
# Bulk Modulus (GPa) = 34.47591 44.18080 39.32835
# Shear Modulus (GPa) = 20.25553 25.66051 22.95802
#
# Velocity S-wave (km/s) = 3.42628 3.85641 3.64769
# Velocity P-wave (km/s) = 5.96938 6.74054 6.36665
#
# Compressibility (1/GPa) = 0.02900576
#
# Stress axis : x y z
#
# Youngs Moduli (GPa) = 35.77153 119.91317 26.30446
#
# Poissons Ratio (x) = 0.47117 0.44092
# Poissons Ratio (y) = 0.14056 0.05158
# Poissons Ratio (z) = 0.59961 0.23515
#
# Static dielectric constant tensor:
#      x y z
#    x 2.951450 0.000000 0.000000 
#    y 0.000000 3.916800 0.000000 
#    z 0.000000 0.000000 3.446770 
# 
# 
# High freq. dielectric constant tensor:
#      x y z
#    x 1.599330 0.000000 0.000000 
#    y 0.000000 1.712890 0.000000 
#    z 0.000000 0.000000 1.638860 
# 
# From -- ./inp_files/33964.got.cif
#   From: 2010.06.25/outbox.cif.g09.slc.cpg/sg52_17_cif.got.tgz:33964.got - 2010.06.26 19:32:48.
