data_PCOD8214862
_publ_section_title
;
Structure prediction by ZEFSAII (Michael W. Deem and Ramdas Pophale) SiO2 
 PCOD8214862
Probable space group: P M M A
;
_chemical_formula_sum "Si O2"
_cell_formula_units_Z 56
_cell_length_a 19.640272
_cell_length_b 9.136779
_cell_length_c 18.843725
_cell_angle_alpha 90.000000
_cell_angle_beta 90.000000
_cell_angle_gamma 90.000000
_cell_volume 3381.484305
_symmetry_space_group_name_H-M "P M M A"
_symmetry_group_IT_number 51
_symmetry_cell_setting 'orthorhombic'
loop_
_space_group_symop_operation_xyz
x,y,z
1/2-x,-y,z
1/2+x,-y,-z
-x,y,-z
-x,-y,-z
1/2+x,y,-z
1/2-x,y,z
x,-y,z
loop_
_atom_site_type_symbol
_atom_site_label
_atom_site_fract_x
_atom_site_fract_y
_atom_site_fract_z
Si Si1 0.421902 0.165452 0.022908
Si Si2 0.356667 0.837059 0.758642
Si Si3 0.823663 0.667277 0.376751
Si Si4 0.388570 0.334981 0.889526
Si Si5 0.989107 0.835742 0.711124
Si Si6 0.469155 0.672143 0.574205
Si Si7 0.544923 0.665655 0.843144
O O1 0.411952 0.247652 0.097709
O O2 0.394563 0.000000 0.030270
O O3 0.500000 0.164427 0.000000
O O4 0.378532 0.250185 0.963500
O O5 0.318040 0.761950 0.693999
O O6 0.343221 0.745703 0.830166
O O7 0.436029 0.843638 0.742524
O O8 0.327351 0.000000 0.769085
O O9 0.750000 0.686003 0.416686
O O10 0.834801 0.500000 0.353204
O O11 0.888334 0.714237 0.424951
O O12 0.361855 0.500000 0.899006
O O13 0.466566 0.335429 0.865481
O O14 0.943681 0.745401 0.767376
O O15 0.989450 0.754208 0.635666
O O16 0.959643 0.000000 0.701575
O O17 0.500000 0.726223 0.500000
O O18 0.480254 0.500000 0.585072
O O19 0.572432 0.500000 0.837137
#
# Coordination Sequence:
#
# PCOD8214862 Si02
#       7
#     8   8   8   8   8   8   8
#     4   9  15  21  29  43  65  93 126 163 200 236
#     4   9  16  25  37  53  73  98 129 164 200 237
#     4   9  17  29  44  61  81 106 136 169 205 246
#     4   9  15  22  32  46  66  94 128 163 197 233
#     4   9  16  25  37  53  73  98 129 164 201 242
#     4   9  17  29  44  61  81 106 136 169 207 254
#     4   9  15  22  32  46  66  94 128 163 198 237
#
# _framework density 16.560775
#
# number of rings (size 3 to 8) (size 9 to 14) (size 15 to 20)
#    0.000    3.000    0.000    2.143    0.000    9.143 
#    0.000    0.000    0.000    0.000    0.000    0.000 
#    0.000    0.000    0.000    1.286    0.000   25.143 
#
# Total GULP energy -694083.357098 kJ/mol
# GULP energy per Si atom -12394.345662 kJ/mol
# Density = 1.652308 g / cm^3
# Si number density = 16.560775 Si / 1000 Ang^3
#
#
#
# Elastic Constant Matrix: (Units=GPa)
#
#
# Indices 1 2 3 4 5 6 
#
# 1 34.3972 20.2937 34.0440 0.0000 0.0000 0.0000
# 2 20.2937 129.2617 71.0036 0.0000 0.0000 0.0000
# 3 34.0440 71.0036 140.1853 0.0000 0.0000 0.0000
# 4 0.0000 0.0000 0.0000 24.7044 0.0000 0.0000
# 5 0.0000 0.0000 0.0000 0.0000 9.5204 0.0000
# 6 0.0000 0.0000 0.0000 0.0000 0.0000 4.5907
#
#
#
# Elastic Compliance Matrix: (Units=1/GPa)
#
#
# Indices 1 2 3 4 5 6 
#
# 1 0.038417 -0.001256 -0.008693 0.000000 0.000000 0.000000
# 2 -0.001256 0.010759 -0.005145 0.000000 0.000000 0.000000
# 3 -0.008693 -0.005145 0.011850 0.000000 0.000000 0.000000
# 4 0.000000 0.000000 0.000000 0.040479 0.000000 0.000000
# 5 0.000000 0.000000 0.000000 0.000000 0.105038 0.000000
# 6 0.000000 0.000000 0.000000 0.000000 0.000000 0.217833
#
#
# Mechanical properties :
#
#
# Convention : Reuss Voigt Hill
#
# Bulk Modulus (GPa) = 32.42659 61.61408 47.02034
# Shear Modulus (GPa) = 10.75629 19.66328 15.20978
#
# Velocity S-wave (km/s) = 2.55130 3.44952 3.03384
# Velocity P-wave (km/s) = 5.31994 7.29049 6.38173
#
# Compressibility (1/GPa) = 0.03083889
#
# Stress axis : x y z
#
# Youngs Moduli (GPa) = 26.02986 92.94238 84.38582
#
# Poissons Ratio (x) = 0.11674 0.73360
# Poissons Ratio (y) = 0.03270 0.43413
# Poissons Ratio (z) = 0.22629 0.47815
#
# Static dielectric constant tensor:
#      x y z
#    x 2.583960 0.000000 0.000000 
#    y 0.000000 3.368630 0.000000 
#    z 0.000000 0.000000 3.104020 
# 
# 
# High freq. dielectric constant tensor:
#      x y z
#    x 1.564180 0.000000 0.000000 
#    y 0.000000 1.655550 0.000000 
#    z 0.000000 0.000000 1.627110 
# 
# From -- ./inp_files/30432.got.cif
#   From: 2010.03.12/outbox.cif.g09.slc.cpg/sg51_16_cif.got.tgz:30432.got - 2010.04.16 13:43:02.
