data_PCOD8214585
_publ_section_title
;
Structure prediction by ZEFSAII (Michael W. Deem and Ramdas Pophale) SiO2 
 PCOD8214585
Probable space group: P M M A
;
_chemical_formula_sum "Si O2"
_cell_formula_units_Z 48
_cell_length_a 16.513281
_cell_length_b 8.595948
_cell_length_c 16.388285
_cell_angle_alpha 90.000000
_cell_angle_beta 90.000000
_cell_angle_gamma 90.000000
_cell_volume 2326.272886
_symmetry_space_group_name_H-M "P M M A"
_symmetry_group_IT_number 51
_symmetry_cell_setting 'orthorhombic'
loop_
_space_group_symop_operation_xyz
x,y,z
1/2-x,-y,z
1/2+x,-y,-z
-x,y,-z
-x,-y,-z
1/2+x,y,-z
1/2-x,y,z
x,-y,z
loop_
_atom_site_type_symbol
_atom_site_label
_atom_site_fract_x
_atom_site_fract_y
_atom_site_fract_z
Si Si1 0.917551 0.317368 0.956562
Si Si2 0.341692 0.183412 0.372878
Si Si3 0.658701 0.682977 0.461010
Si Si4 0.750000 0.174133 0.020024
Si Si5 0.750000 0.177259 0.212477
Si Si6 0.404706 0.681978 0.711013
Si Si7 0.060311 0.181327 0.218622
O O1 0.916200 0.500000 0.969650
O O2 0.919241 0.277731 0.861466
O O3 0.833448 0.253941 0.992246
O O4 0.000000 0.249695 0.000000
O O5 0.250000 0.242763 0.368023
O O6 0.381194 0.249158 0.456286
O O7 0.385259 0.248123 0.292439
O O8 0.349018 0.000000 0.375091
O O9 0.750000 0.750033 0.448452
O O10 0.662843 0.500000 0.468964
O O11 0.603464 0.730205 0.384091
O O12 0.750000 0.171439 0.116232
O O13 0.750000 0.000000 0.983784
O O14 0.823518 0.280690 0.242275
O O15 0.750000 0.000000 0.247481
O O16 0.426450 0.500000 0.720826
O O17 0.468962 0.792209 0.754210
O O18 0.075962 0.000000 0.201214
#
# Coordination Sequence:
#
# PCOD8214585 Si02
#       7
#     8   8   8   4   4   8   8
#     4  11  25  45  68  96 129 166 212 265 323 384
#     4   9  20  38  59  84 117 159 204 253 305 359
#     4   9  18  35  57  84 117 159 206 250 300 358
#     4  11  25  43  67  96 127 166 209 259 320 387
#     4  11  23  39  63  94 123 156 203 249 306 373
#     4  11  22  38  60  88 126 164 203 252 307 363
#     4  11  24  40  61  90 124 161 207 257 310 369
#
# _framework density 20.633865
#
# number of rings (size 3 to 8) (size 9 to 14) (size 15 to 20)
#    0.000    1.667    0.833    3.000    1.167    8.667 
#    0.000    3.333    0.000    0.000    0.000    0.000 
#    0.000    0.000    0.000    0.000    0.000    0.000 
#
# Total GULP energy -595149.472114 kJ/mol
# GULP energy per Si atom -12398.947336 kJ/mol
# Density = 2.058690 g / cm^3
# Si number density = 20.633865 Si / 1000 Ang^3
#
#
#
# Elastic Constant Matrix: (Units=GPa)
#
#
# Indices 1 2 3 4 5 6 
#
# 1 109.0868 25.5271 43.5801 0.0000 0.0000 0.0000
# 2 25.5271 48.3240 30.1339 0.0000 0.0000 0.0000
# 3 43.5801 30.1339 128.2500 0.0000 0.0000 0.0000
# 4 0.0000 0.0000 0.0000 36.9655 0.0000 0.0000
# 5 0.0000 0.0000 0.0000 0.0000 89.1720 0.0000
# 6 0.0000 0.0000 0.0000 0.0000 0.0000 36.3810
#
#
#
# Elastic Compliance Matrix: (Units=1/GPa)
#
#
# Indices 1 2 3 4 5 6 
#
# 1 0.011285 -0.004183 -0.002852 0.000000 0.000000 0.000000
# 2 -0.004183 0.025797 -0.004640 0.000000 0.000000 0.000000
# 3 -0.002852 -0.004640 0.009857 0.000000 0.000000 0.000000
# 4 0.000000 0.000000 0.000000 0.027052 0.000000 0.000000
# 5 0.000000 0.000000 0.000000 0.000000 0.011214 0.000000
# 6 0.000000 0.000000 0.000000 0.000000 0.000000 0.027487
#
#
# Mechanical properties :
#
#
# Convention : Reuss Voigt Hill
#
# Bulk Modulus (GPa) = 42.39283 53.79365 48.09324
# Shear Modulus (GPa) = 34.74533 44.93168 39.83851
#
# Velocity S-wave (km/s) = 4.10798 4.67151 4.39878
# Velocity P-wave (km/s) = 6.56434 7.43132 7.01124
#
# Compressibility (1/GPa) = 0.02358890
#
# Stress axis : x y z
#
# Youngs Moduli (GPa) = 88.61158 38.76476 101.45529
#
# Poissons Ratio (x) = 0.16215 0.28934
# Poissons Ratio (y) = 0.37066 0.47073
# Poissons Ratio (z) = 0.25271 0.17986
#
# Static dielectric constant tensor:
#      x y z
#    x 3.913140 0.000000 0.000000 
#    y 0.000000 3.704720 0.000000 
#    z 0.000000 0.000000 4.055420 
# 
# 
# High freq. dielectric constant tensor:
#      x y z
#    x 1.807030 0.000000 0.000000 
#    y 0.000000 1.803200 0.000000 
#    z 0.000000 0.000000 1.824360 
# 
# From -- ./inp_files/24930.got.cif
#   From: 2010.03.12/outbox.cif.g09.slc.cpg/sg51_13_cif.got.tgz:24930.got - 2010.04.16 13:43:02.
