data_PCOD8214731
_publ_section_title
;
Structure prediction by ZEFSAII (Michael W. Deem and Ramdas Pophale) SiO2 
 PCOD8214731
Probable space group: P M M A
;
_chemical_formula_sum "Si O2"
_cell_formula_units_Z 64
_cell_length_a 20.431832
_cell_length_b 9.470870
_cell_length_c 20.396277
_cell_angle_alpha 90.000000
_cell_angle_beta 90.000000
_cell_angle_gamma 90.000000
_cell_volume 3946.826957
_symmetry_space_group_name_H-M "P M M A"
_symmetry_group_IT_number 51
_symmetry_cell_setting 'orthorhombic'
loop_
_space_group_symop_operation_xyz
x,y,z
1/2-x,-y,z
1/2+x,-y,-z
-x,y,-z
-x,-y,-z
1/2+x,y,-z
1/2-x,y,z
x,-y,z
loop_
_atom_site_type_symbol
_atom_site_label
_atom_site_fract_x
_atom_site_fract_y
_atom_site_fract_z
Si Si1 0.430407 0.841578 0.580762
Si Si2 0.042762 0.838033 0.821973
Si Si3 0.098060 0.659180 0.317524
Si Si4 0.085165 0.158475 0.436220
Si Si5 0.557088 0.340904 0.300478
Si Si6 0.389608 0.162168 0.194698
Si Si7 0.323010 0.831960 0.062380
Si Si8 0.934120 0.167990 0.032712
O O1 0.399629 0.793274 0.510985
O O2 0.508126 0.840976 0.575447
O O3 0.407627 0.735345 0.637989
O O4 0.406775 0.000000 0.598168
O O5 0.075144 0.741890 0.765910
O O6 0.071269 0.785643 0.891530
O O7 0.964958 0.820787 0.824869
O O8 0.061658 0.000000 0.807259
O O9 0.125355 0.500000 0.318213
O O10 0.119432 0.734708 0.385366
O O11 0.129779 0.743271 0.257031
O O12 0.020292 0.660441 0.310563
O O13 0.111960 0.000000 0.424269
O O14 0.584022 0.500000 0.295618
O O15 0.347022 0.217985 0.133812
O O16 0.373700 0.000000 0.212197
O O17 0.250000 0.773442 0.049552
O O18 0.324294 0.000000 0.060415
O O19 0.371141 0.771818 0.006143
O O20 0.936967 0.000000 0.028103
O O21 0.000000 0.230726 0.000000
#
# Coordination Sequence:
#
# PCOD8214731 Si02
#       8
#     8   8   8   8   8   8   8   8
#     4   8  13  21  32  45  65  95 130 162 194 236
#     4   9  15  23  38  55  72  98 132 165 196 238
#     4   9  16  23  32  48  70  96 128 165 199 232
#     4   8  13  21  32  46  65  93 129 165 196 231
#     4   9  16  23  31  47  72  98 126 163 203 237
#     4   9  15  24  38  54  73  99 129 162 199 239
#     4   9  16  25  39  61  84 102 127 169 214 248
#     4   9  14  23  39  59  79 101 132 167 204 249
#
# _framework density 16.215557
#
# number of rings (size 3 to 8) (size 9 to 14) (size 15 to 20)
#    0.000    3.250    1.250    1.500    0.000    3.500 
#    0.000    2.500    0.000    1.500    0.000    0.000 
#    0.000    0.000    0.000    1.125    0.000   24.000 
#
# Total GULP energy -793224.240918 kJ/mol
# GULP energy per Si atom -12394.128764 kJ/mol
# Density = 1.617865 g / cm^3
# Si number density = 16.215557 Si / 1000 Ang^3
#
#
#
# Elastic Constant Matrix: (Units=GPa)
#
#
# Indices 1 2 3 4 5 6 
#
# 1 36.3638 18.1012 40.9157 0.0000 0.0000 0.0000
# 2 18.1012 88.4815 77.7774 0.0000 0.0000 0.0000
# 3 40.9157 77.7774 172.3564 0.0000 0.0000 0.0000
# 4 0.0000 0.0000 0.0000 8.0592 0.0000 0.0000
# 5 0.0000 0.0000 0.0000 0.0000 9.4042 0.0000
# 6 0.0000 0.0000 0.0000 0.0000 0.0000 3.4309
#
#
#
# Elastic Compliance Matrix: (Units=1/GPa)
#
#
# Indices 1 2 3 4 5 6 
#
# 1 0.037526 0.000255 -0.009023 0.000000 0.000000 0.000000
# 2 0.000255 0.018734 -0.008514 0.000000 0.000000 0.000000
# 3 -0.009023 -0.008514 0.011786 0.000000 0.000000 0.000000
# 4 0.000000 0.000000 0.000000 0.124082 0.000000 0.000000
# 5 0.000000 0.000000 0.000000 0.000000 0.106336 0.000000
# 6 0.000000 0.000000 0.000000 0.000000 0.000000 0.291467
#
#
# Mechanical properties :
#
#
# Convention : Reuss Voigt Hill
#
# Bulk Modulus (GPa) = 29.86838 63.42115 46.64477
# Shear Modulus (GPa) = 7.86589 14.87269 11.36929
#
# Velocity S-wave (km/s) = 2.20485 3.03179 2.65077
# Velocity P-wave (km/s) = 4.99413 7.17300 6.18034
#
# Compressibility (1/GPa) = 0.03348022
#
# Stress axis : x y z
#
# Youngs Moduli (GPa) = 26.64841 53.37882 84.84548
#
# Poissons Ratio (x) = -0.01360 0.76558
# Poissons Ratio (y) = -0.00679 0.72241
# Poissons Ratio (z) = 0.24045 0.45449
#
# Static dielectric constant tensor:
#      x y z
#    x 2.545240 0.000000 0.000000 
#    y 0.000000 2.969830 0.000000 
#    z 0.000000 0.000000 3.373840 
# 
# 
# High freq. dielectric constant tensor:
#      x y z
#    x 1.545860 0.000000 0.000000 
#    y 0.000000 1.598490 0.000000 
#    z 0.000000 0.000000 1.642230 
# 
# From -- ./inp_files/34058.got.cif
#   From: 2010.03.12/outbox.cif.g09.slc.cpg/sg51_18_cif.got.tgz:34058.got - 2010.04.16 13:43:02.
