data_PCOD8214249
_publ_section_title
;
Structure prediction by ZEFSAII (Michael W. Deem and Ramdas Pophale) SiO2 
 PCOD8214249
Probable space group: P M M A
;
_chemical_formula_sum "Si O2"
_cell_formula_units_Z 56
_cell_length_a 19.989901
_cell_length_b 9.442600
_cell_length_c 15.543162
_cell_angle_alpha 90.000000
_cell_angle_beta 90.000000
_cell_angle_gamma 90.000000
_cell_volume 2933.875021
_symmetry_space_group_name_H-M "P M M A"
_symmetry_group_IT_number 51
_symmetry_cell_setting 'orthorhombic'
loop_
_space_group_symop_operation_xyz
x,y,z
1/2-x,-y,z
1/2+x,-y,-z
-x,y,-z
-x,-y,-z
1/2+x,y,-z
1/2-x,y,z
x,-y,z
loop_
_atom_site_type_symbol
_atom_site_label
_atom_site_fract_x
_atom_site_fract_y
_atom_site_fract_z
Si Si1 0.374930 0.833518 0.136045
Si Si2 0.423081 0.653873 0.990930
Si Si3 0.750000 0.670919 0.886639
Si Si4 0.001796 0.157020 0.255690
Si Si5 0.630638 0.246321 0.174899
Si Si6 0.463204 0.668334 0.586407
Si Si7 0.250000 0.845165 0.939310
Si Si8 0.177429 0.662256 0.643763
O O1 0.312367 0.737699 0.166323
O O2 0.439867 0.793708 0.191181
O O3 0.358355 0.000000 0.137861
O O4 0.385473 0.783181 0.037497
O O5 0.405896 0.500000 0.032962
O O6 0.402047 0.642747 0.891395
O O7 0.500000 0.688180 0.000000
O O8 0.750000 0.500000 0.884484
O O9 0.750000 0.723299 0.987157
O O10 0.930188 0.148685 0.208403
O O11 0.003557 0.265991 0.334361
O O12 0.017756 0.000000 0.290619
O O13 0.686378 0.159430 0.123959
O O14 0.663588 0.327424 0.254735
O O15 0.500000 0.718764 0.500000
O O16 0.465123 0.500000 0.596967
O O17 0.385663 0.724875 0.589278
O O18 0.250000 0.000000 0.984825
O O19 0.250000 0.735713 0.621992
O O20 0.183967 0.500000 0.618538
#
# Coordination Sequence:
#
# PCOD8214249 Si02
#       8
#     8   8   4   8   8   8   4   8
#     4  11  23  39  57  78 107 145 191 241 290 340
#     4  11  22  34  51  78 111 150 195 242 285 326
#     4  12  26  40  56  78 105 146 197 248 295 342
#     4  10  22  38  59  85 111 147 188 230 282 342
#     4  11  20  34  51  79 114 151 192 235 276 336
#     4   9  19  36  60  87 113 143 180 228 284 343
#     4  12  24  34  50  76 113 156 191 234 285 334
#     4   9  17  30  51  80 113 146 179 222 277 337
#
# _framework density 19.087384
#
# number of rings (size 3 to 8) (size 9 to 14) (size 15 to 20)
#    0.000    1.571    3.571    1.929    0.000    3.429 
#    0.000    0.000    1.571    0.000    0.000    0.000 
#    0.000    0.000    0.000    0.000    0.000    0.000 
#
# Total GULP energy -693838.297482 kJ/mol
# GULP energy per Si atom -12389.969598 kJ/mol
# Density = 1.904394 g / cm^3
# Si number density = 19.087384 Si / 1000 Ang^3
#
#
#
# Elastic Constant Matrix: (Units=GPa)
#
#
# Indices 1 2 3 4 5 6 
#
# 1 142.1076 35.8986 59.6588 0.0000 0.0000 0.0000
# 2 35.8986 84.2419 19.7790 0.0000 0.0000 0.0000
# 3 59.6588 19.7790 87.1477 0.0000 0.0000 0.0000
# 4 0.0000 0.0000 0.0000 20.1759 0.0000 0.0000
# 5 0.0000 0.0000 0.0000 0.0000 22.2156 0.0000
# 6 0.0000 0.0000 0.0000 0.0000 0.0000 18.5145
#
#
#
# Elastic Compliance Matrix: (Units=1/GPa)
#
#
# Indices 1 2 3 4 5 6 
#
# 1 0.010526 -0.002951 -0.006536 0.000000 0.000000 0.000000
# 2 -0.002951 0.013366 -0.001013 0.000000 0.000000 0.000000
# 3 -0.006536 -0.001013 0.016179 0.000000 0.000000 0.000000
# 4 0.000000 0.000000 0.000000 0.049564 0.000000 0.000000
# 5 0.000000 0.000000 0.000000 0.000000 0.045014 0.000000
# 6 0.000000 0.000000 0.000000 0.000000 0.000000 0.054012
#
#
# Mechanical properties :
#
#
# Convention : Reuss Voigt Hill
#
# Bulk Modulus (GPa) = 52.43735 60.46332 56.45034
# Shear Modulus (GPa) = 23.14606 25.39190 24.26898
#
# Velocity S-wave (km/s) = 3.48607 3.65128 3.56963
# Velocity P-wave (km/s) = 6.61328 7.03717 6.82851
#
# Compressibility (1/GPa) = 0.01907038
#
# Stress axis : x y z
#
# Youngs Moduli (GPa) = 94.99878 74.81643 61.80717
#
# Poissons Ratio (x) = 0.22079 0.40399
# Poissons Ratio (y) = 0.28035 0.06263
# Poissons Ratio (z) = 0.62094 0.07582
#
# Static dielectric constant tensor:
#      x y z
#    x 4.155870 0.000000 0.000000 
#    y 0.000000 3.266280 0.000000 
#    z 0.000000 0.000000 3.227270 
# 
# 
# High freq. dielectric constant tensor:
#      x y z
#    x 1.768630 0.000000 0.000000 
#    y 0.000000 1.729520 0.000000 
#    z 0.000000 0.000000 1.700420 
# 
# From -- ./inp_files/25812.got.cif
#   From: 2010.03.12/outbox.cif.g09.slc.cpg/sg51_13_cif.got.tgz:25812.got - 2010.04.16 13:43:02.
