data_PCOD8214915
_publ_section_title
;
Structure prediction by ZEFSAII (Michael W. Deem and Ramdas Pophale) SiO2 
 PCOD8214915
Probable space group: P N N A
;
_chemical_formula_sum "Si O2"
_cell_formula_units_Z 44
_cell_length_a 8.342974
_cell_length_b 23.671561
_cell_length_c 14.354133
_cell_angle_alpha 90.000000
_cell_angle_beta 90.000000
_cell_angle_gamma 90.000000
_cell_volume 2834.815209
_symmetry_space_group_name_H-M "P N N A"
_symmetry_group_IT_number 52
_symmetry_cell_setting 'orthorhombic'
loop_
_space_group_symop_operation_xyz
x,y,z
1/2-x,-y,z
x,1/2-y,1/2-z
1/2-x,1/2+y,1/2-z
-x,-y,-z
1/2+x,y,-z
-x,1/2+y,1/2+z
1/2+x,1/2-y,1/2+z
loop_
_atom_site_type_symbol
_atom_site_label
_atom_site_fract_x
_atom_site_fract_y
_atom_site_fract_z
Si Si1 0.250000 0.000000 0.518663
Si Si2 0.440477 0.323654 0.080585
Si Si3 0.855593 0.832809 0.696989
Si Si4 0.037073 0.213586 0.120169
Si Si5 0.497663 0.580540 0.063043
Si Si6 0.221086 0.252961 0.548116
O O1 0.370976 0.969066 0.449627
O O2 0.165694 0.951587 0.581378
O O3 0.335029 0.337306 0.173194
O O4 0.592626 0.284079 0.107805
O O5 0.497184 0.380975 0.030327
O O6 0.327882 0.291417 0.008154
O O7 0.889379 0.832036 0.807923
O O8 0.926950 0.776569 0.653234
O O9 0.953111 0.884821 0.654727
O O10 0.842129 0.209422 0.111520
O O11 0.124565 0.204690 0.020733
#
# Coordination Sequence:
#
# PCOD8214915 Si02
#       6
#     4   8   8   8   8   8
#     4  10  22  26  46  68  92 134 166 178 236 290
#     4  10  15  27  49  60  91 133 148 189 232 272
#     4  10  18  29  46  65  94 120 169 193 229 272
#     4   9  18  29  45  67  89 126 157 198 230 287
#     4  11  17  31  44  67  94 130 160 192 227 280
#     4   9  15  28  46  63  91 122 156 181 243 280
#
# _framework density 15.521293999999999
#
# number of rings (size 3 to 8) (size 9 to 14) (size 15 to 20)
#    0.000    2.182    7.273    0.000    0.000    0.000 
#    0.000   10.909    0.000    0.000    0.000    0.000 
#    0.000    4.364    0.000    0.000    0.000    0.000 
#
# Total GULP energy -545171.375164 kJ/mol
# GULP energy per Si atom -12390.258526 kJ/mol
# Density = 1.548597 g / cm^3
# Si number density = 15.521294 Si / 1000 Ang^3
#
#
#
# Elastic Constant Matrix: (Units=GPa)
#
#
# Indices 1 2 3 4 5 6 
#
# 1 97.3896 22.2595 35.8607 0.0000 0.0000 0.0000
# 2 22.2595 49.6600 28.8308 0.0000 0.0000 0.0000
# 3 35.8607 28.8308 58.1871 0.0000 0.0000 0.0000
# 4 0.0000 0.0000 0.0000 18.7025 0.0000 0.0000
# 5 0.0000 0.0000 0.0000 0.0000 19.1284 0.0000
# 6 0.0000 0.0000 0.0000 0.0000 0.0000 24.0088
#
#
#
# Elastic Compliance Matrix: (Units=1/GPa)
#
#
# Indices 1 2 3 4 5 6 
#
# 1 0.013384 -0.001699 -0.007406 0.000000 0.000000 0.000000
# 2 -0.001699 0.028484 -0.013066 0.000000 0.000000 0.000000
# 3 -0.007406 -0.013066 0.028225 0.000000 0.000000 0.000000
# 4 0.000000 0.000000 0.000000 0.053469 0.000000 0.000000
# 5 0.000000 0.000000 0.000000 0.000000 0.052278 0.000000
# 6 0.000000 0.000000 0.000000 0.000000 0.000000 0.041651
#
#
# Mechanical properties :
#
#
# Convention : Reuss Voigt Hill
#
# Bulk Modulus (GPa) = 38.83674 42.12652 40.48163
# Shear Modulus (GPa) = 18.48991 20.25368 19.37180
#
# Velocity S-wave (km/s) = 3.45521 3.61625 3.53665
# Velocity P-wave (km/s) = 6.40265 6.68105 6.54333
#
# Compressibility (1/GPa) = 0.02574881
#
# Stress axis : x y z
#
# Youngs Moduli (GPa) = 74.71852 35.10693 35.42996
#
# Poissons Ratio (x) = 0.05965 0.26241
# Poissons Ratio (y) = 0.12696 0.46294
# Poissons Ratio (z) = 0.55339 0.45872
#
# Static dielectric constant tensor:
#      x y z
#    x 3.558680 0.000000 0.000000 
#    y 0.000000 2.813490 0.000000 
#    z 0.000000 0.000000 3.110580 
# 
# 
# High freq. dielectric constant tensor:
#      x y z
#    x 1.620490 0.000000 0.000000 
#    y 0.000000 1.557010 0.000000 
#    z 0.000000 0.000000 1.549430 
# 
# From -- ./inp_files/24859.got.cif
#   From: 2010.06.25/outbox.cif.g09.slc.cpg/sg52_13_cif.got.tgz:24859.got - 2010.06.26 19:32:48.
