data_PCOD8214945
_publ_section_title
;
Structure prediction by ZEFSAII (Michael W. Deem and Ramdas Pophale) SiO2 
 PCOD8214945
Probable space group: P N N A
;
_chemical_formula_sum "Si O2"
_cell_formula_units_Z 48
_cell_length_a 5.196237
_cell_length_b 17.304679
_cell_length_c 28.146264
_cell_angle_alpha 90.000000
_cell_angle_beta 90.000000
_cell_angle_gamma 90.000000
_cell_volume 2530.889916
_symmetry_space_group_name_H-M "P N N A"
_symmetry_group_IT_number 52
_symmetry_cell_setting 'orthorhombic'
loop_
_space_group_symop_operation_xyz
x,y,z
1/2-x,-y,z
x,1/2-y,1/2-z
1/2-x,1/2+y,1/2-z
-x,-y,-z
1/2+x,y,-z
-x,1/2+y,1/2+z
1/2+x,1/2-y,1/2+z
loop_
_atom_site_type_symbol
_atom_site_label
_atom_site_fract_x
_atom_site_fract_y
_atom_site_fract_z
Si Si1 0.769918 0.246231 0.968517
Si Si2 0.696974 0.339648 0.263170
Si Si3 0.816376 0.920856 0.970168
Si Si4 0.788906 0.589567 0.161927
Si Si5 0.697237 0.301334 0.703002
Si Si6 0.710967 0.171497 0.627156
O O1 0.741202 0.160710 0.944085
O O2 0.743419 0.310534 0.928229
O O3 0.548902 0.256979 0.007926
O O4 0.650643 0.250000 0.250000
O O5 0.737770 0.392937 0.217590
O O6 0.433186 0.361468 0.290604
O O7 0.933269 0.350868 0.300022
O O8 0.750000 0.000000 0.940261
O O9 0.615524 0.922916 0.014758
O O10 0.750000 0.500000 0.152421
O O11 0.571356 0.636448 0.133890
O O12 0.070621 0.611624 0.143169
O O13 0.649464 0.250000 0.750000
O O14 0.742252 0.249589 0.657025
#
# Coordination Sequence:
#
# PCOD8214945 Si02
#       6
#     8   8   8   8   8   8
#     4  10  21  36  55  82 108 143 196 238 277 327
#     4  10  16  32  53  77 108 132 165 219 258 325
#     4   8  14  27  49  75 102 129 163 212 266 319
#     4  12  23  35  55  85 112 143 189 231 273 333
#     4  10  16  30  55  81 103 131 176 211 260 329
#     4  12  21  36  58  82 109 150 182 239 271 324
#
# _framework density 18.965661999999998
#
# number of rings (size 3 to 8) (size 9 to 14) (size 15 to 20)
#    0.000    1.667    6.667    1.500    0.000    0.000 
#    0.000    0.000    0.000   12.000    0.000    2.333 
#    0.000    0.000    0.000    0.000    0.000    0.000 
#
# Total GULP energy -594743.860812 kJ/mol
# GULP energy per Si atom -12390.497100 kJ/mol
# Density = 1.892250 g / cm^3
# Si number density = 18.965662 Si / 1000 Ang^3
#
#
#
# Elastic Constant Matrix: (Units=GPa)
#
#
# Indices 1 2 3 4 5 6 
#
# 1 119.0969 7.4488 2.6522 0.0000 0.0000 0.0000
# 2 7.4488 53.6527 23.8894 0.0000 0.0000 0.0000
# 3 2.6522 23.8894 48.6965 0.0000 0.0000 0.0000
# 4 0.0000 0.0000 0.0000 13.6246 0.0000 0.0000
# 5 0.0000 0.0000 0.0000 0.0000 -8.8597 0.0000
# 6 0.0000 0.0000 0.0000 0.0000 0.0000 6.8125
#
#
#
# Elastic Compliance Matrix: (Units=1/GPa)
#
#
# Indices 1 2 3 4 5 6 
#
# 1 0.008471 -0.001242 0.000148 0.000000 0.000000 0.000000
# 2 -0.001242 0.024030 -0.011721 0.000000 0.000000 0.000000
# 3 0.000148 -0.011721 0.026277 0.000000 0.000000 0.000000
# 4 0.000000 0.000000 0.000000 0.073397 0.000000 0.000000
# 5 0.000000 0.000000 0.000000 0.000000 -0.112871 0.000000
# 6 0.000000 0.000000 0.000000 0.000000 0.000000 0.146790
#
#
# Mechanical properties :
#
#
# Convention : Reuss Voigt Hill
#
# Bulk Modulus (GPa) = 30.16752 32.15856 31.16304
# Shear Modulus (GPa) = 24.65816 14.81251 19.73533
#
# Velocity S-wave (km/s) = 3.60967 2.79770 3.22931
# Velocity P-wave (km/s) = 5.77182 5.23729 5.51104
#
# Compressibility (1/GPa) = 0.03314824
#
# Stress axis : x y z
#
# Youngs Moduli (GPa) = 118.05118 41.61544 38.05577
#
# Poissons Ratio (x) = 0.05168 -0.00563
# Poissons Ratio (y) = 0.14661 0.44604
# Poissons Ratio (z) = -0.01746 0.48776
#
# Static dielectric constant tensor:
#      x y z
#    x 4.431120 0.000000 0.000000 
#    y 0.000000 3.371270 0.000000 
#    z 0.000000 0.000000 3.012340 
# 
# 
# High freq. dielectric constant tensor:
#      x y z
#    x 1.778120 0.000000 0.000000 
#    y 0.000000 1.707400 0.000000 
#    z 0.000000 0.000000 1.683550 
# 
# From -- ./inp_files/41706.got.cif
#   From: 2010.06.25/outbox.cif.g09.slc.cpg/sg52_21_cif.got.tgz:41706.got - 2010.06.26 19:32:48.
