data_PCOD8214406
_publ_section_title
;
Structure prediction by ZEFSAII (Michael W. Deem and Ramdas Pophale) SiO2 
 PCOD8214406
Probable space group: P M M A
;
_chemical_formula_sum "Si O2"
_cell_formula_units_Z 48
_cell_length_a 15.117645
_cell_length_b 15.625470
_cell_length_c 10.127001
_cell_angle_alpha 90.000000
_cell_angle_beta 90.000000
_cell_angle_gamma 90.000000
_cell_volume 2392.203300
_symmetry_space_group_name_H-M "P M M A"
_symmetry_group_IT_number 51
_symmetry_cell_setting 'orthorhombic'
loop_
_space_group_symop_operation_xyz
x,y,z
1/2-x,-y,z
1/2+x,-y,-z
-x,y,-z
-x,-y,-z
1/2+x,y,-z
1/2-x,y,z
x,-y,z
loop_
_atom_site_type_symbol
_atom_site_label
_atom_site_fract_x
_atom_site_fract_y
_atom_site_fract_z
Si Si1 0.850655 0.794392 0.259083
Si Si2 0.907262 0.500000 0.071374
Si Si3 0.853027 0.500000 0.363689
Si Si4 0.103421 0.676045 0.506471
Si Si5 0.148536 0.232914 0.252528
Si Si6 0.507624 0.901644 0.655309
Si Si7 0.851062 0.313042 0.013788
O O1 0.750000 0.826513 0.233168
O O2 0.849788 0.738296 0.390555
O O3 0.915650 0.874986 0.274895
O O4 0.890324 0.734938 0.141822
O O5 0.858622 0.414959 0.022953
O O6 0.912312 0.500000 0.230954
O O7 0.000000 0.500000 0.000000
O O8 0.750000 0.500000 0.321456
O O9 0.876763 0.579457 0.454726
O O10 0.144685 0.693733 0.363592
O O11 0.000000 0.696081 0.500000
O O12 0.250000 0.202917 0.234071
O O13 0.106555 0.275665 0.120399
O O14 0.090632 0.150773 0.289657
O O15 0.500000 0.885171 0.500000
O O16 0.525505 0.000000 0.688989
O O17 0.750000 0.288389 0.008494
#
# Coordination Sequence:
#
# PCOD8214406 Si02
#       7
#     8   4   4   8   8   8   8
#     4  11  21  41  68  93 124 169 211 256 318 383
#     4  12  26  36  62  94 126 167 220 260 309 365
#     4  12  25  42  64  93 128 176 228 269 316 373
#     4  12  23  40  64  91 130 167 214 266 312 371
#     4  11  23  42  65  94 129 168 208 260 326 383
#     4  11  24  42  66  97 128 159 207 269 321 385
#     4  10  24  42  64  90 127 171 213 260 311 375
#
# _framework density 20.065185
#
# number of rings (size 3 to 8) (size 9 to 14) (size 15 to 20)
#    0.000    0.833    5.000    2.500    4.667    1.333 
#    0.000    4.167    0.000    3.000    0.000    0.000 
#    0.000    0.000    0.000    0.000    0.000    0.000 
#
# Total GULP energy -595249.461687 kJ/mol
# GULP energy per Si atom -12401.030452 kJ/mol
# Density = 2.001952 g / cm^3
# Si number density = 20.065185 Si / 1000 Ang^3
#
#
#
# Elastic Constant Matrix: (Units=GPa)
#
#
# Indices 1 2 3 4 5 6 
#
# 1 104.1103 42.2886 32.4564 0.0000 0.0000 0.0000
# 2 42.2886 146.7863 61.4919 0.0000 0.0000 0.0000
# 3 32.4564 61.4919 136.8799 0.0000 0.0000 0.0000
# 4 0.0000 0.0000 0.0000 23.5634 0.0000 0.0000
# 5 0.0000 0.0000 0.0000 0.0000 13.9666 0.0000
# 6 0.0000 0.0000 0.0000 0.0000 0.0000 19.7473
#
#
#
# Elastic Compliance Matrix: (Units=1/GPa)
#
#
# Indices 1 2 3 4 5 6 
#
# 1 0.011115 -0.002584 -0.001474 0.000000 0.000000 0.000000
# 2 -0.002584 0.008993 -0.003427 0.000000 0.000000 0.000000
# 3 -0.001474 -0.003427 0.009195 0.000000 0.000000 0.000000
# 4 0.000000 0.000000 0.000000 0.042439 0.000000 0.000000
# 5 0.000000 0.000000 0.000000 0.000000 0.071599 0.000000
# 6 0.000000 0.000000 0.000000 0.000000 0.000000 0.050640
#
#
# Mechanical properties :
#
#
# Convention : Reuss Voigt Hill
#
# Bulk Modulus (GPa) = 69.78170 73.36115 71.57142
# Shear Modulus (GPa) = 23.39411 28.22478 25.80944
#
# Velocity S-wave (km/s) = 3.41824 3.75461 3.59037
# Velocity P-wave (km/s) = 7.10156 7.44560 7.27561
#
# Compressibility (1/GPa) = 0.01433040
#
# Stress axis : x y z
#
# Youngs Moduli (GPa) = 89.97162 111.19897 108.75597
#
# Poissons Ratio (x) = 0.28738 0.16035
# Poissons Ratio (y) = 0.23252 0.37272
# Poissons Ratio (z) = 0.13266 0.38110
#
# Static dielectric constant tensor:
#      x y z
#    x 3.721850 0.000000 0.000000 
#    y 0.000000 3.476880 0.000000 
#    z 0.000000 0.000000 4.079930 
# 
# 
# High freq. dielectric constant tensor:
#      x y z
#    x 1.789960 0.000000 0.000000 
#    y 0.000000 1.773270 0.000000 
#    z 0.000000 0.000000 1.793190 
# 
# From -- ./inp_files/8314.got.cif
#   From: 2010.03.12/outbox.cif.g09.slc.cpg/sg51_5_cif.got.tgz:8314.got - 2010.04.16 13:43:02.
