data_PCOD8214942
_publ_section_title
;
Structure prediction by ZEFSAII (Michael W. Deem and Ramdas Pophale) SiO2 
 PCOD8214942
Probable space group: P N N A
;
_chemical_formula_sum "Si O2"
_cell_formula_units_Z 44
_cell_length_a 12.256297
_cell_length_b 13.157253
_cell_length_c 15.663346
_cell_angle_alpha 90.000000
_cell_angle_beta 90.000000
_cell_angle_gamma 90.000000
_cell_volume 2525.858653
_symmetry_space_group_name_H-M "P N N A"
_symmetry_group_IT_number 52
_symmetry_cell_setting 'orthorhombic'
loop_
_space_group_symop_operation_xyz
x,y,z
1/2-x,-y,z
x,1/2-y,1/2-z
1/2-x,1/2+y,1/2-z
-x,-y,-z
1/2+x,y,-z
-x,1/2+y,1/2+z
1/2+x,1/2-y,1/2+z
loop_
_atom_site_type_symbol
_atom_site_label
_atom_site_fract_x
_atom_site_fract_y
_atom_site_fract_z
Si Si1 0.480376 0.664750 0.524424
Si Si2 0.378771 0.508660 0.394923
Si Si3 0.250000 0.000000 0.799169
Si Si4 0.532560 0.583848 0.257893
Si Si5 0.692245 0.217083 0.154655
Si Si6 0.420045 0.272509 0.877788
O O1 0.404616 0.599423 0.460631
O O2 0.571326 0.595282 0.569034
O O3 0.411528 0.727102 0.593737
O O4 0.540031 0.755079 0.473493
O O5 0.250000 0.500000 0.383678
O O6 0.429303 0.526597 0.299726
O O7 0.362038 0.010743 0.745203
O O8 0.231991 0.099993 0.856544
O O9 0.511357 0.634378 0.164961
O O10 0.564882 0.671360 0.323231
O O11 0.658233 0.250000 0.250000
O O12 0.789314 0.292882 0.124256
#
# Coordination Sequence:
#
# PCOD8214942 Si02
#       6
#     8   8   4   8   8   8
#     4  10  20  29  49  77 109 133 171 223 269 307
#     4  10  19  30  49  80 109 136 167 215 278 324
#     4  10  16  30  52  80  98 128 178 220 260 300
#     4   9  16  30  51  74 102 138 168 207 260 326
#     4  11  19  31  54  80 105 132 177 225 261 310
#     4   9  17  31  48  76 103 135 170 208 263 323
#
# _framework density 17.419819
#
# number of rings (size 3 to 8) (size 9 to 14) (size 15 to 20)
#    0.000    2.182    5.455    1.091    3.818    0.000 
#    0.000    0.000   12.000    1.091    2.364    0.000 
#    0.000    0.000    0.000    0.000    0.000    0.000 
#
# Total GULP energy -545150.502831 kJ/mol
# GULP energy per Si atom -12389.784155 kJ/mol
# Density = 1.738017 g / cm^3
# Si number density = 17.419819 Si / 1000 Ang^3
#
#
#
# Elastic Constant Matrix: (Units=GPa)
#
#
# Indices 1 2 3 4 5 6 
#
# 1 137.0805 34.4616 72.6765 0.0000 0.0000 0.0000
# 2 34.4616 36.4834 41.3335 0.0000 0.0000 0.0000
# 3 72.6765 41.3335 120.1730 0.0000 0.0000 0.0000
# 4 0.0000 0.0000 0.0000 28.1409 0.0000 0.0000
# 5 0.0000 0.0000 0.0000 0.0000 24.4766 0.0000
# 6 0.0000 0.0000 0.0000 0.0000 0.0000 19.3743
#
#
#
# Elastic Compliance Matrix: (Units=1/GPa)
#
#
# Indices 1 2 3 4 5 6 
#
# 1 0.011223 -0.004770 -0.005146 0.000000 0.000000 0.000000
# 2 -0.004770 0.046938 -0.013259 0.000000 0.000000 0.000000
# 3 -0.005146 -0.013259 0.015994 0.000000 0.000000 0.000000
# 4 0.000000 0.000000 0.000000 0.035535 0.000000 0.000000
# 5 0.000000 0.000000 0.000000 0.000000 0.040855 0.000000
# 6 0.000000 0.000000 0.000000 0.000000 0.000000 0.051615
#
#
# Mechanical properties :
#
#
# Convention : Reuss Voigt Hill
#
# Bulk Modulus (GPa) = 35.96774 65.63111 50.79943
# Shear Modulus (GPa) = 19.39641 24.08270 21.73956
#
# Velocity S-wave (km/s) = 3.34049 3.72222 3.53651
# Velocity P-wave (km/s) = 5.96413 7.49874 6.77503
#
# Compressibility (1/GPa) = 0.02780269
#
# Stress axis : x y z
#
# Youngs Moduli (GPa) = 89.10529 21.30487 62.52260
#
# Poissons Ratio (x) = 0.10163 0.32176
# Poissons Ratio (y) = 0.42505 0.82901
# Poissons Ratio (z) = 0.45857 0.28249
#
# Static dielectric constant tensor:
#      x y z
#    x 3.348310 0.000000 0.000000 
#    y 0.000000 3.127630 0.000000 
#    z 0.000000 0.000000 3.247840 
# 
# 
# High freq. dielectric constant tensor:
#      x y z
#    x 1.668470 0.000000 0.000000 
#    y 0.000000 1.642640 0.000000 
#    z 0.000000 0.000000 1.647610 
# 
# From -- ./inp_files/25994.got.cif
#   From: 2010.06.25/outbox.cif.g09.slc.cpg/sg52_13_cif.got.tgz:25994.got - 2010.06.26 19:32:48.
