data_PCOD8214328
_publ_section_title
;
Structure prediction by ZEFSAII (Michael W. Deem and Ramdas Pophale) SiO2 
 PCOD8214328
Probable space group: P M M A
;
_chemical_formula_sum "Si O2"
_cell_formula_units_Z 32
_cell_length_a 15.110855
_cell_length_b 8.978431
_cell_length_c 11.762133
_cell_angle_alpha 90.000000
_cell_angle_beta 90.000000
_cell_angle_gamma 90.000000
_cell_volume 1595.789391
_symmetry_space_group_name_H-M "P M M A"
_symmetry_group_IT_number 51
_symmetry_cell_setting 'orthorhombic'
loop_
_space_group_symop_operation_xyz
x,y,z
1/2-x,-y,z
1/2+x,-y,-z
-x,y,-z
-x,-y,-z
1/2+x,y,-z
1/2-x,y,z
x,-y,z
loop_
_atom_site_type_symbol
_atom_site_label
_atom_site_fract_x
_atom_site_fract_y
_atom_site_fract_z
Si Si1 0.250000 0.171846 0.086072
Si Si2 0.404643 0.828926 0.713083
Si Si3 0.647679 0.669621 0.503728
Si Si4 0.250000 0.324282 0.848192
Si Si5 0.395227 0.169282 0.268013
O O1 0.337607 0.209356 0.158023
O O2 0.250000 0.000000 0.046035
O O3 0.250000 0.278855 0.978901
O O4 0.408208 0.768980 0.583926
O O5 0.338040 0.735751 0.789270
O O6 0.502332 0.810505 0.765551
O O7 0.374093 0.000000 0.711897
O O8 0.750000 0.684150 0.469673
O O9 0.615255 0.500000 0.494102
O O10 0.632802 0.722680 0.631273
O O11 0.250000 0.500000 0.836125
O O12 0.375747 0.000000 0.307175
#
# Coordination Sequence:
#
# PCOD8214328 Si02
#       5
#     4   8   8   4   8
#     4  10  22  43  66  87 118 157 201 253 299 354
#     4  11  23  40  64  92 121 159 204 251 299 356
#     4  11  22  36  59  92 129 164 198 243 302 361
#     4  12  26  43  62  87 120 159 203 251 305 364
#     4  10  22  40  65  93 121 158 205 249 298 357
#
# _framework density 20.052772000000001
#
# number of rings (size 3 to 8) (size 9 to 14) (size 15 to 20)
#    0.000    1.250    2.500    3.375    0.000    8.000 
#    0.000    5.000    0.000    0.000    0.000    0.000 
#    0.000    0.000    0.000    0.000    0.000    0.000 
#
# Total GULP energy -397012.993829 kJ/mol
# GULP energy per Si atom -12406.656057 kJ/mol
# Density = 2.000713 g / cm^3
# Si number density = 20.052772 Si / 1000 Ang^3
#
#
#
# Elastic Constant Matrix: (Units=GPa)
#
#
# Indices 1 2 3 4 5 6 
#
# 1 100.4876 55.8025 38.6202 0.0000 0.0000 0.0000
# 2 55.8025 149.6890 64.1070 0.0000 0.0000 0.0000
# 3 38.6202 64.1070 107.3639 0.0000 0.0000 0.0000
# 4 0.0000 0.0000 0.0000 22.3483 0.0000 0.0000
# 5 0.0000 0.0000 0.0000 0.0000 13.2004 0.0000
# 6 0.0000 0.0000 0.0000 0.0000 0.0000 19.2464
#
#
#
# Elastic Compliance Matrix: (Units=1/GPa)
#
#
# Indices 1 2 3 4 5 6 
#
# 1 0.012992 -0.003818 -0.002393 0.000000 0.000000 0.000000
# 2 -0.003818 0.010098 -0.004656 0.000000 0.000000 0.000000
# 3 -0.002393 -0.004656 0.012955 0.000000 0.000000 0.000000
# 4 0.000000 0.000000 0.000000 0.044746 0.000000 0.000000
# 5 0.000000 0.000000 0.000000 0.000000 0.075755 0.000000
# 6 0.000000 0.000000 0.000000 0.000000 0.000000 0.051958
#
#
# Mechanical properties :
#
#
# Convention : Reuss Voigt Hill
#
# Bulk Modulus (GPa) = 69.88361 74.95555 72.41958
# Shear Modulus (GPa) = 21.27578 24.22641 22.75110
#
# Velocity S-wave (km/s) = 3.26082 3.47959 3.37198
# Velocity P-wave (km/s) = 7.00734 7.32145 7.16612
#
# Compressibility (1/GPa) = 0.01430951
#
# Stress axis : x y z
#
# Youngs Moduli (GPa) = 76.97280 99.03067 77.18914
#
# Poissons Ratio (x) = 0.37811 0.18475
# Poissons Ratio (y) = 0.29389 0.35939
# Poissons Ratio (z) = 0.18423 0.46109
#
# Static dielectric constant tensor:
#      x y z
#    x 3.829530 0.000000 0.000000 
#    y 0.000000 3.717850 0.000000 
#    z 0.000000 0.000000 3.483490 
# 
# 
# High freq. dielectric constant tensor:
#      x y z
#    x 1.798230 0.000000 0.000000 
#    y 0.000000 1.787930 0.000000 
#    z 0.000000 0.000000 1.774730 
# 
# From -- ./inp_files/15838.got.cif
#   From: 2010.03.12/outbox.cif.g09.slc.cpg/sg51_8_cif.got.tgz:15838.got - 2010.04.16 13:43:02.
