data_PCOD8214958
_publ_section_title
;
Structure prediction by ZEFSAII (Michael W. Deem and Ramdas Pophale) SiO2 
 PCOD8214958
Probable space group: P N N A
;
_chemical_formula_sum "Si O2"
_cell_formula_units_Z 60
_cell_length_a 9.342284
_cell_length_b 22.738600
_cell_length_c 13.591728
_cell_angle_alpha 90.000000
_cell_angle_beta 90.000000
_cell_angle_gamma 90.000000
_cell_volume 2887.297017
_symmetry_space_group_name_H-M "P N N A"
_symmetry_group_IT_number 52
_symmetry_cell_setting 'orthorhombic'
loop_
_space_group_symop_operation_xyz
x,y,z
1/2-x,-y,z
x,1/2-y,1/2-z
1/2-x,1/2+y,1/2-z
-x,-y,-z
1/2+x,y,-z
-x,1/2+y,1/2+z
1/2+x,1/2-y,1/2+z
loop_
_atom_site_type_symbol
_atom_site_label
_atom_site_fract_x
_atom_site_fract_y
_atom_site_fract_z
Si Si1 0.929427 0.877175 0.073028
Si Si2 0.351365 0.132130 0.664468
Si Si3 0.979596 0.888417 0.289134
Si Si4 0.157900 0.950029 0.953608
Si Si5 0.172709 0.256707 0.539130
Si Si6 0.409781 0.013659 0.745012
Si Si7 0.406936 0.318725 0.039907
Si Si8 0.690486 0.750000 0.250000
O O1 0.770172 0.903048 0.089898
O O2 0.904433 0.817813 0.009143
O O3 0.001710 0.864511 0.178357
O O4 0.034402 0.920743 0.016217
O O5 0.449608 0.077520 0.700302
O O6 0.372765 0.136915 0.548112
O O7 0.402972 0.191790 0.722297
O O8 0.182598 0.125147 0.680704
O O9 0.096549 0.855436 0.357715
O O10 0.008555 0.959424 0.291943
O O11 0.080788 0.983601 0.863330
O O12 0.250000 0.000000 0.013140
O O13 0.302982 0.238810 0.465800
O O14 0.214633 0.263784 0.653777
O O15 0.067042 0.202873 0.525820
O O16 0.250000 0.000000 0.709248
#
# Coordination Sequence:
#
# PCOD8214958 Si02
#       8
#     8   8   8   8   8   8   8   4
#     4  12  22  39  68  96 131 173 218 272 347 408
#     4  10  19  36  63  90 118 165 219 258 317 399
#     4  11  20  39  65  91 123 179 212 267 334 405
#     4  11  21  38  65 100 130 168 216 275 331 414
#     4  11  21  37  59  92 122 165 215 269 322 392
#     4   9  18  36  61  91 123 164 220 256 317 406
#     4  11  22  37  62  91 125 165 222 271 312 391
#     4  10  16  34  62  82 114 168 218 252 322 400
#
# _framework density 20.780681000000001
#
# number of rings (size 3 to 8) (size 9 to 14) (size 15 to 20)
#    0.000    1.333    8.000    1.200    0.000    1.600 
#    0.000    1.333    0.000   11.200    0.000    0.000 
#    0.000    0.000    0.000    0.000    0.000    0.000 
#
# Total GULP energy -743398.385883 kJ/mol
# GULP energy per Si atom -12389.973098 kJ/mol
# Density = 2.073338 g / cm^3
# Si number density = 20.780681 Si / 1000 Ang^3
#
#
#
# Elastic Constant Matrix: (Units=GPa)
#
#
# Indices 1 2 3 4 5 6 
#
# 1 44.9598 31.8815 29.9936 0.0000 0.0000 0.0000
# 2 31.8815 158.5408 45.6662 0.0000 0.0000 0.0000
# 3 29.9936 45.6662 75.8272 0.0000 0.0000 0.0000
# 4 0.0000 0.0000 0.0000 39.0084 0.0000 0.0000
# 5 0.0000 0.0000 0.0000 0.0000 27.0472 0.0000
# 6 0.0000 0.0000 0.0000 0.0000 0.0000 18.4442
#
#
#
# Elastic Compliance Matrix: (Units=1/GPa)
#
#
# Indices 1 2 3 4 5 6 
#
# 1 0.031607 -0.003333 -0.010495 0.000000 0.000000 0.000000
# 2 -0.003333 0.007983 -0.003489 0.000000 0.000000 0.000000
# 3 -0.010495 -0.003489 0.019441 0.000000 0.000000 0.000000
# 4 0.000000 0.000000 0.000000 0.025636 0.000000 0.000000
# 5 0.000000 0.000000 0.000000 0.000000 0.036972 0.000000
# 6 0.000000 0.000000 0.000000 0.000000 0.000000 0.054217
#
#
# Mechanical properties :
#
#
# Convention : Reuss Voigt Hill
#
# Bulk Modulus (GPa) = 40.99027 54.93449 47.96238
# Shear Modulus (GPa) = 22.87054 28.35239 25.61146
#
# Velocity S-wave (km/s) = 3.32108 3.69774 3.51446
# Velocity P-wave (km/s) = 5.87146 6.68758 6.29277
#
# Compressibility (1/GPa) = 0.02439603
#
# Stress axis : x y z
#
# Youngs Moduli (GPa) = 31.63863 125.26942 51.43900
#
# Poissons Ratio (x) = 0.41752 0.53985
# Poissons Ratio (y) = 0.10545 0.17948
# Poissons Ratio (z) = 0.33204 0.43709
#
# Static dielectric constant tensor:
#      x y z
#    x 3.396170 0.000000 0.000000 
#    y 0.000000 4.457240 0.000000 
#    z 0.000000 0.000000 3.693540 
# 
# 
# High freq. dielectric constant tensor:
#      x y z
#    x 1.765110 0.000000 0.000000 
#    y 0.000000 1.841710 0.000000 
#    z 0.000000 0.000000 1.795650 
# 
# From -- ./inp_files/25085.got.cif
#   From: 2010.06.25/outbox.cif.g09.slc.cpg/sg52_13_cif.got.tgz:25085.got - 2010.06.26 19:32:48.
