data_PCOD8214691
_publ_section_title
;
Structure prediction by ZEFSAII (Michael W. Deem and Ramdas Pophale) SiO2 
 PCOD8214691
Probable space group: P M M A
;
_chemical_formula_sum "Si O2"
_cell_formula_units_Z 64
_cell_length_a 22.300673
_cell_length_b 9.191663
_cell_length_c 20.415535
_cell_angle_alpha 90.000000
_cell_angle_beta 90.000000
_cell_angle_gamma 90.000000
_cell_volume 4184.781895
_symmetry_space_group_name_H-M "P M M A"
_symmetry_group_IT_number 51
_symmetry_cell_setting 'orthorhombic'
loop_
_space_group_symop_operation_xyz
x,y,z
1/2-x,-y,z
1/2+x,-y,-z
-x,y,-z
-x,-y,-z
1/2+x,y,-z
1/2-x,y,z
x,-y,z
loop_
_atom_site_type_symbol
_atom_site_label
_atom_site_fract_x
_atom_site_fract_y
_atom_site_fract_z
Si Si1 0.448072 0.164200 0.637043
Si Si2 0.429387 0.664597 0.512532
Si Si3 0.317120 0.326642 0.138314
Si Si4 0.392757 0.667735 0.261962
Si Si5 0.410916 0.164374 0.387883
Si Si6 0.087482 0.327021 0.037891
Si Si7 0.036924 0.327399 0.905945
Si Si8 0.032054 0.332133 0.762302
O O1 0.414226 0.253549 0.580288
O O2 0.518392 0.166521 0.623553
O O3 0.434730 0.238148 0.706967
O O4 0.423288 0.000000 0.637741
O O5 0.500000 0.664944 0.500000
O O6 0.405148 0.500000 0.516664
O O7 0.395398 0.747384 0.453814
O O8 0.250000 0.262165 0.135603
O O9 0.315940 0.500000 0.137121
O O10 0.349498 0.274153 0.204638
O O11 0.353630 0.266483 0.074980
O O12 0.380082 0.500000 0.278743
O O13 0.377993 0.760334 0.326706
O O14 0.460723 0.689354 0.238823
O O15 0.387250 0.000000 0.395358
O O16 0.086811 0.500000 0.042610
O O17 0.028179 0.264978 0.073688
O O18 0.085920 0.279272 0.960958
O O19 0.031455 0.500000 0.903409
O O20 0.055106 0.273884 0.833197
O O21 0.048821 0.500000 0.750081
#
# Coordination Sequence:
#
# PCOD8214691 Si02
#       8
#     8   8   8   8   8   8   8   8
#     4   9  16  23  31  46  69  95 120 147 180 218
#     4   9  15  23  34  48  66  91 122 152 178 208
#     4   9  15  22  33  50  73  97 120 152 194 234
#     4   9  15  23  34  49  68  90 120 154 186 222
#     4   9  16  24  34  47  65  91 121 153 183 211
#     4   8  12  19  30  48  69  90 117 152 192 228
#     4   8  12  18  31  48  68  89 116 156 192 221
#     4   9  14  21  33  49  67  91 122 155 185 217
#
# _framework density 15.293509
#
# number of rings (size 3 to 8) (size 9 to 14) (size 15 to 20)
#    0.000    3.250    1.250    1.875    0.000    4.500 
#    0.000    0.000    0.000    0.375    0.000    2.625 
#    0.000    0.000    0.000    1.125    0.000   24.375 
#
# Total GULP energy -793104.135866 kJ/mol
# GULP energy per Si atom -12392.252123 kJ/mol
# Density = 1.525870 g / cm^3
# Si number density = 15.293509 Si / 1000 Ang^3
#
#
#
# Elastic Constant Matrix: (Units=GPa)
#
#
# Indices 1 2 3 4 5 6 
#
# 1 37.4662 14.8565 38.1521 0.0000 0.0000 0.0000
# 2 14.8565 74.2299 60.3952 0.0000 0.0000 0.0000
# 3 38.1521 60.3952 174.0932 0.0000 0.0000 0.0000
# 4 0.0000 0.0000 0.0000 5.9309 0.0000 0.0000
# 5 0.0000 0.0000 0.0000 0.0000 11.6797 0.0000
# 6 0.0000 0.0000 0.0000 0.0000 0.0000 3.7336
#
#
#
# Elastic Compliance Matrix: (Units=1/GPa)
#
#
# Indices 1 2 3 4 5 6 
#
# 1 0.034416 -0.001047 -0.007179 0.000000 0.000000 0.000000
# 2 -0.001047 0.018801 -0.006293 0.000000 0.000000 0.000000
# 3 -0.007179 -0.006293 0.009500 0.000000 0.000000 0.000000
# 4 0.000000 0.000000 0.000000 0.168608 0.000000 0.000000
# 5 0.000000 0.000000 0.000000 0.000000 0.085619 0.000000
# 6 0.000000 0.000000 0.000000 0.000000 0.000000 0.267836
#
#
# Mechanical properties :
#
#
# Convention : Reuss Voigt Hill
#
# Bulk Modulus (GPa) = 29.69128 56.95521 43.32324
# Shear Modulus (GPa) = 7.99941 15.76121 11.88031
#
# Velocity S-wave (km/s) = 2.28953 3.21375 2.79017
# Velocity P-wave (km/s) = 5.14254 7.14795 6.22651
#
# Compressibility (1/GPa) = 0.03367993
#
# Stress axis : x y z
#
# Youngs Moduli (GPa) = 29.05598 53.18771 105.25856
#
# Poissons Ratio (x) = 0.05569 0.75565
# Poissons Ratio (y) = 0.03043 0.66239
# Poissons Ratio (z) = 0.20859 0.33471
#
# Static dielectric constant tensor:
#      x y z
#    x 2.481070 0.000000 0.000000 
#    y 0.000000 2.721660 0.000000 
#    z 0.000000 0.000000 3.295580 
# 
# 
# High freq. dielectric constant tensor:
#      x y z
#    x 1.506950 0.000000 0.000000 
#    y 0.000000 1.557310 0.000000 
#    z 0.000000 0.000000 1.606260 
# 
# From -- ./inp_files/34187.got.cif
#   From: 2010.03.12/outbox.cif.g09.slc.cpg/sg51_18_cif.got.tgz:34187.got - 2010.04.16 13:43:02.
