data_PCOD8214905
_publ_section_title
;
Structure prediction by ZEFSAII (Michael W. Deem and Ramdas Pophale) SiO2 
 PCOD8214905
Probable space group: P M M A
;
_chemical_formula_sum "Si O2"
_cell_formula_units_Z 64
_cell_length_a 24.000000
_cell_length_b 9.000000
_cell_length_c 15.000000
_cell_angle_alpha 90.000000
_cell_angle_beta 90.000000
_cell_angle_gamma 90.000000
_cell_volume 3240.000000
_symmetry_space_group_name_H-M "P M M A"
_symmetry_group_IT_number 51
_symmetry_cell_setting 'orthorhombic'
loop_
_space_group_symop_operation_xyz
x,y,z
1/2-x,-y,z
1/2+x,-y,-z
-x,y,-z
-x,-y,-z
1/2+x,y,-z
1/2-x,y,z
x,-y,z
loop_
_atom_site_type_symbol
_atom_site_label
_atom_site_fract_x
_atom_site_fract_y
_atom_site_fract_z
Si Si1 0.313607 0.827098 0.324028
Si Si2 0.013922 0.170316 0.598991
Si Si3 0.640678 0.832177 0.350367
Si Si4 0.685928 0.661034 0.506880
Si Si5 0.617309 0.175358 0.847038
Si Si6 0.010421 0.674979 0.220375
Si Si7 0.315181 0.673007 0.997793
Si Si8 0.114900 0.328497 0.822254
O O1 0.250000 0.778984 0.304463
O O2 0.340842 0.749700 0.410588
O O3 0.350898 0.777626 0.241965
O O4 0.317178 0.000000 0.343061
O O5 0.079576 0.184568 0.609295
O O6 0.000000 0.233258 0.500000
O O7 0.984672 0.261988 0.678638
O O8 0.993454 0.000000 0.607610
O O9 0.682256 0.746962 0.414613
O O10 0.645945 0.764813 0.252755
O O11 0.660770 0.000000 0.344649
O O12 0.750000 0.641357 0.530061
O O13 0.656644 0.500000 0.498704
O O14 0.556744 0.252629 0.844313
O O15 0.656724 0.230745 0.925711
O O16 0.608880 0.000000 0.856492
O O17 0.020280 0.500000 0.224396
O O18 0.950769 0.714558 0.174957
O O19 0.250000 0.717858 0.983987
O O20 0.319515 0.500000 0.022323
O O21 0.352515 0.710231 0.911953
O O22 0.120842 0.500000 0.796925
#
# Coordination Sequence:
#
# PCOD8214905 Si02
#       8
#     8   8   8   8   8   8   8   8
#     4   9  19  36  55  75 105 146 187 230 284 345
#     4   9  19  35  54  78 112 152 192 235 285 340
#     4  10  20  34  55  82 112 148 188 234 284 337
#     4  10  21  35  52  77 110 148 189 233 282 338
#     4  11  23  38  59  86 119 153 190 239 294 353
#     4  10  21  37  57  84 117 155 199 241 287 344
#     4  10  22  41  65  90 114 146 191 241 296 356
#     4   9  20  40  61  83 117 155 192 239 294 350
#
# _framework density 19.753086
#
# number of rings (size 3 to 8) (size 9 to 14) (size 15 to 20)
#    0.000    2.250    0.000    1.875    1.750    5.250 
#    0.000    5.000    0.000    0.000    0.000    0.000 
#    0.000    0.000    0.000    0.000    0.000    0.000 
#
# Total GULP energy -793559.566054 kJ/mol
# GULP energy per Si atom -12399.368220 kJ/mol
# Density = 1.970813 g / cm^3
# Si number density = 19.753086 Si / 1000 Ang^3
#
#
#
# Elastic Constant Matrix: (Units=GPa)
#
#
# Indices 1 2 3 4 5 6 
#
# 1 88.9704 45.5002 60.9922 0.0000 0.0000 0.0000
# 2 45.5002 89.1041 72.1587 0.0000 0.0000 0.0000
# 3 60.9922 72.1587 120.0272 0.0000 0.0000 0.0000
# 4 0.0000 0.0000 0.0000 37.2978 0.0000 0.0000
# 5 0.0000 0.0000 0.0000 0.0000 36.1889 0.0000
# 6 0.0000 0.0000 0.0000 0.0000 0.0000 20.5531
#
#
#
# Elastic Compliance Matrix: (Units=1/GPa)
#
#
# Indices 1 2 3 4 5 6 
#
# 1 0.017771 -0.003433 -0.006967 0.000000 0.000000 0.000000
# 2 -0.003433 0.022534 -0.011803 0.000000 0.000000 0.000000
# 3 -0.006967 -0.011803 0.018967 0.000000 0.000000 0.000000
# 4 0.000000 0.000000 0.000000 0.026811 0.000000 0.000000
# 5 0.000000 0.000000 0.000000 0.000000 0.027633 0.000000
# 6 0.000000 0.000000 0.000000 0.000000 0.000000 0.048654
#
#
# Mechanical properties :
#
#
# Convention : Reuss Voigt Hill
#
# Bulk Modulus (GPa) = 67.25932 72.82264 70.04098
# Shear Modulus (GPa) = 23.61490 26.77135 25.19313
#
# Velocity S-wave (km/s) = 3.46136 3.68543 3.57515
# Velocity P-wave (km/s) = 7.07804 7.42000 7.25103
#
# Compressibility (1/GPa) = 0.01486783
#
# Stress axis : x y z
#
# Youngs Moduli (GPa) = 56.27085 44.37776 52.72282
#
# Poissons Ratio (x) = 0.15234 0.36730
# Poissons Ratio (y) = 0.19317 0.62226
# Poissons Ratio (z) = 0.39202 0.52377
#
# Static dielectric constant tensor:
#      x y z
#    x 3.770420 0.000000 0.000000 
#    y 0.000000 3.721720 0.000000 
#    z 0.000000 0.000000 3.584220 
# 
# 
# High freq. dielectric constant tensor:
#      x y z
#    x 1.770500 0.000000 0.000000 
#    y 0.000000 1.769710 0.000000 
#    z 0.000000 0.000000 1.769310 
# 
# From -- ./inp_files/26192.got.cif
#   From: 2010.03.12/outbox.ucp.g09.slc.cvg/sg51_14_cif.got.tgz:26192.got - 2010.05.04 19:16:16.
