data_PCOD8214922
_publ_section_title
;
Structure prediction by ZEFSAII (Michael W. Deem and Ramdas Pophale) SiO2 
 PCOD8214922
Probable space group: P N N A
;
_chemical_formula_sum "Si O2"
_cell_formula_units_Z 40
_cell_length_a 9.841227
_cell_length_b 8.508125
_cell_length_c 25.570302
_cell_angle_alpha 90.000000
_cell_angle_beta 90.000000
_cell_angle_gamma 90.000000
_cell_volume 2141.011345
_symmetry_space_group_name_H-M "P N N A"
_symmetry_group_IT_number 52
_symmetry_cell_setting 'orthorhombic'
loop_
_space_group_symop_operation_xyz
x,y,z
1/2-x,-y,z
x,1/2-y,1/2-z
1/2-x,1/2+y,1/2-z
-x,-y,-z
1/2+x,y,-z
-x,1/2+y,1/2+z
1/2+x,1/2-y,1/2+z
loop_
_atom_site_type_symbol
_atom_site_label
_atom_site_fract_x
_atom_site_fract_y
_atom_site_fract_z
Si Si1 0.760322 0.184425 0.026466
Si Si2 0.523489 0.850499 0.536476
Si Si3 0.555507 0.250000 0.250000
Si Si4 0.750000 0.000000 0.203323
Si Si5 0.536846 0.086042 0.349145
Si Si6 0.166351 0.772163 0.637512
O O1 0.607086 0.242264 0.029643
O O2 0.851316 0.237354 0.076113
O O3 0.750000 0.000000 0.020312
O O4 0.838683 0.258902 0.977457
O O5 0.546783 0.892104 0.597510
O O6 0.500000 0.000000 0.500000
O O7 0.651431 0.398340 0.261098
O O8 0.467754 0.181547 0.299627
O O9 0.651034 0.891232 0.168247
O O10 0.683375 0.163707 0.354167
O O11 0.555082 0.897559 0.341553
#
# Coordination Sequence:
#
# PCOD8214922 Si02
#       6
#     8   8   4   4   8   8
#     4  11  21  35  53  83 115 146 179 231 277 332
#     4  11  21  36  57  79 113 148 187 224 281 335
#     4  10  18  28  44  68 104 138 182 218 272 322
#     4  10  16  26  44  68 102 142 170 218 270 338
#     4   9  18  30  46  72 101 141 178 223 267 324
#     4   9  16  28  47  70 104 136 174 217 273 323
#
# _framework density 18.682759000000001
#
# number of rings (size 3 to 8) (size 9 to 14) (size 15 to 20)
#    0.000    2.000    3.000    3.600    0.000    0.000 
#    0.000    0.000    0.000    0.000    0.000    2.800 
#    0.000    0.000    0.000    0.000    0.000    0.000 
#
# Total GULP energy -495668.833210 kJ/mol
# GULP energy per Si atom -12391.720830 kJ/mol
# Density = 1.864024 g / cm^3
# Si number density = 18.682759 Si / 1000 Ang^3
#
#
#
# Elastic Constant Matrix: (Units=GPa)
#
#
# Indices 1 2 3 4 5 6 
#
# 1 18.0951 3.9683 3.5777 0.0000 0.0000 0.0000
# 2 3.9683 130.6879 45.6718 0.0000 0.0000 0.0000
# 3 3.5777 45.6718 131.6788 0.0000 0.0000 0.0000
# 4 0.0000 0.0000 0.0000 35.4167 0.0000 0.0000
# 5 0.0000 0.0000 0.0000 0.0000 22.1348 0.0000
# 6 0.0000 0.0000 0.0000 0.0000 0.0000 7.4325
#
#
#
# Elastic Compliance Matrix: (Units=1/GPa)
#
#
# Indices 1 2 3 4 5 6 
#
# 1 0.055763 -0.001324 -0.001056 0.000000 0.000000 0.000000
# 2 -0.001324 0.008739 -0.002995 0.000000 0.000000 0.000000
# 3 -0.001056 -0.002995 0.008662 0.000000 0.000000 0.000000
# 4 0.000000 0.000000 0.000000 0.028235 0.000000 0.000000
# 5 0.000000 0.000000 0.000000 0.000000 0.045178 0.000000
# 6 0.000000 0.000000 0.000000 0.000000 0.000000 0.134544
#
#
# Mechanical properties :
#
#
# Convention : Reuss Voigt Hill
#
# Bulk Modulus (GPa) = 16.02230 42.98860 29.50545
# Shear Modulus (GPa) = 15.99106 28.14640 22.06873
#
# Velocity S-wave (km/s) = 2.92880 3.88563 3.44064
# Velocity P-wave (km/s) = 4.47568 6.57195 5.62238
#
# Compressibility (1/GPa) = 0.06241301
#
# Stress axis : x y z
#
# Youngs Moduli (GPa) = 17.93317 114.43371 115.45072
#
# Poissons Ratio (x) = 0.15154 0.12189
# Poissons Ratio (y) = 0.02375 0.34577
# Poissons Ratio (z) = 0.01893 0.34272
#
# Static dielectric constant tensor:
#      x y z
#    x 2.599350 0.000000 0.000000 
#    y 0.000000 3.847820 0.000000 
#    z 0.000000 0.000000 4.079560 
# 
# 
# High freq. dielectric constant tensor:
#      x y z
#    x 1.644940 0.000000 0.000000 
#    y 0.000000 1.748320 0.000000 
#    z 0.000000 0.000000 1.742970 
# 
# From -- ./inp_files/42151.got.cif
#   From: 2010.06.25/outbox.cif.g09.slc.cpg/sg52_22_cif.got.tgz:42151.got - 2010.06.26 19:32:48.
