data_PCOD8214169
_publ_section_title
;
Structure prediction by ZEFSAII (Michael W. Deem and Ramdas Pophale) SiO2 
 PCOD8214169
Probable space group: P M M A
;
_chemical_formula_sum "Si O2"
_cell_formula_units_Z 48
_cell_length_a 14.915270
_cell_length_b 14.195849
_cell_length_c 11.360046
_cell_angle_alpha 90.000000
_cell_angle_beta 90.000000
_cell_angle_gamma 90.000000
_cell_volume 2405.318439
_symmetry_space_group_name_H-M "P M M A"
_symmetry_group_IT_number 51
_symmetry_cell_setting 'orthorhombic'
loop_
_space_group_symop_operation_xyz
x,y,z
1/2-x,-y,z
1/2+x,-y,-z
-x,y,-z
-x,-y,-z
1/2+x,y,-z
1/2-x,y,z
x,-y,z
loop_
_atom_site_type_symbol
_atom_site_label
_atom_site_fract_x
_atom_site_fract_y
_atom_site_fract_z
Si Si1 0.103640 0.233487 0.503500
Si Si2 0.250000 0.888070 0.621426
Si Si3 0.353187 0.609026 0.686189
Si Si4 0.852394 0.258603 0.763932
Si Si5 0.404182 0.108929 0.054721
Si Si6 0.004433 0.610327 0.132062
Si Si7 0.750000 0.111542 0.114318
O O1 0.159423 0.149246 0.561985
O O2 0.115560 0.330479 0.574659
O O3 0.142709 0.248092 0.374965
O O4 0.000000 0.203377 0.500000
O O5 0.250000 0.847381 0.754298
O O6 0.250000 0.000000 0.613814
O O7 0.250000 0.630298 0.718424
O O8 0.367162 0.500000 0.651487
O O9 0.412806 0.636042 0.799666
O O10 0.750000 0.274598 0.802761
O O11 0.892134 0.164778 0.824010
O O12 0.909855 0.348193 0.802056
O O13 0.387064 0.000000 0.085623
O O14 0.500000 0.127143 0.000000
O O15 0.336557 0.147240 0.955891
O O16 0.020707 0.500000 0.127232
O O17 0.000000 0.652535 0.000000
O O18 0.750000 0.000000 0.124185
#
# Coordination Sequence:
#
# PCOD8214169 Si02
#       7
#     8   4   8   8   8   8   4
#     4  12  25  43  66  93 130 166 217 267 313 384
#     4  11  26  45  64  92 131 171 213 264 317 374
#     4  10  21  42  71  96 124 168 214 262 318 373
#     4  12  24  40  62  94 127 168 214 256 322 372
#     4  10  22  41  65  93 125 161 209 265 319 379
#     4  10  23  42  64  96 134 167 207 259 318 383
#     4   9  20  41  65  90 119 161 212 260 314 374
#
# _framework density 19.955777000000001
#
# number of rings (size 3 to 8) (size 9 to 14) (size 15 to 20)
#    0.000    1.333    4.167    0.500    2.333    4.333 
#    0.000    1.667    0.000    0.000    0.000    0.000 
#    0.000    0.000    0.000    0.000    0.000    0.000 
#
# Total GULP energy -595410.958034 kJ/mol
# GULP energy per Si atom -12404.394959 kJ/mol
# Density = 1.991036 g / cm^3
# Si number density = 19.955777 Si / 1000 Ang^3
#
#
#
# Elastic Constant Matrix: (Units=GPa)
#
#
# Indices 1 2 3 4 5 6 
#
# 1 158.7997 50.1771 51.9020 0.0000 0.0000 0.0000
# 2 50.1771 77.3433 57.8405 0.0000 0.0000 0.0000
# 3 51.9020 57.8405 159.6761 0.0000 0.0000 0.0000
# 4 0.0000 0.0000 0.0000 30.4854 0.0000 0.0000
# 5 0.0000 0.0000 0.0000 0.0000 33.3513 0.0000
# 6 0.0000 0.0000 0.0000 0.0000 0.0000 36.6727
#
#
#
# Elastic Compliance Matrix: (Units=1/GPa)
#
#
# Indices 1 2 3 4 5 6 
#
# 1 0.008034 -0.004470 -0.000992 0.000000 0.000000 0.000000
# 2 -0.004470 0.020220 -0.005872 0.000000 0.000000 0.000000
# 3 -0.000992 -0.005872 0.008712 0.000000 0.000000 0.000000
# 4 0.000000 0.000000 0.000000 0.032803 0.000000 0.000000
# 5 0.000000 0.000000 0.000000 0.000000 0.029984 0.000000
# 6 0.000000 0.000000 0.000000 0.000000 0.000000 0.027268
#
#
# Mechanical properties :
#
#
# Convention : Reuss Voigt Hill
#
# Bulk Modulus (GPa) = 69.93632 79.51760 74.72696
# Shear Modulus (GPa) = 32.37187 35.82851 34.10019
#
# Velocity S-wave (km/s) = 4.03200 4.24181 4.13823
# Velocity P-wave (km/s) = 7.53643 7.99525 7.76923
#
# Compressibility (1/GPa) = 0.01429872
#
# Stress axis : x y z
#
# Youngs Moduli (GPa) = 124.47134 49.45501 114.78326
#
# Poissons Ratio (x) = 0.22107 0.11388
# Poissons Ratio (y) = 0.55640 0.67396
# Poissons Ratio (z) = 0.12350 0.29038
#
# Static dielectric constant tensor:
#      x y z
#    x 3.869960 0.000000 0.000000 
#    y 0.000000 3.544390 0.000000 
#    z 0.000000 0.000000 3.816640 
# 
# 
# High freq. dielectric constant tensor:
#      x y z
#    x 1.795210 0.000000 0.000000 
#    y 0.000000 1.777150 0.000000 
#    z 0.000000 0.000000 1.786500 
# 
# From -- ./inp_files/16517.got.cif
#   From: 2010.03.12/outbox.cif.g09.slc.cpg/sg51_9_cif.got.tgz:16517.got - 2010.04.16 13:43:02.
