data_PCOD8214131
_publ_section_title
;
Structure prediction by ZEFSAII (Michael W. Deem and Ramdas Pophale) SiO2 
 PCOD8214131
Probable space group: P M M A
;
_chemical_formula_sum "Si O2"
_cell_formula_units_Z 48
_cell_length_a 18.837928
_cell_length_b 8.462256
_cell_length_c 14.939766
_cell_angle_alpha 90.000000
_cell_angle_beta 90.000000
_cell_angle_gamma 90.000000
_cell_volume 2381.568554
_symmetry_space_group_name_H-M "P M M A"
_symmetry_group_IT_number 51
_symmetry_cell_setting 'orthorhombic'
loop_
_space_group_symop_operation_xyz
x,y,z
1/2-x,-y,z
1/2+x,-y,-z
-x,y,-z
-x,-y,-z
1/2+x,y,-z
1/2-x,y,z
x,-y,z
loop_
_atom_site_type_symbol
_atom_site_label
_atom_site_fract_x
_atom_site_fract_y
_atom_site_fract_z
Si Si1 0.910286 0.818442 0.764843
Si Si2 0.072611 0.182934 0.547391
Si Si3 0.168662 0.317570 0.400663
Si Si4 0.332388 0.316008 0.069335
Si Si5 0.938680 0.317281 0.262236
Si Si6 0.167083 0.183112 0.878293
O O1 0.872454 0.710246 0.691496
O O2 0.878559 0.784067 0.861848
O O3 0.993748 0.785186 0.766441
O O4 0.897520 0.000000 0.739112
O O5 0.137548 0.212522 0.480489
O O6 0.083310 0.286119 0.635640
O O7 0.000000 0.236455 0.500000
O O8 0.069847 0.000000 0.574692
O O9 0.250000 0.268469 0.386377
O O10 0.160730 0.500000 0.427125
O O11 0.250000 0.276206 0.085525
O O12 0.348195 0.500000 0.082855
O O13 0.356152 0.264387 0.970737
O O14 0.956973 0.500000 0.248972
O O15 0.872496 0.269627 0.201747
O O16 0.250000 0.207311 0.860573
O O17 0.146147 0.000000 0.881879
#
# Coordination Sequence:
#
# PCOD8214131 Si02
#       6
#     8   8   8   8   8   8
#     4  12  24  39  61  91 126 164 207 253 307 368
#     4  11  23  41  65  91 121 161 205 251 306 367
#     4  11  24  41  63  93 126 162 206 254 305 365
#     4  10  21  39  63  91 125 164 206 253 307 366
#     4  12  25  41  65  92 123 163 206 254 309 367
#     4  10  22  42  66  92 124 161 204 255 308 365
#
# _framework density 20.154783999999999
#
# number of rings (size 3 to 8) (size 9 to 14) (size 15 to 20)
#    0.000    1.000    1.667    5.500    0.000    7.333 
#    0.000    3.333    0.000    0.000    0.000    0.000 
#    0.000    0.000    0.000    0.000    0.000    0.000 
#
# Total GULP energy -595630.071172 kJ/mol
# GULP energy per Si atom -12408.959816 kJ/mol
# Density = 2.010891 g / cm^3
# Si number density = 20.154784 Si / 1000 Ang^3
#
#
#
# Elastic Constant Matrix: (Units=GPa)
#
#
# Indices 1 2 3 4 5 6 
#
# 1 81.7888 26.5354 51.0332 0.0000 0.0000 0.0000
# 2 26.5354 78.6383 25.0361 0.0000 0.0000 0.0000
# 3 51.0332 25.0361 119.9659 0.0000 0.0000 0.0000
# 4 0.0000 0.0000 0.0000 38.1409 0.0000 0.0000
# 5 0.0000 0.0000 0.0000 0.0000 36.6133 0.0000
# 6 0.0000 0.0000 0.0000 0.0000 0.0000 30.6324
#
#
#
# Elastic Compliance Matrix: (Units=1/GPa)
#
#
# Indices 1 2 3 4 5 6 
#
# 1 0.017655 -0.003820 -0.006713 0.000000 0.000000 0.000000
# 2 -0.003820 0.014448 -0.001390 0.000000 0.000000 0.000000
# 3 -0.006713 -0.001390 0.011482 0.000000 0.000000 0.000000
# 4 0.000000 0.000000 0.000000 0.026219 0.000000 0.000000
# 5 0.000000 0.000000 0.000000 0.000000 0.027313 0.000000
# 6 0.000000 0.000000 0.000000 0.000000 0.000000 0.032645
#
#
# Mechanical properties :
#
#
# Convention : Reuss Voigt Hill
#
# Bulk Modulus (GPa) = 50.66444 53.95582 52.31013
# Shear Modulus (GPa) = 31.21366 32.92987 32.07177
#
# Velocity S-wave (km/s) = 3.93962 4.04647 3.99340
# Velocity P-wave (km/s) = 6.77395 6.97573 6.87558
#
# Compressibility (1/GPa) = 0.01973771
#
# Stress axis : x y z
#
# Youngs Moduli (GPa) = 56.64222 69.21339 87.09652
#
# Poissons Ratio (x) = 0.26440 0.58468
# Poissons Ratio (y) = 0.21638 0.12108
# Poissons Ratio (z) = 0.38024 0.09622
#
# Static dielectric constant tensor:
#      x y z
#    x 3.662520 0.000000 0.000000 
#    y 0.000000 3.708820 0.000000 
#    z 0.000000 0.000000 3.664830 
# 
# 
# High freq. dielectric constant tensor:
#      x y z
#    x 1.786840 0.000000 0.000000 
#    y 0.000000 1.800520 0.000000 
#    z 0.000000 0.000000 1.796620 
# 
# From -- ./inp_files/24816.got.cif
#   From: 2010.03.12/outbox.cif.g09.slc.cpg/sg51_13_cif.got.tgz:24816.got - 2010.04.16 13:43:02.
