data_PCOD8214348
_publ_section_title
;
Structure prediction by ZEFSAII (Michael W. Deem and Ramdas Pophale) SiO2 
 PCOD8214348
Probable space group: P M M A
;
_chemical_formula_sum "Si O2"
_cell_formula_units_Z 48
_cell_length_a 14.786802
_cell_length_b 18.447190
_cell_length_c 8.750910
_cell_angle_alpha 90.000000
_cell_angle_beta 90.000000
_cell_angle_gamma 90.000000
_cell_volume 2387.029003
_symmetry_space_group_name_H-M "P M M A"
_symmetry_group_IT_number 51
_symmetry_cell_setting 'orthorhombic'
loop_
_space_group_symop_operation_xyz
x,y,z
1/2-x,-y,z
1/2+x,-y,-z
-x,y,-z
-x,-y,-z
1/2+x,y,-z
1/2-x,y,z
x,-y,z
loop_
_atom_site_type_symbol
_atom_site_label
_atom_site_fract_x
_atom_site_fract_y
_atom_site_fract_z
Si Si1 0.250000 0.582701 0.460038
Si Si2 0.402834 0.664570 0.943752
Si Si3 0.085089 0.334762 0.597379
Si Si4 0.353840 0.196348 0.114955
Si Si5 0.647291 0.083501 0.129585
Si Si6 0.020037 0.177710 0.661713
Si Si7 0.250000 0.420982 0.101742
O O1 0.250000 0.500000 0.530749
O O2 0.332917 0.632956 0.504633
O O3 0.250000 0.574451 0.281258
O O4 0.400448 0.637719 0.769711
O O5 0.500000 0.644715 0.000000
O O6 0.379261 0.749232 0.974871
O O7 0.338060 0.619054 0.048067
O O8 0.079437 0.247860 0.615274
O O9 0.000000 0.364153 0.500000
O O10 0.250000 0.211057 0.173217
O O11 0.427078 0.202924 0.251757
O O12 0.360726 0.116830 0.040577
O O13 0.750000 0.093200 0.190952
O O14 0.577558 0.121522 0.242165
O O15 0.620085 0.000000 0.115920
O O16 0.000000 0.138357 0.500000
O O17 0.250000 0.500000 0.027344
#
# Coordination Sequence:
#
# PCOD8214348 Si02
#       7
#     4   8   8   8   8   8   4
#     4  11  27  47  67  95 135 176 210 265 342 399
#     4  12  21  39  69  93 124 168 221 269 318 381
#     4  11  24  41  65  99 131 171 217 267 326 394
#     4  11  22  40  66  96 127 169 221 274 322 386
#     4  10  22  41  66  96 134 178 220 270 327 382
#     4  11  24  39  62 101 133 174 219 267 329 389
#     4  11  27  45  65  99 131 168 216 269 328 391
#
# _framework density 20.108678999999999
#
# number of rings (size 3 to 8) (size 9 to 14) (size 15 to 20)
#    0.000    1.000    4.167    2.000    3.500    4.333 
#    0.000    0.000    0.000    2.000    0.000    0.000 
#    0.000    0.000    0.000    0.000    0.000    0.000 
#
# Total GULP energy -594855.954952 kJ/mol
# GULP energy per Si atom -12392.832395 kJ/mol
# Density = 2.006291 g / cm^3
# Si number density = 20.108679 Si / 1000 Ang^3
#
#
#
# Elastic Constant Matrix: (Units=GPa)
#
#
# Indices 1 2 3 4 5 6 
#
# 1 149.0600 65.4971 44.1929 0.0000 0.0000 0.0000
# 2 65.4971 109.8937 32.6325 0.0000 0.0000 0.0000
# 3 44.1929 32.6325 102.3650 0.0000 0.0000 0.0000
# 4 0.0000 0.0000 0.0000 25.3250 0.0000 0.0000
# 5 0.0000 0.0000 0.0000 0.0000 38.1282 0.0000
# 6 0.0000 0.0000 0.0000 0.0000 0.0000 81.8575
#
#
#
# Elastic Compliance Matrix: (Units=1/GPa)
#
#
# Indices 1 2 3 4 5 6 
#
# 1 0.009670 -0.004996 -0.002582 0.000000 0.000000 0.000000
# 2 -0.004996 0.012633 -0.001870 0.000000 0.000000 0.000000
# 3 -0.002582 -0.001870 0.011480 0.000000 0.000000 0.000000
# 4 0.000000 0.000000 0.000000 0.039487 0.000000 0.000000
# 5 0.000000 0.000000 0.000000 0.000000 0.026227 0.000000
# 6 0.000000 0.000000 0.000000 0.000000 0.000000 0.012216
#
#
# Mechanical properties :
#
#
# Convention : Reuss Voigt Hill
#
# Bulk Modulus (GPa) = 67.17916 71.77374 69.47645
# Shear Modulus (GPa) = 36.88100 43.66189 40.27145
#
# Velocity S-wave (km/s) = 4.28727 4.66477 4.48000
# Velocity P-wave (km/s) = 7.61499 8.04884 7.83492
#
# Compressibility (1/GPa) = 0.01488557
#
# Stress axis : x y z
#
# Youngs Moduli (GPa) = 103.41693 79.15804 87.11016
#
# Poissons Ratio (x) = 0.39551 0.22490
# Poissons Ratio (y) = 0.51672 0.16291
# Poissons Ratio (z) = 0.26700 0.14804
#
# Static dielectric constant tensor:
#      x y z
#    x 3.835240 0.000000 0.000000 
#    y 0.000000 3.680820 0.000000 
#    z 0.000000 0.000000 3.759380 
# 
# 
# High freq. dielectric constant tensor:
#      x y z
#    x 1.801470 0.000000 0.000000 
#    y 0.000000 1.775830 0.000000 
#    z 0.000000 0.000000 1.788840 
# 
# From -- ./inp_files/8296.got.cif
#   From: 2010.03.12/outbox.cif.g09.slc.cpg/sg51_5_cif.got.tgz:8296.got - 2010.04.16 13:43:02.
