data_PCOD8214718
_publ_section_title
;
Structure prediction by ZEFSAII (Michael W. Deem and Ramdas Pophale) SiO2 
 PCOD8214718
Probable space group: P M M A
;
_chemical_formula_sum "Si O2"
_cell_formula_units_Z 48
_cell_length_a 9.870737
_cell_length_b 9.159046
_cell_length_c 30.999353
_cell_angle_alpha 90.000000
_cell_angle_beta 90.000000
_cell_angle_gamma 90.000000
_cell_volume 2802.544068
_symmetry_space_group_name_H-M "P M M A"
_symmetry_group_IT_number 51
_symmetry_cell_setting 'orthorhombic'
loop_
_space_group_symop_operation_xyz
x,y,z
1/2-x,-y,z
1/2+x,-y,-z
-x,y,-z
-x,-y,-z
1/2+x,y,-z
1/2-x,y,z
x,-y,z
loop_
_atom_site_type_symbol
_atom_site_label
_atom_site_fract_x
_atom_site_fract_y
_atom_site_fract_z
Si Si1 0.098157 0.826230 0.536252
Si Si2 0.411109 0.164377 0.124704
Si Si3 0.906348 0.171565 0.707288
Si Si4 0.911216 0.335401 0.792648
Si Si5 0.405972 0.329725 0.039480
Si Si6 0.598224 0.826521 0.368085
O O1 0.250000 0.773061 0.525946
O O2 0.054910 0.771781 0.584100
O O3 0.000000 0.757352 0.500000
O O4 0.091139 0.000000 0.534839
O O5 0.250000 0.163699 0.127066
O O6 0.470609 0.251588 0.165705
O O7 0.458912 0.242702 0.081047
O O8 0.468608 0.000000 0.125464
O O9 0.750000 0.208091 0.697799
O O10 0.960292 0.252679 0.749798
O O11 0.992599 0.233614 0.667089
O O12 0.928011 0.000000 0.714583
O O13 0.750000 0.335754 0.794660
O O14 0.968231 0.500000 0.792389
O O15 0.250000 0.291738 0.028413
O O16 0.422754 0.500000 0.049732
O O17 0.500000 0.280338 0.000000
O O18 0.750000 0.770871 0.357144
O O19 0.596117 0.000000 0.367555
#
# Coordination Sequence:
#
# PCOD8214718 Si02
#       6
#     8   8   8   8   8   8
#     4   8  13  20  30  46  70 101 135 167 199 238
#     4   9  16  26  42  64  88 113 142 176 212 250
#     4   9  16  25  39  60  82 103 132 170 206 240
#     4   9  16  26  41  61  85 110 135 168 211 253
#     4   9  17  29  45  65  89 117 147 177 211 251
#     4   8  14  24  36  51  75 108 140 167 201 247
#
# _framework density 17.127295
#
# number of rings (size 3 to 8) (size 9 to 14) (size 15 to 20)
#    0.000    3.333    0.000    2.000    0.000    5.000 
#    0.000    3.333    0.000    1.500    0.000    0.000 
#    0.000    0.667    0.000    1.500    0.000    3.000 
#
# Total GULP energy -594977.680994 kJ/mol
# GULP energy per Si atom -12395.368354 kJ/mol
# Density = 1.708831 g / cm^3
# Si number density = 17.127295 Si / 1000 Ang^3
#
#
#
# Elastic Constant Matrix: (Units=GPa)
#
#
# Indices 1 2 3 4 5 6 
#
# 1 58.6281 26.0871 74.8343 0.0000 0.0000 0.0000
# 2 26.0871 62.3435 60.8137 0.0000 0.0000 0.0000
# 3 74.8343 60.8137 192.9826 0.0000 0.0000 0.0000
# 4 0.0000 0.0000 0.0000 7.1883 0.0000 0.0000
# 5 0.0000 0.0000 0.0000 0.0000 27.8670 0.0000
# 6 0.0000 0.0000 0.0000 0.0000 0.0000 7.0374
#
#
#
# Elastic Compliance Matrix: (Units=1/GPa)
#
#
# Indices 1 2 3 4 5 6 
#
# 1 0.033940 -0.001969 -0.012541 0.000000 0.000000 0.000000
# 2 -0.001969 0.023273 -0.006571 0.000000 0.000000 0.000000
# 3 -0.012541 -0.006571 0.012115 0.000000 0.000000 0.000000
# 4 0.000000 0.000000 0.000000 0.139115 0.000000 0.000000
# 5 0.000000 0.000000 0.000000 0.000000 0.035885 0.000000
# 6 0.000000 0.000000 0.000000 0.000000 0.000000 0.142098
#
#
# Mechanical properties :
#
#
# Convention : Reuss Voigt Hill
#
# Bulk Modulus (GPa) = 36.80744 70.82492 53.81618
# Shear Modulus (GPa) = 11.42485 18.56649 14.99567
#
# Velocity S-wave (km/s) = 2.58554 3.29603 2.96217
# Velocity P-wave (km/s) = 5.51820 7.47843 6.57181
#
# Compressibility (1/GPa) = 0.02716842
#
# Stress axis : x y z
#
# Youngs Moduli (GPa) = 29.46375 42.96772 82.53991
#
# Poissons Ratio (x) = 0.08460 1.03511
# Poissons Ratio (y) = 0.05801 0.54233
# Poissons Ratio (z) = 0.36950 0.28232
#
# Static dielectric constant tensor:
#      x y z
#    x 2.979130 0.000000 0.000000 
#    y 0.000000 2.946740 0.000000 
#    z 0.000000 0.000000 3.517010 
# 
# 
# High freq. dielectric constant tensor:
#      x y z
#    x 1.619420 0.000000 0.000000 
#    y 0.000000 1.627520 0.000000 
#    z 0.000000 0.000000 1.676640 
# 
# From -- ./inp_files/36497.got.cif
#   From: 2010.03.12/outbox.cif.g09.slc.cpg/sg51_19_cif.got.tgz:36497.got - 2010.04.16 13:43:02.
