data_PCOD8214655
_publ_section_title
;
Structure prediction by ZEFSAII (Michael W. Deem and Ramdas Pophale) SiO2 
 PCOD8214655
Probable space group: P M M A
;
_chemical_formula_sum "Si O2"
_cell_formula_units_Z 32
_cell_length_a 16.209536
_cell_length_b 8.762966
_cell_length_c 11.130381
_cell_angle_alpha 90.000000
_cell_angle_beta 90.000000
_cell_angle_gamma 90.000000
_cell_volume 1580.999530
_symmetry_space_group_name_H-M "P M M A"
_symmetry_group_IT_number 51
_symmetry_cell_setting 'orthorhombic'
loop_
_space_group_symop_operation_xyz
x,y,z
1/2-x,-y,z
1/2+x,-y,-z
-x,y,-z
-x,-y,-z
1/2+x,y,-z
1/2-x,y,z
x,-y,z
loop_
_atom_site_type_symbol
_atom_site_label
_atom_site_fract_x
_atom_site_fract_y
_atom_site_fract_z
Si Si1 0.418096 0.321506 0.070003
Si Si2 0.939343 0.171099 0.681911
Si Si3 0.250000 0.326792 0.720824
Si Si4 0.250000 0.821650 0.971433
Si Si5 0.381152 0.828651 0.571930
O O1 0.409572 0.500000 0.046465
O O2 0.427306 0.290388 0.211338
O O3 0.500000 0.259113 0.000000
O O4 0.333869 0.245069 0.026251
O O5 0.879169 0.209704 0.570395
O O6 0.029720 0.181950 0.628890
O O7 0.922042 0.000000 0.730654
O O8 0.250000 0.500000 0.768315
O O9 0.250000 0.210668 0.830658
O O10 0.171063 0.298606 0.638798
O O11 0.250000 0.000000 0.996209
O O12 0.345805 0.000000 0.590740
#
# Coordination Sequence:
#
# PCOD8214655 Si02
#       5
#     8   8   4   4   8
#     4  11  24  41  62  90 125 161 197 246 305 360
#     4   9  19  37  61  87 114 150 197 241 285 344
#     4  12  24  37  56  85 118 149 187 237 295 352
#     4  12  26  43  64  87 116 159 207 251 293 352
#     4   9  19  37  60  85 114 150 193 239 285 342
#
# _framework density 20.240361
#
# number of rings (size 3 to 8) (size 9 to 14) (size 15 to 20)
#    0.000    1.750    0.000    6.000    0.000    9.000 
#    0.000    3.750    0.000    0.000    0.000    0.000 
#    0.000    0.000    0.000    0.000    0.000    0.000 
#
# Total GULP energy -396742.061376 kJ/mol
# GULP energy per Si atom -12398.189418 kJ/mol
# Density = 2.019429 g / cm^3
# Si number density = 20.240361 Si / 1000 Ang^3
#
#
#
# Elastic Constant Matrix: (Units=GPa)
#
#
# Indices 1 2 3 4 5 6 
#
# 1 111.5822 44.1546 51.6464 0.0000 0.0000 0.0000
# 2 44.1546 88.2267 36.4564 0.0000 0.0000 0.0000
# 3 51.6464 36.4564 128.8906 0.0000 0.0000 0.0000
# 4 0.0000 0.0000 0.0000 31.0122 0.0000 0.0000
# 5 0.0000 0.0000 0.0000 0.0000 28.0751 0.0000
# 6 0.0000 0.0000 0.0000 0.0000 0.0000 -18.1575
#
#
#
# Elastic Compliance Matrix: (Units=1/GPa)
#
#
# Indices 1 2 3 4 5 6 
#
# 1 0.012550 -0.004759 -0.003683 0.000000 0.000000 0.000000
# 2 -0.004759 0.014639 -0.002234 0.000000 0.000000 0.000000
# 3 -0.003683 -0.002234 0.009866 0.000000 0.000000 0.000000
# 4 0.000000 0.000000 0.000000 0.032245 0.000000 0.000000
# 5 0.000000 0.000000 0.000000 0.000000 0.035619 0.000000
# 6 0.000000 0.000000 0.000000 0.000000 0.000000 -0.055074
#
#
# Mechanical properties :
#
#
# Convention : Reuss Voigt Hill
#
# Bulk Modulus (GPa) = 63.67739 65.91270 64.79504
# Shear Modulus (GPa) = 65.41887 21.28211 43.35049
#
# Velocity S-wave (km/s) = 5.69132 3.24615 4.63296
# Velocity P-wave (km/s) = 8.64391 6.83269 7.79111
#
# Compressibility (1/GPa) = 0.01570416
#
# Stress axis : x y z
#
# Youngs Moduli (GPa) = 79.68310 68.30988 101.35898
#
# Poissons Ratio (x) = 0.32509 0.37326
# Poissons Ratio (y) = 0.37921 0.22641
# Poissons Ratio (z) = 0.29344 0.15258
#
# Static dielectric constant tensor:
#      x y z
#    x 3.650250 0.000000 0.000000 
#    y 0.000000 3.634420 0.000000 
#    z 0.000000 0.000000 3.942600 
# 
# 
# High freq. dielectric constant tensor:
#      x y z
#    x 1.795240 0.000000 0.000000 
#    y 0.000000 1.782410 0.000000 
#    z 0.000000 0.000000 1.802610 
# 
# From -- ./inp_files/15855.got.cif
#   From: 2010.03.12/outbox.cif.g09.slc.cpg/sg51_8_cif.got.tgz:15855.got - 2010.04.16 13:43:02.
