data_PCOD8214108
_publ_section_title
;
Structure prediction by ZEFSAII (Michael W. Deem and Ramdas Pophale) SiO2 
 PCOD8214108
Probable space group: P M M A
;
_chemical_formula_sum "Si O2"
_cell_formula_units_Z 40
_cell_length_a 8.933964
_cell_length_b 14.586811
_cell_length_c 14.838853
_cell_angle_alpha 90.000000
_cell_angle_beta 90.000000
_cell_angle_gamma 90.000000
_cell_volume 1933.770303
_symmetry_space_group_name_H-M "P M M A"
_symmetry_group_IT_number 51
_symmetry_cell_setting 'orthorhombic'
loop_
_space_group_symop_operation_xyz
x,y,z
1/2-x,-y,z
1/2+x,-y,-z
-x,y,-z
-x,-y,-z
1/2+x,y,-z
1/2-x,y,z
x,-y,z
loop_
_atom_site_type_symbol
_atom_site_label
_atom_site_fract_x
_atom_site_fract_y
_atom_site_fract_z
Si Si1 0.923201 0.892189 0.229592
Si Si2 0.923720 0.604353 0.414393
Si Si3 0.918237 0.891045 0.588405
Si Si4 0.427296 0.755168 0.097157
Si Si5 0.424169 0.392587 0.784579
O O1 0.750000 0.863435 0.225967
O O2 0.988194 0.858901 0.325093
O O3 0.013105 0.843036 0.150690
O O4 0.944901 0.000000 0.215839
O O5 0.750000 0.609230 0.431823
O O6 0.981028 0.500000 0.411794
O O7 0.963100 0.645765 0.316033
O O8 0.000000 0.656003 0.500000
O O9 0.750000 0.851237 0.593721
O O10 0.000000 0.851239 0.500000
O O11 0.912915 0.000000 0.583432
O O12 0.250000 0.760895 0.088644
O O13 0.472799 0.660830 0.145539
O O14 0.500000 0.756859 0.000000
O O15 0.250000 0.374120 0.805885
O O16 0.459787 0.500000 0.792918
#
# Coordination Sequence:
#
# PCOD8214108 Si02
#       5
#     8   8   8   8   8
#     4  10  21  39  63  89 118 153 193 239 291 346
#     4   8  14  26  48  79 114 151 187 225 272 326
#     4   9  16  28  50  82 119 157 195 234 280 337
#     4  12  26  43  63  86 114 148 190 242 297 353
#     4   9  19  38  62  87 118 155 194 238 288 341
#
# _framework density 20.684979999999999
#
# number of rings (size 3 to 8) (size 9 to 14) (size 15 to 20)
#    0.000    2.400    0.000    4.200    0.000    5.600 
#    0.000    3.000    0.000    2.400    0.000    0.000 
#    0.000    0.000    0.000    0.000    0.000    0.000 
#
# Total GULP energy -495908.147596 kJ/mol
# GULP energy per Si atom -12397.703690 kJ/mol
# Density = 2.063790 g / cm^3
# Si number density = 20.684980 Si / 1000 Ang^3
#
#
#
# Elastic Constant Matrix: (Units=GPa)
#
#
# Indices 1 2 3 4 5 6 
#
# 1 162.2333 43.1240 97.9378 0.0000 0.0000 0.0000
# 2 43.1240 61.2041 45.8104 0.0000 0.0000 0.0000
# 3 97.9378 45.8104 196.9887 0.0000 0.0000 0.0000
# 4 0.0000 0.0000 0.0000 30.5150 0.0000 0.0000
# 5 0.0000 0.0000 0.0000 0.0000 44.4898 0.0000
# 6 0.0000 0.0000 0.0000 0.0000 0.0000 28.0770
#
#
#
# Elastic Compliance Matrix: (Units=1/GPa)
#
#
# Indices 1 2 3 4 5 6 
#
# 1 0.009492 -0.003821 -0.003831 0.000000 0.000000 0.000000
# 2 -0.003821 0.021320 -0.003058 0.000000 0.000000 0.000000
# 3 -0.003831 -0.003058 0.007692 0.000000 0.000000 0.000000
# 4 0.000000 0.000000 0.000000 0.032771 0.000000 0.000000
# 5 0.000000 0.000000 0.000000 0.000000 0.022477 0.000000
# 6 0.000000 0.000000 0.000000 0.000000 0.000000 0.035616
#
#
# Mechanical properties :
#
#
# Convention : Reuss Voigt Hill
#
# Bulk Modulus (GPa) = 58.53263 88.24117 73.38690
# Shear Modulus (GPa) = 31.95225 36.18662 34.06943
#
# Velocity S-wave (km/s) = 3.93454 4.18714 4.06280
# Velocity P-wave (km/s) = 6.99996 8.13193 7.58709
#
# Compressibility (1/GPa) = 0.01708449
#
# Stress axis : x y z
#
# Youngs Moduli (GPa) = 105.35027 46.90399 130.00180
#
# Poissons Ratio (x) = 0.17922 0.49800
# Poissons Ratio (y) = 0.40253 0.39760
# Poissons Ratio (z) = 0.40356 0.14345
#
# Static dielectric constant tensor:
#      x y z
#    x 4.238510 0.000000 0.000000 
#    y 0.000000 3.472050 0.000000 
#    z 0.000000 0.000000 4.114870 
# 
# 
# High freq. dielectric constant tensor:
#      x y z
#    x 1.810350 0.000000 0.000000 
#    y 0.000000 1.794600 0.000000 
#    z 0.000000 0.000000 1.818100 
# 
# From -- ./inp_files/20474.got.cif
#   From: 2010.03.12/outbox.cif.g09.slc.cpg/sg51_11_cif.got.tgz:20474.got - 2010.04.16 13:43:02.
