data_PCOD8214642
_publ_section_title
;
Structure prediction by ZEFSAII (Michael W. Deem and Ramdas Pophale) SiO2 
 PCOD8214642
Probable space group: P M M A
;
_chemical_formula_sum "Si O2"
_cell_formula_units_Z 56
_cell_length_a 19.599269
_cell_length_b 8.768518
_cell_length_c 17.876121
_cell_angle_alpha 90.000000
_cell_angle_beta 90.000000
_cell_angle_gamma 90.000000
_cell_volume 3072.128358
_symmetry_space_group_name_H-M "P M M A"
_symmetry_group_IT_number 51
_symmetry_cell_setting 'orthorhombic'
loop_
_space_group_symop_operation_xyz
x,y,z
1/2-x,-y,z
1/2+x,-y,-z
-x,y,-z
-x,-y,-z
1/2+x,y,-z
1/2-x,y,z
x,-y,z
loop_
_atom_site_type_symbol
_atom_site_label
_atom_site_fract_x
_atom_site_fract_y
_atom_site_fract_z
Si Si1 0.070750 0.318113 0.534227
Si Si2 0.828421 0.180180 0.017453
Si Si3 0.947921 0.681046 0.302516
Si Si4 0.922237 0.679556 0.890370
Si Si5 0.096667 0.680886 0.273909
Si Si6 0.824749 0.317827 0.585943
Si Si7 0.078651 0.319868 0.861029
O O1 0.070359 0.500000 0.533553
O O2 0.084740 0.259074 0.619443
O O3 0.129525 0.251923 0.481039
O O4 0.000000 0.256955 0.500000
O O5 0.750000 0.241152 0.009248
O O6 0.861165 0.237025 0.094750
O O7 0.827777 0.000000 0.017143
O O8 0.878013 0.236038 0.952032
O O9 0.950456 0.500000 0.303390
O O10 0.910442 0.731908 0.225834
O O11 0.024301 0.747137 0.300363
O O12 0.915925 0.500000 0.904588
O O13 0.888376 0.729933 0.811356
O O14 0.002683 0.725973 0.890871
O O15 0.093006 0.500000 0.276577
O O16 0.152318 0.743318 0.332355
O O17 0.750000 0.253520 0.571178
O O18 0.827134 0.500000 0.585830
O O19 0.087537 0.500000 0.870177
#
# Coordination Sequence:
#
# PCOD8214642 Si02
#       7
#     8   8   8   8   8   8   8
#     4   9  13  19  34  53  80 121 158 182 217 269
#     4  11  24  38  50  68  96 129 164 200 242 295
#     4   8  13  23  40  62  86 116 155 191 225 274
#     4   9  18  32  53  77  98 121 157 201 245 294
#     4   8  13  23  38  59  86 115 146 184 229 279
#     4   9  15  20  28  49  83 119 153 187 223 267
#     4   9  18  33  53  76  99 123 159 205 246 288
#
# _framework density 18.228404999999999
#
# number of rings (size 3 to 8) (size 9 to 14) (size 15 to 20)
#    0.000    3.000    1.429    2.571    0.000    4.000 
#    0.000    2.143    0.000    2.571    0.000    0.000 
#    0.000    1.714    0.000    3.571    0.000    2.571 
#
# Total GULP energy -693735.366013 kJ/mol
# GULP energy per Si atom -12388.131536 kJ/mol
# Density = 1.818692 g / cm^3
# Si number density = 18.228405 Si / 1000 Ang^3
#
#
#
# Elastic Constant Matrix: (Units=GPa)
#
#
# Indices 1 2 3 4 5 6 
#
# 1 107.4431 19.3315 67.0626 0.0000 0.0000 0.0000
# 2 19.3315 20.2389 18.2501 0.0000 0.0000 0.0000
# 3 67.0626 18.2501 157.2200 0.0000 0.0000 0.0000
# 4 0.0000 0.0000 0.0000 -3.7435 0.0000 0.0000
# 5 0.0000 0.0000 0.0000 0.0000 27.1930 0.0000
# 6 0.0000 0.0000 0.0000 0.0000 0.0000 14.0949
#
#
#
# Elastic Compliance Matrix: (Units=1/GPa)
#
#
# Indices 1 2 3 4 5 6 
#
# 1 0.013990 -0.008915 -0.004933 0.000000 0.000000 0.000000
# 2 -0.008915 0.060867 -0.003263 0.000000 0.000000 0.000000
# 3 -0.004933 -0.003263 0.008843 0.000000 0.000000 0.000000
# 4 0.000000 0.000000 0.000000 -0.267129 0.000000 0.000000
# 5 0.000000 0.000000 0.000000 0.000000 0.036774 0.000000
# 6 0.000000 0.000000 0.000000 0.000000 0.000000 0.070948
#
#
# Mechanical properties :
#
#
# Convention : Reuss Voigt Hill
#
# Bulk Modulus (GPa) = 20.21025 54.91004 37.56015
# Shear Modulus (GPa) = -200.05575 19.52607 -90.26484
#
# Velocity S-wave (km/s) = -10.48750 3.27645 -7.04459
# Velocity P-wave (km/s) = 11.64212 6.67100 6.74673
#
# Compressibility (1/GPa) = 0.04947983
#
# Stress axis : x y z
#
# Youngs Moduli (GPa) = 71.47934 16.42923 113.08004
#
# Poissons Ratio (x) = 0.14646 0.55778
# Poissons Ratio (y) = 0.63723 0.36896
# Poissons Ratio (z) = 0.35258 0.05360
#
# Static dielectric constant tensor:
#      x y z
#    x 3.479780 0.000000 0.000000 
#    y 0.000000 2.696100 0.000000 
#    z 0.000000 0.000000 3.858850 
# 
# 
# High freq. dielectric constant tensor:
#      x y z
#    x 1.690270 0.000000 0.000000 
#    y 0.000000 1.637220 0.000000 
#    z 0.000000 0.000000 1.730160 
# 
# From -- ./inp_files/30350.got.cif
#   From: 2010.03.12/outbox.cif.g09.slc.cpg/sg51_16_cif.got.tgz:30350.got - 2010.04.16 13:43:02.
