data_PCOD8214338
_publ_section_title
;
Structure prediction by ZEFSAII (Michael W. Deem and Ramdas Pophale) SiO2 
 PCOD8214338
Probable space group: P M M A
;
_chemical_formula_sum "Si O2"
_cell_formula_units_Z 56
_cell_length_a 14.783107
_cell_length_b 8.736651
_cell_length_c 21.835660
_cell_angle_alpha 90.000000
_cell_angle_beta 90.000000
_cell_angle_gamma 90.000000
_cell_volume 2820.181317
_symmetry_space_group_name_H-M "P M M A"
_symmetry_group_IT_number 51
_symmetry_cell_setting 'orthorhombic'
loop_
_space_group_symop_operation_xyz
x,y,z
1/2-x,-y,z
1/2+x,-y,-z
-x,y,-z
-x,-y,-z
1/2+x,y,-z
1/2-x,y,z
x,-y,z
loop_
_atom_site_type_symbol
_atom_site_label
_atom_site_fract_x
_atom_site_fract_y
_atom_site_fract_z
Si Si1 0.750000 0.318892 0.386058
Si Si2 0.250000 0.318062 0.475230
Si Si3 0.560925 0.180938 0.557201
Si Si4 0.393883 0.674391 0.004703
Si Si5 0.441601 0.319082 0.661477
Si Si6 0.850999 0.173231 0.117009
Si Si7 0.994138 0.677966 0.201986
Si Si8 0.648304 0.173506 0.868978
O O1 0.750000 0.500000 0.385779
O O2 0.750000 0.256826 0.455215
O O3 0.659939 0.258887 0.352243
O O4 0.250000 0.500000 0.471434
O O5 0.340075 0.256198 0.442832
O O6 0.500000 0.238528 0.500000
O O7 0.512513 0.231795 0.619196
O O8 0.572609 0.000000 0.555571
O O9 0.364214 0.500000 0.993581
O O10 0.361550 0.722868 0.071397
O O11 0.500000 0.695675 0.000000
O O12 0.347256 0.779974 0.954041
O O13 0.450000 0.500000 0.649731
O O14 0.462844 0.272941 0.730808
O O15 0.750000 0.185555 0.144049
O O16 0.914922 0.286682 0.154123
O O17 0.887582 0.000000 0.122643
O O18 0.016438 0.500000 0.197983
O O19 0.084373 0.769635 0.185565
O O20 0.750000 0.185686 0.843724
O O21 0.622885 0.000000 0.886474
#
# Coordination Sequence:
#
# PCOD8214338 Si02
#       8
#     4   4   8   8   8   8   8   8
#     4   9  18  35  63  95 123 157 202 249 296 355
#     4  11  21  37  67  95 123 163 210 253 302 365
#     4  11  23  39  61  92 130 163 199 253 311 362
#     4  11  22  37  61  92 121 152 196 253 313 361
#     4  10  22  41  64  91 123 164 211 252 299 361
#     4  11  24  40  60  88 123 161 199 241 299 369
#     4  11  24  41  64  91 121 159 204 255 301 353
#     4  11  24  42  65  89 117 159 206 252 310 373
#
# _framework density 19.856878999999999
#
# number of rings (size 3 to 8) (size 9 to 14) (size 15 to 20)
#    0.000    1.286    2.857    2.786    1.000    6.286 
#    1.286    0.357    0.000    0.000    0.000    0.000 
#    0.000    0.000    0.000    0.000    0.000    0.000 
#
# Total GULP energy -694687.176215 kJ/mol
# GULP energy per Si atom -12405.128147 kJ/mol
# Density = 1.981168 g / cm^3
# Si number density = 19.856879 Si / 1000 Ang^3
#
#
#
# Elastic Constant Matrix: (Units=GPa)
#
#
# Indices 1 2 3 4 5 6 
#
# 1 151.9638 41.4477 55.7525 0.0000 0.0000 0.0000
# 2 41.4477 66.2996 22.5459 0.0000 0.0000 0.0000
# 3 55.7525 22.5459 106.0801 0.0000 0.0000 0.0000
# 4 0.0000 0.0000 0.0000 22.6680 0.0000 0.0000
# 5 0.0000 0.0000 0.0000 0.0000 15.4989 0.0000
# 6 0.0000 0.0000 0.0000 0.0000 0.0000 99.2016
#
#
#
# Elastic Compliance Matrix: (Units=1/GPa)
#
#
# Indices 1 2 3 4 5 6 
#
# 1 0.009223 -0.004438 -0.003904 0.000000 0.000000 0.000000
# 2 -0.004438 0.018394 -0.001577 0.000000 0.000000 0.000000
# 3 -0.003904 -0.001577 0.011814 0.000000 0.000000 0.000000
# 4 0.000000 0.000000 0.000000 0.044115 0.000000 0.000000
# 5 0.000000 0.000000 0.000000 0.000000 0.064521 0.000000
# 6 0.000000 0.000000 0.000000 0.000000 0.000000 0.010080
#
#
# Mechanical properties :
#
#
# Convention : Reuss Voigt Hill
#
# Bulk Modulus (GPa) = 51.03974 62.64841 56.84407
# Shear Modulus (GPa) = 27.09773 41.11351 34.10562
#
# Velocity S-wave (km/s) = 3.69813 4.55520 4.14886
# Velocity P-wave (km/s) = 6.63283 7.69967 7.18608
#
# Compressibility (1/GPa) = 0.01959258
#
# Stress axis : x y z
#
# Youngs Moduli (GPa) = 108.41895 54.36574 84.64605
#
# Poissons Ratio (x) = 0.24130 0.33048
# Poissons Ratio (y) = 0.48121 0.13346
# Poissons Ratio (z) = 0.42329 0.08572
#
# Static dielectric constant tensor:
#      x y z
#    x 3.771170 0.000000 0.000000 
#    y 0.000000 3.578890 0.000000 
#    z 0.000000 0.000000 3.558310 
# 
# 
# High freq. dielectric constant tensor:
#      x y z
#    x 1.790790 0.000000 0.000000 
#    y 0.000000 1.776100 0.000000 
#    z 0.000000 0.000000 1.764590 
# 
# From -- ./inp_files/33519.got.cif
#   From: 2010.03.12/outbox.cif.g09.slc.cpg/sg51_17_cif.got.tgz:33519.got - 2010.04.16 13:43:02.
