data_PCOD8214012
_publ_section_title
;
Structure prediction by ZEFSAII (Michael W. Deem and Ramdas Pophale) SiO2 
 PCOD8214012
Probable space group: P M M A
;
_chemical_formula_sum "Si O2"
_cell_formula_units_Z 48
_cell_length_a 15.395039
_cell_length_b 8.868195
_cell_length_c 17.721168
_cell_angle_alpha 90.000000
_cell_angle_beta 90.000000
_cell_angle_gamma 90.000000
_cell_volume 2419.403866
_symmetry_space_group_name_H-M "P M M A"
_symmetry_group_IT_number 51
_symmetry_cell_setting 'orthorhombic'
loop_
_space_group_symop_operation_xyz
x,y,z
1/2-x,-y,z
1/2+x,-y,-z
-x,y,-z
-x,-y,-z
1/2+x,y,-z
1/2-x,y,z
x,-y,z
loop_
_atom_site_type_symbol
_atom_site_label
_atom_site_fract_x
_atom_site_fract_y
_atom_site_fract_z
Si Si1 0.411035 0.324235 0.541042
Si Si2 0.250000 0.825081 0.796498
Si Si3 0.406262 0.173246 0.213237
Si Si4 0.750000 0.821906 0.540550
Si Si5 0.750000 0.676993 0.042607
Si Si6 0.082688 0.173852 0.699466
Si Si7 0.410684 0.175562 0.037953
Si Si8 0.750000 0.676594 0.703604
O O1 0.500000 0.280983 0.500000
O O2 0.389436 0.500000 0.532958
O O3 0.334837 0.230087 0.503455
O O4 0.420123 0.282146 0.628055
O O5 0.250000 0.730047 0.871854
O O6 0.334210 0.781841 0.748519
O O7 0.250000 0.000000 0.819001
O O8 0.498330 0.205647 0.250946
O O9 0.415020 0.214039 0.125908
O O10 0.335086 0.280578 0.249769
O O11 0.377527 0.000000 0.224550
O O12 0.750000 0.759922 0.624445
O O13 0.750000 0.000000 0.544547
O O14 0.750000 0.500000 0.041630
O O15 0.834264 0.732720 0.999487
O O16 0.087578 0.000000 0.673070
O O17 0.393418 0.000000 0.023230
O O18 0.500000 0.227836 0.000000
O O19 0.750000 0.500000 0.687946
#
# Coordination Sequence:
#
# PCOD8214012 Si02
#       8
#     8   4   8   4   4   8   8   4
#     4  11  24  41  62  91 126 160 194 238 298 361
#     4  10  21  40  63  87 117 155 201 246 289 346
#     4  10  21  38  61  89 119 154 199 246 293 349
#     4  12  25  42  65  89 117 157 205 252 293 342
#     4  12  25  38  57  89 125 159 195 242 303 362
#     4  10  21  38  63  92 119 153 199 246 291 345
#     4  10  21  40  65  89 116 156 204 250 294 345
#     4  12  25  40  59  85 119 157 197 244 301 358
#
# _framework density 19.839599
#
# number of rings (size 3 to 8) (size 9 to 14) (size 15 to 20)
#    0.000    1.333    0.000    5.750    0.000   11.667 
#    0.000    1.667    0.000    0.000    0.000    0.000 
#    0.000    0.000    0.000    0.000    0.000    0.000 
#
# Total GULP energy -595533.104390 kJ/mol
# GULP energy per Si atom -12406.939675 kJ/mol
# Density = 1.979444 g / cm^3
# Si number density = 19.839599 Si / 1000 Ang^3
#
#
#
# Elastic Constant Matrix: (Units=GPa)
#
#
# Indices 1 2 3 4 5 6 
#
# 1 171.8552 82.7367 90.4372 0.0000 0.0000 0.0000
# 2 82.7367 113.2061 68.9809 0.0000 0.0000 0.0000
# 3 90.4372 68.9809 154.4963 0.0000 0.0000 0.0000
# 4 0.0000 0.0000 0.0000 11.1814 0.0000 0.0000
# 5 0.0000 0.0000 0.0000 0.0000 41.7328 0.0000
# 6 0.0000 0.0000 0.0000 0.0000 0.0000 44.4497
#
#
#
# Elastic Compliance Matrix: (Units=1/GPa)
#
#
# Indices 1 2 3 4 5 6 
#
# 1 0.010294 -0.005291 -0.003663 0.000000 0.000000 0.000000
# 2 -0.005291 0.014855 -0.003535 0.000000 0.000000 0.000000
# 3 -0.003663 -0.003535 0.010195 0.000000 0.000000 0.000000
# 4 0.000000 0.000000 0.000000 0.089434 0.000000 0.000000
# 5 0.000000 0.000000 0.000000 0.000000 0.023962 0.000000
# 6 0.000000 0.000000 0.000000 0.000000 0.000000 0.022497
#
#
# Mechanical properties :
#
#
# Convention : Reuss Voigt Hill
#
# Bulk Modulus (GPa) = 96.48061 102.65191 99.56626
# Shear Modulus (GPa) = 25.04115 32.63297 28.83706
#
# Velocity S-wave (km/s) = 3.55657 4.06006 3.81663
# Velocity P-wave (km/s) = 8.09948 8.59256 8.34966
#
# Compressibility (1/GPa) = 0.01036478
#
# Stress axis : x y z
#
# Youngs Moduli (GPa) = 97.14419 67.31928 98.08306
#
# Poissons Ratio (x) = 0.35620 0.35931
# Poissons Ratio (y) = 0.51400 0.34674
# Poissons Ratio (z) = 0.35587 0.23798
#
# Static dielectric constant tensor:
#      x y z
#    x 3.959350 0.000000 0.000000 
#    y 0.000000 3.563320 0.000000 
#    z 0.000000 0.000000 3.796710 
# 
# 
# High freq. dielectric constant tensor:
#      x y z
#    x 1.795550 0.000000 0.000000 
#    y 0.000000 1.768170 0.000000 
#    z 0.000000 0.000000 1.793110 
# 
# From -- ./inp_files/29678.got.cif
#   From: 2010.03.12/outbox.cif.g09.slc.cpg/sg51_15_cif.got.tgz:29678.got - 2010.04.16 13:43:02.
