data_PCOD8214502
_publ_section_title
;
Structure prediction by ZEFSAII (Michael W. Deem and Ramdas Pophale) SiO2 
 PCOD8214502
Probable space group: P M M A
;
_chemical_formula_sum "Si O2"
_cell_formula_units_Z 40
_cell_length_a 21.102571
_cell_length_b 8.643910
_cell_length_c 11.567340
_cell_angle_alpha 90.000000
_cell_angle_beta 90.000000
_cell_angle_gamma 90.000000
_cell_volume 2109.983735
_symmetry_space_group_name_H-M "P M M A"
_symmetry_group_IT_number 51
_symmetry_cell_setting 'orthorhombic'
loop_
_space_group_symop_operation_xyz
x,y,z
1/2-x,-y,z
1/2+x,-y,-z
-x,y,-z
-x,-y,-z
1/2+x,y,-z
1/2-x,y,z
x,-y,z
loop_
_atom_site_type_symbol
_atom_site_label
_atom_site_fract_x
_atom_site_fract_y
_atom_site_fract_z
Si Si1 0.822557 0.182451 0.465744
Si Si2 0.556911 0.318701 0.586062
Si Si3 0.823228 0.170094 0.203571
Si Si4 0.030539 0.819523 0.167808
Si Si5 0.086664 0.321904 0.958518
O O1 0.750000 0.226762 0.500896
O O2 0.873456 0.277608 0.538963
O O3 0.835392 0.229736 0.333233
O O4 0.832810 0.000000 0.483776
O O5 0.500000 0.268670 0.500000
O O6 0.553525 0.500000 0.611632
O O7 0.549103 0.224872 0.703458
O O8 0.750000 0.155158 0.179128
O O9 0.849140 0.290820 0.110584
O O10 0.854876 0.000000 0.187850
O O11 0.969413 0.724399 0.128200
O O12 0.015831 0.000000 0.161531
O O13 0.086357 0.776281 0.077454
O O14 0.081155 0.500000 0.992157
#
# Coordination Sequence:
#
# PCOD8214502 Si02
#       5
#     8   8   8   8   8
#     4   9  19  36  57  81 110 146 186 225 267 320
#     4  11  23  37  55  83 115 144 179 226 277 326
#     4   9  18  34  56  81 109 142 181 220 259 312
#     4  11  22  37  57  78 104 141 182 220 264 320
#     4  11  21  35  55  80 111 139 171 220 273 321
#
# _framework density 18.957492999999999
#
# number of rings (size 3 to 8) (size 9 to 14) (size 15 to 20)
#    0.000    1.800    0.000    7.800    0.000    6.400 
#    0.000    3.000    0.000    6.000    0.000    0.000 
#    0.000    0.000    0.000    0.000    0.000    0.000 
#
# Total GULP energy -495975.960369 kJ/mol
# GULP energy per Si atom -12399.399009 kJ/mol
# Density = 1.891434 g / cm^3
# Si number density = 18.957493 Si / 1000 Ang^3
#
#
#
# Elastic Constant Matrix: (Units=GPa)
#
#
# Indices 1 2 3 4 5 6 
#
# 1 63.9736 21.2751 47.5857 0.0000 0.0000 0.0000
# 2 21.2751 71.8530 26.5801 0.0000 0.0000 0.0000
# 3 47.5857 26.5801 108.7368 0.0000 0.0000 0.0000
# 4 0.0000 0.0000 0.0000 29.8284 0.0000 0.0000
# 5 0.0000 0.0000 0.0000 0.0000 31.1825 0.0000
# 6 0.0000 0.0000 0.0000 0.0000 0.0000 29.0018
#
#
#
# Elastic Compliance Matrix: (Units=1/GPa)
#
#
# Indices 1 2 3 4 5 6 
#
# 1 0.023966 -0.003536 -0.009624 0.000000 0.000000 0.000000
# 2 -0.003536 0.015823 -0.002320 0.000000 0.000000 0.000000
# 3 -0.009624 -0.002320 0.013975 0.000000 0.000000 0.000000
# 4 0.000000 0.000000 0.000000 0.033525 0.000000 0.000000
# 5 0.000000 0.000000 0.000000 0.000000 0.032069 0.000000
# 6 0.000000 0.000000 0.000000 0.000000 0.000000 0.034481
#
#
# Mechanical properties :
#
#
# Convention : Reuss Voigt Hill
#
# Bulk Modulus (GPa) = 43.85257 48.38281 46.11769
# Shear Modulus (GPa) = 25.98757 27.94404 26.96580
#
# Velocity S-wave (km/s) = 3.70649 3.84348 3.77561
# Velocity P-wave (km/s) = 6.44203 6.72857 6.58686
#
# Compressibility (1/GPa) = 0.02280368
#
# Stress axis : x y z
#
# Youngs Moduli (GPa) = 41.72623 63.20056 71.55536
#
# Poissons Ratio (x) = 0.22348 0.68862
# Poissons Ratio (y) = 0.14755 0.16603
# Poissons Ratio (z) = 0.40156 0.14664
#
# Static dielectric constant tensor:
#      x y z
#    x 3.450620 0.000000 0.000000 
#    y 0.000000 3.760040 0.000000 
#    z 0.000000 0.000000 3.574240 
# 
# 
# High freq. dielectric constant tensor:
#      x y z
#    x 1.730400 0.000000 0.000000 
#    y 0.000000 1.740930 0.000000 
#    z 0.000000 0.000000 1.736310 
# 
# From -- ./inp_files/17888.got.cif
#   From: 2010.03.12/outbox.cif.g09.slc.cpg/sg51_9_cif.got.tgz:17888.got - 2010.04.16 13:43:02.
