data_PCOD8214827
_publ_section_title
;
Structure prediction by ZEFSAII (Michael W. Deem and Ramdas Pophale) SiO2 
 PCOD8214827
Probable space group: P M M A
;
_chemical_formula_sum "Si O2"
_cell_formula_units_Z 52
_cell_length_a 9.267116
_cell_length_b 22.329501
_cell_length_c 15.337311
_cell_angle_alpha 90.000000
_cell_angle_beta 90.000000
_cell_angle_gamma 90.000000
_cell_volume 3173.750931
_symmetry_space_group_name_H-M "P M M A"
_symmetry_group_IT_number 51
_symmetry_cell_setting 'orthorhombic'
loop_
_space_group_symop_operation_xyz
x,y,z
1/2-x,-y,z
1/2+x,-y,-z
-x,y,-z
-x,-y,-z
1/2+x,y,-z
1/2-x,y,z
x,-y,z
loop_
_atom_site_type_symbol
_atom_site_label
_atom_site_fract_x
_atom_site_fract_y
_atom_site_fract_z
Si Si1 0.581856 0.068660 0.085708
Si Si2 0.082341 0.852844 0.751946
Si Si3 0.081828 0.286059 0.753925
Si Si4 0.412791 0.854253 0.417476
Si Si5 0.085687 0.500000 0.912878
Si Si6 0.581425 0.370048 0.091201
Si Si7 0.413294 0.288274 0.416850
O O1 0.750000 0.077404 0.068066
O O2 0.529273 0.109143 0.165661
O O3 0.543123 0.000000 0.107270
O O4 0.500000 0.091167 0.000000
O O5 0.250000 0.863903 0.730975
O O6 0.051654 0.783523 0.772110
O O7 0.991454 0.876247 0.669895
O O8 0.250000 0.298141 0.735011
O O9 0.026529 0.321898 0.838565
O O10 0.992802 0.309651 0.670880
O O11 0.500000 0.880292 0.500000
O O12 0.250000 0.879465 0.419320
O O13 0.412210 0.782974 0.421240
O O14 0.250000 0.500000 0.941629
O O15 0.051146 0.563527 0.865628
O O16 0.000000 0.500000 0.000000
O O17 0.750000 0.360631 0.072075
O O18 0.500000 0.360400 0.000000
O O19 0.500000 0.314185 0.500000
O O20 0.250000 0.313376 0.418040
#
# Coordination Sequence:
#
# PCOD8214827 Si02
#       7
#     8   8   8   8   4   8   8
#     4   9  18  32  48  64  82 108 143 179 212 247
#     4   9  17  29  44  62  86 113 139 171 211 251
#     4   9  17  28  41  61  88 114 139 169 209 253
#     4   9  16  26  42  64  88 113 140 169 204 248
#     4   8  14  26  42  58  77 106 143 176 205 240
#     4   9  17  28  42  60  84 113 143 174 207 245
#     4   9  16  26  41  61  85 113 142 172 206 246
#
# _framework density 16.384398999999998
#
# number of rings (size 3 to 8) (size 9 to 14) (size 15 to 20)
#    0.000    3.077    0.000    0.923    0.000    5.538 
#    0.000    0.000    0.000    0.462    0.000    0.538 
#    0.000    0.000    0.000    0.000    0.000    0.000 
#
# Total GULP energy -644534.047000 kJ/mol
# GULP energy per Si atom -12394.885519 kJ/mol
# Density = 1.634711 g / cm^3
# Si number density = 16.384399 Si / 1000 Ang^3
#
#
#
# Elastic Constant Matrix: (Units=GPa)
#
#
# Indices 1 2 3 4 5 6 
#
# 1 83.3577 32.2775 73.1756 0.0000 0.0000 0.0000
# 2 32.2775 52.4837 59.4605 0.0000 0.0000 0.0000
# 3 73.1756 59.4605 159.9401 0.0000 0.0000 0.0000
# 4 0.0000 0.0000 0.0000 2.4939 0.0000 0.0000
# 5 0.0000 0.0000 0.0000 0.0000 34.0615 0.0000
# 6 0.0000 0.0000 0.0000 0.0000 0.0000 13.1253
#
#
#
# Elastic Compliance Matrix: (Units=1/GPa)
#
#
# Indices 1 2 3 4 5 6 
#
# 1 0.020395 -0.003406 -0.008065 0.000000 0.000000 0.000000
# 2 -0.003406 0.033487 -0.010891 0.000000 0.000000 0.000000
# 3 -0.008065 -0.010891 0.013991 0.000000 0.000000 0.000000
# 4 0.000000 0.000000 0.000000 0.400974 0.000000 0.000000
# 5 0.000000 0.000000 0.000000 0.000000 0.029359 0.000000
# 6 0.000000 0.000000 0.000000 0.000000 0.000000 0.076189
#
#
# Mechanical properties :
#
#
# Convention : Reuss Voigt Hill
#
# Bulk Modulus (GPa) = 43.19776 69.51206 56.35491
# Shear Modulus (GPa) = 7.97657 18.66067 13.31862
#
# Velocity S-wave (km/s) = 2.20884 3.37846 2.85421
# Velocity P-wave (km/s) = 5.73827 7.59846 6.73291
#
# Compressibility (1/GPa) = 0.02314935
#
# Stress axis : x y z
#
# Youngs Moduli (GPa) = 49.03126 29.86226 71.47374
#
# Poissons Ratio (x) = 0.10171 0.57643
# Poissons Ratio (y) = 0.16700 0.77843
# Poissons Ratio (z) = 0.39543 0.32523
#
# Static dielectric constant tensor:
#      x y z
#    x 3.168100 0.000000 0.000000 
#    y 0.000000 3.200230 0.000000 
#    z 0.000000 0.000000 3.103580 
# 
# 
# High freq. dielectric constant tensor:
#      x y z
#    x 1.635640 0.000000 0.000000 
#    y 0.000000 1.594130 0.000000 
#    z 0.000000 0.000000 1.627150 
# 
# From -- ./inp_files/21614.got.cif
#   From: 2010.03.12/outbox.cif.g09.slc.cpg/sg51_11_cif.got.tgz:21614.got - 2010.04.16 13:43:02.
