data_PCOD8214988
_publ_section_title
;
Structure prediction by ZEFSAII (Michael W. Deem and Ramdas Pophale) SiO2 
 PCOD8214988
Probable space group: P N N A
;
_chemical_formula_sum "Si O2"
_cell_formula_units_Z 60
_cell_length_a 10.784462
_cell_length_b 14.473796
_cell_length_c 24.216169
_cell_angle_alpha 90.000000
_cell_angle_beta 90.000000
_cell_angle_gamma 90.000000
_cell_volume 3779.952745
_symmetry_space_group_name_H-M "P N N A"
_symmetry_group_IT_number 52
_symmetry_cell_setting 'orthorhombic'
loop_
_space_group_symop_operation_xyz
x,y,z
1/2-x,-y,z
x,1/2-y,1/2-z
1/2-x,1/2+y,1/2-z
-x,-y,-z
1/2+x,y,-z
-x,1/2+y,1/2+z
1/2+x,1/2-y,1/2+z
loop_
_atom_site_type_symbol
_atom_site_label
_atom_site_fract_x
_atom_site_fract_y
_atom_site_fract_z
Si Si1 0.355895 0.344090 0.601539
Si Si2 0.750000 0.500000 0.593870
Si Si3 0.084063 0.307577 0.801569
Si Si4 0.894805 0.010687 0.271395
Si Si5 0.429734 0.096296 0.014399
Si Si6 0.488504 0.988637 0.157493
Si Si7 0.874568 0.206175 0.306513
Si Si8 0.066045 0.172946 0.889680
O O1 0.390778 0.340355 0.537121
O O2 0.404406 0.442464 0.621485
O O3 0.418941 0.262142 0.638656
O O4 0.211184 0.343192 0.609852
O O5 0.689298 0.575804 0.553058
O O6 0.645774 0.455013 0.634375
O O7 0.025659 0.250000 0.750000
O O8 0.056347 0.416789 0.799326
O O9 0.228414 0.286010 0.801406
O O10 0.030940 0.270095 0.860162
O O11 0.750000 0.000000 0.252559
O O12 0.986063 0.035099 0.220927
O O13 0.910785 0.097717 0.312741
O O14 0.519077 0.165595 0.047813
O O15 0.500000 0.000000 0.000000
O O16 0.500284 0.097670 0.149181
O O17 0.932093 0.250000 0.250000
#
# Coordination Sequence:
#
# PCOD8214988 Si02
#       8
#     8   4   8   8   8   8   8   8
#     4  11  19  29  47  69  96 124 154 191 240 278
#     4  10  22  32  38  70 102 126 162 182 232 282
#     4   9  16  26  45  71  99 118 147 191 232 285
#     4  10  17  29  50  74  96 123 150 190 243 277
#     4  11  20  31  47  66  95 131 151 196 231 284
#     4  11  19  28  47  66  99 130 145 192 222 286
#     4   9  17  27  43  72  99 117 149 191 236 285
#     4  10  19  29  45  72  94 121 156 186 238 278
#
# _framework density 15.873215
#
# number of rings (size 3 to 8) (size 9 to 14) (size 15 to 20)
#    0.000    1.867    5.333    2.000    0.000    0.000 
#    0.000    0.000    0.000    7.200    0.000    0.000 
#    0.000    0.000    0.000    0.000    0.000    0.000 
#
# Total GULP energy -743323.520128 kJ/mol
# GULP energy per Si atom -12388.725335 kJ/mol
# Density = 1.583709 g / cm^3
# Si number density = 15.873215 Si / 1000 Ang^3
#
#
#
# Elastic Constant Matrix: (Units=GPa)
#
#
# Indices 1 2 3 4 5 6 
#
# 1 53.7094 24.7054 37.6207 0.0000 0.0000 0.0000
# 2 24.7054 97.2713 49.3745 0.0000 0.0000 0.0000
# 3 37.6207 49.3745 97.3766 0.0000 0.0000 0.0000
# 4 0.0000 0.0000 0.0000 32.0605 0.0000 0.0000
# 5 0.0000 0.0000 0.0000 0.0000 21.3805 0.0000
# 6 0.0000 0.0000 0.0000 0.0000 0.0000 10.0028
#
#
#
# Elastic Compliance Matrix: (Units=1/GPa)
#
#
# Indices 1 2 3 4 5 6 
#
# 1 0.025816 -0.002012 -0.008954 0.000000 0.000000 0.000000
# 2 -0.002012 0.014000 -0.006321 0.000000 0.000000 0.000000
# 3 -0.008954 -0.006321 0.016934 0.000000 0.000000 0.000000
# 4 0.000000 0.000000 0.000000 0.031191 0.000000 0.000000
# 5 0.000000 0.000000 0.000000 0.000000 0.046772 0.000000
# 6 0.000000 0.000000 0.000000 0.000000 0.000000 0.099972
#
#
# Mechanical properties :
#
#
# Convention : Reuss Voigt Hill
#
# Bulk Modulus (GPa) = 45.09421 52.41761 48.75591
# Shear Modulus (GPa) = 18.07334 21.79920 19.93627
#
# Velocity S-wave (km/s) = 3.37798 3.70987 3.54781
# Velocity P-wave (km/s) = 6.60947 7.17253 6.89675
#
# Compressibility (1/GPa) = 0.02217580
#
# Stress axis : x y z
#
# Youngs Moduli (GPa) = 38.73613 71.42697 59.05341
#
# Poissons Ratio (x) = 0.14371 0.52874
# Poissons Ratio (y) = 0.07794 0.37331
# Poissons Ratio (z) = 0.34682 0.45153
#
# Static dielectric constant tensor:
#      x y z
#    x 2.869380 0.000000 0.000000 
#    y 0.000000 3.054670 0.000000 
#    z 0.000000 0.000000 3.236790 
# 
# 
# High freq. dielectric constant tensor:
#      x y z
#    x 1.576590 0.000000 0.000000 
#    y 0.000000 1.590430 0.000000 
#    z 0.000000 0.000000 1.607010 
# 
# From -- ./inp_files/40370.got.cif
#   From: 2010.06.25/outbox.cif.g09.slc.cpg/sg52_21_cif.got.tgz:40370.got - 2010.06.26 19:32:48.
