data_PCOD8214478
_publ_section_title
;
Structure prediction by ZEFSAII (Michael W. Deem and Ramdas Pophale) SiO2 
 PCOD8214478
Probable space group: P M M A
;
_chemical_formula_sum "Si O2"
_cell_formula_units_Z 56
_cell_length_a 14.311643
_cell_length_b 9.204285
_cell_length_c 22.628337
_cell_angle_alpha 90.000000
_cell_angle_beta 90.000000
_cell_angle_gamma 90.000000
_cell_volume 2980.795555
_symmetry_space_group_name_H-M "P M M A"
_symmetry_group_IT_number 51
_symmetry_cell_setting 'orthorhombic'
loop_
_space_group_symop_operation_xyz
x,y,z
1/2-x,-y,z
1/2+x,-y,-z
-x,y,-z
-x,-y,-z
1/2+x,y,-z
1/2-x,y,z
x,-y,z
loop_
_atom_site_type_symbol
_atom_site_label
_atom_site_fract_x
_atom_site_fract_y
_atom_site_fract_z
Si Si1 0.649323 0.834154 0.412228
Si Si2 0.395804 0.338534 0.477473
Si Si3 0.355462 0.331476 0.899756
Si Si4 0.144430 0.827418 0.247127
Si Si5 0.968857 0.172124 0.866224
Si Si6 0.142485 0.665444 0.037097
Si Si7 0.048022 0.828470 0.366371
O O1 0.750000 0.818617 0.378460
O O2 0.661640 0.742681 0.472002
O O3 0.562165 0.783903 0.371396
O O4 0.631074 0.000000 0.431249
O O5 0.500000 0.348367 0.500000
O O6 0.354520 0.500000 0.467164
O O7 0.390687 0.249213 0.416621
O O8 0.250000 0.284808 0.883106
O O9 0.370856 0.500000 0.885386
O O10 0.426852 0.236786 0.861010
O O11 0.374329 0.301026 0.968588
O O12 0.250000 0.764559 0.248330
O O13 0.091626 0.770032 0.188984
O O14 0.086508 0.771903 0.303807
O O15 0.147764 0.000000 0.246538
O O16 0.920741 0.225084 0.926188
O O17 0.975856 0.000000 0.866847
O O18 0.250000 0.691051 0.053994
O O19 0.112916 0.500000 0.051469
O O20 0.062225 0.000000 0.373228
#
# Coordination Sequence:
#
# PCOD8214478 Si02
#       7
#     8   8   8   8   8   8   8
#     4   9  17  29  47  72  98 124 159 201 242 289
#     4   9  17  29  46  70 100 129 155 191 242 291
#     4   9  19  36  55  74 100 135 171 206 248 302
#     4   9  19  35  52  71  98 132 167 203 247 296
#     4  11  21  32  50  77 106 134 166 209 259 304
#     4   9  18  33  53  76 102 135 173 208 246 298
#     4   9  17  32  52  70  92 128 171 207 239 283
#
# _framework density 18.786932
#
# number of rings (size 3 to 8) (size 9 to 14) (size 15 to 20)
#    0.000    2.714    0.000    2.571    0.000    6.000 
#    0.000    5.000    0.000    4.286    0.000    0.000 
#    0.000    0.000    0.000    0.000    0.000    0.000 
#
# Total GULP energy -694200.754561 kJ/mol
# GULP energy per Si atom -12396.442046 kJ/mol
# Density = 1.874417 g / cm^3
# Si number density = 18.786932 Si / 1000 Ang^3
#
#
#
# Elastic Constant Matrix: (Units=GPa)
#
#
# Indices 1 2 3 4 5 6 
#
# 1 144.3923 41.6457 67.2422 0.0000 0.0000 0.0000
# 2 41.6457 60.3518 32.8372 0.0000 0.0000 0.0000
# 3 67.2422 32.8372 79.9358 0.0000 0.0000 0.0000
# 4 0.0000 0.0000 0.0000 7.8250 0.0000 0.0000
# 5 0.0000 0.0000 0.0000 0.0000 25.9656 0.0000
# 6 0.0000 0.0000 0.0000 0.0000 0.0000 22.7388
#
#
#
# Elastic Compliance Matrix: (Units=1/GPa)
#
#
# Indices 1 2 3 4 5 6 
#
# 1 0.011957 -0.003578 -0.008589 0.000000 0.000000 0.000000
# 2 -0.003578 0.022410 -0.006196 0.000000 0.000000 0.000000
# 3 -0.008589 -0.006196 0.022280 0.000000 0.000000 0.000000
# 4 0.000000 0.000000 0.000000 0.127795 0.000000 0.000000
# 5 0.000000 0.000000 0.000000 0.000000 0.038513 0.000000
# 6 0.000000 0.000000 0.000000 0.000000 0.000000 0.043978
#
#
# Mechanical properties :
#
#
# Convention : Reuss Voigt Hill
#
# Bulk Modulus (GPa) = 50.19620 63.12557 56.66089
# Shear Modulus (GPa) = 16.11353 20.83620 18.47486
#
# Velocity S-wave (km/s) = 2.93183 3.33390 3.13931
# Velocity P-wave (km/s) = 6.18365 6.96373 6.58525
#
# Compressibility (1/GPa) = 0.01992183
#
# Stress axis : x y z
#
# Youngs Moduli (GPa) = 83.63179 44.62347 44.88321
#
# Poissons Ratio (x) = 0.15966 0.38548
# Poissons Ratio (y) = 0.29924 0.27809
# Poissons Ratio (z) = 0.71828 0.27649
#
# Static dielectric constant tensor:
#      x y z
#    x 3.663310 0.000000 0.000000 
#    y 0.000000 3.343130 0.000000 
#    z 0.000000 0.000000 3.317180 
# 
# 
# High freq. dielectric constant tensor:
#      x y z
#    x 1.745550 0.000000 0.000000 
#    y 0.000000 1.710690 0.000000 
#    z 0.000000 0.000000 1.703220 
# 
# From -- ./inp_files/33293.got.cif
#   From: 2010.03.12/outbox.cif.g09.slc.cpg/sg51_17_cif.got.tgz:33293.got - 2010.04.16 13:43:02.
