data_PCOD8214937
_publ_section_title
;
Structure prediction by ZEFSAII (Michael W. Deem and Ramdas Pophale) SiO2 
 PCOD8214937
Probable space group: P N N A
;
_chemical_formula_sum "Si O2"
_cell_formula_units_Z 48
_cell_length_a 5.195964
_cell_length_b 29.409592
_cell_length_c 14.391085
_cell_angle_alpha 90.000000
_cell_angle_beta 90.000000
_cell_angle_gamma 90.000000
_cell_volume 2199.118699
_symmetry_space_group_name_H-M "P N N A"
_symmetry_group_IT_number 52
_symmetry_cell_setting 'orthorhombic'
loop_
_space_group_symop_operation_xyz
x,y,z
1/2-x,-y,z
x,1/2-y,1/2-z
1/2-x,1/2+y,1/2-z
-x,-y,-z
1/2+x,y,-z
-x,1/2+y,1/2+z
1/2+x,1/2-y,1/2+z
loop_
_atom_site_type_symbol
_atom_site_label
_atom_site_fract_x
_atom_site_fract_y
_atom_site_fract_z
Si Si1 0.704949 0.622004 0.938797
Si Si2 0.320807 0.356372 0.595118
Si Si3 0.719774 0.449789 0.340970
Si Si4 0.280057 0.949452 0.277742
Si Si5 0.177996 0.682027 0.388174
Si Si6 0.268716 0.721967 0.058298
O O1 0.733660 0.586057 0.858305
O O2 0.726209 0.672833 0.893979
O O3 0.426198 0.615227 0.984616
O O4 0.273002 0.410510 0.582538
O O5 0.361089 0.331536 0.497043
O O6 0.582087 0.346301 0.653604
O O7 0.090183 0.334329 0.656974
O O8 0.750000 0.500000 0.386868
O O9 0.431810 0.442870 0.302940
O O10 0.930111 0.443633 0.259710
O O11 0.250000 0.000000 0.320086
O O12 0.217010 0.735939 0.372183
O O13 0.563250 0.726391 0.025322
#
# Coordination Sequence:
#
# PCOD8214937 Si02
#       6
#     8   8   8   8   8   8
#     4  10  21  33  56  85 103 133 165 220 263 305
#     4  10  18  30  52  77 101 134 182 209 254 303
#     4  10  21  37  55  73 102 146 178 206 254 315
#     4  10  21  38  56  75 105 140 175 211 256 313
#     4  10  17  30  50  79 102 133 171 224 255 293
#     4  10  16  30  49  77 104 133 166 201 261 315
#
# _framework density 21.826924999999999
#
# number of rings (size 3 to 8) (size 9 to 14) (size 15 to 20)
#    0.000    2.000    3.333    2.000    0.000    0.667 
#    0.000    3.333    0.000    6.000    0.000    0.000 
#    0.000    0.000    0.000    0.000    0.000    0.000 
#
# Total GULP energy -594784.986067 kJ/mol
# GULP energy per Si atom -12391.353876 kJ/mol
# Density = 2.177725 g / cm^3
# Si number density = 21.826925 Si / 1000 Ang^3
#
#
#
# Elastic Constant Matrix: (Units=GPa)
#
#
# Indices 1 2 3 4 5 6 
#
# 1 132.7149 2.2290 -6.6314 0.0000 0.0000 0.0000
# 2 2.2290 128.5930 14.4377 0.0000 0.0000 0.0000
# 3 -6.6314 14.4377 9.7659 0.0000 0.0000 0.0000
# 4 0.0000 0.0000 0.0000 -42.5552 0.0000 0.0000
# 5 0.0000 0.0000 0.0000 0.0000 10.3046 0.0000
# 6 0.0000 0.0000 0.0000 0.0000 0.0000 32.7864
#
#
#
# Elastic Compliance Matrix: (Units=1/GPa)
#
#
# Indices 1 2 3 4 5 6 
#
# 1 0.007883 -0.000884 0.006660 0.000000 0.000000 0.000000
# 2 -0.000884 0.009423 -0.014532 0.000000 0.000000 0.000000
# 3 0.006660 -0.014532 0.128403 0.000000 0.000000 0.000000
# 4 0.000000 0.000000 0.000000 -0.023499 0.000000 0.000000
# 5 0.000000 0.000000 0.000000 0.000000 0.097044 0.000000
# 6 0.000000 0.000000 0.000000 0.000000 0.000000 0.030500
#
#
# Mechanical properties :
#
#
# Convention : Reuss Voigt Hill
#
# Bulk Modulus (GPa) = 7.80051 32.34939 20.07495
# Shear Modulus (GPa) = 16.12906 17.50971 16.81938
#
# Velocity S-wave (km/s) = 2.72132 2.83540 2.77894
# Velocity P-wave (km/s) = 3.66819 5.05691 4.41747
#
# Compressibility (1/GPa) = 0.12819670
#
# Stress axis : x y z
#
# Youngs Moduli (GPa) = 126.86184 106.11922 7.78797
#
# Poissons Ratio (x) = 0.09385 -0.05187
# Poissons Ratio (y) = 0.11220 0.11317
# Poissons Ratio (z) = -0.84491 1.54211
#
# Static dielectric constant tensor:
#      x y z
#    x 5.294260 0.000000 0.000000 
#    y 0.000000 4.404740 0.000000 
#    z 0.000000 0.000000 2.993840 
# 
# 
# High freq. dielectric constant tensor:
#      x y z
#    x 1.899530 0.000000 0.000000 
#    y 0.000000 1.885080 0.000000 
#    z 0.000000 0.000000 1.764550 
# 
# From -- ./inp_files/23706.got.cif
#   From: 2010.06.25/outbox.cif.g09.slc.cpg/sg52_12_cif.got.tgz:23706.got - 2010.06.26 19:32:48.
