data_PCOD8214390
_publ_section_title
;
Structure prediction by ZEFSAII (Michael W. Deem and Ramdas Pophale) SiO2 
 PCOD8214390
Probable space group: P M M A
;
_chemical_formula_sum "Si O2"
_cell_formula_units_Z 28
_cell_length_a 10.237751
_cell_length_b 18.371735
_cell_length_c 6.790417
_cell_angle_alpha 90.000000
_cell_angle_beta 90.000000
_cell_angle_gamma 90.000000
_cell_volume 1277.177268
_symmetry_space_group_name_H-M "P M M A"
_symmetry_group_IT_number 51
_symmetry_cell_setting 'orthorhombic'
loop_
_space_group_symop_operation_xyz
x,y,z
1/2-x,-y,z
1/2+x,-y,-z
-x,y,-z
-x,-y,-z
1/2+x,y,-z
1/2-x,y,z
x,-y,z
loop_
_atom_site_type_symbol
_atom_site_label
_atom_site_fract_x
_atom_site_fract_y
_atom_site_fract_z
Si Si1 0.103483 0.580588 0.831289
Si Si2 0.102701 0.916534 0.334134
Si Si3 0.394772 0.270338 0.653475
Si Si4 0.000000 0.181392 0.000000
O O1 0.250000 0.586382 0.921204
O O2 0.081846 0.500000 0.737855
O O3 0.085323 0.642553 0.667305
O O4 0.000000 0.595576 0.000000
O O5 0.250000 0.907427 0.417591
O O6 0.000000 0.890356 0.500000
O O7 0.074274 0.000000 0.276991
O O8 0.089563 0.869114 0.137200
O O9 0.500000 0.238663 0.500000
O O10 0.250000 0.252823 0.571737
O O11 0.409356 0.232960 0.866308
#
# Coordination Sequence:
#
# PCOD8214390 Si02
#       4
#     8   8   8   4
#     4   9  18  36  61  88 118 156 204 255 305 358
#     4  10  23  43  67  95 125 158 201 251 303 362
#     4  11  25  41  60  90 125 164 207 255 306 364
#     4  12  23  40  65  92 122 166 204 252 299 366
#
# _framework density 21.923345999999999
#
# number of rings (size 3 to 8) (size 9 to 14) (size 15 to 20)
#    0.000    1.714    1.429    2.143    0.000    8.571 
#    0.000    2.857    0.000    0.000    0.000    0.000 
#    0.000    0.000    0.000    0.000    0.000    0.000 
#
# Total GULP energy -347158.659787 kJ/mol
# GULP energy per Si atom -12398.523564 kJ/mol
# Density = 2.187345 g / cm^3
# Si number density = 21.923346 Si / 1000 Ang^3
#
#
#
# Elastic Constant Matrix: (Units=GPa)
#
#
# Indices 1 2 3 4 5 6 
#
# 1 166.9578 41.0440 68.0787 0.0000 0.0000 0.0000
# 2 41.0440 120.2603 47.6808 0.0000 0.0000 0.0000
# 3 68.0787 47.6808 109.3879 0.0000 0.0000 0.0000
# 4 0.0000 0.0000 0.0000 26.8718 0.0000 0.0000
# 5 0.0000 0.0000 0.0000 0.0000 36.7787 0.0000
# 6 0.0000 0.0000 0.0000 0.0000 0.0000 -595.7537
#
#
#
# Elastic Compliance Matrix: (Units=1/GPa)
#
#
# Indices 1 2 3 4 5 6 
#
# 1 0.008111 -0.000927 -0.004644 0.000000 0.000000 0.000000
# 2 -0.000927 0.010159 -0.003851 0.000000 0.000000 0.000000
# 3 -0.004644 -0.003851 0.013711 0.000000 0.000000 0.000000
# 4 0.000000 0.000000 0.000000 0.037214 0.000000 0.000000
# 5 0.000000 0.000000 0.000000 0.000000 0.027190 0.000000
# 6 0.000000 0.000000 0.000000 0.000000 0.000000 -0.001679
#
#
# Mechanical properties :
#
#
# Convention : Reuss Voigt Hill
#
# Bulk Modulus (GPa) = 76.12542 78.91258 77.51900
# Shear Modulus (GPa) = 42.39886 -90.43382 -24.01748
#
# Velocity S-wave (km/s) = 4.40245 -6.42958 -3.31346
# Velocity P-wave (km/s) = 7.78723 4.36423 4.56040
#
# Compressibility (1/GPa) = 0.01313622
#
# Stress axis : x y z
#
# Youngs Moduli (GPa) = 123.28881 98.43931 72.93632
#
# Poissons Ratio (x) = 0.09126 0.33871
# Poissons Ratio (y) = 0.11429 0.28088
# Poissons Ratio (z) = 0.57254 0.37909
#
# Static dielectric constant tensor:
#      x y z
#    x 3.963020 0.000000 0.000000 
#    y 0.000000 4.334460 0.000000 
#    z 0.000000 0.000000 3.454080 
# 
# 
# High freq. dielectric constant tensor:
#      x y z
#    x 1.868520 0.000000 0.000000 
#    y 0.000000 1.898980 0.000000 
#    z 0.000000 0.000000 1.822140 
# 
# From -- ./inp_files/576.got.cif
#   From: 2010.03.12/outbox.cif.g09.slc.cpg/sg51_1_cif.got.tgz:576.got - 2010.04.16 13:43:02.
