data_PCOD8214239
_publ_section_title
;
Structure prediction by ZEFSAII (Michael W. Deem and Ramdas Pophale) SiO2 
 PCOD8214239
Probable space group: P M M A
;
_chemical_formula_sum "Si O2"
_cell_formula_units_Z 48
_cell_length_a 14.938260
_cell_length_b 9.333822
_cell_length_c 17.312234
_cell_angle_alpha 90.000000
_cell_angle_beta 90.000000
_cell_angle_gamma 90.000000
_cell_volume 2413.863135
_symmetry_space_group_name_H-M "P M M A"
_symmetry_group_IT_number 51
_symmetry_cell_setting 'orthorhombic'
loop_
_space_group_symop_operation_xyz
x,y,z
1/2-x,-y,z
1/2+x,-y,-z
-x,y,-z
-x,-y,-z
1/2+x,y,-z
1/2-x,y,z
x,-y,z
loop_
_atom_site_type_symbol
_atom_site_label
_atom_site_fract_x
_atom_site_fract_y
_atom_site_fract_z
Si Si1 0.647503 0.831391 0.811393
Si Si2 0.143188 0.338723 0.503668
Si Si3 0.352237 0.665198 0.797505
Si Si4 0.992410 0.666711 0.912421
Si Si5 0.143709 0.161343 0.648967
Si Si6 0.856290 0.840889 0.639347
O O1 0.750000 0.783968 0.824069
O O2 0.588039 0.750266 0.873086
O O3 0.615000 0.788941 0.724835
O O4 0.637067 0.000000 0.823536
O O5 0.250000 0.338864 0.504421
O O6 0.105874 0.500000 0.509187
O O7 0.105321 0.247575 0.575604
O O8 0.106091 0.268442 0.424644
O O9 0.250000 0.704177 0.819427
O O10 0.359597 0.500000 0.771870
O O11 0.413012 0.699355 0.871442
O O12 0.388095 0.760876 0.726874
O O13 0.968247 0.500000 0.908808
O O14 0.000000 0.720942 0.000000
O O15 0.250000 0.159569 0.644976
O O16 0.105153 0.000000 0.648080
O O17 0.750000 0.848148 0.635602
O O18 0.894585 0.000000 0.622483
#
# Coordination Sequence:
#
# PCOD8214239 Si02
#       6
#     8   8   8   8   8   8
#     4   9  19  36  57  81 110 145 182 220 266 318
#     4   9  15  22  37  66 102 137 174 214 256 304
#     4   9  18  34  54  75 104 141 178 218 265 317
#     4  10  22  38  57  83 110 138 175 219 271 328
#     4   9  16  26  43  69 100 135 176 218 260 308
#     4   8  14  26  44  67  98 136 176 215 255 302
#
# _framework density 19.885137
#
# number of rings (size 3 to 8) (size 9 to 14) (size 15 to 20)
#    0.000    3.000    0.000    2.000    0.000    6.667 
#    0.000    3.333    0.000    3.000    0.000    7.000 
#    0.000    0.000    0.000    0.000    0.000    0.000 
#
# Total GULP energy -595128.352828 kJ/mol
# GULP energy per Si atom -12398.507351 kJ/mol
# Density = 1.983988 g / cm^3
# Si number density = 19.885137 Si / 1000 Ang^3
#
#
#
# Elastic Constant Matrix: (Units=GPa)
#
#
# Indices 1 2 3 4 5 6 
#
# 1 64.6643 37.8697 54.2023 0.0000 0.0000 0.0000
# 2 37.8697 121.1329 96.7455 0.0000 0.0000 0.0000
# 3 54.2023 96.7455 198.1499 0.0000 0.0000 0.0000
# 4 0.0000 0.0000 0.0000 62.8080 0.0000 0.0000
# 5 0.0000 0.0000 0.0000 0.0000 -52.1997 0.0000
# 6 0.0000 0.0000 0.0000 0.0000 0.0000 14.6518
#
#
#
# Elastic Compliance Matrix: (Units=1/GPa)
#
#
# Indices 1 2 3 4 5 6 
#
# 1 0.020800 -0.003210 -0.004122 0.000000 0.000000 0.000000
# 2 -0.003210 0.014028 -0.005971 0.000000 0.000000 0.000000
# 3 -0.004122 -0.005971 0.009089 0.000000 0.000000 0.000000
# 4 0.000000 0.000000 0.000000 0.015922 0.000000 0.000000
# 5 0.000000 0.000000 0.000000 0.000000 -0.019157 0.000000
# 6 0.000000 0.000000 0.000000 0.000000 0.000000 0.068251
#
#
# Mechanical properties :
#
#
# Convention : Reuss Voigt Hill
#
# Bulk Modulus (GPa) = 57.76882 84.62025 71.19453
# Shear Modulus (GPa) = 35.38337 18.06066 26.72202
#
# Velocity S-wave (km/s) = 4.22286 3.01699 3.66979
# Velocity P-wave (km/s) = 7.27262 7.40157 7.33738
#
# Compressibility (1/GPa) = 0.01731038
#
# Stress axis : x y z
#
# Youngs Moduli (GPa) = 48.07728 71.28713 110.01717
#
# Poissons Ratio (x) = 0.22886 0.45351
# Poissons Ratio (y) = 0.15435 0.65689
# Poissons Ratio (z) = 0.19818 0.42564
#
# Static dielectric constant tensor:
#      x y z
#    x 3.263310 0.000000 0.000000 
#    y 0.000000 3.712370 0.000000 
#    z 0.000000 0.000000 3.723180 
# 
# 
# High freq. dielectric constant tensor:
#      x y z
#    x 1.755190 0.000000 0.000000 
#    y 0.000000 1.772870 0.000000 
#    z 0.000000 0.000000 1.774730 
# 
# From -- ./inp_files/29464.got.cif
#   From: 2010.03.12/outbox.cif.g09.slc.cpg/sg51_15_cif.got.tgz:29464.got - 2010.04.16 13:43:02.
