data_PCOD8214687
_publ_section_title
;
Structure prediction by ZEFSAII (Michael W. Deem and Ramdas Pophale) SiO2 
 PCOD8214687
Probable space group: P M M A
;
_chemical_formula_sum "Si O2"
_cell_formula_units_Z 48
_cell_length_a 14.054970
_cell_length_b 9.222987
_cell_length_c 20.876139
_cell_angle_alpha 90.000000
_cell_angle_beta 90.000000
_cell_angle_gamma 90.000000
_cell_volume 2706.148964
_symmetry_space_group_name_H-M "P M M A"
_symmetry_group_IT_number 51
_symmetry_cell_setting 'orthorhombic'
loop_
_space_group_symop_operation_xyz
x,y,z
1/2-x,-y,z
1/2+x,-y,-z
-x,y,-z
-x,-y,-z
1/2+x,y,-z
1/2-x,y,z
x,-y,z
loop_
_atom_site_type_symbol
_atom_site_label
_atom_site_fract_x
_atom_site_fract_y
_atom_site_fract_z
Si Si1 0.551963 0.171100 0.145043
Si Si2 0.393870 0.338806 0.975621
Si Si3 0.851862 0.164624 0.905158
Si Si4 0.642001 0.172673 0.276957
Si Si5 0.456781 0.172485 0.596024
Si Si6 0.355632 0.827540 0.468388
O O1 0.613372 0.250208 0.090478
O O2 0.439938 0.215003 0.139282
O O3 0.589110 0.228037 0.213206
O O4 0.567969 0.000000 0.137771
O O5 0.351918 0.500000 0.964816
O O6 0.500000 0.347645 0.000000
O O7 0.336569 0.257542 0.030796
O O8 0.750000 0.176456 0.867646
O O9 0.872047 0.000000 0.926867
O O10 0.750000 0.231719 0.278349
O O11 0.583753 0.236476 0.337551
O O12 0.642380 0.000000 0.279235
O O13 0.566119 0.225043 0.584057
O O14 0.389185 0.227059 0.538372
O O15 0.454914 0.000000 0.598044
O O16 0.250000 0.764541 0.452902
O O17 0.351684 0.000000 0.468617
#
# Coordination Sequence:
#
# PCOD8214687 Si02
#       6
#     8   8   8   8   8   8
#     4   9  17  29  43  60  83 109 138 170 203 245
#     4   9  17  29  45  64  84 105 132 170 212 248
#     4   9  17  29  44  60  80 108 138 167 204 249
#     4   9  16  25  37  52  71  98 132 167 201 239
#     4   8  13  20  30  46  68  95 129 165 196 231
#     4   8  12  18  29  45  67  96 128 161 198 237
#
# _framework density 17.737383999999999
#
# number of rings (size 3 to 8) (size 9 to 14) (size 15 to 20)
#    0.000    3.333    0.000    2.000    0.000    5.000 
#    0.000    2.500    0.000    5.000    0.000    0.000 
#    0.000    0.000    0.000    3.000    0.000    7.667 
#
# Total GULP energy -594683.953975 kJ/mol
# GULP energy per Si atom -12389.249041 kJ/mol
# Density = 1.769701 g / cm^3
# Si number density = 17.737384 Si / 1000 Ang^3
#
#
#
# Elastic Constant Matrix: (Units=GPa)
#
#
# Indices 1 2 3 4 5 6 
#
# 1 154.6561 13.3766 76.2492 0.0000 0.0000 0.0000
# 2 13.3766 28.6089 19.7905 0.0000 0.0000 0.0000
# 3 76.2492 19.7905 141.4215 0.0000 0.0000 0.0000
# 4 0.0000 0.0000 0.0000 1.8160 0.0000 0.0000
# 5 0.0000 0.0000 0.0000 0.0000 21.8590 0.0000
# 6 0.0000 0.0000 0.0000 0.0000 0.0000 2.0375
#
#
#
# Elastic Compliance Matrix: (Units=1/GPa)
#
#
# Indices 1 2 3 4 5 6 
#
# 1 0.008829 -0.000925 -0.004631 0.000000 0.000000 0.000000
# 2 -0.000925 0.038797 -0.004931 0.000000 0.000000 0.000000
# 3 -0.004631 -0.004931 0.010258 0.000000 0.000000 0.000000
# 4 0.000000 0.000000 0.000000 0.550669 0.000000 0.000000
# 5 0.000000 0.000000 0.000000 0.000000 0.045748 0.000000
# 6 0.000000 0.000000 0.000000 0.000000 0.000000 0.490804
#
#
# Mechanical properties :
#
#
# Convention : Reuss Voigt Hill
#
# Bulk Modulus (GPa) = 27.09169 60.39100 43.74134
# Shear Modulus (GPa) = 4.24311 19.49384 11.86847
#
# Velocity S-wave (km/s) = 1.54835 3.31875 2.58955
# Velocity P-wave (km/s) = 4.30156 6.98618 5.80130
#
# Compressibility (1/GPa) = 0.03691169
#
# Stress axis : x y z
#
# Youngs Moduli (GPa) = 113.26191 25.77489 97.48599
#
# Poissons Ratio (x) = 0.02383 0.45145
# Poissons Ratio (y) = 0.10474 0.48068
# Poissons Ratio (z) = 0.52451 0.12709
#
# Static dielectric constant tensor:
#      x y z
#    x 3.602660 0.000000 0.000000 
#    y 0.000000 2.860230 0.000000 
#    z 0.000000 0.000000 3.333730 
# 
# 
# High freq. dielectric constant tensor:
#      x y z
#    x 1.702600 0.000000 0.000000 
#    y 0.000000 1.622930 0.000000 
#    z 0.000000 0.000000 1.666280 
# 
# From -- ./inp_files/33203.got.cif
#   From: 2010.03.12/outbox.cif.g09.slc.cpg/sg51_17_cif.got.tgz:33203.got - 2010.04.16 13:43:02.
