data_PCOD8214230
_publ_section_title
;
Structure prediction by ZEFSAII (Michael W. Deem and Ramdas Pophale) SiO2 
 PCOD8214230
Probable space group: P M M A
;
_chemical_formula_sum "Si O2"
_cell_formula_units_Z 28
_cell_length_a 9.157759
_cell_length_b 7.528101
_cell_length_c 19.943124
_cell_angle_alpha 90.000000
_cell_angle_beta 90.000000
_cell_angle_gamma 90.000000
_cell_volume 1374.889632
_symmetry_space_group_name_H-M "P M M A"
_symmetry_group_IT_number 51
_symmetry_cell_setting 'orthorhombic'
loop_
_space_group_symop_operation_xyz
x,y,z
1/2-x,-y,z
1/2+x,-y,-z
-x,y,-z
-x,-y,-z
1/2+x,y,-z
1/2-x,y,z
x,-y,z
loop_
_atom_site_type_symbol
_atom_site_label
_atom_site_fract_x
_atom_site_fract_y
_atom_site_fract_z
Si Si1 0.914343 0.210985 0.805955
Si Si2 0.584937 0.211749 0.065099
Si Si3 0.079831 0.203588 0.673660
Si Si4 0.420225 0.500000 0.569964
O O1 0.750000 0.286880 0.807837
O O2 0.003541 0.287296 0.869202
O O3 0.991549 0.273934 0.737847
O O4 0.913110 0.000000 0.809348
O O5 0.750000 0.285161 0.063945
O O6 0.585545 0.000000 0.065737
O O7 0.500000 0.283604 0.000000
O O8 0.250000 0.225064 0.690882
O O9 0.034076 0.323797 0.610729
O O10 0.040604 0.000000 0.656003
O O11 0.250000 0.500000 0.554966
O O12 0.500000 0.500000 0.500000
#
# Coordination Sequence:
#
# PCOD8214230 Si02
#       4
#     8   8   8   4
#     4   9  16  26  42  66  95 128 169 214 257 303
#     4   9  15  22  34  56  90 131 172 215 261 305
#     4   9  18  34  54  75 102 136 171 208 252 301
#     4  10  22  38  56  80 107 134 167 206 250 304
#
# _framework density 20.365269999999999
#
# number of rings (size 3 to 8) (size 9 to 14) (size 15 to 20)
#    0.000    2.857    0.000    1.714    0.000    8.571 
#    0.000    0.000    0.000    0.000    0.000    1.000 
#    0.000    0.000    0.000    0.000    0.000    0.000 
#
# Total GULP energy -347199.974310 kJ/mol
# GULP energy per Si atom -12399.999082 kJ/mol
# Density = 2.031892 g / cm^3
# Si number density = 20.365270 Si / 1000 Ang^3
#
#
#
# Elastic Constant Matrix: (Units=GPa)
#
#
# Indices 1 2 3 4 5 6 
#
# 1 151.4673 29.4808 110.8397 0.0000 0.0000 0.0000
# 2 29.4808 61.4393 51.6669 0.0000 0.0000 0.0000
# 3 110.8397 51.6669 221.0813 0.0000 0.0000 0.0000
# 4 0.0000 0.0000 0.0000 -24.3617 0.0000 0.0000
# 5 0.0000 0.0000 0.0000 0.0000 48.5802 0.0000
# 6 0.0000 0.0000 0.0000 0.0000 0.0000 4.3916
#
#
#
# Elastic Compliance Matrix: (Units=1/GPa)
#
#
# Indices 1 2 3 4 5 6 
#
# 1 0.010456 -0.000758 -0.005065 0.000000 0.000000 0.000000
# 2 -0.000758 0.020312 -0.004367 0.000000 0.000000 0.000000
# 3 -0.005065 -0.004367 0.008083 0.000000 0.000000 0.000000
# 4 0.000000 0.000000 0.000000 -0.041048 0.000000 0.000000
# 5 0.000000 0.000000 0.000000 0.000000 0.020585 0.000000
# 6 0.000000 0.000000 0.000000 0.000000 0.000000 0.227709
#
#
# Mechanical properties :
#
#
# Convention : Reuss Voigt Hill
#
# Bulk Modulus (GPa) = 54.13692 90.88476 72.51084
# Shear Modulus (GPa) = 18.33958 21.85539 20.09748
#
# Velocity S-wave (km/s) = 3.00414 3.27948 3.14483
# Velocity P-wave (km/s) = 6.21883 7.68532 6.99064
#
# Compressibility (1/GPa) = 0.01847168
#
# Stress axis : x y z
#
# Youngs Moduli (GPa) = 95.63827 49.23131 123.71319
#
# Poissons Ratio (x) = 0.03731 0.62662
# Poissons Ratio (y) = 0.07247 0.54027
# Poissons Ratio (z) = 0.48442 0.21500
#
# Static dielectric constant tensor:
#      x y z
#    x 3.830900 0.000000 0.000000 
#    y 0.000000 3.365310 0.000000 
#    z 0.000000 0.000000 3.678440 
# 
# 
# High freq. dielectric constant tensor:
#      x y z
#    x 1.799210 0.000000 0.000000 
#    y 0.000000 1.770050 0.000000 
#    z 0.000000 0.000000 1.794460 
# 
# From -- ./inp_files/26855.got.cif
#   From: 2010.03.12/outbox.cif.g09.slc.cpg/sg51_14_cif.got.tgz:26855.got - 2010.04.16 13:43:02.
