data_PCOD8214801
_publ_section_title
;
Structure prediction by ZEFSAII (Michael W. Deem and Ramdas Pophale) SiO2 
 PCOD8214801
Probable space group: P M M A
;
_chemical_formula_sum "Si O2"
_cell_formula_units_Z 52
_cell_length_a 9.773354
_cell_length_b 15.763058
_cell_length_c 19.673461
_cell_angle_alpha 90.000000
_cell_angle_beta 90.000000
_cell_angle_gamma 90.000000
_cell_volume 3030.852992
_symmetry_space_group_name_H-M "P M M A"
_symmetry_group_IT_number 51
_symmetry_cell_setting 'orthorhombic'
loop_
_space_group_symop_operation_xyz
x,y,z
1/2-x,-y,z
1/2+x,-y,-z
-x,y,-z
-x,-y,-z
1/2+x,y,-z
1/2-x,y,z
x,-y,z
loop_
_atom_site_type_symbol
_atom_site_label
_atom_site_fract_x
_atom_site_fract_y
_atom_site_fract_z
Si Si1 0.592365 0.314960 0.066532
Si Si2 0.412543 0.406601 0.707746
Si Si3 0.587056 0.750019 0.206783
Si Si4 0.405855 0.847714 0.561324
Si Si5 0.912571 0.906131 0.292671
Si Si6 0.098833 0.500000 0.938480
Si Si7 0.094535 0.647129 0.560940
O O1 0.750000 0.298272 0.045617
O O2 0.544945 0.252287 0.127020
O O3 0.500000 0.300614 0.000000
O O4 0.576865 0.410330 0.100230
O O5 0.250000 0.400096 0.710285
O O6 0.460965 0.500000 0.733328
O O7 0.475620 0.332006 0.754441
O O8 0.460778 0.394620 0.630111
O O9 0.750000 0.747555 0.212963
O O10 0.527361 0.836198 0.240250
O O11 0.500000 0.881149 0.500000
O O12 0.250000 0.876280 0.546873
O O13 0.463183 0.888420 0.630809
O O14 0.415756 0.747498 0.569681
O O15 0.750000 0.899634 0.291965
O O16 0.961927 0.000000 0.269996
O O17 0.250000 0.500000 0.969808
O O18 0.000000 0.500000 0.000000
O O19 0.250000 0.619367 0.545378
O O20 0.000000 0.613749 0.500000
#
# Coordination Sequence:
#
# PCOD8214801 Si02
#       7
#     8   8   8   8   8   4   8
#     4   9  17  28  45  67  91 117 145 176 213 257
#     4   9  16  25  40  62  86 112 146 185 220 252
#     4   9  16  27  43  64  88 113 144 181 217 257
#     4   9  16  27  43  63  87 114 143 179 221 263
#     4   9  16  27  44  65  88 113 143 182 224 259
#     4   8  14  24  38  62  90 114 139 168 204 248
#     4   9  16  27  42  60  84 114 147 183 220 256
#
# _framework density 17.156886
#
# number of rings (size 3 to 8) (size 9 to 14) (size 15 to 20)
#    0.000    3.077    1.538    0.000    1.077    0.615 
#    0.000    0.000    0.000    2.308    0.000    0.000 
#    0.000    0.000    0.000    0.000    0.000    0.000 
#
# Total GULP energy -644260.935827 kJ/mol
# GULP energy per Si atom -12389.633381 kJ/mol
# Density = 1.711784 g / cm^3
# Si number density = 17.156886 Si / 1000 Ang^3
#
#
#
# Elastic Constant Matrix: (Units=GPa)
#
#
# Indices 1 2 3 4 5 6 
#
# 1 33.9028 18.2918 33.9288 0.0000 0.0000 0.0000
# 2 18.2918 102.4613 72.6981 0.0000 0.0000 0.0000
# 3 33.9288 72.6981 124.1032 0.0000 0.0000 0.0000
# 4 0.0000 0.0000 0.0000 16.8551 0.0000 0.0000
# 5 0.0000 0.0000 0.0000 0.0000 20.9397 0.0000
# 6 0.0000 0.0000 0.0000 0.0000 0.0000 7.0589
#
#
#
# Elastic Compliance Matrix: (Units=1/GPa)
#
#
# Indices 1 2 3 4 5 6 
#
# 1 0.040675 0.001076 -0.011750 0.000000 0.000000 0.000000
# 2 0.001076 0.016730 -0.010094 0.000000 0.000000 0.000000
# 3 -0.011750 -0.010094 0.017183 0.000000 0.000000 0.000000
# 4 0.000000 0.000000 0.000000 0.059329 0.000000 0.000000
# 5 0.000000 0.000000 0.000000 0.000000 0.047756 0.000000
# 6 0.000000 0.000000 0.000000 0.000000 0.000000 0.141666
#
#
# Mechanical properties :
#
#
# Convention : Reuss Voigt Hill
#
# Bulk Modulus (GPa) = 30.25687 56.70054 43.47871
# Shear Modulus (GPa) = 13.30164 18.00732 15.65448
#
# Velocity S-wave (km/s) = 2.78743 3.24322 3.02392
# Velocity P-wave (km/s) = 5.29466 6.86619 6.13099
#
# Compressibility (1/GPa) = 0.03305034
#
# Stress axis : x y z
#
# Youngs Moduli (GPa) = 24.58511 59.77388 58.19628
#
# Poissons Ratio (x) = -0.06429 0.68382
# Poissons Ratio (y) = -0.02644 0.58744
# Poissons Ratio (z) = 0.28888 0.60336
#
# Static dielectric constant tensor:
#      x y z
#    x 2.796780 0.000000 0.000000 
#    y 0.000000 4.492870 0.000000 
#    z 0.000000 0.000000 2.311560 
# 
# 
# High freq. dielectric constant tensor:
#      x y z
#    x 1.602810 0.000000 0.000000 
#    y 0.000000 1.659560 0.000000 
#    z 0.000000 0.000000 1.656490 
# 
# From -- ./inp_files/29079.got.cif
#   From: 2010.03.12/outbox.cif.g09.slc.cpg/sg51_15_cif.got.tgz:29079.got - 2010.04.16 13:43:02.
