data_PCOD8214113
_publ_section_title
;
Structure prediction by ZEFSAII (Michael W. Deem and Ramdas Pophale) SiO2 
 PCOD8214113
Probable space group: P M M A
;
_chemical_formula_sum "Si O2"
_cell_formula_units_Z 48
_cell_length_a 8.689139
_cell_length_b 30.220716
_cell_length_c 9.526344
_cell_angle_alpha 90.000000
_cell_angle_beta 90.000000
_cell_angle_gamma 90.000000
_cell_volume 2501.541743
_symmetry_space_group_name_H-M "P M M A"
_symmetry_group_IT_number 51
_symmetry_cell_setting 'orthorhombic'
loop_
_space_group_symop_operation_xyz
x,y,z
1/2-x,-y,z
1/2+x,-y,-z
-x,y,-z
-x,-y,-z
1/2+x,y,-z
1/2-x,y,z
x,-y,z
loop_
_atom_site_type_symbol
_atom_site_label
_atom_site_fract_x
_atom_site_fract_y
_atom_site_fract_z
Si Si1 0.432660 0.378913 0.155196
Si Si2 0.432253 0.123946 0.852755
Si Si3 0.068520 0.951050 0.650270
Si Si4 0.430770 0.777051 0.852123
Si Si5 0.428818 0.551906 0.647448
Si Si6 0.932559 0.698333 0.344954
O O1 0.250000 0.376496 0.146547
O O2 0.484827 0.425340 0.222617
O O3 0.496320 0.340688 0.254263
O O4 0.500000 0.373903 0.000000
O O5 0.250000 0.121789 0.859077
O O6 0.500360 0.087664 0.746762
O O7 0.487986 0.173506 0.811690
O O8 0.500000 0.109770 0.000000
O O9 0.250000 0.947107 0.640103
O O10 0.000000 0.942260 0.500000
O O11 0.021041 0.000000 0.706423
O O12 0.250000 0.776054 0.872866
O O13 0.482059 0.744433 0.727781
O O14 0.500000 0.761061 0.000000
O O15 0.500000 0.568321 0.500000
O O16 0.250000 0.564970 0.648696
O O17 0.454675 0.500000 0.666816
O O18 0.750000 0.692457 0.351367
O O19 0.000000 0.697521 0.500000
#
# Coordination Sequence:
#
# PCOD8214113 Si02
#       6
#     8   8   8   8   8   8
#     4  12  25  41  61  85 115 150 188 230 277 327
#     4   9  18  33  51  74 103 134 171 214 262 315
#     4   9  18  32  49  70  99 134 171 213 260 311
#     4   9  19  35  55  77 104 138 174 216 265 319
#     4  10  21  39  63  90 120 154 191 231 276 325
#     4  11  23  39  58  82 111 143 182 225 272 324
#
# _framework density 19.188165999999999
#
# number of rings (size 3 to 8) (size 9 to 14) (size 15 to 20)
#    0.000    2.000    0.000    3.500    0.000    5.667 
#    0.000    0.000    0.000    0.000    0.000    0.000 
#    0.000    0.000    0.000    0.000    0.000    0.000 
#
# Total GULP energy -595215.861031 kJ/mol
# GULP energy per Si atom -12400.330438 kJ/mol
# Density = 1.914449 g / cm^3
# Si number density = 19.188166 Si / 1000 Ang^3
#
#
#
# Elastic Constant Matrix: (Units=GPa)
#
#
# Indices 1 2 3 4 5 6 
#
# 1 78.2323 47.5020 58.1201 0.0000 0.0000 0.0000
# 2 47.5020 120.5980 93.1320 0.0000 0.0000 0.0000
# 3 58.1201 93.1320 162.8157 0.0000 0.0000 0.0000
# 4 0.0000 0.0000 0.0000 38.5842 0.0000 0.0000
# 5 0.0000 0.0000 0.0000 0.0000 37.7851 0.0000
# 6 0.0000 0.0000 0.0000 0.0000 0.0000 1242.2106
#
#
#
# Elastic Compliance Matrix: (Units=1/GPa)
#
#
# Indices 1 2 3 4 5 6 
#
# 1 0.018360 -0.003888 -0.004330 0.000000 0.000000 0.000000
# 2 -0.003888 0.015676 -0.007579 0.000000 0.000000 0.000000
# 3 -0.004330 -0.007579 0.012023 0.000000 0.000000 0.000000
# 4 0.000000 0.000000 0.000000 0.025917 0.000000 0.000000
# 5 0.000000 0.000000 0.000000 0.000000 0.026465 0.000000
# 6 0.000000 0.000000 0.000000 0.000000 0.000000 0.000805
#
#
# Mechanical properties :
#
#
# Convention : Reuss Voigt Hill
#
# Bulk Modulus (GPa) = 69.13168 84.35048 76.74108
# Shear Modulus (GPa) = 36.85595 274.57542 155.71569
#
# Velocity S-wave (km/s) = 4.38741 11.97526 9.01821
# Velocity P-wave (km/s) = 7.85954 15.33833 12.18681
#
# Compressibility (1/GPa) = 0.01446515
#
# Stress axis : x y z
#
# Youngs Moduli (GPa) = 54.46628 63.78984 83.17403
#
# Poissons Ratio (x) = 0.24801 0.36015
# Poissons Ratio (y) = 0.21176 0.63040
# Poissons Ratio (z) = 0.23584 0.48348
#
# Static dielectric constant tensor:
#      x y z
#    x 3.526230 0.000000 0.000000 
#    y 0.000000 3.980410 0.000000 
#    z 0.000000 0.000000 3.589710 
# 
# 
# High freq. dielectric constant tensor:
#      x y z
#    x 1.747950 0.000000 0.000000 
#    y 0.000000 1.762230 0.000000 
#    z 0.000000 0.000000 1.747010 
# 
# From -- ./inp_files/5947.got.cif
#   From: 2010.03.12/outbox.cif.g09.slc.cpg/sg51_3_cif.got.tgz:5947.got - 2010.04.16 13:43:02.
