data_PCOD8214038
_publ_section_title
;
Structure prediction by ZEFSAII (Michael W. Deem and Ramdas Pophale) SiO2 
 PCOD8214038
Probable space group: P M M A
;
_chemical_formula_sum "Si O2"
_cell_formula_units_Z 40
_cell_length_a 15.279712
_cell_length_b 7.886972
_cell_length_c 16.332014
_cell_angle_alpha 90.000000
_cell_angle_beta 90.000000
_cell_angle_gamma 90.000000
_cell_volume 1968.181798
_symmetry_space_group_name_H-M "P M M A"
_symmetry_group_IT_number 51
_symmetry_cell_setting 'orthorhombic'
loop_
_space_group_symop_operation_xyz
x,y,z
1/2-x,-y,z
1/2+x,-y,-z
-x,y,-z
-x,-y,-z
1/2+x,y,-z
1/2-x,y,z
x,-y,z
loop_
_atom_site_type_symbol
_atom_site_label
_atom_site_fract_x
_atom_site_fract_y
_atom_site_fract_z
Si Si1 0.848004 0.194012 0.709873
Si Si2 0.100849 0.000000 0.008856
Si Si3 0.349203 0.000000 0.823314
Si Si4 0.147600 0.306783 0.714936
Si Si5 0.995645 0.696670 0.591607
Si Si6 0.147429 0.315330 0.119099
O O1 0.750000 0.262453 0.687036
O O2 0.914277 0.213647 0.635211
O O3 0.890238 0.285594 0.789595
O O4 0.840280 0.000000 0.735134
O O5 0.144403 0.000000 0.920426
O O6 0.124815 0.829206 0.055112
O O7 0.000000 0.000000 0.000000
O O8 0.387315 0.174451 0.784311
O O9 0.250000 0.000000 0.796806
O O10 0.250000 0.280628 0.692216
O O11 0.132510 0.500000 0.746749
O O12 0.089092 0.269754 0.634889
O O13 0.972633 0.500000 0.589647
O O14 0.000000 0.771475 0.500000
O O15 0.250000 0.314411 0.130125
O O16 0.114340 0.500000 0.087190
#
# Coordination Sequence:
#
# PCOD8214038 Si02
#       6
#     8   4   4   8   8   8
#     4  10  21  38  62  90 123 161 202 251 306 363
#     4  12  26  38  58  92 125 154 192 249 306 362
#     4  10  22  40  61  82 112 158 201 241 294 349
#     4   9  20  39  61  86 118 158 202 244 291 353
#     4  10  22  38  60  89 121 159 199 248 304 355
#     4  10  21  40  64  86 116 160 203 249 302 356
#
# _framework density 20.323326000000002
#
# number of rings (size 3 to 8) (size 9 to 14) (size 15 to 20)
#    0.000    2.000    1.000    1.500    4.200    3.600 
#    0.000    4.000    0.000    0.000    0.000    0.000 
#    0.000    0.000    0.000    0.000    0.000    0.000 
#
# Total GULP energy -495775.451008 kJ/mol
# GULP energy per Si atom -12394.386275 kJ/mol
# Density = 2.027707 g / cm^3
# Si number density = 20.323326 Si / 1000 Ang^3
#
#
#
# Elastic Constant Matrix: (Units=GPa)
#
#
# Indices 1 2 3 4 5 6 
#
# 1 75.3932 37.3807 47.7964 0.0000 0.0000 0.0000
# 2 37.3807 141.3422 78.9681 0.0000 0.0000 0.0000
# 3 47.7964 78.9681 161.2506 0.0000 0.0000 0.0000
# 4 0.0000 0.0000 0.0000 72.1884 0.0000 0.0000
# 5 0.0000 0.0000 0.0000 0.0000 32.5713 0.0000
# 6 0.0000 0.0000 0.0000 0.0000 0.0000 22.5109
#
#
#
# Elastic Compliance Matrix: (Units=1/GPa)
#
#
# Indices 1 2 3 4 5 6 
#
# 1 0.016857 -0.002294 -0.003873 0.000000 0.000000 0.000000
# 2 -0.002294 0.010052 -0.004243 0.000000 0.000000 0.000000
# 3 -0.003873 -0.004243 0.009427 0.000000 0.000000 0.000000
# 4 0.000000 0.000000 0.000000 0.013853 0.000000 0.000000
# 5 0.000000 0.000000 0.000000 0.000000 0.030702 0.000000
# 6 0.000000 0.000000 0.000000 0.000000 0.000000 0.044423
#
#
# Mechanical properties :
#
#
# Convention : Reuss Voigt Hill
#
# Bulk Modulus (GPa) = 64.44867 78.47517 71.46192
# Shear Modulus (GPa) = 33.04574 39.71018 36.37796
#
# Velocity S-wave (km/s) = 4.03674 4.42511 4.23538
# Velocity P-wave (km/s) = 7.31489 8.05022 7.69135
#
# Compressibility (1/GPa) = 0.01551622
#
# Stress axis : x y z
#
# Youngs Moduli (GPa) = 59.32394 99.48044 106.07512
#
# Poissons Ratio (x) = 0.22823 0.41082
# Poissons Ratio (y) = 0.13610 0.45005
# Poissons Ratio (z) = 0.22976 0.42207
#
# Static dielectric constant tensor:
#      x y z
#    x 3.660440 0.000000 0.000000 
#    y 0.000000 4.027130 0.000000 
#    z 0.000000 0.000000 3.538250 
# 
# 
# High freq. dielectric constant tensor:
#      x y z
#    x 1.792660 0.000000 0.000000 
#    y 0.000000 1.807770 0.000000 
#    z 0.000000 0.000000 1.781620 
# 
# From -- ./inp_files/23819.got.cif
#   From: 2010.03.12/outbox.cif.g09.slc.cpg/sg51_12_cif.got.tgz:23819.got - 2010.04.16 13:43:02.
