data_PCOD8214396
_publ_section_title
;
Structure prediction by ZEFSAII (Michael W. Deem and Ramdas Pophale) SiO2 
 PCOD8214396
Probable space group: P M M A
;
_chemical_formula_sum "Si O2"
_cell_formula_units_Z 56
_cell_length_a 21.760765
_cell_length_b 8.512991
_cell_length_c 14.775529
_cell_angle_alpha 90.000000
_cell_angle_beta 90.000000
_cell_angle_gamma 90.000000
_cell_volume 2737.154877
_symmetry_space_group_name_H-M "P M M A"
_symmetry_group_IT_number 51
_symmetry_cell_setting 'orthorhombic'
loop_
_space_group_symop_operation_xyz
x,y,z
1/2-x,-y,z
1/2+x,-y,-z
-x,y,-z
-x,-y,-z
1/2+x,y,-z
1/2-x,y,z
x,-y,z
loop_
_atom_site_type_symbol
_atom_site_label
_atom_site_fract_x
_atom_site_fract_y
_atom_site_fract_z
Si Si1 0.631782 0.182668 0.543876
Si Si2 0.453632 0.813893 0.294945
Si Si3 0.430743 0.174316 0.969671
Si Si4 0.129297 0.680707 0.134309
Si Si5 0.750000 0.821438 0.816329
Si Si6 0.077742 0.685593 0.771420
Si Si7 0.250000 0.319652 0.368319
Si Si8 0.680449 0.316421 0.364979
O O1 0.573445 0.232959 0.605953
O O2 0.691456 0.225865 0.599643
O O3 0.636165 0.267281 0.447529
O O4 0.629373 0.000000 0.523471
O O5 0.414876 0.734749 0.215078
O O6 0.523327 0.753887 0.291226
O O7 0.450437 0.000000 0.280389
O O8 0.424123 0.235090 0.868382
O O9 0.400876 0.000000 0.976219
O O10 0.500000 0.160729 0.000000
O O11 0.400705 0.299872 0.036419
O O12 0.146359 0.500000 0.149935
O O13 0.189219 0.789759 0.126326
O O14 0.750000 0.689388 0.738893
O O15 0.750000 0.000000 0.779584
O O16 0.068718 0.500000 0.780701
O O17 0.143490 0.728896 0.726048
O O18 0.250000 0.500000 0.402446
O O19 0.750000 0.240450 0.366866
O O20 0.689284 0.500000 0.371226
#
# Coordination Sequence:
#
# PCOD8214396 Si02
#       8
#     8   8   8   8   4   8   4   8
#     4  11  23  38  62  93 126 165 210 257 308 375
#     4  11  23  39  61  93 133 168 204 260 321 377
#     4  11  23  41  67  93 124 165 208 259 322 386
#     4  12  24  39  63  94 128 168 214 262 319 383
#     4  12  24  40  60  89 132 171 210 260 320 384
#     4  11  24  42  66  94 124 162 214 269 317 378
#     4  12  22  34  58  89 124 167 212 258 306 364
#     4  10  23  44  67  91 124 167 213 264 316 369
#
# _framework density 20.459199999999999
#
# number of rings (size 3 to 8) (size 9 to 14) (size 15 to 20)
#    0.000    0.857    3.571    4.286    0.000    4.000 
#    1.286    2.857    0.000    0.000    0.000    0.000 
#    0.000    0.000    0.000    0.000    0.000    0.000 
#
# Total GULP energy -694301.332100 kJ/mol
# GULP energy per Si atom -12398.238073 kJ/mol
# Density = 2.041263 g / cm^3
# Si number density = 20.459200 Si / 1000 Ang^3
#
#
#
# Elastic Constant Matrix: (Units=GPa)
#
#
# Indices 1 2 3 4 5 6 
#
# 1 93.4745 38.9001 52.6396 0.0000 0.0000 0.0000
# 2 38.9001 65.0607 40.0519 0.0000 0.0000 0.0000
# 3 52.6396 40.0519 132.6081 0.0000 0.0000 0.0000
# 4 0.0000 0.0000 0.0000 56.9684 0.0000 0.0000
# 5 0.0000 0.0000 0.0000 0.0000 28.6954 0.0000
# 6 0.0000 0.0000 0.0000 0.0000 0.0000 31.3175
#
#
#
# Elastic Compliance Matrix: (Units=1/GPa)
#
#
# Indices 1 2 3 4 5 6 
#
# 1 0.015977 -0.006939 -0.004247 0.000000 0.000000 0.000000
# 2 -0.006939 0.021894 -0.003858 0.000000 0.000000 0.000000
# 3 -0.004247 -0.003858 0.010392 0.000000 0.000000 0.000000
# 4 0.000000 0.000000 0.000000 0.017554 0.000000 0.000000
# 5 0.000000 0.000000 0.000000 0.000000 0.034849 0.000000
# 6 0.000000 0.000000 0.000000 0.000000 0.000000 0.031931
#
#
# Mechanical properties :
#
#
# Convention : Reuss Voigt Hill
#
# Bulk Modulus (GPa) = 55.01691 61.59186 58.30438
# Shear Modulus (GPa) = 29.63098 34.03305 31.83202
#
# Velocity S-wave (km/s) = 3.80978 4.08298 3.94874
# Velocity P-wave (km/s) = 6.80455 7.23862 7.02494
#
# Compressibility (1/GPa) = 0.01817623
#
# Stress axis : x y z
#
# Youngs Moduli (GPa) = 62.58989 45.67436 96.22728
#
# Poissons Ratio (x) = 0.31691 0.40863
# Poissons Ratio (y) = 0.43428 0.37129
# Poissons Ratio (z) = 0.26579 0.17623
#
# Static dielectric constant tensor:
#      x y z
#    x 3.973570 0.000000 0.000000 
#    y 0.000000 3.767330 0.000000 
#    z 0.000000 0.000000 3.643240 
# 
# 
# High freq. dielectric constant tensor:
#      x y z
#    x 1.800490 0.000000 0.000000 
#    y 0.000000 1.807930 0.000000 
#    z 0.000000 0.000000 1.800340 
# 
# From -- ./inp_files/25916.got.cif
#   From: 2010.03.12/outbox.cif.g09.slc.cpg/sg51_13_cif.got.tgz:25916.got - 2010.04.16 13:43:02.
