data_PCOD8214128
_publ_section_title
;
Structure prediction by ZEFSAII (Michael W. Deem and Ramdas Pophale) SiO2 
 PCOD8214128
Probable space group: P M M A
;
_chemical_formula_sum "Si O2"
_cell_formula_units_Z 36
_cell_length_a 8.571762
_cell_length_b 22.628808
_cell_length_c 9.018813
_cell_angle_alpha 90.000000
_cell_angle_beta 90.000000
_cell_angle_gamma 90.000000
_cell_volume 1749.367943
_symmetry_space_group_name_H-M "P M M A"
_symmetry_group_IT_number 51
_symmetry_cell_setting 'orthorhombic'
loop_
_space_group_symop_operation_xyz
x,y,z
1/2-x,-y,z
1/2+x,-y,-z
-x,y,-z
-x,-y,-z
1/2+x,y,-z
1/2-x,y,z
x,-y,z
loop_
_atom_site_type_symbol
_atom_site_label
_atom_site_fract_x
_atom_site_fract_y
_atom_site_fract_z
Si Si1 0.435407 0.885313 0.662041
Si Si2 0.934022 0.330321 0.338619
Si Si3 0.933843 0.000000 0.162213
Si Si4 0.932647 0.431613 0.841874
Si Si5 0.065490 0.776553 0.161433
O O1 0.500000 0.895720 0.500000
O O2 0.250000 0.878671 0.661000
O O3 0.493745 0.941435 0.755751
O O4 0.510675 0.826512 0.726232
O O5 0.750000 0.324253 0.344059
O O6 0.000000 0.315223 0.500000
O O7 0.983532 0.396013 0.289581
O O8 0.002634 0.286025 0.217128
O O9 0.750000 0.000000 0.155591
O O10 0.000000 0.000000 0.000000
O O11 0.750000 0.418172 0.839676
O O12 0.970065 0.500000 0.812469
O O13 0.000000 0.411340 0.000000
O O14 0.250000 0.774490 0.154210
O O15 0.000000 0.791164 0.000000
#
# Coordination Sequence:
#
# PCOD8214128 Si02
#       5
#     8   8   4   8   8
#     4  11  23  41  63  92 125 162 204 250 304 360
#     4  12  25  42  63  89 122 160 202 250 303 360
#     4  10  23  40  62  90 124 162 205 252 301 358
#     4  10  21  39  63  91 123 160 202 248 299 357
#     4  12  25  43  65  91 122 159 202 250 302 360
#
# _framework density 20.578862000000001
#
# number of rings (size 3 to 8) (size 9 to 14) (size 15 to 20)
#    0.000    0.889    0.000    7.667    0.000    5.333 
#    0.000    0.000    0.000    0.000    0.000    0.000 
#    0.000    0.000    0.000    0.000    0.000    0.000 
#
# Total GULP energy -446693.995676 kJ/mol
# GULP energy per Si atom -12408.166547 kJ/mol
# Density = 2.053202 g / cm^3
# Si number density = 20.578862 Si / 1000 Ang^3
#
#
#
# Elastic Constant Matrix: (Units=GPa)
#
#
# Indices 1 2 3 4 5 6 
#
# 1 148.3551 43.7237 47.1167 0.0000 0.0000 0.0000
# 2 43.7237 104.3866 45.0145 0.0000 0.0000 0.0000
# 3 47.1167 45.0145 131.0330 0.0000 0.0000 0.0000
# 4 0.0000 0.0000 0.0000 54.1632 0.0000 0.0000
# 5 0.0000 0.0000 0.0000 0.0000 43.0576 0.0000
# 6 0.0000 0.0000 0.0000 0.0000 0.0000 18.6338
#
#
#
# Elastic Compliance Matrix: (Units=1/GPa)
#
#
# Indices 1 2 3 4 5 6 
#
# 1 0.008138 -0.002520 -0.002060 0.000000 0.000000 0.000000
# 2 -0.002520 0.012026 -0.003225 0.000000 0.000000 0.000000
# 3 -0.002060 -0.003225 0.009481 0.000000 0.000000 0.000000
# 4 0.000000 0.000000 0.000000 0.018463 0.000000 0.000000
# 5 0.000000 0.000000 0.000000 0.000000 0.023225 0.000000
# 6 0.000000 0.000000 0.000000 0.000000 0.000000 0.053666
#
#
# Mechanical properties :
#
#
# Convention : Reuss Voigt Hill
#
# Bulk Modulus (GPa) = 71.26099 72.83161 72.04630
# Shear Modulus (GPa) = 34.41466 39.69889 37.05678
#
# Velocity S-wave (km/s) = 4.09385 4.39693 4.24809
# Velocity P-wave (km/s) = 7.55312 7.82596 7.69075
#
# Compressibility (1/GPa) = 0.01403292
#
# Stress axis : x y z
#
# Youngs Moduli (GPa) = 122.88516 83.15203 105.47935
#
# Poissons Ratio (x) = 0.20955 0.21733
# Poissons Ratio (y) = 0.30968 0.34020
# Poissons Ratio (z) = 0.25319 0.26819
#
# Static dielectric constant tensor:
#      x y z
#    x 3.860840 0.000000 0.000000 
#    y 0.000000 3.926970 0.000000 
#    z 0.000000 0.000000 3.684500 
# 
# 
# High freq. dielectric constant tensor:
#      x y z
#    x 1.820530 0.000000 0.000000 
#    y 0.000000 1.821360 0.000000 
#    z 0.000000 0.000000 1.816520 
# 
# From -- ./inp_files/5281.got.cif
#   From: 2010.03.12/outbox.cif.g09.slc.cpg/sg51_3_cif.got.tgz:5281.got - 2010.04.16 13:43:02.
