data_PCOD8214677
_publ_section_title
;
Structure prediction by ZEFSAII (Michael W. Deem and Ramdas Pophale) SiO2 
 PCOD8214677
Probable space group: P M M A
;
_chemical_formula_sum "Si O2"
_cell_formula_units_Z 36
_cell_length_a 9.167818
_cell_length_b 15.894940
_cell_length_c 13.478825
_cell_angle_alpha 90.000000
_cell_angle_beta 90.000000
_cell_angle_gamma 90.000000
_cell_volume 1964.160218
_symmetry_space_group_name_H-M "P M M A"
_symmetry_group_IT_number 51
_symmetry_cell_setting 'orthorhombic'
loop_
_space_group_symop_operation_xyz
x,y,z
1/2-x,-y,z
1/2+x,-y,-z
-x,y,-z
-x,-y,-z
1/2+x,y,-z
1/2-x,y,z
x,-y,z
loop_
_atom_site_type_symbol
_atom_site_label
_atom_site_fract_x
_atom_site_fract_y
_atom_site_fract_z
Si Si1 0.923764 0.593008 0.799204
Si Si2 0.917893 0.671669 0.599199
Si Si3 0.423348 0.000000 0.606165
Si Si4 0.082920 0.153008 0.300899
Si Si5 0.079736 0.242303 0.097728
O O1 0.750000 0.598072 0.796109
O O2 0.979166 0.500000 0.830788
O O3 0.981006 0.614943 0.688934
O O4 0.979902 0.663618 0.876251
O O5 0.750000 0.651253 0.581376
O O6 0.940627 0.769400 0.625002
O O7 0.000000 0.646484 0.500000
O O8 0.500000 0.000000 0.500000
O O9 0.470849 0.081199 0.668277
O O10 0.250000 0.000000 0.591606
O O11 0.250000 0.120835 0.307979
O O12 0.046004 0.179841 0.188453
O O13 0.250000 0.245123 0.075416
O O14 0.000000 0.208300 0.000000
#
# Coordination Sequence:
#
# PCOD8214677 Si02
#       5
#     8   8   4   8   8
#     4   8  15  29  47  68  97 132 167 202 244 296
#     4   9  17  29  47  69  94 129 168 202 242 293
#     4  12  24  36  55  82 107 132 163 200 244 292
#     4   9  19  36  53  72 101 134 168 205 246 294
#     4   9  18  33  54  76  99 131 168 207 252 298
#
# _framework density 18.328444000000001
#
# number of rings (size 3 to 8) (size 9 to 14) (size 15 to 20)
#    0.000    2.889    0.000    4.333    0.000    4.444 
#    0.000    3.889    0.000    1.333    0.000    0.000 
#    0.000    0.000    0.000    0.000    0.000    0.000 
#
# Total GULP energy -446279.510427 kJ/mol
# GULP energy per Si atom -12396.653067 kJ/mol
# Density = 1.828673 g / cm^3
# Si number density = 18.328444 Si / 1000 Ang^3
#
#
#
# Elastic Constant Matrix: (Units=GPa)
#
#
# Indices 1 2 3 4 5 6 
#
# 1 67.5041 37.2249 42.8195 0.0000 0.0000 0.0000
# 2 37.2249 82.1765 27.1963 0.0000 0.0000 0.0000
# 3 42.8195 27.1963 113.7330 0.0000 0.0000 0.0000
# 4 0.0000 0.0000 0.0000 14.6172 0.0000 0.0000
# 5 0.0000 0.0000 0.0000 0.0000 34.5264 0.0000
# 6 0.0000 0.0000 0.0000 0.0000 0.0000 19.0935
#
#
#
# Elastic Compliance Matrix: (Units=1/GPa)
#
#
# Indices 1 2 3 4 5 6 
#
# 1 0.023947 -0.008540 -0.006974 0.000000 0.000000 0.000000
# 2 -0.008540 0.016260 -0.000673 0.000000 0.000000 0.000000
# 3 -0.006974 -0.000673 0.011579 0.000000 0.000000 0.000000
# 4 0.000000 0.000000 0.000000 0.068412 0.000000 0.000000
# 5 0.000000 0.000000 0.000000 0.000000 0.028963 0.000000
# 6 0.000000 0.000000 0.000000 0.000000 0.000000 0.052374
#
#
# Mechanical properties :
#
#
# Convention : Reuss Voigt Hill
#
# Bulk Modulus (GPa) = 51.51198 53.09942 52.30570
# Shear Modulus (GPa) = 20.80051 24.05896 22.42974
#
# Velocity S-wave (km/s) = 3.37245 3.62699 3.50203
# Velocity P-wave (km/s) = 6.58259 6.82452 6.70464
#
# Compressibility (1/GPa) = 0.01941296
#
# Stress axis : x y z
#
# Youngs Moduli (GPa) = 41.75960 61.50067 86.36320
#
# Poissons Ratio (x) = 0.52519 0.60227
# Poissons Ratio (y) = 0.35661 0.05813
# Poissons Ratio (z) = 0.29122 0.04139
#
# Static dielectric constant tensor:
#      x y z
#    x 3.031910 0.000000 0.000000 
#    y 0.000000 3.417440 0.000000 
#    z 0.000000 0.000000 3.344470 
# 
# 
# High freq. dielectric constant tensor:
#      x y z
#    x 1.679710 0.000000 0.000000 
#    y 0.000000 1.706350 0.000000 
#    z 0.000000 0.000000 1.713930 
# 
# From -- ./inp_files/20365.got.cif
#   From: 2010.03.12/outbox.cif.g09.slc.cpg/sg51_11_cif.got.tgz:20365.got - 2010.04.16 13:43:02.
