data_PCOD8214143
_publ_section_title
;
Structure prediction by ZEFSAII (Michael W. Deem and Ramdas Pophale) SiO2 
 PCOD8214143
Probable space group: P M M A
;
_chemical_formula_sum "Si O2"
_cell_formula_units_Z 56
_cell_length_a 15.609165
_cell_length_b 22.198763
_cell_length_c 8.029642
_cell_angle_alpha 90.000000
_cell_angle_beta 90.000000
_cell_angle_gamma 90.000000
_cell_volume 2782.304312
_symmetry_space_group_name_H-M "P M M A"
_symmetry_group_IT_number 51
_symmetry_cell_setting 'orthorhombic'
loop_
_space_group_symop_operation_xyz
x,y,z
1/2-x,-y,z
1/2+x,-y,-z
-x,y,-z
-x,-y,-z
1/2+x,y,-z
1/2-x,y,z
x,-y,z
loop_
_atom_site_type_symbol
_atom_site_label
_atom_site_fract_x
_atom_site_fract_y
_atom_site_fract_z
Si Si1 0.847700 0.652934 0.183464
Si Si2 0.416016 0.131838 0.582948
Si Si3 0.152348 0.741386 0.510913
Si Si4 0.849061 0.654973 0.796797
Si Si5 0.250000 0.929164 0.458577
Si Si6 0.085610 0.067136 0.899869
Si Si7 0.000207 0.433772 0.194801
Si Si8 0.750000 0.070841 0.903299
O O1 0.750000 0.628586 0.196303
O O2 0.862914 0.705114 0.317994
O O3 0.913001 0.601039 0.241725
O O4 0.865059 0.675134 0.991023
O O5 0.500000 0.103412 0.500000
O O6 0.407181 0.200444 0.523583
O O7 0.333854 0.091358 0.552598
O O8 0.431556 0.122593 0.777194
O O9 0.250000 0.763207 0.502936
O O10 0.129474 0.706863 0.338487
O O11 0.750000 0.634082 0.774200
O O12 0.913324 0.600800 0.749686
O O13 0.250000 0.000000 0.448813
O O14 0.250000 0.898332 0.277274
O O15 0.164423 0.092243 0.006840
O O16 0.107847 0.000000 0.824632
O O17 0.000000 0.058825 0.000000
O O18 0.999913 0.500000 0.280621
O O19 0.000000 0.442518 0.000000
O O20 0.750000 0.000000 0.880962
#
# Coordination Sequence:
#
# PCOD8214143 Si02
#       8
#     8   8   8   8   4   8   8   4
#     4   9  19  37  59  83 114 162 199 241 305 356
#     4  12  25  40  60  93 121 157 203 254 307 364
#     4  10  22  42  59  84 122 155 207 255 293 358
#     4   9  19  37  59  82 117 163 197 244 303 353
#     4  11  23  43  67  93 123 157 198 249 312 375
#     4  10  21  40  61  86 120 154 192 241 302 371
#     4   9  18  33  58  92 121 152 202 249 296 364
#     4   9  19  37  63  87 115 155 189 231 296 363
#
# _framework density 20.127203000000002
#
# number of rings (size 3 to 8) (size 9 to 14) (size 15 to 20)
#    0.000    2.143    0.714    1.714    2.000    3.429 
#    5.143    4.286    0.000    2.571    0.000    0.000 
#    0.000    0.000    0.000    0.000    0.000    0.000 
#
# Total GULP energy -693886.146134 kJ/mol
# GULP energy per Si atom -12390.824038 kJ/mol
# Density = 2.008139 g / cm^3
# Si number density = 20.127203 Si / 1000 Ang^3
#
#
#
# Elastic Constant Matrix: (Units=GPa)
#
#
# Indices 1 2 3 4 5 6 
#
# 1 131.1501 44.5430 29.7590 0.0000 0.0000 0.0000
# 2 44.5430 85.8087 40.1587 0.0000 0.0000 0.0000
# 3 29.7590 40.1587 100.8178 0.0000 0.0000 0.0000
# 4 0.0000 0.0000 0.0000 20.0836 0.0000 0.0000
# 5 0.0000 0.0000 0.0000 0.0000 20.4929 0.0000
# 6 0.0000 0.0000 0.0000 0.0000 0.0000 45.3953
#
#
#
# Elastic Compliance Matrix: (Units=1/GPa)
#
#
# Indices 1 2 3 4 5 6 
#
# 1 0.009341 -0.004374 -0.001015 0.000000 0.000000 0.000000
# 2 -0.004374 0.016372 -0.005230 0.000000 0.000000 0.000000
# 3 -0.001015 -0.005230 0.012302 0.000000 0.000000 0.000000
# 4 0.000000 0.000000 0.000000 0.049792 0.000000 0.000000
# 5 0.000000 0.000000 0.000000 0.000000 0.048797 0.000000
# 6 0.000000 0.000000 0.000000 0.000000 0.000000 0.022029
#
#
# Mechanical properties :
#
#
# Convention : Reuss Voigt Hill
#
# Bulk Modulus (GPa) = 59.60759 60.74422 60.17591
# Shear Modulus (GPa) = 26.95956 30.74875 28.85416
#
# Velocity S-wave (km/s) = 3.66383 3.91285 3.79039
# Velocity P-wave (km/s) = 6.89768 7.11755 7.00848
#
# Compressibility (1/GPa) = 0.01677639
#
# Stress axis : x y z
#
# Youngs Moduli (GPa) = 107.05944 61.07966 81.28815
#
# Poissons Ratio (x) = 0.26714 0.08250
# Poissons Ratio (y) = 0.46824 0.42517
# Poissons Ratio (z) = 0.10866 0.31947
#
# Static dielectric constant tensor:
#      x y z
#    x 3.837270 0.000000 0.000000 
#    y 0.000000 3.519490 0.000000 
#    z 0.000000 0.000000 3.806500 
# 
# 
# High freq. dielectric constant tensor:
#      x y z
#    x 1.805530 0.000000 0.000000 
#    y 0.000000 1.759300 0.000000 
#    z 0.000000 0.000000 1.787220 
# 
# From -- ./inp_files/8594.got.cif
#   From: 2010.03.12/outbox.cif.g09.slc.cpg/sg51_5_cif.got.tgz:8594.got - 2010.04.16 13:43:02.
