data_PCOD8214353
_publ_section_title
;
Structure prediction by ZEFSAII (Michael W. Deem and Ramdas Pophale) SiO2 
 PCOD8214353
Probable space group: P M M A
;
_chemical_formula_sum "Si O2"
_cell_formula_units_Z 48
_cell_length_a 17.976020
_cell_length_b 8.677779
_cell_length_c 15.843448
_cell_angle_alpha 90.000000
_cell_angle_beta 90.000000
_cell_angle_gamma 90.000000
_cell_volume 2471.450013
_symmetry_space_group_name_H-M "P M M A"
_symmetry_group_IT_number 51
_symmetry_cell_setting 'orthorhombic'
loop_
_space_group_symop_operation_xyz
x,y,z
1/2-x,-y,z
1/2+x,-y,-z
-x,y,-z
-x,-y,-z
1/2+x,y,-z
1/2-x,y,z
x,-y,z
loop_
_atom_site_type_symbol
_atom_site_label
_atom_site_fract_x
_atom_site_fract_y
_atom_site_fract_z
Si Si1 0.750000 0.820238 0.215791
Si Si2 0.974035 0.177160 0.633860
Si Si3 0.750000 0.324239 0.393781
Si Si4 0.533740 0.817584 0.821425
Si Si5 0.384864 0.179208 0.524167
Si Si6 0.383314 0.318374 0.887393
Si Si7 0.335885 0.319702 0.074514
O O1 0.750000 0.791419 0.315350
O O2 0.825225 0.748990 0.179080
O O3 0.750000 0.000000 0.197100
O O4 0.966734 0.253271 0.726377
O O5 0.917006 0.244159 0.564458
O O6 0.056959 0.198093 0.600087
O O7 0.953508 0.000000 0.643381
O O8 0.750000 0.500000 0.361940
O O9 0.681111 0.292279 0.454053
O O10 0.466105 0.744922 0.873838
O O11 0.612661 0.775376 0.862007
O O12 0.522491 0.000000 0.821196
O O13 0.360714 0.000000 0.516947
O O14 0.384275 0.500000 0.876205
O O15 0.356250 0.269553 0.979904
O O16 0.250000 0.277611 0.092566
O O17 0.350730 0.500000 0.087706
#
# Coordination Sequence:
#
# PCOD8214353 Si02
#       7
#     4   8   4   8   8   8   8
#     4  12  24  38  60  89 120 153 192 243 296 349
#     4   8  17  35  59  84 110 144 190 238 288 339
#     4  12  24  36  52  85 122 151 186 231 284 345
#     4  11  22  36  58  92 122 150 196 250 294 347
#     4   9  17  36  62  81 107 151 193 233 284 343
#     4  11  22  40  62  86 117 156 196 240 296 356
#     4  10  22  42  61  79 113 162 204 240 293 355
#
# _framework density 19.421797999999999
#
# number of rings (size 3 to 8) (size 9 to 14) (size 15 to 20)
#    0.000    1.833    0.833    5.000    0.000    5.000 
#    1.500    4.167    0.000    0.000    0.000    0.000 
#    0.000    0.000    0.000    0.000    0.000    0.000 
#
# Total GULP energy -595229.991357 kJ/mol
# GULP energy per Si atom -12400.624820 kJ/mol
# Density = 1.937759 g / cm^3
# Si number density = 19.421798 Si / 1000 Ang^3
#
#
#
# Elastic Constant Matrix: (Units=GPa)
#
#
# Indices 1 2 3 4 5 6 
#
# 1 118.7555 34.1277 50.1269 0.0000 0.0000 0.0000
# 2 34.1277 63.3844 32.7459 0.0000 0.0000 0.0000
# 3 50.1269 32.7459 85.9799 0.0000 0.0000 0.0000
# 4 0.0000 0.0000 0.0000 23.0335 0.0000 0.0000
# 5 0.0000 0.0000 0.0000 0.0000 40.3688 0.0000
# 6 0.0000 0.0000 0.0000 0.0000 0.0000 29.1286
#
#
#
# Elastic Compliance Matrix: (Units=1/GPa)
#
#
# Indices 1 2 3 4 5 6 
#
# 1 0.011752 -0.003471 -0.005530 0.000000 0.000000 0.000000
# 2 -0.003471 0.020666 -0.005847 0.000000 0.000000 0.000000
# 3 -0.005530 -0.005847 0.017081 0.000000 0.000000 0.000000
# 4 0.000000 0.000000 0.000000 0.043415 0.000000 0.000000
# 5 0.000000 0.000000 0.000000 0.000000 0.024772 0.000000
# 6 0.000000 0.000000 0.000000 0.000000 0.000000 0.034331
#
#
# Mechanical properties :
#
#
# Convention : Reuss Voigt Hill
#
# Bulk Modulus (GPa) = 50.49433 55.79119 53.14276
# Shear Modulus (GPa) = 26.55129 28.58079 27.56604
#
# Velocity S-wave (km/s) = 3.70143 3.84028 3.77149
# Velocity P-wave (km/s) = 6.65752 6.96076 6.81083
#
# Compressibility (1/GPa) = 0.01980420
#
# Stress axis : x y z
#
# Youngs Moduli (GPa) = 85.09021 48.38758 58.54288
#
# Poissons Ratio (x) = 0.16795 0.32373
# Poissons Ratio (y) = 0.29534 0.34232
# Poissons Ratio (z) = 0.47053 0.28294
#
# Static dielectric constant tensor:
#      x y z
#    x 3.543000 0.000000 0.000000 
#    y 0.000000 3.320890 0.000000 
#    z 0.000000 0.000000 3.841990 
# 
# 
# High freq. dielectric constant tensor:
#      x y z
#    x 1.762910 0.000000 0.000000 
#    y 0.000000 1.738930 0.000000 
#    z 0.000000 0.000000 1.764900 
# 
# From -- ./inp_files/24896.got.cif
#   From: 2010.03.12/outbox.cif.g09.slc.cpg/sg51_13_cif.got.tgz:24896.got - 2010.04.16 13:43:02.
