data_PCOD8214220
_publ_section_title
;
Structure prediction by ZEFSAII (Michael W. Deem and Ramdas Pophale) SiO2 
 PCOD8214220
Probable space group: P M M A
;
_chemical_formula_sum "Si O2"
_cell_formula_units_Z 48
_cell_length_a 13.410228
_cell_length_b 10.131020
_cell_length_c 17.963219
_cell_angle_alpha 90.000000
_cell_angle_beta 90.000000
_cell_angle_gamma 90.000000
_cell_volume 2440.470145
_symmetry_space_group_name_H-M "P M M A"
_symmetry_group_IT_number 51
_symmetry_cell_setting 'orthorhombic'
loop_
_space_group_symop_operation_xyz
x,y,z
1/2-x,-y,z
1/2+x,-y,-z
-x,y,-z
-x,-y,-z
1/2+x,y,-z
1/2-x,y,z
x,-y,z
loop_
_atom_site_type_symbol
_atom_site_label
_atom_site_fract_x
_atom_site_fract_y
_atom_site_fract_z
Si Si1 0.497867 0.760144 0.815150
Si Si2 0.135517 0.351083 0.938619
Si Si3 0.635537 0.148754 0.317748
Si Si4 0.636590 0.145834 0.937191
Si Si5 0.981632 0.655464 0.414358
Si Si6 0.641969 0.651714 0.699617
O O1 0.426767 0.666954 0.863599
O O2 0.431490 0.840088 0.756342
O O3 0.562284 0.856988 0.867105
O O4 0.578066 0.669197 0.773896
O O5 0.250000 0.320922 0.918883
O O6 0.121356 0.500000 0.968369
O O7 0.098268 0.252235 0.002909
O O8 0.750000 0.174281 0.295333
O O9 0.607653 0.255646 0.381322
O O10 0.621280 0.000000 0.349167
O O11 0.750000 0.179478 0.911884
O O12 0.632782 0.000000 0.973773
O O13 0.957195 0.500000 0.401065
O O14 0.000000 0.687266 0.500000
O O15 0.081533 0.702836 0.372138
O O16 0.750000 0.724790 0.704163
O O17 0.662980 0.500000 0.688309
#
# Coordination Sequence:
#
# PCOD8214220 Si02
#       6
#     8   8   8   8   8   8
#     4  11  20  34  56  78 104 141 184 227 268 321
#     4  10  22  38  55  77 105 138 179 228 280 332
#     4  10  22  38  56  82 115 149 184 223 270 322
#     4  10  22  38  55  77 105 138 178 225 278 333
#     4   9  19  36  59  86 113 144 183 223 265 316
#     4   9  18  32  51  78 110 140 172 216 269 319
#
# _framework density 19.668341000000002
#
# number of rings (size 3 to 8) (size 9 to 14) (size 15 to 20)
#    0.000    2.167    0.000    2.500    0.000    6.000 
#    0.000    5.000    0.000    4.500    0.000    0.000 
#    0.000    0.000    0.000    0.000    0.000    0.000 
#
# Total GULP energy -595051.608293 kJ/mol
# GULP energy per Si atom -12396.908506 kJ/mol
# Density = 1.962358 g / cm^3
# Si number density = 19.668341 Si / 1000 Ang^3
#
#
#
# Elastic Constant Matrix: (Units=GPa)
#
#
# Indices 1 2 3 4 5 6 
#
# 1 128.1716 41.0057 59.8885 0.0000 0.0000 0.0000
# 2 41.0057 97.7916 49.5754 0.0000 0.0000 0.0000
# 3 59.8885 49.5754 126.5686 0.0000 0.0000 0.0000
# 4 0.0000 0.0000 0.0000 26.2830 0.0000 0.0000
# 5 0.0000 0.0000 0.0000 0.0000 21.5773 0.0000
# 6 0.0000 0.0000 0.0000 0.0000 0.0000 16.3573
#
#
#
# Elastic Compliance Matrix: (Units=1/GPa)
#
#
# Indices 1 2 3 4 5 6 
#
# 1 0.010427 -0.002335 -0.004019 0.000000 0.000000 0.000000
# 2 -0.002335 0.013282 -0.004098 0.000000 0.000000 0.000000
# 3 -0.004019 -0.004098 0.011408 0.000000 0.000000 0.000000
# 4 0.000000 0.000000 0.000000 0.038047 0.000000 0.000000
# 5 0.000000 0.000000 0.000000 0.000000 0.046345 0.000000
# 6 0.000000 0.000000 0.000000 0.000000 0.000000 0.061135
#
#
# Mechanical properties :
#
#
# Convention : Reuss Voigt Hill
#
# Bulk Modulus (GPa) = 70.35596 72.60787 71.48191
# Shear Modulus (GPa) = 24.23830 26.31434 25.27632
#
# Velocity S-wave (km/s) = 3.51429 3.66170 3.58876
# Velocity P-wave (km/s) = 7.23297 7.40768 7.32084
#
# Compressibility (1/GPa) = 0.01421344
#
# Stress axis : x y z
#
# Youngs Moduli (GPa) = 95.90506 75.28910 87.65998
#
# Poissons Ratio (x) = 0.17577 0.35233
# Poissons Ratio (y) = 0.22390 0.35921
# Poissons Ratio (z) = 0.38547 0.30852
#
# Static dielectric constant tensor:
#      x y z
#    x 4.289660 0.000000 0.000000 
#    y 0.000000 3.446630 0.000000 
#    z 0.000000 0.000000 3.458220 
# 
# 
# High freq. dielectric constant tensor:
#      x y z
#    x 1.787090 0.000000 0.000000 
#    y 0.000000 1.754510 0.000000 
#    z 0.000000 0.000000 1.753200 
# 
# From -- ./inp_files/29483.got.cif
#   From: 2010.03.12/outbox.cif.g09.slc.cpg/sg51_15_cif.got.tgz:29483.got - 2010.04.16 13:43:02.
