data_PCOD8214851
_publ_section_title
;
Structure prediction by ZEFSAII (Michael W. Deem and Ramdas Pophale) SiO2 
 PCOD8214851
Probable space group: P M M A
;
_chemical_formula_sum "Si O2"
_cell_formula_units_Z 40
_cell_length_a 24.446515
_cell_length_b 9.362677
_cell_length_c 10.436203
_cell_angle_alpha 90.000000
_cell_angle_beta 90.000000
_cell_angle_gamma 90.000000
_cell_volume 2388.688484
_symmetry_space_group_name_H-M "P M M A"
_symmetry_group_IT_number 51
_symmetry_cell_setting 'orthorhombic'
loop_
_space_group_symop_operation_xyz
x,y,z
1/2-x,-y,z
1/2+x,-y,-z
-x,y,-z
-x,-y,-z
1/2+x,y,-z
1/2-x,y,z
x,-y,z
loop_
_atom_site_type_symbol
_atom_site_label
_atom_site_fract_x
_atom_site_fract_y
_atom_site_fract_z
Si Si1 0.647327 0.164179 0.982597
Si Si2 0.532137 0.831440 0.879888
Si Si3 0.473588 0.830128 0.629799
Si Si4 0.855673 0.833996 0.280892
Si Si5 0.250000 0.339700 0.018666
Si Si6 0.250000 0.662130 0.713964
O O1 0.633253 0.195110 0.130873
O O2 0.696474 0.260131 0.929593
O O3 0.664424 0.000000 0.965907
O O4 0.595951 0.204692 0.894206
O O5 0.508687 0.766290 0.748054
O O6 0.521995 0.000000 0.880304
O O7 0.500000 0.763064 0.000000
O O8 0.500000 0.766913 0.500000
O O9 0.409992 0.785048 0.642677
O O10 0.477667 0.000000 0.630324
O O11 0.804524 0.742961 0.334606
O O12 0.842282 0.000000 0.304443
O O13 0.250000 0.500000 0.071963
O O14 0.250000 0.334619 0.866274
O O15 0.250000 0.500000 0.661638
#
# Coordination Sequence:
#
# PCOD8214851 Si02
#       6
#     8   8   8   8   4   4
#     4   9  15  24  42  64  86 113 147 179 210 258
#     4   9  14  23  40  63  88 114 142 173 211 258
#     4   9  16  25  40  65  94 117 140 177 223 261
#     4   9  15  25  42  64  88 113 143 178 215 259
#     4   9  17  27  39  60  91 116 138 180 231 262
#     4   9  17  27  41  62  87 114 144 182 223 256
#
# _framework density 16.745591000000001
#
# number of rings (size 3 to 8) (size 9 to 14) (size 15 to 20)
#    0.000    3.000    2.000    0.600    0.000    2.400 
#    0.000    0.000    0.000    3.600    0.000    8.400 
#    0.000    0.000    0.000    0.000    0.000    0.000 
#
# Total GULP energy -495842.168229 kJ/mol
# GULP energy per Si atom -12396.054206 kJ/mol
# Density = 1.670748 g / cm^3
# Si number density = 16.745591 Si / 1000 Ang^3
#
#
#
# Elastic Constant Matrix: (Units=GPa)
#
#
# Indices 1 2 3 4 5 6 
#
# 1 157.2598 57.3382 67.6782 0.0000 0.0000 0.0000
# 2 57.3382 58.6759 21.8821 0.0000 0.0000 0.0000
# 3 67.6782 21.8821 83.0127 0.0000 0.0000 0.0000
# 4 0.0000 0.0000 0.0000 5.4079 0.0000 0.0000
# 5 0.0000 0.0000 0.0000 0.0000 18.2124 0.0000
# 6 0.0000 0.0000 0.0000 0.0000 0.0000 3.4798
#
#
#
# Elastic Compliance Matrix: (Units=1/GPa)
#
#
# Indices 1 2 3 4 5 6 
#
# 1 0.013775 -0.010284 -0.008520 0.000000 0.000000 0.000000
# 2 -0.010284 0.026578 0.001378 0.000000 0.000000 0.000000
# 3 -0.008520 0.001378 0.018629 0.000000 0.000000 0.000000
# 4 0.000000 0.000000 0.000000 0.184913 0.000000 0.000000
# 5 0.000000 0.000000 0.000000 0.000000 0.054908 0.000000
# 6 0.000000 0.000000 0.000000 0.000000 0.000000 0.287375
#
#
# Mechanical properties :
#
#
# Convention : Reuss Voigt Hill
#
# Bulk Modulus (GPa) = 41.43965 65.86062 53.65014
# Shear Modulus (GPa) = 7.94822 15.55668 11.75245
#
# Velocity S-wave (km/s) = 2.18100 3.05126 2.65207
# Velocity P-wave (km/s) = 5.58056 7.19924 6.44095
#
# Compressibility (1/GPa) = 0.02413148
#
# Stress axis : x y z
#
# Youngs Moduli (GPa) = 72.59596 37.62504 53.68011
#
# Poissons Ratio (x) = 0.38692 0.45733
# Poissons Ratio (y) = 0.74655 -0.07397
# Poissons Ratio (z) = 0.61848 -0.05185
#
# Static dielectric constant tensor:
#      x y z
#    x 3.302240 0.000000 0.000000 
#    y 0.000000 2.806800 0.000000 
#    z 0.000000 0.000000 2.974500 
# 
# 
# High freq. dielectric constant tensor:
#      x y z
#    x 1.662960 0.000000 0.000000 
#    y 0.000000 1.599250 0.000000 
#    z 0.000000 0.000000 1.601070 
# 
# From -- ./inp_files/12191.got.cif
#   From: 2010.03.12/outbox.cif.g09.slc.cpg/sg51_7_cif.got.tgz:12191.got - 2010.04.16 13:43:02.
