data_PCOD8214154
_publ_section_title
;
Structure prediction by ZEFSAII (Michael W. Deem and Ramdas Pophale) SiO2 
 PCOD8214154
Probable space group: P M M A
;
_chemical_formula_sum "Si O2"
_cell_formula_units_Z 40
_cell_length_a 14.388344
_cell_length_b 8.611960
_cell_length_c 16.271022
_cell_angle_alpha 90.000000
_cell_angle_beta 90.000000
_cell_angle_gamma 90.000000
_cell_volume 2016.172323
_symmetry_space_group_name_H-M "P M M A"
_symmetry_group_IT_number 51
_symmetry_cell_setting 'orthorhombic'
loop_
_space_group_symop_operation_xyz
x,y,z
1/2-x,-y,z
1/2+x,-y,-z
-x,y,-z
-x,-y,-z
1/2+x,y,-z
1/2-x,y,z
x,-y,z
loop_
_atom_site_type_symbol
_atom_site_label
_atom_site_fract_x
_atom_site_fract_y
_atom_site_fract_z
Si Si1 0.856420 0.319619 0.389822
Si Si2 0.984691 0.822138 0.708008
Si Si3 0.143050 0.183698 0.980207
Si Si4 0.019386 0.681573 0.118786
Si Si5 0.859025 0.324263 0.576366
O O1 0.750000 0.277127 0.374659
O O2 0.875355 0.500000 0.372141
O O3 0.885455 0.279398 0.483158
O O4 0.913951 0.215734 0.327112
O O5 0.962607 0.715942 0.786122
O O6 0.908729 0.792113 0.638007
O O7 0.980836 0.000000 0.735540
O O8 0.250000 0.240200 0.974297
O O9 0.083301 0.260070 0.906915
O O10 0.136426 0.000000 0.971567
O O11 0.099831 0.233585 0.067260
O O12 0.026771 0.500000 0.101465
O O13 0.750000 0.309477 0.589855
O O14 0.892369 0.500000 0.594346
#
# Coordination Sequence:
#
# PCOD8214154 Si02
#       5
#     8   8   8   8   8
#     4   9  19  37  59  81 108 146 191 235 279 331
#     4  12  24  36  54  82 117 151 184 230 284 331
#     4  10  21  40  65  89 116 146 175 219 280 337
#     4  11  23  39  60  85 114 148 189 231 267 322
#     4   9  19  37  59  81 108 146 191 235 279 331
#
# _framework density 19.839573999999999
#
# number of rings (size 3 to 8) (size 9 to 14) (size 15 to 20)
#    0.000    1.800    0.000    7.200    0.000    7.200 
#    0.000    2.000    0.000    0.000    0.000    0.000 
#    0.000    0.000    0.000    0.000    0.000    0.000 
#
# Total GULP energy -496140.906829 kJ/mol
# GULP energy per Si atom -12403.522671 kJ/mol
# Density = 1.979442 g / cm^3
# Si number density = 19.839574 Si / 1000 Ang^3
#
#
#
# Elastic Constant Matrix: (Units=GPa)
#
#
# Indices 1 2 3 4 5 6 
#
# 1 36.4423 9.5030 -13.9830 0.0000 0.0000 0.0000
# 2 9.5030 58.0101 9.4386 0.0000 0.0000 0.0000
# 3 -13.9830 9.4386 56.6170 0.0000 0.0000 0.0000
# 4 0.0000 0.0000 0.0000 29.9901 0.0000 0.0000
# 5 0.0000 0.0000 0.0000 0.0000 -0.2366 0.0000
# 6 0.0000 0.0000 0.0000 0.0000 0.0000 32.4119
#
#
#
# Elastic Compliance Matrix: (Units=1/GPa)
#
#
# Indices 1 2 3 4 5 6 
#
# 1 0.032779 -0.006873 0.009242 0.000000 0.000000 0.000000
# 2 -0.006873 0.019160 -0.004892 0.000000 0.000000 0.000000
# 3 0.009242 -0.004892 0.020760 0.000000 0.000000 0.000000
# 4 0.000000 0.000000 0.000000 0.033344 0.000000 0.000000
# 5 0.000000 0.000000 0.000000 0.000000 -4.225741 0.000000
# 6 0.000000 0.000000 0.000000 0.000000 0.000000 0.030853
#
#
# Mechanical properties :
#
#
# Convention : Reuss Voigt Hill
#
# Bulk Modulus (GPa) = 14.78143 17.88740 16.33442
# Shear Modulus (GPa) = -1.23115 22.17378 10.47131
#
# Velocity S-wave (km/s) = -0.78861 3.34676 2.29988
# Velocity P-wave (km/s) = 2.57633 4.89592 3.91200
#
# Compressibility (1/GPa) = 0.06765243
#
# Stress axis : x y z
#
# Youngs Moduli (GPa) = 30.50728 52.19127 48.16846
#
# Poissons Ratio (x) = 0.35873 -0.44515
# Poissons Ratio (y) = 0.20969 0.23563
# Poissons Ratio (z) = -0.28193 0.25531
#
# Static dielectric constant tensor:
#      x y z
#    x 3.694790 0.000000 0.000000 
#    y 0.000000 3.521890 0.000000 
#    z 0.000000 0.000000 3.518040 
# 
# 
# High freq. dielectric constant tensor:
#      x y z
#    x 1.781100 0.000000 0.000000 
#    y 0.000000 1.771500 0.000000 
#    z 0.000000 0.000000 1.773020 
# 
# From -- ./inp_files/23677.got.cif
#   From: 2010.03.12/outbox.cif.g09.slc.cpg/sg51_12_cif.got.tgz:23677.got - 2010.04.16 13:43:02.
