data_PCOD8214417
_publ_section_title
;
Structure prediction by ZEFSAII (Michael W. Deem and Ramdas Pophale) SiO2 
 PCOD8214417
Probable space group: P M M A
;
_chemical_formula_sum "Si O2"
_cell_formula_units_Z 56
_cell_length_a 26.610409
_cell_length_b 9.357776
_cell_length_c 14.436024
_cell_angle_alpha 90.000000
_cell_angle_beta 90.000000
_cell_angle_gamma 90.000000
_cell_volume 3594.775642
_symmetry_space_group_name_H-M "P M M A"
_symmetry_group_IT_number 51
_symmetry_cell_setting 'orthorhombic'
loop_
_space_group_symop_operation_xyz
x,y,z
1/2-x,-y,z
1/2+x,-y,-z
-x,y,-z
-x,-y,-z
1/2+x,y,-z
1/2-x,y,z
x,-y,z
loop_
_atom_site_type_symbol
_atom_site_label
_atom_site_fract_x
_atom_site_fract_y
_atom_site_fract_z
Si Si1 0.193524 0.670476 0.880372
Si Si2 0.438245 0.830612 0.174846
Si Si3 0.429753 0.831266 0.574821
Si Si4 0.614082 0.663956 0.972886
Si Si5 0.379212 0.336374 0.724615
Si Si6 0.959857 0.168416 0.622203
Si Si7 0.033966 0.659836 0.871186
O O1 0.250000 0.731081 0.886823
O O2 0.191838 0.500000 0.881164
O O3 0.168216 0.722135 0.784131
O O4 0.161548 0.724554 0.968827
O O5 0.392117 0.758792 0.119512
O O6 0.434365 0.780083 0.282228
O O7 0.490947 0.777995 0.133168
O O8 0.435074 0.000000 0.164277
O O9 0.384967 0.755301 0.631054
O O10 0.483292 0.772975 0.612937
O O11 0.426052 0.786050 0.466227
O O12 0.423816 0.000000 0.587960
O O13 0.623290 0.500000 0.944209
O O14 0.563462 0.678708 0.032826
O O15 0.370673 0.500000 0.695891
O O16 0.428602 0.317777 0.786249
O O17 0.965454 0.000000 0.621577
O O18 0.010433 0.500000 0.866995
#
# Coordination Sequence:
#
# PCOD8214417 Si02
#       7
#     8   8   8   8   8   8   8
#     4   8  15  30  50  67  84 110 141 171 211 267
#     4  11  19  27  40  60  84 113 148 179 203 239
#     4   9  15  28  44  57  80 116 149 173 204 247
#     4   9  18  30  43  60  83 111 141 172 210 253
#     4   9  16  26  43  67  88 106 138 181 216 247
#     4   8  16  27  40  57  81 116 152 176 197 240
#     4   9  17  28  39  55  85 118 141 167 205 247
#
# _framework density 15.578163
#
# number of rings (size 3 to 8) (size 9 to 14) (size 15 to 20)
#    0.000    3.000    1.429    3.429    0.000    2.286 
#    0.000    5.000    0.000    1.714    0.000    1.000 
#    0.000    8.000    0.000    0.000    0.000    0.000 
#
# Total GULP energy -694051.710171 kJ/mol
# GULP energy per Si atom -12393.780539 kJ/mol
# Density = 1.554271 g / cm^3
# Si number density = 15.578163 Si / 1000 Ang^3
#
#
#
# Elastic Constant Matrix: (Units=GPa)
#
#
# Indices 1 2 3 4 5 6 
#
# 1 78.2333 27.2767 55.1774 0.0000 0.0000 0.0000
# 2 27.2767 48.3895 43.4720 0.0000 0.0000 0.0000
# 3 55.1774 43.4720 128.7486 0.0000 0.0000 0.0000
# 4 0.0000 0.0000 0.0000 25.4200 0.0000 0.0000
# 5 0.0000 0.0000 0.0000 0.0000 13.9813 0.0000
# 6 0.0000 0.0000 0.0000 0.0000 0.0000 7.6039
#
#
#
# Elastic Compliance Matrix: (Units=1/GPa)
#
#
# Indices 1 2 3 4 5 6 
#
# 1 0.019095 -0.004897 -0.006530 0.000000 0.000000 0.000000
# 2 -0.004897 0.030920 -0.008341 0.000000 0.000000 0.000000
# 3 -0.006530 -0.008341 0.013382 0.000000 0.000000 0.000000
# 4 0.000000 0.000000 0.000000 0.039339 0.000000 0.000000
# 5 0.000000 0.000000 0.000000 0.000000 0.071524 0.000000
# 6 0.000000 0.000000 0.000000 0.000000 0.000000 0.131512
#
#
# Mechanical properties :
#
#
# Convention : Reuss Voigt Hill
#
# Bulk Modulus (GPa) = 41.91135 56.35818 49.13476
# Shear Modulus (GPa) = 14.15377 18.03073 16.09225
#
# Velocity S-wave (km/s) = 3.01751 3.40580 3.21752
# Velocity P-wave (km/s) = 6.25322 7.19181 6.73888
#
# Compressibility (1/GPa) = 0.02385989
#
# Stress axis : x y z
#
# Youngs Moduli (GPa) = 52.36858 32.34167 74.72707
#
# Poissons Ratio (x) = 0.15839 0.48797
# Poissons Ratio (y) = 0.25647 0.62331
# Poissons Ratio (z) = 0.34197 0.26977
#
# Static dielectric constant tensor:
#      x y z
#    x 2.793490 0.000000 0.000000 
#    y 0.000000 2.726490 0.000000 
#    z 0.000000 0.000000 3.258140 
# 
# 
# High freq. dielectric constant tensor:
#      x y z
#    x 1.554220 0.000000 0.000000 
#    y 0.000000 1.574020 0.000000 
#    z 0.000000 0.000000 1.603590 
# 
# From -- ./inp_files/26475.got.cif
#   From: 2010.03.12/outbox.cif.g09.slc.cpg/sg51_14_cif.got.tgz:26475.got - 2010.04.16 13:43:02.
