data_PCOD8214158
_publ_section_title
;
Structure prediction by ZEFSAII (Michael W. Deem and Ramdas Pophale) SiO2 
 PCOD8214158
Probable space group: P M M A
;
_chemical_formula_sum "Si O2"
_cell_formula_units_Z 56
_cell_length_a 14.095519
_cell_length_b 8.632328
_cell_length_c 21.723151
_cell_angle_alpha 90.000000
_cell_angle_beta 90.000000
_cell_angle_gamma 90.000000
_cell_volume 2643.210958
_symmetry_space_group_name_H-M "P M M A"
_symmetry_group_IT_number 51
_symmetry_cell_setting 'orthorhombic'
loop_
_space_group_symop_operation_xyz
x,y,z
1/2-x,-y,z
1/2+x,-y,-z
-x,y,-z
-x,-y,-z
1/2+x,y,-z
1/2-x,y,z
x,-y,z
loop_
_atom_site_type_symbol
_atom_site_label
_atom_site_fract_x
_atom_site_fract_y
_atom_site_fract_z
Si Si1 0.353795 0.329265 0.372735
Si Si2 0.353826 0.673078 0.227647
Si Si3 0.456886 0.178175 0.789726
Si Si4 0.020529 0.178142 0.567922
Si Si5 0.858960 0.318686 0.329188
Si Si6 0.640407 0.816945 0.968467
Si Si7 0.957309 0.318296 0.085289
O O1 0.250000 0.297220 0.401330
O O2 0.390377 0.500000 0.393907
O O3 0.346855 0.326554 0.300314
O O4 0.423184 0.194792 0.394713
O O5 0.250000 0.716210 0.200211
O O6 0.384496 0.500000 0.205227
O O7 0.429631 0.800230 0.207299
O O8 0.416466 0.236798 0.725105
O O9 0.415716 0.274228 0.847496
O O10 0.430385 0.000000 0.797802
O O11 0.103273 0.269519 0.603586
O O12 0.000000 0.246722 0.500000
O O13 0.051092 0.000000 0.564174
O O14 0.750000 0.268904 0.324380
O O15 0.873525 0.500000 0.321099
O O16 0.750000 0.766032 0.956695
O O17 0.568305 0.732994 0.920867
O O18 0.628967 0.000000 0.960780
O O19 0.609147 0.769899 0.037031
O O20 0.948772 0.500000 0.073569
#
# Coordination Sequence:
#
# PCOD8214158 Si02
#       7
#     8   8   8   8   8   8   8
#     4   9  18  34  58  85 113 147 189 237 289 348
#     4   9  18  34  57  85 117 152 190 237 294 357
#     4  12  24  39  62  91 126 163 202 253 310 367
#     4  11  24  40  60  89 123 158 197 246 304 363
#     4  11  25  45  67  90 119 159 207 256 306 363
#     4  10  21  40  65  92 126 164 205 258 313 362
#     4  11  23  39  62  91 125 166 211 256 301 361
#
# _framework density 21.186351999999999
#
# number of rings (size 3 to 8) (size 9 to 14) (size 15 to 20)
#    0.000    1.571    1.429    5.571    0.000    5.714 
#    0.000    4.286    0.000    0.000    0.000    0.000 
#    0.000    0.000    0.000    0.000    0.000    0.000 
#
# Total GULP energy -694272.470907 kJ/mol
# GULP energy per Si atom -12397.722695 kJ/mol
# Density = 2.113813 g / cm^3
# Si number density = 21.186352 Si / 1000 Ang^3
#
#
#
# Elastic Constant Matrix: (Units=GPa)
#
#
# Indices 1 2 3 4 5 6 
#
# 1 86.8091 20.2576 13.7914 0.0000 0.0000 0.0000
# 2 20.2576 72.0468 17.2126 0.0000 0.0000 0.0000
# 3 13.7914 17.2126 88.1727 0.0000 0.0000 0.0000
# 4 0.0000 0.0000 0.0000 28.9287 0.0000 0.0000
# 5 0.0000 0.0000 0.0000 0.0000 11.2445 0.0000
# 6 0.0000 0.0000 0.0000 0.0000 0.0000 -8.8047
#
#
#
# Elastic Compliance Matrix: (Units=1/GPa)
#
#
# Indices 1 2 3 4 5 6 
#
# 1 0.012475 -0.003190 -0.001328 0.000000 0.000000 0.000000
# 2 -0.003190 0.015375 -0.002502 0.000000 0.000000 0.000000
# 3 -0.001328 -0.002502 0.012038 0.000000 0.000000 0.000000
# 4 0.000000 0.000000 0.000000 0.034568 0.000000 0.000000
# 5 0.000000 0.000000 0.000000 0.000000 0.088933 0.000000
# 6 0.000000 0.000000 0.000000 0.000000 0.000000 -0.113575
#
#
# Mechanical properties :
#
#
# Convention : Reuss Voigt Hill
#
# Bulk Modulus (GPa) = 38.69187 38.83908 38.76548
# Shear Modulus (GPa) = 68.99409 19.32480 44.15944
#
# Velocity S-wave (km/s) = 5.71280 3.02343 4.57040
# Velocity P-wave (km/s) = 7.86238 5.52812 6.79622
#
# Compressibility (1/GPa) = 0.02584522
#
# Stress axis : x y z
#
# Youngs Moduli (GPa) = 80.15993 65.04180 83.07250
#
# Poissons Ratio (x) = 0.20750 0.11036
# Poissons Ratio (y) = 0.25573 0.20788
# Poissons Ratio (z) = 0.10649 0.16276
#
# Static dielectric constant tensor:
#      x y z
#    x 4.444930 0.000000 0.000000 
#    y 0.000000 3.757370 0.000000 
#    z 0.000000 0.000000 3.846410 
# 
# 
# High freq. dielectric constant tensor:
#      x y z
#    x 1.828290 0.000000 0.000000 
#    y 0.000000 1.827770 0.000000 
#    z 0.000000 0.000000 1.831910 
# 
# From -- ./inp_files/33472.got.cif
#   From: 2010.03.12/outbox.cif.g09.slc.cpg/sg51_17_cif.got.tgz:33472.got - 2010.04.16 13:43:02.
