data_PCOD8214494
_publ_section_title
;
Structure prediction by ZEFSAII (Michael W. Deem and Ramdas Pophale) SiO2 
 PCOD8214494
Probable space group: P M M A
;
_chemical_formula_sum "Si O2"
_cell_formula_units_Z 32
_cell_length_a 8.672805
_cell_length_b 20.704726
_cell_length_c 9.419041
_cell_angle_alpha 90.000000
_cell_angle_beta 90.000000
_cell_angle_gamma 90.000000
_cell_volume 1691.358836
_symmetry_space_group_name_H-M "P M M A"
_symmetry_group_IT_number 51
_symmetry_cell_setting 'orthorhombic'
loop_
_space_group_symop_operation_xyz
x,y,z
1/2-x,-y,z
1/2+x,-y,-z
-x,y,-z
-x,-y,-z
1/2+x,y,-z
1/2-x,y,z
x,-y,z
loop_
_atom_site_type_symbol
_atom_site_label
_atom_site_fract_x
_atom_site_fract_y
_atom_site_fract_z
Si Si1 0.930367 0.069935 0.655059
Si Si2 0.431506 0.427694 0.351930
Si Si3 0.432258 0.198821 0.657712
Si Si4 0.567484 0.312393 0.844291
O O1 0.750000 0.085789 0.644796
O O2 0.000000 0.064251 0.500000
O O3 0.016041 0.130323 0.729864
O O4 0.957411 0.000000 0.732506
O O5 0.500000 0.402408 0.500000
O O6 0.250000 0.427332 0.369216
O O7 0.492331 0.500000 0.316559
O O8 0.483895 0.379982 0.226873
O O9 0.500000 0.205515 0.500000
O O10 0.250000 0.203432 0.650819
O O11 0.497180 0.254694 0.754973
O O12 0.750000 0.304715 0.849278
O O13 0.500000 0.310961 0.000000
#
# Coordination Sequence:
#
# PCOD8214494 Si02
#       4
#     8   8   8   8
#     4   9  16  27  46  74 106 137 172 217 267 316
#     4   9  19  36  58  83 109 138 174 217 264 315
#     4  11  21  34  54  79 108 142 181 223 268 318
#     4  11  23  38  55  77 108 143 181 223 268 319
#
# _framework density 18.919699999999999
#
# number of rings (size 3 to 8) (size 9 to 14) (size 15 to 20)
#    0.000    2.000    0.000    6.000    0.000    6.000 
#    0.000    0.000    0.000    0.750    0.000    0.000 
#    0.000    0.000    0.000    0.000    0.000    0.000 
#
# Total GULP energy -396635.755512 kJ/mol
# GULP energy per Si atom -12394.867360 kJ/mol
# Density = 1.887664 g / cm^3
# Si number density = 18.919700 Si / 1000 Ang^3
#
#
#
# Elastic Constant Matrix: (Units=GPa)
#
#
# Indices 1 2 3 4 5 6 
#
# 1 104.5844 70.2891 49.5777 0.0000 0.0000 0.0000
# 2 70.2891 172.2984 82.1338 0.0000 0.0000 0.0000
# 3 49.5777 82.1338 103.2690 0.0000 0.0000 0.0000
# 4 0.0000 0.0000 0.0000 643.9425 0.0000 0.0000
# 5 0.0000 0.0000 0.0000 0.0000 28.0832 0.0000
# 6 0.0000 0.0000 0.0000 0.0000 0.0000 24.3690
#
#
#
# Elastic Compliance Matrix: (Units=1/GPa)
#
#
# Indices 1 2 3 4 5 6 
#
# 1 0.013912 -0.004013 -0.003487 0.000000 0.000000 0.000000
# 2 -0.004013 0.010506 -0.006429 0.000000 0.000000 0.000000
# 3 -0.003487 -0.006429 0.016471 0.000000 0.000000 0.000000
# 4 0.000000 0.000000 0.000000 0.001553 0.000000 0.000000
# 5 0.000000 0.000000 0.000000 0.000000 0.035609 0.000000
# 6 0.000000 0.000000 0.000000 0.000000 0.000000 0.041036
#
#
# Mechanical properties :
#
#
# Convention : Reuss Voigt Hill
#
# Bulk Modulus (GPa) = 76.74595 87.12811 81.93703
# Shear Modulus (GPa) = 33.04980 151.15567 92.10274
#
# Velocity S-wave (km/s) = 4.18406 8.94800 6.98474
# Velocity P-wave (km/s) = 7.99962 12.36556 10.41396
#
# Compressibility (1/GPa) = 0.01303000
#
# Stress axis : x y z
#
# Youngs Moduli (GPa) = 71.88158 95.18693 60.71379
#
# Poissons Ratio (x) = 0.38199 0.21171
# Poissons Ratio (y) = 0.28846 0.39033
# Poissons Ratio (z) = 0.25066 0.61195
#
# Static dielectric constant tensor:
#      x y z
#    x 3.603120 0.000000 0.000000 
#    y 0.000000 4.581180 0.000000 
#    z 0.000000 0.000000 3.136880 
# 
# 
# High freq. dielectric constant tensor:
#      x y z
#    x 1.748040 0.000000 0.000000 
#    y 0.000000 1.764900 0.000000 
#    z 0.000000 0.000000 1.690120 
# 
# From -- ./inp_files/4844.got.cif
#   From: 2010.03.12/outbox.cif.g09.slc.cpg/sg51_3_cif.got.tgz:4844.got - 2010.04.16 13:43:02.
