data_PCOD8214857
_publ_section_title
;
Structure prediction by ZEFSAII (Michael W. Deem and Ramdas Pophale) SiO2 
 PCOD8214857
Probable space group: P M M A
;
_chemical_formula_sum "Si O2"
_cell_formula_units_Z 64
_cell_length_a 23.986677
_cell_length_b 9.827538
_cell_length_c 16.302390
_cell_angle_alpha 90.000000
_cell_angle_beta 90.000000
_cell_angle_gamma 90.000000
_cell_volume 3842.962064
_symmetry_space_group_name_H-M "P M M A"
_symmetry_group_IT_number 51
_symmetry_cell_setting 'orthorhombic'
loop_
_space_group_symop_operation_xyz
x,y,z
1/2-x,-y,z
1/2+x,-y,-z
-x,y,-z
-x,-y,-z
1/2+x,y,-z
1/2-x,y,z
x,-y,z
loop_
_atom_site_type_symbol
_atom_site_label
_atom_site_fract_x
_atom_site_fract_y
_atom_site_fract_z
Si Si1 0.442777 0.341602 0.468026
Si Si2 0.391581 0.844386 0.875803
Si Si3 0.031232 0.341784 0.778949
Si Si4 0.313257 0.658508 0.182201
Si Si5 0.885303 0.345950 0.366176
Si Si6 0.686614 0.157435 0.974609
Si Si7 0.687360 0.847511 0.276186
Si Si8 0.085347 0.339323 0.291219
O O1 0.500000 0.272528 0.500000
O O2 0.454981 0.500000 0.451435
O O3 0.397665 0.319631 0.538733
O O4 0.421420 0.274969 0.382633
O O5 0.443764 0.746514 0.854446
O O6 0.346504 0.824507 0.805809
O O7 0.412994 0.000000 0.880829
O O8 0.359794 0.800981 0.958542
O O9 0.036554 0.500000 0.803182
O O10 0.062210 0.311342 0.692598
O O11 0.967025 0.297377 0.766013
O O12 0.250000 0.681630 0.214211
O O13 0.323297 0.500000 0.160647
O O14 0.325070 0.746492 0.102035
O O15 0.356582 0.710664 0.251374
O O16 0.866740 0.500000 0.350834
O O17 0.833060 0.251260 0.347518
O O18 0.750000 0.180213 0.007691
O O19 0.679056 0.000000 0.949010
O O20 0.750000 0.811021 0.253365
O O21 0.680949 0.000000 0.309741
O O22 0.086886 0.500000 0.300050
#
# Coordination Sequence:
#
# PCOD8214857 Si02
#       8
#     8   8   8   8   8   8   8   8
#     4   9  14  24  45  71  93 116 151 189 224 265
#     4   9  17  29  46  68  92 117 151 191 226 265
#     4   9  16  27  44  67  94 122 150 182 224 272
#     4   9  18  32  49  69  92 117 149 192 235 270
#     4   9  16  26  43  68  92 114 149 194 227 255
#     4   9  17  31  51  70  88 116 156 195 228 269
#     4   9  17  29  44  61  88 126 155 176 218 278
#     4   9  16  28  47  69  93 122 154 186 226 277
#
# _framework density 16.653821000000001
#
# number of rings (size 3 to 8) (size 9 to 14) (size 15 to 20)
#    0.000    3.000    1.250    0.375    0.000    2.250 
#    0.000    1.875    0.000   10.125    0.000    1.750 
#    0.000    0.000    0.000    0.000    0.000    0.000 
#
# Total GULP energy -793245.707733 kJ/mol
# GULP energy per Si atom -12394.464183 kJ/mol
# Density = 1.661592 g / cm^3
# Si number density = 16.653821 Si / 1000 Ang^3
#
#
#
# Elastic Constant Matrix: (Units=GPa)
#
#
# Indices 1 2 3 4 5 6 
#
# 1 99.6789 39.8782 60.4567 0.0000 0.0000 0.0000
# 2 39.8782 47.6838 39.9115 0.0000 0.0000 0.0000
# 3 60.4567 39.9115 104.3657 0.0000 0.0000 0.0000
# 4 0.0000 0.0000 0.0000 14.1185 0.0000 0.0000
# 5 0.0000 0.0000 0.0000 0.0000 17.0711 0.0000
# 6 0.0000 0.0000 0.0000 0.0000 0.0000 14.4402
#
#
#
# Elastic Compliance Matrix: (Units=1/GPa)
#
#
# Indices 1 2 3 4 5 6 
#
# 1 0.017859 -0.009231 -0.006815 0.000000 0.000000 0.000000
# 2 -0.009231 0.035616 -0.008273 0.000000 0.000000 0.000000
# 3 -0.006815 -0.008273 0.016693 0.000000 0.000000 0.000000
# 4 0.000000 0.000000 0.000000 0.070829 0.000000 0.000000
# 5 0.000000 0.000000 0.000000 0.000000 0.058579 0.000000
# 6 0.000000 0.000000 0.000000 0.000000 0.000000 0.069251
#
#
# Mechanical properties :
#
#
# Convention : Reuss Voigt Hill
#
# Bulk Modulus (GPa) = 46.44717 59.13569 52.79143
# Shear Modulus (GPa) = 15.40163 16.55808 15.97985
#
# Velocity S-wave (km/s) = 3.04437 3.15660 3.10099
# Velocity P-wave (km/s) = 6.34885 6.99080 6.67755
#
# Compressibility (1/GPa) = 0.02152984
#
# Stress axis : x y z
#
# Youngs Moduli (GPa) = 55.99525 28.07734 59.90486
#
# Poissons Ratio (x) = 0.25919 0.40825
# Poissons Ratio (y) = 0.51690 0.49558
# Poissons Ratio (z) = 0.38160 0.23228
#
# Static dielectric constant tensor:
#      x y z
#    x 3.270740 0.000000 0.000000 
#    y 0.000000 2.985570 0.000000 
#    z 0.000000 0.000000 3.174660 
# 
# 
# High freq. dielectric constant tensor:
#      x y z
#    x 1.638170 0.000000 0.000000 
#    y 0.000000 1.613740 0.000000 
#    z 0.000000 0.000000 1.630990 
# 
# From -- ./inp_files/25216.got.cif
#   From: 2010.03.12/outbox.cif.g09.slc.cpg/sg51_13_cif.got.tgz:25216.got - 2010.04.16 13:43:02.
