data_PCOD8214906
_publ_section_title
;
Structure prediction by ZEFSAII (Michael W. Deem and Ramdas Pophale) SiO2 
 PCOD8214906
Probable space group: P M M A
;
_chemical_formula_sum "Si O2"
_cell_formula_units_Z 48
_cell_length_a 9.000000
_cell_length_b 9.000000
_cell_length_c 30.000000
_cell_angle_alpha 90.000000
_cell_angle_beta 90.000000
_cell_angle_gamma 90.000000
_cell_volume 2430.000000
_symmetry_space_group_name_H-M "P M M A"
_symmetry_group_IT_number 51
_symmetry_cell_setting 'orthorhombic'
loop_
_space_group_symop_operation_xyz
x,y,z
1/2-x,-y,z
1/2+x,-y,-z
-x,y,-z
-x,-y,-z
1/2+x,y,-z
1/2-x,y,z
x,-y,z
loop_
_atom_site_type_symbol
_atom_site_label
_atom_site_fract_x
_atom_site_fract_y
_atom_site_fract_z
Si Si1 0.584578 0.322795 0.283576
Si Si2 0.079256 0.830108 0.878789
Si Si3 0.084645 0.675983 0.198465
Si Si4 0.081962 0.324415 0.369103
Si Si5 0.920305 0.334242 0.953544
Si Si6 0.076060 0.170236 0.456433
O O1 0.750000 0.259276 0.276807
O O2 0.586437 0.500000 0.283467
O O3 0.478486 0.261765 0.244810
O O4 0.519199 0.261318 0.329590
O O5 0.250000 0.796525 0.888625
O O6 0.026884 0.726181 0.839277
O O7 0.987619 0.791169 0.922460
O O8 0.050627 0.000000 0.865797
O O9 0.250000 0.740753 0.190597
O O10 0.090014 0.500000 0.199038
O O11 0.250000 0.267664 0.361591
O O12 0.076970 0.500000 0.371214
O O13 0.014368 0.260333 0.414434
O O14 0.750000 0.295739 0.961182
O O15 0.939810 0.500000 0.932766
O O16 0.000000 0.324667 0.000000
O O17 0.250000 0.191598 0.461861
O O18 0.000000 0.238788 0.500000
O O19 0.029488 0.000000 0.449997
#
# Coordination Sequence:
#
# PCOD8214906 Si02
#       6
#     8   8   8   8   8   8
#     4   9  17  30  50  76 103 131 165 207 254 302
#     4  11  24  39  55  79 112 147 181 219 265 314
#     4  10  20  35  57  82 106 137 178 219 260 310
#     4   9  17  30  48  70  96 125 159 201 247 295
#     4  10  21  38  61  87 112 141 180 223 266 314
#     4   9  18  32  48  66  91 124 160 197 240 292
#
# _framework density 19.753086
#
# number of rings (size 3 to 8) (size 9 to 14) (size 15 to 20)
#    0.000    2.333    0.000    2.500    0.000    8.667 
#    0.000    0.833    0.000    3.000    0.000    0.000 
#    0.000    0.000    0.000    0.000    0.000    0.000 
#
# Total GULP energy -595180.168468 kJ/mol
# GULP energy per Si atom -12399.586843 kJ/mol
# Density = 1.970813 g / cm^3
# Si number density = 19.753086 Si / 1000 Ang^3
#
#
#
# Elastic Constant Matrix: (Units=GPa)
#
#
# Indices 1 2 3 4 5 6 
#
# 1 98.3767 38.0927 64.7746 0.0000 0.0000 0.0000
# 2 38.0927 9.4555 25.4315 0.0000 0.0000 0.0000
# 3 64.7746 25.4315 101.7252 0.0000 0.0000 0.0000
# 4 0.0000 0.0000 0.0000 -310.7390 0.0000 0.0000
# 5 0.0000 0.0000 0.0000 0.0000 34.1508 0.0000
# 6 0.0000 0.0000 0.0000 0.0000 0.0000 21.6383
#
#
#
# Elastic Compliance Matrix: (Units=1/GPa)
#
#
# Indices 1 2 3 4 5 6 
#
# 1 -0.010237 0.072370 -0.011574 0.000000 0.000000 0.000000
# 2 0.072370 -0.188803 0.001118 0.000000 0.000000 0.000000
# 3 -0.011574 0.001118 0.016921 0.000000 0.000000 0.000000
# 4 0.000000 0.000000 0.000000 -0.003218 0.000000 0.000000
# 5 0.000000 0.000000 0.000000 0.000000 0.029282 0.000000
# 6 0.000000 0.000000 0.000000 0.000000 0.000000 0.046214
#
#
# Mechanical properties :
#
#
# Convention : Reuss Voigt Hill
#
# Bulk Modulus (GPa) = -17.15568 51.79499 17.31965
# Shear Modulus (GPa) = -19.75511 -45.57272 -32.66392
#
# Velocity S-wave (km/s) = -3.16587 -4.80846 -4.07087
# Velocity P-wave (km/s) = 4.69761 2.13313 3.64814
#
# Compressibility (1/GPa) = -0.05828972
#
# Stress axis : x y z
#
# Youngs Moduli (GPa) = -97.68754 -5.29654 59.09861
#
# Poissons Ratio (x) = 0.38331 0.68403
# Poissons Ratio (y) = 7.06968 -0.06610
# Poissons Ratio (z) = -1.13067 0.00592
#
# Static dielectric constant tensor:
#      x y z
#    x 3.688930 0.000000 0.000000 
#    y 0.000000 3.302880 0.000000 
#    z 0.000000 0.000000 3.518360 
# 
# 
# High freq. dielectric constant tensor:
#      x y z
#    x 1.771300 0.000000 0.000000 
#    y 0.000000 1.730550 0.000000 
#    z 0.000000 0.000000 1.769840 
# 
# From -- ./inp_files/36882.got.cif
#   From: 2010.03.12/outbox.ucp.g09.slc.cvg/sg51_19_cif.got.tgz:36882.got - 2010.05.04 19:16:16.
