data_PCOD8214504
_publ_section_title
;
Structure prediction by ZEFSAII (Michael W. Deem and Ramdas Pophale) SiO2 
 PCOD8214504
Probable space group: P M M A
;
_chemical_formula_sum "Si O2"
_cell_formula_units_Z 40
_cell_length_a 8.573614
_cell_length_b 25.877280
_cell_length_c 9.235188
_cell_angle_alpha 90.000000
_cell_angle_beta 90.000000
_cell_angle_gamma 90.000000
_cell_volume 2048.935526
_symmetry_space_group_name_H-M "P M M A"
_symmetry_group_IT_number 51
_symmetry_cell_setting 'orthorhombic'
loop_
_space_group_symop_operation_xyz
x,y,z
1/2-x,-y,z
1/2+x,-y,-z
-x,y,-z
-x,-y,-z
1/2+x,y,-z
1/2-x,y,z
x,-y,z
loop_
_atom_site_type_symbol
_atom_site_label
_atom_site_fract_x
_atom_site_fract_y
_atom_site_fract_z
Si Si1 0.434379 0.847726 0.159001
Si Si2 0.434235 0.753907 0.659909
Si Si3 0.432376 0.444046 0.841009
Si Si4 0.434022 0.942309 0.347007
Si Si5 0.933943 0.659737 0.838004
O O1 0.250000 0.842729 0.154132
O O2 0.500487 0.803958 0.261596
O O3 0.488929 0.903281 0.221493
O O4 0.500000 0.840550 0.000000
O O5 0.500000 0.751581 0.500000
O O6 0.250000 0.757241 0.654842
O O7 0.485427 0.703063 0.743538
O O8 0.250000 0.430704 0.849091
O O9 0.459420 0.500000 0.761908
O O10 0.521933 0.396020 0.765622
O O11 0.500000 0.449269 0.000000
O O12 0.500000 0.922905 0.500000
O O13 0.250000 0.942268 0.360568
O O14 0.496494 0.000000 0.309726
O O15 0.750000 0.668249 0.838607
O O16 0.000000 0.662806 0.000000
#
# Coordination Sequence:
#
# PCOD8214504 Si02
#       5
#     8   8   8   8   8
#     4  11  23  39  59  85 116 149 188 233 282 332
#     4  12  25  42  61  82 110 144 185 230 281 339
#     4   9  16  27  46  75 110 146 184 227 275 326
#     4   9  19  36  58  84 115 151 190 231 276 329
#     4  11  21  35  56  83 114 148 187 231 280 330
#
# _framework density 19.522333
#
# number of rings (size 3 to 8) (size 9 to 14) (size 15 to 20)
#    0.000    1.600    0.000    7.200    0.000    4.800 
#    0.000    0.000    0.000    0.600    0.000    0.000 
#    0.000    0.000    0.000    0.000    0.000    0.000 
#
# Total GULP energy -495890.499413 kJ/mol
# GULP energy per Si atom -12397.262485 kJ/mol
# Density = 1.947790 g / cm^3
# Si number density = 19.522333 Si / 1000 Ang^3
#
#
#
# Elastic Constant Matrix: (Units=GPa)
#
#
# Indices 1 2 3 4 5 6 
#
# 1 35.2875 18.9343 3.0309 0.0000 0.0000 0.0000
# 2 18.9343 138.4366 43.0931 0.0000 0.0000 0.0000
# 3 3.0309 43.0931 71.8890 0.0000 0.0000 0.0000
# 4 0.0000 0.0000 0.0000 165.3701 0.0000 0.0000
# 5 0.0000 0.0000 0.0000 0.0000 30.4972 0.0000
# 6 0.0000 0.0000 0.0000 0.0000 0.0000 33.9729
#
#
#
# Elastic Compliance Matrix: (Units=1/GPa)
#
#
# Indices 1 2 3 4 5 6 
#
# 1 0.030715 -0.004669 0.001504 0.000000 0.000000 0.000000
# 2 -0.004669 0.009590 -0.005552 0.000000 0.000000 0.000000
# 3 0.001504 -0.005552 0.017175 0.000000 0.000000 0.000000
# 4 0.000000 0.000000 0.000000 0.006047 0.000000 0.000000
# 5 0.000000 0.000000 0.000000 0.000000 0.032790 0.000000
# 6 0.000000 0.000000 0.000000 0.000000 0.000000 0.029435
#
#
# Mechanical properties :
#
#
# Convention : Reuss Voigt Hill
#
# Bulk Modulus (GPa) = 24.97146 41.74774 33.35960
# Shear Modulus (GPa) = 31.94170 58.00504 44.97337
#
# Velocity S-wave (km/s) = 4.04934 5.45680 4.80488
# Velocity P-wave (km/s) = 5.88913 7.81877 6.92153
#
# Compressibility (1/GPa) = 0.04004572
#
# Stress axis : x y z
#
# Youngs Moduli (GPa) = 32.55765 104.27132 58.22413
#
# Poissons Ratio (x) = 0.48685 -0.08756
# Poissons Ratio (y) = 0.15201 0.32326
# Poissons Ratio (z) = -0.04896 0.57891
#
# Static dielectric constant tensor:
#      x y z
#    x 3.737090 0.000000 0.000000 
#    y 0.000000 4.642190 0.000000 
#    z 0.000000 0.000000 3.348290 
# 
# 
# High freq. dielectric constant tensor:
#      x y z
#    x 1.775040 0.000000 0.000000 
#    y 0.000000 1.790120 0.000000 
#    z 0.000000 0.000000 1.729050 
# 
# From -- ./inp_files/5217.got.cif
#   From: 2010.03.12/outbox.cif.g09.slc.cpg/sg51_3_cif.got.tgz:5217.got - 2010.04.16 13:43:02.
