data_PCOD8214663
_publ_section_title
;
Structure prediction by ZEFSAII (Michael W. Deem and Ramdas Pophale) SiO2 
 PCOD8214663
Probable space group: P M M A
;
_chemical_formula_sum "Si O2"
_cell_formula_units_Z 32
_cell_length_a 16.439746
_cell_length_b 17.205093
_cell_length_c 4.846518
_cell_angle_alpha 90.000000
_cell_angle_beta 90.000000
_cell_angle_gamma 90.000000
_cell_volume 1370.824816
_symmetry_space_group_name_H-M "P M M A"
_symmetry_group_IT_number 51
_symmetry_cell_setting 'orthorhombic'
loop_
_space_group_symop_operation_xyz
x,y,z
1/2-x,-y,z
1/2+x,-y,-z
-x,y,-z
-x,-y,-z
1/2+x,y,-z
1/2-x,y,z
x,-y,z
loop_
_atom_site_type_symbol
_atom_site_label
_atom_site_fract_x
_atom_site_fract_y
_atom_site_fract_z
Si Si1 0.087006 0.411075 0.872505
Si Si2 0.157431 0.087785 0.594743
Si Si3 0.342662 0.668620 0.351905
Si Si4 0.908807 0.827534 0.896681
O O1 0.091327 0.500000 0.771838
O O2 0.102749 0.355584 0.612668
O O3 0.152777 0.396730 0.113370
O O4 0.000000 0.389246 0.000000
O O5 0.250000 0.095755 0.488388
O O6 0.096938 0.108383 0.344220
O O7 0.138239 0.000000 0.691786
O O8 0.146417 0.146576 0.847656
O O9 0.250000 0.677889 0.450764
O O10 0.376072 0.747610 0.224888
O O11 0.000000 0.818260 0.000000
#
# Coordination Sequence:
#
# PCOD8214663 Si02
#       4
#     8   8   8   8
#     4  11  25  45  69  99 136 178 224 277 339 404
#     4  11  24  44  70 100 137 180 226 279 341 406
#     4  12  25  43  69 100 137 179 226 280 337 401
#     4  12  26  44  68 100 138 180 228 281 337 401
#
# _framework density 23.343609000000001
#
# number of rings (size 3 to 8) (size 9 to 14) (size 15 to 20)
#    0.000    0.500    0.000    8.250    0.000   12.000 
#    0.000    0.000    0.000    0.000    0.000    0.000 
#    0.000    0.000    0.000    0.000    0.000    0.000 
#
# Total GULP energy -396999.990281 kJ/mol
# GULP energy per Si atom -12406.249696 kJ/mol
# Density = 2.329048 g / cm^3
# Si number density = 23.343609 Si / 1000 Ang^3
#
#
#
# Elastic Constant Matrix: (Units=GPa)
#
#
# Indices 1 2 3 4 5 6 
#
# 1 129.1427 82.5430 58.0760 0.0000 0.0000 0.0000
# 2 82.5430 123.2078 58.5320 0.0000 0.0000 0.0000
# 3 58.0760 58.5320 161.2952 0.0000 0.0000 0.0000
# 4 0.0000 0.0000 0.0000 48.9447 0.0000 0.0000
# 5 0.0000 0.0000 0.0000 0.0000 46.3853 0.0000
# 6 0.0000 0.0000 0.0000 0.0000 0.0000 35.1102
#
#
#
# Elastic Compliance Matrix: (Units=1/GPa)
#
#
# Indices 1 2 3 4 5 6 
#
# 1 0.014049 -0.008469 -0.001985 0.000000 0.000000 0.000000
# 2 -0.008469 0.014912 -0.002362 0.000000 0.000000 0.000000
# 3 -0.001985 -0.002362 0.007772 0.000000 0.000000 0.000000
# 4 0.000000 0.000000 0.000000 0.020431 0.000000 0.000000
# 5 0.000000 0.000000 0.000000 0.000000 0.021559 0.000000
# 6 0.000000 0.000000 0.000000 0.000000 0.000000 0.028482
#
#
# Mechanical properties :
#
#
# Convention : Reuss Voigt Hill
#
# Bulk Modulus (GPa) = 90.08632 90.21641 90.15137
# Shear Modulus (GPa) = 36.61970 40.38767 38.50368
#
# Velocity S-wave (km/s) = 3.96501 4.16401 4.06573
# Velocity P-wave (km/s) = 7.72250 7.86445 7.79380
#
# Compressibility (1/GPa) = 0.01110046
#
# Stress axis : x y z
#
# Youngs Moduli (GPa) = 71.17770 67.05789 128.67026
#
# Poissons Ratio (x) = 0.56793 0.25544
# Poissons Ratio (y) = 0.60282 0.30394
# Poissons Ratio (z) = 0.14130 0.15840
#
# Static dielectric constant tensor:
#      x y z
#    x 4.276670 0.000000 0.000000 
#    y 0.000000 4.325010 0.000000 
#    z 0.000000 0.000000 4.415540 
# 
# 
# High freq. dielectric constant tensor:
#      x y z
#    x 1.925180 0.000000 0.000000 
#    y 0.000000 1.934720 0.000000 
#    z 0.000000 0.000000 1.939680 
# 
# From -- ./inp_files/1304.got.cif
#   From: 2010.03.12/outbox.cif.g09.slc.cpg/sg51_1_cif.got.tgz:1304.got - 2010.04.16 13:43:02.
