data_PCOD8214175
_publ_section_title
;
Structure prediction by ZEFSAII (Michael W. Deem and Ramdas Pophale) SiO2 
 PCOD8214175
Probable space group: P M M A
;
_chemical_formula_sum "Si O2"
_cell_formula_units_Z 48
_cell_length_a 15.000163
_cell_length_b 7.915133
_cell_length_c 18.717940
_cell_angle_alpha 90.000000
_cell_angle_beta 90.000000
_cell_angle_gamma 90.000000
_cell_volume 2222.348918
_symmetry_space_group_name_H-M "P M M A"
_symmetry_group_IT_number 51
_symmetry_cell_setting 'orthorhombic'
loop_
_space_group_symop_operation_xyz
x,y,z
1/2-x,-y,z
1/2+x,-y,-z
-x,y,-z
-x,-y,-z
1/2+x,y,-z
1/2-x,y,z
x,-y,z
loop_
_atom_site_type_symbol
_atom_site_label
_atom_site_fract_x
_atom_site_fract_y
_atom_site_fract_z
Si Si1 0.353372 0.000000 0.300259
Si Si2 0.851136 0.808601 0.167109
Si Si3 0.905077 0.000000 0.542650
Si Si4 0.097970 0.682968 0.529365
Si Si5 0.491667 0.308672 0.077473
Si Si6 0.648433 0.306510 0.317482
Si Si7 0.353132 0.302363 0.193399
O O1 0.413058 0.000000 0.371875
O O2 0.375321 0.173506 0.257791
O O3 0.250000 0.000000 0.322615
O O4 0.750000 0.738328 0.161868
O O5 0.913597 0.697857 0.116974
O O6 0.884381 0.800736 0.249371
O O7 0.856983 0.000000 0.140426
O O8 0.853193 0.829930 0.516613
O O9 0.000000 0.000000 0.500000
O O10 0.148384 0.500000 0.523550
O O11 0.091154 0.738503 0.612454
O O12 0.000000 0.658164 0.500000
O O13 0.464216 0.500000 0.062853
O O14 0.412788 0.234480 0.127101
O O15 0.500000 0.215848 0.000000
O O16 0.750000 0.262205 0.337019
O O17 0.636774 0.500000 0.294747
O O18 0.250000 0.285533 0.170947
O O19 0.375158 0.500000 0.214059
#
# Coordination Sequence:
#
# PCOD8214175 Si02
#       7
#     4   8   4   8   8   8   8
#     4  10  22  40  61  87 114 155 208 255 311 371
#     4  10  22  38  57  87 124 161 200 245 300 360
#     4  10  22  36  52  79 110 143 188 241 299 359
#     4   9  19  35  52  75 109 146 185 233 293 354
#     4  10  22  39  62  92 123 160 202 246 304 367
#     4   9  18  34  56  79 105 145 195 239 285 347
#     4   9  20  41  66  92 123 161 209 260 307 363
#
# _framework density 21.598769999999998
#
# number of rings (size 3 to 8) (size 9 to 14) (size 15 to 20)
#    0.000    2.500    0.000    0.500    2.333    6.000 
#    0.000    6.667    0.000    0.000    0.000    0.000 
#    0.000    0.000    0.000    0.000    0.000    0.000 
#
# Total GULP energy -594770.023720 kJ/mol
# GULP energy per Si atom -12391.042161 kJ/mol
# Density = 2.154961 g / cm^3
# Si number density = 21.598770 Si / 1000 Ang^3
#
#
#
# Elastic Constant Matrix: (Units=GPa)
#
#
# Indices 1 2 3 4 5 6 
#
# 1 77.7986 13.6786 70.1002 0.0000 0.0000 0.0000
# 2 13.6786 110.8623 50.2340 0.0000 0.0000 0.0000
# 3 70.1002 50.2340 182.4809 0.0000 0.0000 0.0000
# 4 0.0000 0.0000 0.0000 23.6102 0.0000 0.0000
# 5 0.0000 0.0000 0.0000 0.0000 23.7253 0.0000
# 6 0.0000 0.0000 0.0000 0.0000 0.0000 16.9919
#
#
#
# Elastic Compliance Matrix: (Units=1/GPa)
#
#
# Indices 1 2 3 4 5 6 
#
# 1 0.019785 0.001146 -0.007916 0.000000 0.000000 0.000000
# 2 0.001146 0.010372 -0.003295 0.000000 0.000000 0.000000
# 3 -0.007916 -0.003295 0.009428 0.000000 0.000000 0.000000
# 4 0.000000 0.000000 0.000000 0.042355 0.000000 0.000000
# 5 0.000000 0.000000 0.000000 0.000000 0.042149 0.000000
# 6 0.000000 0.000000 0.000000 0.000000 0.000000 0.058851
#
#
# Mechanical properties :
#
#
# Convention : Reuss Voigt Hill
#
# Bulk Modulus (GPa) = 51.40345 71.01859 61.21102
# Shear Modulus (GPa) = 23.86006 28.67409 26.26708
#
# Velocity S-wave (km/s) = 3.32730 3.64755 3.49110
# Velocity P-wave (km/s) = 6.21387 7.11981 6.68221
#
# Compressibility (1/GPa) = 0.01945395
#
# Stress axis : x y z
#
# Youngs Moduli (GPa) = 50.54414 96.41312 106.06706
#
# Poissons Ratio (x) = -0.11046 0.83959
# Poissons Ratio (y) = -0.05791 0.34953
# Poissons Ratio (z) = 0.40009 0.31771
#
# Static dielectric constant tensor:
#      x y z
#    x 3.642080 0.000000 0.000000 
#    y 0.000000 4.949140 0.000000 
#    z 0.000000 0.000000 3.956370 
# 
# 
# High freq. dielectric constant tensor:
#      x y z
#    x 1.827700 0.000000 0.000000 
#    y 0.000000 1.854520 0.000000 
#    z 0.000000 0.000000 1.843930 
# 
# From -- ./inp_files/29625.got.cif
#   From: 2010.03.12/outbox.cif.g09.slc.cpg/sg51_15_cif.got.tgz:29625.got - 2010.04.16 13:43:02.
