data_PCOD8214029
_publ_section_title
;
Structure prediction by ZEFSAII (Michael W. Deem and Ramdas Pophale) SiO2 
 PCOD8214029
Probable space group: P M M A
;
_chemical_formula_sum "Si O2"
_cell_formula_units_Z 48
_cell_length_a 17.149624
_cell_length_b 14.058026
_cell_length_c 10.096339
_cell_angle_alpha 90.000000
_cell_angle_beta 90.000000
_cell_angle_gamma 90.000000
_cell_volume 2434.124957
_symmetry_space_group_name_H-M "P M M A"
_symmetry_group_IT_number 51
_symmetry_cell_setting 'orthorhombic'
loop_
_space_group_symop_operation_xyz
x,y,z
1/2-x,-y,z
1/2+x,-y,-z
-x,y,-z
-x,-y,-z
1/2+x,y,-z
1/2-x,y,z
x,-y,z
loop_
_atom_site_type_symbol
_atom_site_label
_atom_site_fract_x
_atom_site_fract_y
_atom_site_fract_z
Si Si1 0.337962 0.278785 0.014943
Si Si2 0.663030 0.107820 0.804364
Si Si3 0.008297 0.891497 0.345539
Si Si4 0.841181 0.390388 0.505808
Si Si5 0.071089 0.610795 0.230839
Si Si6 0.086003 0.714186 0.736941
O O1 0.250000 0.314643 0.036151
O O2 0.348922 0.170790 0.064745
O O3 0.394575 0.345027 0.098282
O O4 0.356828 0.285337 0.860974
O O5 0.750000 0.124848 0.742787
O O6 0.597482 0.133033 0.695247
O O7 0.653576 0.000000 0.852903
O O8 0.000000 0.874803 0.500000
O O9 0.948788 0.820286 0.274546
O O10 0.986685 0.000000 0.306300
O O11 0.750000 0.382104 0.532146
O O12 0.864445 0.500000 0.472039
O O13 0.884001 0.353760 0.638145
O O14 0.864973 0.318613 0.389822
O O15 0.080389 0.500000 0.215159
O O16 0.981304 0.637427 0.242694
#
# Coordination Sequence:
#
# PCOD8214029 Si02
#       6
#     8   8   8   8   8   8
#     4  11  24  40  58  86 121 157 200 246 298 359
#     4   9  19  38  63  87 115 156 203 247 292 351
#     4  10  21  38  61  92 125 157 197 246 301 361
#     4  10  22  41  64  88 116 156 204 250 301 359
#     4  11  23  40  62  87 117 156 203 252 300 357
#     4  12  23  38  60  92 123 158 194 249 307 359
#
# _framework density 19.719612999999999
#
# number of rings (size 3 to 8) (size 9 to 14) (size 15 to 20)
#    0.000    1.500    1.667    3.500    0.000    5.000 
#    0.000    2.500    0.000    2.500    0.000    0.000 
#    0.000    0.000    0.000    0.000    0.000    0.000 
#
# Total GULP energy -595308.376734 kJ/mol
# GULP energy per Si atom -12402.257849 kJ/mol
# Density = 1.967473 g / cm^3
# Si number density = 19.719613 Si / 1000 Ang^3
#
#
#
# Elastic Constant Matrix: (Units=GPa)
#
#
# Indices 1 2 3 4 5 6 
#
# 1 64.9926 12.9988 14.5439 0.0000 0.0000 0.0000
# 2 12.9988 69.2989 28.7167 0.0000 0.0000 0.0000
# 3 14.5439 28.7167 81.3558 0.0000 0.0000 0.0000
# 4 0.0000 0.0000 0.0000 19.3775 0.0000 0.0000
# 5 0.0000 0.0000 0.0000 0.0000 111.2194 0.0000
# 6 0.0000 0.0000 0.0000 0.0000 0.0000 28.8474
#
#
#
# Elastic Compliance Matrix: (Units=1/GPa)
#
#
# Indices 1 2 3 4 5 6 
#
# 1 0.016301 -0.002167 -0.002149 0.000000 0.000000 0.000000
# 2 -0.002167 0.017191 -0.005681 0.000000 0.000000 0.000000
# 3 -0.002149 -0.005681 0.014681 0.000000 0.000000 0.000000
# 4 0.000000 0.000000 0.000000 0.051606 0.000000 0.000000
# 5 0.000000 0.000000 0.000000 0.000000 0.008991 0.000000
# 6 0.000000 0.000000 0.000000 0.000000 0.000000 0.034665
#
#
# Mechanical properties :
#
#
# Convention : Reuss Voigt Hill
#
# Bulk Modulus (GPa) = 35.48745 36.46290 35.97517
# Shear Modulus (GPa) = 28.93161 42.51472 35.72316
#
# Velocity S-wave (km/s) = 3.83449 4.64827 4.26085
# Velocity P-wave (km/s) = 6.13511 6.88036 6.51839
#
# Compressibility (1/GPa) = 0.02817897
#
# Stress axis : x y z
#
# Youngs Moduli (GPa) = 61.34700 58.17104 68.11531
#
# Poissons Ratio (x) = 0.12606 0.14639
# Poissons Ratio (y) = 0.13294 0.38693
# Poissons Ratio (z) = 0.13184 0.33044
#
# Static dielectric constant tensor:
#      x y z
#    x 3.783850 0.000000 0.000000 
#    y 0.000000 3.759270 0.000000 
#    z 0.000000 0.000000 3.472320 
# 
# 
# High freq. dielectric constant tensor:
#      x y z
#    x 1.776980 0.000000 0.000000 
#    y 0.000000 1.780470 0.000000 
#    z 0.000000 0.000000 1.761330 
# 
# From -- ./inp_files/9555.got.cif
#   From: 2010.03.12/outbox.cif.g09.slc.cpg/sg51_5_cif.got.tgz:9555.got - 2010.04.16 13:43:02.
