data_PCOD8214372
_publ_section_title
;
Structure prediction by ZEFSAII (Michael W. Deem and Ramdas Pophale) SiO2 
 PCOD8214372
Probable space group: P M M A
;
_chemical_formula_sum "Si O2"
_cell_formula_units_Z 32
_cell_length_a 13.403709
_cell_length_b 11.471505
_cell_length_c 8.431547
_cell_angle_alpha 90.000000
_cell_angle_beta 90.000000
_cell_angle_gamma 90.000000
_cell_volume 1296.440694
_symmetry_space_group_name_H-M "P M M A"
_symmetry_group_IT_number 51
_symmetry_cell_setting 'orthorhombic'
loop_
_space_group_symop_operation_xyz
x,y,z
1/2-x,-y,z
1/2+x,-y,-z
-x,y,-z
-x,-y,-z
1/2+x,y,-z
1/2-x,y,z
x,-y,z
loop_
_atom_site_type_symbol
_atom_site_label
_atom_site_fract_x
_atom_site_fract_y
_atom_site_fract_z
Si Si1 0.637372 0.500000 0.090948
Si Si2 0.361428 0.870070 0.561967
Si Si3 0.994127 0.694036 0.247684
Si Si4 0.136126 0.500000 0.286676
Si Si5 0.860598 0.129743 0.815822
O O1 0.750000 0.500000 0.156458
O O2 0.582152 0.384807 0.150714
O O3 0.634393 0.500000 0.903016
O O4 0.250000 0.844825 0.625250
O O5 0.436144 0.774974 0.629692
O O6 0.362974 0.865624 0.373621
O O7 0.395102 0.000000 0.617708
O O8 0.075494 0.614400 0.344297
O O9 0.057534 0.776585 0.125248
O O10 0.250000 0.500000 0.353184
O O11 0.750000 0.165939 0.876552
O O12 0.885901 0.000000 0.878096
#
# Coordination Sequence:
#
# PCOD8214372 Si02
#       5
#     4   8   8   4   8
#     4  10  23  41  56  71  94 127 171 224 274 312
#     4   9  18  32  51  79 114 145 169 196 236 292
#     4  11  18  31  57  81  97 129 176 215 251 298
#     4  10  23  41  56  71  94 127 171 224 274 312
#     4   9  18  32  51  79 114 145 169 196 236 292
#
# _framework density 24.682966
#
# number of rings (size 3 to 8) (size 9 to 14) (size 15 to 20)
#    0.000    2.250    0.000    6.000    0.000    2.000 
#    0.000   10.000    0.000   30.000    0.000   28.000 
#    0.000    0.000    0.000    0.000    0.000    0.000 
#
# Total GULP energy -396596.073784 kJ/mol
# GULP energy per Si atom -12393.627306 kJ/mol
# Density = 2.462679 g / cm^3
# Si number density = 24.682966 Si / 1000 Ang^3
#
#
#
# Elastic Constant Matrix: (Units=GPa)
#
#
# Indices 1 2 3 4 5 6 
#
# 1 209.3168 111.5287 13.7991 0.0000 0.0000 0.0000
# 2 111.5287 177.9447 16.5994 0.0000 0.0000 0.0000
# 3 13.7991 16.5994 22.1001 0.0000 0.0000 0.0000
# 4 0.0000 0.0000 0.0000 8.7032 0.0000 0.0000
# 5 0.0000 0.0000 0.0000 0.0000 23.6607 0.0000
# 6 0.0000 0.0000 0.0000 0.0000 0.0000 44.6375
#
#
#
# Elastic Compliance Matrix: (Units=1/GPa)
#
#
# Indices 1 2 3 4 5 6 
#
# 1 0.007202 -0.004403 -0.001190 0.000000 0.000000 0.000000
# 2 -0.004403 0.008735 -0.003812 0.000000 0.000000 0.000000
# 3 -0.001190 -0.003812 0.048855 0.000000 0.000000 0.000000
# 4 0.000000 0.000000 0.000000 0.114900 0.000000 0.000000
# 5 0.000000 0.000000 0.000000 0.000000 0.042264 0.000000
# 6 0.000000 0.000000 0.000000 0.000000 0.000000 0.022403
#
#
# Mechanical properties :
#
#
# Convention : Reuss Voigt Hill
#
# Bulk Modulus (GPa) = 21.74733 77.02400 49.38566
# Shear Modulus (GPa) = 17.95371 33.22924 25.59148
#
# Velocity S-wave (km/s) = 2.69991 3.67310 3.22344
# Velocity P-wave (km/s) = 4.30687 7.01868 5.82285
#
# Compressibility (1/GPa) = 0.04598266
#
# Stress axis : x y z
#
# Youngs Moduli (GPa) = 138.85407 114.48464 20.46893
#
# Poissons Ratio (x) = 0.50405 0.02435
# Poissons Ratio (y) = 0.61135 0.07802
# Poissons Ratio (z) = 0.16521 0.43637
#
# Static dielectric constant tensor:
#      x y z
#    x 5.493310 0.000000 0.000000 
#    y 0.000000 5.449180 0.000000 
#    z 0.000000 0.000000 3.626960 
# 
# 
# High freq. dielectric constant tensor:
#      x y z
#    x 2.011470 0.000000 0.000000 
#    y 0.000000 2.006030 0.000000 
#    z 0.000000 0.000000 1.919340 
# 
# From -- ./inp_files/7651.got.cif
#   From: 2010.03.12/outbox.cif.g09.slc.cpg/sg51_4_cif.got.tgz:7651.got - 2010.04.16 13:43:02.
