data_PCOD8214407
_publ_section_title
;
Structure prediction by ZEFSAII (Michael W. Deem and Ramdas Pophale) SiO2 
 PCOD8214407
Probable space group: P M M A
;
_chemical_formula_sum "Si O2"
_cell_formula_units_Z 56
_cell_length_a 8.700279
_cell_length_b 15.108506
_cell_length_c 20.225910
_cell_angle_alpha 90.000000
_cell_angle_beta 90.000000
_cell_angle_gamma 90.000000
_cell_volume 2658.659816
_symmetry_space_group_name_H-M "P M M A"
_symmetry_group_IT_number 51
_symmetry_cell_setting 'orthorhombic'
loop_
_space_group_symop_operation_xyz
x,y,z
1/2-x,-y,z
1/2+x,-y,-z
-x,y,-z
-x,-y,-z
1/2+x,y,-z
1/2-x,y,z
x,-y,z
loop_
_atom_site_type_symbol
_atom_site_label
_atom_site_fract_x
_atom_site_fract_y
_atom_site_fract_z
Si Si1 0.431517 0.000000 0.928084
Si Si2 0.916583 0.097133 0.723120
Si Si3 0.426557 0.096608 0.593166
Si Si4 0.425811 0.169020 0.139562
Si Si5 0.566123 0.709553 0.432680
Si Si6 0.068046 0.396997 0.308059
Si Si7 0.431196 0.344656 0.832599
Si Si8 0.569899 0.500000 0.072466
O O1 0.486476 0.087736 0.891965
O O2 0.250000 0.000000 0.930976
O O3 0.500000 0.000000 0.000000
O O4 0.750000 0.110818 0.687450
O O5 0.934074 0.166548 0.781124
O O6 0.054059 0.107827 0.671706
O O7 0.922431 0.000000 0.756180
O O8 0.250000 0.090962 0.575028
O O9 0.495281 0.187483 0.563614
O O10 0.502556 0.000000 0.571347
O O11 0.250000 0.171247 0.113910
O O12 0.515744 0.258898 0.125931
O O13 0.500000 0.664843 0.500000
O O14 0.750000 0.705284 0.431029
O O15 0.503691 0.658579 0.368631
O O16 0.250000 0.386170 0.311443
O O17 0.018848 0.500000 0.314834
O O18 0.010730 0.358304 0.238439
O O19 0.250000 0.344239 0.820015
O O20 0.485888 0.418081 0.883991
O O21 0.750000 0.500000 0.062653
O O22 0.500000 0.500000 0.000000
#
# Coordination Sequence:
#
# PCOD8214407 Si02
#       8
#     4   8   8   8   8   8   8   4
#     4  12  26  44  64  88 124 174 223 270 321 382
#     4   9  17  31  52  80 115 152 194 245 302 357
#     4   9  19  35  55  83 119 160 206 254 306 368
#     4  11  22  39  62  91 127 167 212 265 316 378
#     4  11  24  41  62  89 126 169 214 269 327 390
#     4  11  24  43  69  98 127 165 214 269 333 401
#     4  11  23  42  67 100 134 171 216 268 329 392
#     4  10  24  44  68  96 133 170 209 262 320 386
#
# _framework density 21.063244999999998
#
# number of rings (size 3 to 8) (size 9 to 14) (size 15 to 20)
#    0.000    1.571    1.429    3.214    0.000    7.714 
#    0.000    1.429    0.000    0.000    0.000    0.000 
#    0.000    0.000    0.000    0.000    0.000    0.000 
#
# Total GULP energy -693872.212757 kJ/mol
# GULP energy per Si atom -12390.575228 kJ/mol
# Density = 2.101530 g / cm^3
# Si number density = 21.063245 Si / 1000 Ang^3
#
#
#
# Elastic Constant Matrix: (Units=GPa)
#
#
# Indices 1 2 3 4 5 6 
#
# 1 89.0637 53.6402 45.2747 0.0000 0.0000 0.0000
# 2 53.6402 165.2383 62.7856 0.0000 0.0000 0.0000
# 3 45.2747 62.7856 137.0763 0.0000 0.0000 0.0000
# 4 0.0000 0.0000 0.0000 10.9520 0.0000 0.0000
# 5 0.0000 0.0000 0.0000 0.0000 36.2378 0.0000
# 6 0.0000 0.0000 0.0000 0.0000 0.0000 31.7504
#
#
#
# Elastic Compliance Matrix: (Units=1/GPa)
#
#
# Indices 1 2 3 4 5 6 
#
# 1 0.015111 -0.003643 -0.003322 0.000000 0.000000 0.000000
# 2 -0.003643 0.008205 -0.002555 0.000000 0.000000 0.000000
# 3 -0.003322 -0.002555 0.009563 0.000000 0.000000 0.000000
# 4 0.000000 0.000000 0.000000 0.091307 0.000000 0.000000
# 5 0.000000 0.000000 0.000000 0.000000 0.027596 0.000000
# 6 0.000000 0.000000 0.000000 0.000000 0.000000 0.031496
#
#
# Mechanical properties :
#
#
# Convention : Reuss Voigt Hill
#
# Bulk Modulus (GPa) = 72.26347 79.41993 75.84170
# Shear Modulus (GPa) = 24.16266 31.09991 27.63129
#
# Velocity S-wave (km/s) = 3.39063 3.84670 3.62584
# Velocity P-wave (km/s) = 7.05059 7.58398 7.32214
#
# Compressibility (1/GPa) = 0.01383825
#
# Stress axis : x y z
#
# Youngs Moduli (GPa) = 66.17772 121.87242 104.57134
#
# Poissons Ratio (x) = 0.44397 0.34742
# Poissons Ratio (y) = 0.24108 0.26719
# Poissons Ratio (z) = 0.21987 0.31139
#
# Static dielectric constant tensor:
#      x y z
#    x 3.682420 0.000000 0.000000 
#    y 0.000000 3.033990 0.000000 
#    z 0.000000 0.000000 3.712250 
# 
# 
# High freq. dielectric constant tensor:
#      x y z
#    x 1.824040 0.000000 0.000000 
#    y 0.000000 1.841770 0.000000 
#    z 0.000000 0.000000 1.820450 
# 
# From -- ./inp_files/32062.got.cif
#   From: 2010.03.12/outbox.cif.g09.slc.cpg/sg51_17_cif.got.tgz:32062.got - 2010.04.16 13:43:02.
