data_PCOD8214789
_publ_section_title
;
Structure prediction by ZEFSAII (Michael W. Deem and Ramdas Pophale) SiO2 
 PCOD8214789
Probable space group: P M M A
;
_chemical_formula_sum "Si O2"
_cell_formula_units_Z 64
_cell_length_a 23.127342
_cell_length_b 9.887883
_cell_length_c 17.411166
_cell_angle_alpha 90.000000
_cell_angle_beta 90.000000
_cell_angle_gamma 90.000000
_cell_volume 3981.593307
_symmetry_space_group_name_H-M "P M M A"
_symmetry_group_IT_number 51
_symmetry_cell_setting 'orthorhombic'
loop_
_space_group_symop_operation_xyz
x,y,z
1/2-x,-y,z
1/2+x,-y,-z
-x,y,-z
-x,-y,-z
1/2+x,y,-z
1/2-x,y,z
x,-y,z
loop_
_atom_site_type_symbol
_atom_site_label
_atom_site_fract_x
_atom_site_fract_y
_atom_site_fract_z
Si Si1 0.996573 0.339652 0.914965
Si Si2 0.315829 0.844292 0.554474
Si Si3 0.070840 0.340905 0.777138
Si Si4 0.185000 0.343365 0.698697
Si Si5 0.474154 0.349258 0.333020
Si Si6 0.393734 0.845298 0.411413
Si Si7 0.892583 0.649096 0.813083
Si Si8 0.315523 0.846790 0.263990
O O1 0.003884 0.500000 0.920053
O O2 0.933830 0.300907 0.881820
O O3 0.046811 0.280181 0.857944
O O4 0.000000 0.274505 0.000000
O O5 0.250000 0.823256 0.525231
O O6 0.328936 0.748493 0.625951
O O7 0.360325 0.801559 0.488237
O O8 0.325236 0.000000 0.579109
O O9 0.059369 0.500000 0.780335
O O10 0.138624 0.305856 0.765322
O O11 0.033834 0.289386 0.703084
O O12 0.250000 0.315611 0.729991
O O13 0.177946 0.500000 0.674277
O O14 0.482734 0.500000 0.368309
O O15 0.450163 0.249057 0.399217
O O16 0.428600 0.356757 0.264677
O O17 0.348983 0.824873 0.342822
O O18 0.415086 0.000000 0.416159
O O19 0.867487 0.500000 0.831395
O O20 0.840117 0.753526 0.804251
O O21 0.250000 0.804913 0.280126
O O22 0.320942 0.000000 0.234934
#
# Coordination Sequence:
#
# PCOD8214789 Si02
#       8
#     8   8   8   8   8   8   8   8
#     4   8  13  23  43  68  88 107 131 160 199 246
#     4   9  17  29  43  58  79 108 140 176 217 253
#     4   8  14  26  43  62  85 110 135 165 202 245
#     4   9  17  29  45  63  81 104 137 175 210 243
#     4   8  14  25  40  57  79 108 137 164 200 245
#     4   9  16  26  40  58  80 105 137 178 214 241
#     4   8  14  24  38  58  82 105 132 166 198 230
#     4   9  16  25  38  56  78 108 142 168 196 239
#
# _framework density 16.073967
#
# number of rings (size 3 to 8) (size 9 to 14) (size 15 to 20)
#    0.000    3.500    0.000    1.875    0.000    2.250 
#    0.000    1.250    0.000    7.875    0.000    3.500 
#    0.000    2.000    0.000    0.000    0.000    0.000 
#
# Total GULP energy -793054.908034 kJ/mol
# GULP energy per Si atom -12391.482938 kJ/mol
# Density = 1.603738 g / cm^3
# Si number density = 16.073967 Si / 1000 Ang^3
#
#
#
# Elastic Constant Matrix: (Units=GPa)
#
#
# Indices 1 2 3 4 5 6 
#
# 1 92.3071 35.8498 45.9227 0.0000 0.0000 0.0000
# 2 35.8498 47.0781 31.1190 0.0000 0.0000 0.0000
# 3 45.9227 31.1190 77.3154 0.0000 0.0000 0.0000
# 4 0.0000 0.0000 0.0000 11.3511 0.0000 0.0000
# 5 0.0000 0.0000 0.0000 0.0000 19.9143 0.0000
# 6 0.0000 0.0000 0.0000 0.0000 0.0000 15.7813
#
#
#
# Elastic Compliance Matrix: (Units=1/GPa)
#
#
# Indices 1 2 3 4 5 6 
#
# 1 0.017761 -0.008927 -0.006957 0.000000 0.000000 0.000000
# 2 -0.008927 0.033428 -0.008152 0.000000 0.000000 0.000000
# 3 -0.006957 -0.008152 0.020347 0.000000 0.000000 0.000000
# 4 0.000000 0.000000 0.000000 0.088097 0.000000 0.000000
# 5 0.000000 0.000000 0.000000 0.000000 0.050215 0.000000
# 6 0.000000 0.000000 0.000000 0.000000 0.000000 0.063366
#
#
# Mechanical properties :
#
#
# Convention : Reuss Voigt Hill
#
# Bulk Modulus (GPa) = 42.61674 49.16484 45.89079
# Shear Modulus (GPa) = 15.19261 16.32996 15.76128
#
# Velocity S-wave (km/s) = 3.07769 3.19082 3.13477
# Velocity P-wave (km/s) = 6.26099 6.65042 6.45864
#
# Compressibility (1/GPa) = 0.02346496
#
# Stress axis : x y z
#
# Youngs Moduli (GPa) = 56.30239 29.91530 49.14668
#
# Poissons Ratio (x) = 0.26705 0.34189
# Poissons Ratio (y) = 0.50260 0.40066
# Poissons Ratio (z) = 0.39167 0.24388
#
# Static dielectric constant tensor:
#      x y z
#    x 3.180320 0.000000 0.000000 
#    y 0.000000 3.032410 0.000000 
#    z 0.000000 0.000000 3.001870 
# 
# 
# High freq. dielectric constant tensor:
#      x y z
#    x 1.615340 0.000000 0.000000 
#    y 0.000000 1.594510 0.000000 
#    z 0.000000 0.000000 1.587490 
# 
# From -- ./inp_files/30709.got.cif
#   From: 2010.03.12/outbox.cif.g09.slc.cpg/sg51_16_cif.got.tgz:30709.got - 2010.04.16 13:43:02.
