data_PCOD8214263
_publ_section_title
;
Structure prediction by ZEFSAII (Michael W. Deem and Ramdas Pophale) SiO2 
 PCOD8214263
Probable space group: P M M A
;
_chemical_formula_sum "Si O2"
_cell_formula_units_Z 64
_cell_length_a 15.136970
_cell_length_b 8.774204
_cell_length_c 23.894889
_cell_angle_alpha 90.000000
_cell_angle_beta 90.000000
_cell_angle_gamma 90.000000
_cell_volume 3173.596402
_symmetry_space_group_name_H-M "P M M A"
_symmetry_group_IT_number 51
_symmetry_cell_setting 'orthorhombic'
loop_
_space_group_symop_operation_xyz
x,y,z
1/2-x,-y,z
1/2+x,-y,-z
-x,y,-z
-x,-y,-z
1/2+x,y,-z
1/2-x,y,z
x,-y,z
loop_
_atom_site_type_symbol
_atom_site_label
_atom_site_fract_x
_atom_site_fract_y
_atom_site_fract_z
Si Si1 0.091760 0.177031 0.617938
Si Si2 0.148216 0.670114 0.507529
Si Si3 0.590321 0.321845 0.612526
Si Si4 0.509523 0.678547 0.795472
Si Si5 0.507857 0.819651 0.916025
Si Si6 0.148558 0.819168 0.993879
Si Si7 0.349012 0.172460 0.281752
Si Si8 0.846560 0.674212 0.277065
O O1 0.132691 0.213681 0.557691
O O2 0.158411 0.221394 0.667366
O O3 0.007992 0.281787 0.631280
O O4 0.067179 0.000000 0.619870
O O5 0.250000 0.662053 0.492155
O O6 0.113276 0.500000 0.523516
O O7 0.100186 0.732059 0.451838
O O8 0.610590 0.500000 0.618004
O O9 0.654544 0.231426 0.654215
O O10 0.508200 0.500000 0.806290
O O11 0.519741 0.761317 0.853909
O O12 0.591098 0.719091 0.755851
O O13 0.418843 0.734992 0.766685
O O14 0.593971 0.763580 0.951227
O O15 0.507659 0.000000 0.916392
O O16 0.413290 0.763692 0.941781
O O17 0.250000 0.751532 0.991741
O O18 0.156195 0.000000 0.993638
O O19 0.250000 0.178286 0.257705
O O20 0.385928 0.000000 0.280050
O O21 0.750000 0.686329 0.248502
O O22 0.867507 0.500000 0.294529
#
# Coordination Sequence:
#
# PCOD8214263 Si02
#       8
#     8   8   8   8   8   8   8   8
#     4  12  24  37  57  85 115 147 189 242 300 357
#     4  10  22  39  58  81 110 146 189 236 290 359
#     4  11  22  39  62  85 111 149 194 238 292 359
#     4  11  23  39  60  86 120 161 201 244 294 352
#     4   9  18  33  56  85 117 153 197 247 289 337
#     4   8  15  31  56  85 117 156 198 239 290 345
#     4  11  24  41  62  88 118 153 194 246 303 355
#     4  10  22  41  62  82 110 154 202 246 298 359
#
# _framework density 20.166395000000001
#
# number of rings (size 3 to 8) (size 9 to 14) (size 15 to 20)
#    0.000    1.750    1.250    4.125    0.000    7.500 
#    0.000    2.500    0.000    0.750    0.000    0.000 
#    0.000    0.000    0.000    0.000    0.000    0.000 
#
# Total GULP energy -793490.502891 kJ/mol
# GULP energy per Si atom -12398.289108 kJ/mol
# Density = 2.012050 g / cm^3
# Si number density = 20.166395 Si / 1000 Ang^3
#
#
#
# Elastic Constant Matrix: (Units=GPa)
#
#
# Indices 1 2 3 4 5 6 
#
# 1 112.4366 14.6253 24.5360 0.0000 0.0000 0.0000
# 2 14.6253 31.1668 13.1361 0.0000 0.0000 0.0000
# 3 24.5360 13.1361 97.3936 0.0000 0.0000 0.0000
# 4 0.0000 0.0000 0.0000 24.7385 0.0000 0.0000
# 5 0.0000 0.0000 0.0000 0.0000 13.4244 0.0000
# 6 0.0000 0.0000 0.0000 0.0000 0.0000 20.2383
#
#
#
# Elastic Compliance Matrix: (Units=1/GPa)
#
#
# Indices 1 2 3 4 5 6 
#
# 1 0.009814 -0.003778 -0.001963 0.000000 0.000000 0.000000
# 2 -0.003778 0.035474 -0.003833 0.000000 0.000000 0.000000
# 3 -0.001963 -0.003833 0.011279 0.000000 0.000000 0.000000
# 4 0.000000 0.000000 0.000000 0.040423 0.000000 0.000000
# 5 0.000000 0.000000 0.000000 0.000000 0.074491 0.000000
# 6 0.000000 0.000000 0.000000 0.000000 0.000000 0.049411
#
#
# Mechanical properties :
#
#
# Convention : Reuss Voigt Hill
#
# Bulk Modulus (GPa) = 26.72406 38.39907 32.56157
# Shear Modulus (GPa) = 19.80107 24.26022 22.03065
#
# Velocity S-wave (km/s) = 3.13690 3.47220 3.30880
# Velocity P-wave (km/s) = 5.13817 5.92936 5.54789
#
# Compressibility (1/GPa) = 0.03741946
#
# Stress axis : x y z
#
# Youngs Moduli (GPa) = 101.89908 28.18989 88.66001
#
# Poissons Ratio (x) = 0.10650 0.17402
# Poissons Ratio (y) = 0.38496 0.33982
# Poissons Ratio (z) = 0.20000 0.10805
#
# Static dielectric constant tensor:
#      x y z
#    x 3.884110 0.000000 0.000000 
#    y 0.000000 3.445850 0.000000 
#    z 0.000000 0.000000 3.666340 
# 
# 
# High freq. dielectric constant tensor:
#      x y z
#    x 1.799500 0.000000 0.000000 
#    y 0.000000 1.766630 0.000000 
#    z 0.000000 0.000000 1.781710 
# 
# From -- ./inp_files/35638.got.cif
#   From: 2010.03.12/outbox.cif.g09.slc.cpg/sg51_18_cif.got.tgz:35638.got - 2010.04.16 13:43:02.
