data_PCOD8214869
_publ_section_title
;
Structure prediction by ZEFSAII (Michael W. Deem and Ramdas Pophale) SiO2 
 PCOD8214869
Probable space group: P M M A
;
_chemical_formula_sum "Si O2"
_cell_formula_units_Z 64
_cell_length_a 17.330414
_cell_length_b 9.212655
_cell_length_c 23.034358
_cell_angle_alpha 90.000000
_cell_angle_beta 90.000000
_cell_angle_gamma 90.000000
_cell_volume 3677.645448
_symmetry_space_group_name_H-M "P M M A"
_symmetry_group_IT_number 51
_symmetry_cell_setting 'orthorhombic'
loop_
_space_group_symop_operation_xyz
x,y,z
1/2-x,-y,z
1/2+x,-y,-z
-x,y,-z
-x,-y,-z
1/2+x,y,-z
1/2-x,y,z
x,-y,z
loop_
_atom_site_type_symbol
_atom_site_label
_atom_site_fract_x
_atom_site_fract_y
_atom_site_fract_z
Si Si1 0.989408 0.830002 0.739047
Si Si2 0.577484 0.337096 0.036438
Si Si3 0.456498 0.335915 0.631456
Si Si4 0.127184 0.662384 0.419297
Si Si5 0.988560 0.170415 0.871268
Si Si6 0.167727 0.837310 0.314286
Si Si7 0.337978 0.830559 0.058684
Si Si8 0.413859 0.164112 0.524863
O O1 0.003159 0.782942 0.805007
O O2 0.900013 0.787888 0.728279
O O3 0.043190 0.739828 0.694875
O O4 0.005520 0.000000 0.729235
O O5 0.605591 0.500000 0.051260
O O6 0.557151 0.251066 0.094971
O O7 0.500000 0.340964 0.000000
O O8 0.644517 0.256069 0.000642
O O9 0.424570 0.500000 0.638001
O O10 0.540135 0.337463 0.603127
O O11 0.404340 0.242833 0.587227
O O12 0.156929 0.500000 0.430178
O O13 0.178035 0.736619 0.370122
O O14 0.138622 0.749671 0.479021
O O15 0.901464 0.213862 0.892273
O O16 0.999738 0.000000 0.880278
O O17 0.250000 0.831335 0.280482
O O18 0.149710 0.000000 0.336607
O O19 0.250000 0.793706 0.079315
O O20 0.345601 0.000000 0.044303
O O21 0.500000 0.165056 0.500000
O O22 0.383793 0.000000 0.531899
#
# Coordination Sequence:
#
# PCOD8214869 Si02
#       8
#     8   8   8   8   8   8   8   8
#     4   9  17  28  41  58  81 111 146 180 213 251
#     4   9  17  29  45  64  87 116 148 182 223 269
#     4   9  16  25  37  54  77 103 130 163 203 245
#     4   9  16  25  37  53  73  98 130 167 207 250
#     4   9  17  29  45  64  88 119 153 187 223 266
#     4   9  17  28  40  54  76 108 144 180 216 254
#     4   9  17  29  46  68  92 117 147 185 227 268
#     4   9  15  23  37  55  74  96 123 158 201 246
#
# _framework density 17.402439000000001
#
# number of rings (size 3 to 8) (size 9 to 14) (size 15 to 20)
#    0.000    3.000    0.000    1.500    0.000    7.500 
#    0.000    2.500    0.000    0.000    0.000    7.000 
#    0.000    1.000    0.000    8.750    0.000    6.875 
#
# Total GULP energy -793143.417343 kJ/mol
# GULP energy per Si atom -12392.865896 kJ/mol
# Density = 1.736283 g / cm^3
# Si number density = 17.402439 Si / 1000 Ang^3
#
#
#
# Elastic Constant Matrix: (Units=GPa)
#
#
# Indices 1 2 3 4 5 6 
#
# 1 11.9682 8.0454 8.7967 0.0000 0.0000 0.0000
# 2 8.0454 98.8908 56.3104 0.0000 0.0000 0.0000
# 3 8.7967 56.3104 125.2161 0.0000 0.0000 0.0000
# 4 0.0000 0.0000 0.0000 20.0365 0.0000 0.0000
# 5 0.0000 0.0000 0.0000 0.0000 11.7142 0.0000
# 6 0.0000 0.0000 0.0000 0.0000 0.0000 10.7252
#
#
#
# Elastic Compliance Matrix: (Units=1/GPa)
#
#
# Indices 1 2 3 4 5 6 
#
# 1 0.089904 -0.004998 -0.004069 0.000000 0.000000 0.000000
# 2 -0.004998 0.013871 -0.005887 0.000000 0.000000 0.000000
# 3 -0.004069 -0.005887 0.010919 0.000000 0.000000 0.000000
# 4 0.000000 0.000000 0.000000 0.049909 0.000000 0.000000
# 5 0.000000 0.000000 0.000000 0.000000 0.085366 0.000000
# 6 0.000000 0.000000 0.000000 0.000000 0.000000 0.093238
#
#
# Mechanical properties :
#
#
# Convention : Reuss Voigt Hill
#
# Bulk Modulus (GPa) = 11.79401 42.48668 27.14035
# Shear Modulus (GPa) = 12.45714 19.35669 15.90692
#
# Velocity S-wave (km/s) = 2.67840 3.33873 3.02663
# Velocity P-wave (km/s) = 4.04438 6.27137 5.27670
#
# Compressibility (1/GPa) = 0.08478881
#
# Stress axis : x y z
#
# Youngs Moduli (GPa) = 11.12293 72.09421 91.58099
#
# Poissons Ratio (x) = 0.36029 0.37260
# Poissons Ratio (y) = 0.05559 0.53911
# Poissons Ratio (z) = 0.04525 0.42439
#
# Static dielectric constant tensor:
#      x y z
#    x 2.826670 0.000000 0.000000 
#    y 0.000000 3.410950 0.000000 
#    z 0.000000 0.000000 3.191170 
# 
# 
# High freq. dielectric constant tensor:
#      x y z
#    x 1.621290 0.000000 0.000000 
#    y 0.000000 1.679230 0.000000 
#    z 0.000000 0.000000 1.659380 
# 
# From -- ./inp_files/35915.got.cif
#   From: 2010.03.12/outbox.cif.g09.slc.cpg/sg51_18_cif.got.tgz:35915.got - 2010.04.16 13:43:02.
