data_PCOD8214880
_publ_section_title
;
Structure prediction by ZEFSAII (Michael W. Deem and Ramdas Pophale) SiO2 
 PCOD8214880
Probable space group: P M M A
;
_chemical_formula_sum "Si O2"
_cell_formula_units_Z 48
_cell_length_a 9.286210
_cell_length_b 9.506437
_cell_length_c 30.908959
_cell_angle_alpha 90.000000
_cell_angle_beta 90.000000
_cell_angle_gamma 90.000000
_cell_volume 2728.604893
_symmetry_space_group_name_H-M "P M M A"
_symmetry_group_IT_number 51
_symmetry_cell_setting 'orthorhombic'
loop_
_space_group_symop_operation_xyz
x,y,z
1/2-x,-y,z
1/2+x,-y,-z
-x,y,-z
-x,-y,-z
1/2+x,y,-z
1/2-x,y,z
x,-y,z
loop_
_atom_site_type_symbol
_atom_site_label
_atom_site_fract_x
_atom_site_fract_y
_atom_site_fract_z
Si Si1 0.082642 0.836305 0.375055
Si Si2 0.582282 0.337941 0.542391
Si Si3 0.916875 0.336796 0.875082
Si Si4 0.917115 0.163199 0.791625
Si Si5 0.587252 0.667466 0.041030
Si Si6 0.087416 0.167276 0.708325
O O1 0.250000 0.807955 0.365650
O O2 0.028363 0.752610 0.417000
O O3 0.994398 0.777114 0.334170
O O4 0.051934 0.000000 0.383267
O O5 0.500000 0.283661 0.500000
O O6 0.750000 0.314166 0.533938
O O7 0.545558 0.500000 0.552044
O O8 0.750000 0.310426 0.886117
O O9 0.946997 0.500000 0.865573
O O10 0.966692 0.249515 0.833463
O O11 0.009558 0.280812 0.915378
O O12 0.750000 0.188008 0.781104
O O13 0.006935 0.222611 0.751088
O O14 0.950023 0.000000 0.800471
O O15 0.750000 0.726194 0.039961
O O16 0.587278 0.500000 0.039234
O O17 0.500000 0.728283 0.000000
O O18 0.250000 0.225323 0.708146
O O19 0.083574 0.000000 0.708285
#
# Coordination Sequence:
#
# PCOD8214880 Si02
#       6
#     8   8   8   8   8   8
#     4   9  17  30  48  68  89 114 146 183 220 258
#     4   9  18  32  48  66  90 120 150 179 215 261
#     4   9  17  29  45  66  91 116 144 181 222 261
#     4   9  17  30  48  67  88 118 152 181 214 262
#     4   9  16  26  42  64  89 117 148 182 221 264
#     4   9  17  29  46  68  91 115 146 184 222 259
#
# _framework density 17.591407
#
# number of rings (size 3 to 8) (size 9 to 14) (size 15 to 20)
#    0.000    3.000    0.000    1.000    0.000    5.667 
#    0.000    0.833    0.000    5.500    0.000    0.000 
#    0.000    0.000    0.000    0.000    0.000    0.000 
#
# Total GULP energy -595235.472183 kJ/mol
# GULP energy per Si atom -12400.739004 kJ/mol
# Density = 1.755137 g / cm^3
# Si number density = 17.591407 Si / 1000 Ang^3
#
#
#
# Elastic Constant Matrix: (Units=GPa)
#
#
# Indices 1 2 3 4 5 6 
#
# 1 102.5642 30.4346 97.0525 0.0000 0.0000 0.0000
# 2 30.4346 35.8237 54.2047 0.0000 0.0000 0.0000
# 3 97.0525 54.2047 202.8854 0.0000 0.0000 0.0000
# 4 0.0000 0.0000 0.0000 29.3158 0.0000 0.0000
# 5 0.0000 0.0000 0.0000 0.0000 38.6754 0.0000
# 6 0.0000 0.0000 0.0000 0.0000 0.0000 13.8442
#
#
#
# Elastic Compliance Matrix: (Units=1/GPa)
#
#
# Indices 1 2 3 4 5 6 
#
# 1 0.018120 -0.003825 -0.007646 0.000000 0.000000 0.000000
# 2 -0.003825 0.047664 -0.010904 0.000000 0.000000 0.000000
# 3 -0.007646 -0.010904 0.011500 0.000000 0.000000 0.000000
# 4 0.000000 0.000000 0.000000 0.034111 0.000000 0.000000
# 5 0.000000 0.000000 0.000000 0.000000 0.025856 0.000000
# 6 0.000000 0.000000 0.000000 0.000000 0.000000 0.072232
#
#
# Mechanical properties :
#
#
# Convention : Reuss Voigt Hill
#
# Bulk Modulus (GPa) = 30.73857 78.29521 54.51689
# Shear Modulus (GPa) = 18.86229 27.00583 22.93406
#
# Velocity S-wave (km/s) = 3.27807 3.92238 3.61461
# Velocity P-wave (km/s) = 5.64262 8.06955 6.96264
#
# Compressibility (1/GPa) = 0.03253242
#
# Stress axis : x y z
#
# Youngs Moduli (GPa) = 55.18701 20.98032 86.95801
#
# Poissons Ratio (x) = 0.08025 0.66489
# Poissons Ratio (y) = 0.21110 0.94823
# Poissons Ratio (z) = 0.42196 0.22878
#
# Static dielectric constant tensor:
#      x y z
#    x 3.331030 0.000000 0.000000 
#    y 0.000000 2.903510 0.000000 
#    z 0.000000 0.000000 3.446180 
# 
# 
# High freq. dielectric constant tensor:
#      x y z
#    x 1.680780 0.000000 0.000000 
#    y 0.000000 1.635760 0.000000 
#    z 0.000000 0.000000 1.693050 
# 
# From -- ./inp_files/34516.got.cif
#   From: 2010.03.12/outbox.cif.g09.slc.cpg/sg51_18_cif.got.tgz:34516.got - 2010.04.16 13:43:02.
