data_PCOD8214100
_publ_section_title
;
Structure prediction by ZEFSAII (Michael W. Deem and Ramdas Pophale) SiO2 
 PCOD8214100
Probable space group: P M M A
;
_chemical_formula_sum "Si O2"
_cell_formula_units_Z 44
_cell_length_a 8.676339
_cell_length_b 17.863077
_cell_length_c 14.259024
_cell_angle_alpha 90.000000
_cell_angle_beta 90.000000
_cell_angle_gamma 90.000000
_cell_volume 2209.950685
_symmetry_space_group_name_H-M "P M M A"
_symmetry_group_IT_number 51
_symmetry_cell_setting 'orthorhombic'
loop_
_space_group_symop_operation_xyz
x,y,z
1/2-x,-y,z
1/2+x,-y,-z
-x,y,-z
-x,-y,-z
1/2+x,y,-z
1/2-x,y,z
x,-y,z
loop_
_atom_site_type_symbol
_atom_site_label
_atom_site_fract_x
_atom_site_fract_y
_atom_site_fract_z
Si Si1 0.068182 0.500000 0.602525
Si Si2 0.568920 0.642351 0.280322
Si Si3 0.068096 0.309164 0.096610
Si Si4 0.432335 0.854050 0.903031
Si Si5 0.426729 0.914862 0.278545
Si Si6 0.568522 0.212448 0.399154
O O1 0.250000 0.500000 0.593191
O O2 0.010310 0.426548 0.657038
O O3 0.000000 0.500000 0.500000
O O4 0.750000 0.637219 0.260569
O O5 0.479468 0.636886 0.181772
O O6 0.524236 0.719192 0.331633
O O7 0.250000 0.302306 0.087746
O O8 0.996646 0.228191 0.117071
O O9 0.000000 0.342497 0.000000
O O10 0.250000 0.849855 0.910289
O O11 0.480710 0.907505 0.818417
O O12 0.500000 0.886782 0.000000
O O13 0.250000 0.892094 0.260941
O O14 0.496837 0.863558 0.359579
O O15 0.441529 0.000000 0.313609
O O16 0.500000 0.230755 0.500000
O O17 0.750000 0.202171 0.407355
#
# Coordination Sequence:
#
# PCOD8214100 Si02
#       6
#     4   8   8   8   8   8
#     4  10  22  40  63  92 129 164 201 248 300 352
#     4  10  21  39  62  91 124 161 200 246 297 353
#     4  11  21  35  60  90 122 159 200 247 295 354
#     4  11  21  36  59  87 120 157 198 244 297 357
#     4  11  24  41  60  85 118 155 200 251 303 357
#     4  11  23  39  62  87 116 154 201 249 300 358
#
# _framework density 19.909946999999999
#
# number of rings (size 3 to 8) (size 9 to 14) (size 15 to 20)
#    0.000    1.273    1.818    6.000    0.000    3.636 
#    0.000    0.455    0.000    0.000    0.000    0.000 
#    0.000    0.000    0.000    0.000    0.000    0.000 
#
# Total GULP energy -545846.877079 kJ/mol
# GULP energy per Si atom -12405.610843 kJ/mol
# Density = 1.986463 g / cm^3
# Si number density = 19.909947 Si / 1000 Ang^3
#
#
#
# Elastic Constant Matrix: (Units=GPa)
#
#
# Indices 1 2 3 4 5 6 
#
# 1 135.8941 47.2015 63.6023 0.0000 0.0000 0.0000
# 2 47.2015 94.4458 52.3669 0.0000 0.0000 0.0000
# 3 63.6023 52.3669 149.2954 0.0000 0.0000 0.0000
# 4 0.0000 0.0000 0.0000 26.5681 0.0000 0.0000
# 5 0.0000 0.0000 0.0000 0.0000 42.1148 0.0000
# 6 0.0000 0.0000 0.0000 0.0000 0.0000 21.7504
#
#
#
# Elastic Compliance Matrix: (Units=1/GPa)
#
#
# Indices 1 2 3 4 5 6 
#
# 1 0.009935 -0.003251 -0.003092 0.000000 0.000000 0.000000
# 2 -0.003251 0.014208 -0.003599 0.000000 0.000000 0.000000
# 3 -0.003092 -0.003599 0.009278 0.000000 0.000000 0.000000
# 4 0.000000 0.000000 0.000000 0.037639 0.000000 0.000000
# 5 0.000000 0.000000 0.000000 0.000000 0.023745 0.000000
# 6 0.000000 0.000000 0.000000 0.000000 0.000000 0.045976
#
#
# Mechanical properties :
#
#
# Convention : Reuss Voigt Hill
#
# Bulk Modulus (GPa) = 73.86935 78.44185 76.15560
# Shear Modulus (GPa) = 30.27056 32.51761 31.39409
#
# Velocity S-wave (km/s) = 3.90343 4.04571 3.97521
# Velocity P-wave (km/s) = 7.58274 7.82992 7.70732
#
# Compressibility (1/GPa) = 0.01353741
#
# Stress axis : x y z
#
# Youngs Moduli (GPa) = 100.65372 70.38234 107.78414
#
# Poissons Ratio (x) = 0.22879 0.33330
# Poissons Ratio (y) = 0.32720 0.38789
# Poissons Ratio (z) = 0.31125 0.25329
#
# Static dielectric constant tensor:
#      x y z
#    x 3.714280 0.000000 0.000000 
#    y 0.000000 3.560700 0.000000 
#    z 0.000000 0.000000 3.807620 
# 
# 
# High freq. dielectric constant tensor:
#      x y z
#    x 1.786870 0.000000 0.000000 
#    y 0.000000 1.760730 0.000000 
#    z 0.000000 0.000000 1.790980 
# 
# From -- ./inp_files/20952.got.cif
#   From: 2010.03.12/outbox.cif.g09.slc.cpg/sg51_11_cif.got.tgz:20952.got - 2010.04.16 13:43:02.
