data_PCOD8214866
_publ_section_title
;
Structure prediction by ZEFSAII (Michael W. Deem and Ramdas Pophale) SiO2 
 PCOD8214866
Probable space group: P M M A
;
_chemical_formula_sum "Si O2"
_cell_formula_units_Z 48
_cell_length_a 9.224106
_cell_length_b 9.603891
_cell_length_c 30.919600
_cell_angle_alpha 90.000000
_cell_angle_beta 90.000000
_cell_angle_gamma 90.000000
_cell_volume 2739.084147
_symmetry_space_group_name_H-M "P M M A"
_symmetry_group_IT_number 51
_symmetry_cell_setting 'orthorhombic'
loop_
_space_group_symop_operation_xyz
x,y,z
1/2-x,-y,z
1/2+x,-y,-z
-x,y,-z
-x,-y,-z
1/2+x,y,-z
1/2-x,y,z
x,-y,z
loop_
_atom_site_type_symbol
_atom_site_label
_atom_site_fract_x
_atom_site_fract_y
_atom_site_fract_z
Si Si1 0.085600 0.333960 0.958127
Si Si2 0.419319 0.839708 0.376599
Si Si3 0.081453 0.338356 0.790462
Si Si4 0.580752 0.339580 0.542812
Si Si5 0.086152 0.665664 0.124948
Si Si6 0.419060 0.160001 0.708955
O O1 0.250000 0.276604 0.958840
O O2 0.087161 0.500000 0.957782
O O3 0.003633 0.275627 0.915819
O O4 0.000000 0.278155 0.000000
O O5 0.250000 0.815910 0.369236
O O6 0.476840 0.749860 0.416852
O O7 0.498960 0.786754 0.333606
O O8 0.456906 0.000000 0.386221
O O9 0.250000 0.311541 0.800456
O O10 0.050931 0.500000 0.781127
O O11 0.027650 0.252125 0.749115
O O12 0.990857 0.283045 0.831311
O O13 0.500000 0.286659 0.500000
O O14 0.750000 0.315183 0.535266
O O15 0.543992 0.500000 0.552447
O O16 0.250000 0.723898 0.123300
O O17 0.086660 0.500000 0.123295
O O18 0.250000 0.181145 0.700497
O O19 0.457746 0.000000 0.719081
#
# Coordination Sequence:
#
# PCOD8214866 Si02
#       6
#     8   8   8   8   8   8
#     4   9  15  22  33  50  75 109 146 181 219 264
#     4   9  18  32  48  66  89 116 145 178 217 259
#     4   9  17  29  44  62  85 113 144 178 217 260
#     4   9  18  32  48  67  92 120 148 179 216 257
#     4   9  16  25  37  55  80 109 142 180 220 262
#     4   9  18  32  48  66  89 116 146 181 220 261
#
# _framework density 17.524106
#
# number of rings (size 3 to 8) (size 9 to 14) (size 15 to 20)
#    0.000    3.000    0.000    1.000    0.000    6.333 
#    0.000    0.000    0.000    0.000    0.000    0.000 
#    0.000    0.667    0.000    1.833    0.000    3.333 
#
# Total GULP energy -595232.582554 kJ/mol
# GULP energy per Si atom -12400.678803 kJ/mol
# Density = 1.748422 g / cm^3
# Si number density = 17.524106 Si / 1000 Ang^3
#
#
#
# Elastic Constant Matrix: (Units=GPa)
#
#
# Indices 1 2 3 4 5 6 
#
# 1 94.6001 29.1743 86.5322 0.0000 0.0000 0.0000
# 2 29.1743 38.4490 59.0845 0.0000 0.0000 0.0000
# 3 86.5322 59.0845 202.6213 0.0000 0.0000 0.0000
# 4 0.0000 0.0000 0.0000 4.5811 0.0000 0.0000
# 5 0.0000 0.0000 0.0000 0.0000 40.2128 0.0000
# 6 0.0000 0.0000 0.0000 0.0000 0.0000 13.2975
#
#
#
# Elastic Compliance Matrix: (Units=1/GPa)
#
#
# Indices 1 2 3 4 5 6 
#
# 1 0.017571 -0.003264 -0.006552 0.000000 0.000000 0.000000
# 2 -0.003264 0.047732 -0.012525 0.000000 0.000000 0.000000
# 3 -0.006552 -0.012525 0.011386 0.000000 0.000000 0.000000
# 4 0.000000 0.000000 0.000000 0.218287 0.000000 0.000000
# 5 0.000000 0.000000 0.000000 0.000000 0.024868 0.000000
# 6 0.000000 0.000000 0.000000 0.000000 0.000000 0.075202
#
#
# Mechanical properties :
#
#
# Convention : Reuss Voigt Hill
#
# Bulk Modulus (GPa) = 31.24319 76.13916 53.69118
# Shear Modulus (GPa) = 11.10137 22.34358 16.72247
#
# Velocity S-wave (km/s) = 2.51966 3.57462 3.09245
# Velocity P-wave (km/s) = 5.13150 7.78330 6.59212
#
# Compressibility (1/GPa) = 0.03200697
#
# Stress axis : x y z
#
# Youngs Moduli (GPa) = 56.91330 20.95043 87.82922
#
# Poissons Ratio (x) = 0.06837 0.57547
# Poissons Ratio (y) = 0.18574 1.10005
# Poissons Ratio (z) = 0.37290 0.26240
#
# Static dielectric constant tensor:
#      x y z
#    x 3.298280 0.000000 0.000000 
#    y 0.000000 2.889660 0.000000 
#    z 0.000000 0.000000 3.445480 
# 
# 
# High freq. dielectric constant tensor:
#      x y z
#    x 1.679330 0.000000 0.000000 
#    y 0.000000 1.629690 0.000000 
#    z 0.000000 0.000000 1.690080 
# 
# From -- ./inp_files/34533.got.cif
#   From: 2010.03.12/outbox.cif.g09.slc.cpg/sg51_18_cif.got.tgz:34533.got - 2010.04.16 13:43:02.
