data_PCOD8214293
_publ_section_title
;
Structure prediction by ZEFSAII (Michael W. Deem and Ramdas Pophale) SiO2 
 PCOD8214293
Probable space group: P M M A
;
_chemical_formula_sum "Si O2"
_cell_formula_units_Z 48
_cell_length_a 17.960464
_cell_length_b 8.989903
_cell_length_c 15.605008
_cell_angle_alpha 90.000000
_cell_angle_beta 90.000000
_cell_angle_gamma 90.000000
_cell_volume 2519.628741
_symmetry_space_group_name_H-M "P M M A"
_symmetry_group_IT_number 51
_symmetry_cell_setting 'orthorhombic'
loop_
_space_group_symop_operation_xyz
x,y,z
1/2-x,-y,z
1/2+x,-y,-z
-x,y,-z
-x,-y,-z
1/2+x,y,-z
1/2-x,y,z
x,-y,z
loop_
_atom_site_type_symbol
_atom_site_label
_atom_site_fract_x
_atom_site_fract_y
_atom_site_fract_z
Si Si1 0.335494 0.328921 0.993787
Si Si2 0.667827 0.176094 0.492181
Si Si3 0.161284 0.171176 0.322691
Si Si4 0.665320 0.176659 0.307645
Si Si5 0.084773 0.328456 0.167696
Si Si6 0.571183 0.823747 0.149255
O O1 0.250000 0.283555 0.980749
O O2 0.349730 0.500000 0.968268
O O3 0.355888 0.301350 0.092566
O O4 0.385713 0.224403 0.935525
O O5 0.750000 0.246083 0.490416
O O6 0.629846 0.222217 0.582674
O O7 0.630450 0.224999 0.401238
O O8 0.674736 0.000000 0.494044
O O9 0.250000 0.192083 0.319069
O O10 0.121458 0.276185 0.255513
O O11 0.139966 0.000000 0.303615
O O12 0.750000 0.236479 0.296705
O O13 0.613507 0.242533 0.232813
O O14 0.666519 0.000000 0.300700
O O15 0.062834 0.500000 0.176224
O O16 0.011502 0.237307 0.145845
O O17 0.567688 0.000000 0.152100
#
# Coordination Sequence:
#
# PCOD8214293 Si02
#       6
#     8   8   8   8   8   8
#     4  10  22  40  59  77  99 132 173 212 255 314
#     4   7  11  23  46  75 104 132 164 207 258 307
#     4   9  17  31  54  82 106 130 169 221 266 301
#     4   8  14  27  49  77 106 134 167 209 258 312
#     4  11  23  38  54  73 104 146 181 208 250 311
#     4  11  22  35  54  81 109 136 170 216 265 305
#
# _framework density 19.050424
#
# number of rings (size 3 to 8) (size 9 to 14) (size 15 to 20)
#    0.000    2.667    0.000    4.500    0.000    5.333 
#    0.000    0.833    0.000    7.000    0.000    4.667 
#    0.000    0.000    0.000    0.000    0.000    0.000 
#
# Total GULP energy -594771.696761 kJ/mol
# GULP energy per Si atom -12391.077016 kJ/mol
# Density = 1.900706 g / cm^3
# Si number density = 19.050424 Si / 1000 Ang^3
#
#
#
# Elastic Constant Matrix: (Units=GPa)
#
#
# Indices 1 2 3 4 5 6 
#
# 1 61.8619 23.4895 19.5935 0.0000 0.0000 0.0000
# 2 23.4895 50.0666 33.2903 0.0000 0.0000 0.0000
# 3 19.5935 33.2903 111.0713 0.0000 0.0000 0.0000
# 4 0.0000 0.0000 0.0000 0.8467 0.0000 0.0000
# 5 0.0000 0.0000 0.0000 0.0000 14.1646 0.0000
# 6 0.0000 0.0000 0.0000 0.0000 0.0000 22.8633
#
#
#
# Elastic Compliance Matrix: (Units=1/GPa)
#
#
# Indices 1 2 3 4 5 6 
#
# 1 0.019738 -0.008674 -0.000882 0.000000 0.000000 0.000000
# 2 -0.008674 0.028756 -0.007089 0.000000 0.000000 0.000000
# 3 -0.000882 -0.007089 0.011283 0.000000 0.000000 0.000000
# 4 0.000000 0.000000 0.000000 1.181036 0.000000 0.000000
# 5 0.000000 0.000000 0.000000 0.000000 0.070599 0.000000
# 6 0.000000 0.000000 0.000000 0.000000 0.000000 0.043738
#
#
# Mechanical properties :
#
#
# Convention : Reuss Voigt Hill
#
# Bulk Modulus (GPa) = 37.75245 41.74959 39.75102
# Shear Modulus (GPa) = 3.57841 17.35001 10.46421
#
# Velocity S-wave (km/s) = 1.37203 3.02112 2.34624
# Velocity P-wave (km/s) = 4.72970 5.84230 5.31519
#
# Compressibility (1/GPa) = 0.02648835
#
# Stress axis : x y z
#
# Youngs Moduli (GPa) = 50.66380 34.77499 88.62510
#
# Poissons Ratio (x) = 0.30163 0.07818
# Poissons Ratio (y) = 0.43945 0.62824
# Poissons Ratio (z) = 0.04469 0.24651
#
# Static dielectric constant tensor:
#      x y z
#    x 3.442520 0.000000 0.000000 
#    y 0.000000 3.145640 0.000000 
#    z 0.000000 0.000000 4.050380 
# 
# 
# High freq. dielectric constant tensor:
#      x y z
#    x 1.719790 0.000000 0.000000 
#    y 0.000000 1.702810 0.000000 
#    z 0.000000 0.000000 1.767970 
# 
# From -- ./inp_files/24674.got.cif
#   From: 2010.03.12/outbox.cif.g09.slc.cpg/sg51_13_cif.got.tgz:24674.got - 2010.04.16 13:43:02.
