data_PCOD8214510
_publ_section_title
;
Structure prediction by ZEFSAII (Michael W. Deem and Ramdas Pophale) SiO2 
 PCOD8214510
Probable space group: P M M A
;
_chemical_formula_sum "Si O2"
_cell_formula_units_Z 24
_cell_length_a 17.203336
_cell_length_b 13.983196
_cell_length_c 4.987964
_cell_angle_alpha 90.000000
_cell_angle_beta 90.000000
_cell_angle_gamma 90.000000
_cell_volume 1199.892744
_symmetry_space_group_name_H-M "P M M A"
_symmetry_group_IT_number 51
_symmetry_cell_setting 'orthorhombic'
loop_
_space_group_symop_operation_xyz
x,y,z
1/2-x,-y,z
1/2+x,-y,-z
-x,y,-z
-x,-y,-z
1/2+x,y,-z
1/2-x,y,z
x,-y,z
loop_
_atom_site_type_symbol
_atom_site_label
_atom_site_fract_x
_atom_site_fract_y
_atom_site_fract_z
Si Si1 0.446418 0.103316 0.247974
Si Si2 0.661016 0.608729 0.077209
Si Si3 0.089926 0.298686 0.419736
O O1 0.500000 0.086912 0.500000
O O2 0.388343 0.191269 0.313836
O O3 0.404284 0.000000 0.188319
O O4 0.500000 0.134883 0.000000
O O5 0.750000 0.625377 0.991857
O O6 0.646266 0.500000 0.170459
O O7 0.641843 0.678471 0.322993
O O8 0.607419 0.628338 0.819996
O O9 0.000000 0.306527 0.500000
#
# Coordination Sequence:
#
# PCOD8214510 Si02
#       3
#     8   8   8
#     4   9  17  31  53  82 113 141 173 219 275 329
#     4  11  24  40  56  77 112 155 188 222 283 350
#     4  11  21  36  60  87 110 139 188 241 277 317
#
# _framework density 20.001785000000002
#
# number of rings (size 3 to 8) (size 9 to 14) (size 15 to 20)
#    0.000    1.667    0.000    7.000    0.000    6.667 
#    0.000    0.000    0.000    6.000    0.000    0.000 
#    0.000    0.000    0.000    0.000    0.000    0.000 
#
# Total GULP energy -297470.114979 kJ/mol
# GULP energy per Si atom -12394.588124 kJ/mol
# Density = 1.995626 g / cm^3
# Si number density = 20.001785 Si / 1000 Ang^3
#
#
#
# Elastic Constant Matrix: (Units=GPa)
#
#
# Indices 1 2 3 4 5 6 
#
# 1 56.9034 61.6756 29.6285 0.0000 0.0000 0.0000
# 2 61.6756 132.1986 42.9976 0.0000 0.0000 0.0000
# 3 29.6285 42.9976 135.8758 0.0000 0.0000 0.0000
# 4 0.0000 0.0000 0.0000 35.6465 0.0000 0.0000
# 5 0.0000 0.0000 0.0000 0.0000 31.1261 0.0000
# 6 0.0000 0.0000 0.0000 0.0000 0.0000 10.7826
#
#
#
# Elastic Compliance Matrix: (Units=1/GPa)
#
#
# Indices 1 2 3 4 5 6 
#
# 1 0.036525 -0.016108 -0.002867 0.000000 0.000000 0.000000
# 2 -0.016108 0.015536 -0.001404 0.000000 0.000000 0.000000
# 3 -0.002867 -0.001404 0.008429 0.000000 0.000000 0.000000
# 4 0.000000 0.000000 0.000000 0.028053 0.000000 0.000000
# 5 0.000000 0.000000 0.000000 0.000000 0.032127 0.000000
# 6 0.000000 0.000000 0.000000 0.000000 0.000000 0.092742
#
#
# Mechanical properties :
#
#
# Convention : Reuss Voigt Hill
#
# Bulk Modulus (GPa) = 50.67817 65.95347 58.31582
# Shear Modulus (GPa) = 19.17555 28.22277 23.69916
#
# Velocity S-wave (km/s) = 3.09963 3.76042 3.44590
# Velocity P-wave (km/s) = 6.18079 7.20415 6.71200
#
# Compressibility (1/GPa) = 0.01973236
#
# Stress axis : x y z
#
# Youngs Moduli (GPa) = 27.37822 64.36692 118.63600
#
# Poissons Ratio (x) = 1.03682 0.34016
# Poissons Ratio (y) = 0.44101 0.16655
# Poissons Ratio (z) = 0.07850 0.09036
#
# Static dielectric constant tensor:
#      x y z
#    x 3.231560 0.000000 0.000000 
#    y 0.000000 4.454840 0.000000 
#    z 0.000000 0.000000 3.752870 
# 
# 
# High freq. dielectric constant tensor:
#      x y z
#    x 1.724120 0.000000 0.000000 
#    y 0.000000 1.803090 0.000000 
#    z 0.000000 0.000000 1.805130 
# 
# From -- ./inp_files/1140.got.cif
#   From: 2010.03.12/outbox.cif.g09.slc.cpg/sg51_1_cif.got.tgz:1140.got - 2010.04.16 13:43:02.
