data_PCOD8214302
_publ_section_title
;
Structure prediction by ZEFSAII (Michael W. Deem and Ramdas Pophale) SiO2 
 PCOD8214302
Probable space group: P M M A
;
_chemical_formula_sum "Si O2"
_cell_formula_units_Z 40
_cell_length_a 7.614481
_cell_length_b 9.065069
_cell_length_c 29.698931
_cell_angle_alpha 90.000000
_cell_angle_beta 90.000000
_cell_angle_gamma 90.000000
_cell_volume 2049.992343
_symmetry_space_group_name_H-M "P M M A"
_symmetry_group_IT_number 51
_symmetry_cell_setting 'orthorhombic'
loop_
_space_group_symop_operation_xyz
x,y,z
1/2-x,-y,z
1/2+x,-y,-z
-x,y,-z
-x,-y,-z
1/2+x,y,-z
1/2-x,y,z
x,-y,z
loop_
_atom_site_type_symbol
_atom_site_label
_atom_site_fract_x
_atom_site_fract_y
_atom_site_fract_z
Si Si1 0.750000 0.827588 0.795601
Si Si2 0.250000 0.324619 0.298609
Si Si3 0.455447 0.336248 0.951878
Si Si4 0.545432 0.161741 0.453390
Si Si5 0.550287 0.828201 0.135235
Si Si6 0.046807 0.175957 0.644219
O O1 0.750000 0.722187 0.752988
O O2 0.574654 0.787297 0.823258
O O3 0.750000 0.000000 0.781604
O O4 0.250000 0.500000 0.303172
O O5 0.426232 0.259409 0.320400
O O6 0.250000 0.344356 0.945529
O O7 0.540023 0.500000 0.951089
O O8 0.530516 0.245413 0.909759
O O9 0.500000 0.260184 0.000000
O O10 0.500000 0.251158 0.500000
O O11 0.750000 0.142502 0.448299
O O12 0.484836 0.233140 0.405919
O O13 0.455407 0.000000 0.457485
O O14 0.750000 0.776095 0.146375
O O15 0.545978 0.000000 0.125398
O O16 0.250000 0.216718 0.654041
O O17 0.019802 0.000000 0.647736
#
# Coordination Sequence:
#
# PCOD8214302 Si02
#       6
#     4   4   8   8   8   8
#     4  10  22  40  60  82 106 138 186 238 289 340
#     4  12  26  40  58  86 116 152 196 240 293 352
#     4   9  18  31  48  74 107 144 181 215 256 312
#     4   8  14  24  44  80 114 140 177 229 285 331
#     4   9  19  36  56  79 107 137 173 223 279 331
#     4   9  19  37  60  86 116 151 192 239 291 342
#
# _framework density 19.512270000000001
#
# number of rings (size 3 to 8) (size 9 to 14) (size 15 to 20)
#    0.000    2.800    0.000    2.100    2.800    2.400 
#    0.000    2.000    0.000    0.600    0.000    0.000 
#    0.000    0.000    0.000    0.000    0.000    0.000 
#
# Total GULP energy -495570.505756 kJ/mol
# GULP energy per Si atom -12389.262644 kJ/mol
# Density = 1.946786 g / cm^3
# Si number density = 19.512270 Si / 1000 Ang^3
#
#
#
# Elastic Constant Matrix: (Units=GPa)
#
#
# Indices 1 2 3 4 5 6 
#
# 1 89.3370 36.9765 63.3628 0.0000 0.0000 0.0000
# 2 36.9765 57.3072 58.7515 0.0000 0.0000 0.0000
# 3 63.3628 58.7515 172.8583 0.0000 0.0000 0.0000
# 4 0.0000 0.0000 0.0000 1.9288 0.0000 0.0000
# 5 0.0000 0.0000 0.0000 0.0000 32.1804 0.0000
# 6 0.0000 0.0000 0.0000 0.0000 0.0000 10.4837
#
#
#
# Elastic Compliance Matrix: (Units=1/GPa)
#
#
# Indices 1 2 3 4 5 6 
#
# 1 0.016743 -0.006924 -0.003784 0.000000 0.000000 0.000000
# 2 -0.006924 0.029645 -0.007538 0.000000 0.000000 0.000000
# 3 -0.003784 -0.007538 0.009734 0.000000 0.000000 0.000000
# 4 0.000000 0.000000 0.000000 0.518464 0.000000 0.000000
# 5 0.000000 0.000000 0.000000 0.000000 0.031075 0.000000
# 6 0.000000 0.000000 0.000000 0.000000 0.000000 0.095387
#
#
# Mechanical properties :
#
#
# Convention : Reuss Voigt Hill
#
# Bulk Modulus (GPa) = 50.93995 70.85380 60.89688
# Shear Modulus (GPa) = 6.71967 19.61267 13.16617
#
# Velocity S-wave (km/s) = 1.85777 3.17384 2.60044
# Velocity P-wave (km/s) = 5.54662 7.05849 6.34773
#
# Compressibility (1/GPa) = 0.01963096
#
# Stress axis : x y z
#
# Youngs Moduli (GPa) = 59.72555 33.73232 102.73088
#
# Poissons Ratio (x) = 0.23356 0.38874
# Poissons Ratio (y) = 0.41353 0.77437
# Poissons Ratio (z) = 0.22601 0.25427
#
# Static dielectric constant tensor:
#      x y z
#    x 3.661390 0.000000 0.000000 
#    y 0.000000 3.293350 0.000000 
#    z 0.000000 0.000000 3.821720 
# 
# 
# High freq. dielectric constant tensor:
#      x y z
#    x 1.763210 0.000000 0.000000 
#    y 0.000000 1.708950 0.000000 
#    z 0.000000 0.000000 1.773720 
# 
# From -- ./inp_files/36004.got.cif
#   From: 2010.03.12/outbox.cif.g09.slc.cpg/sg51_19_cif.got.tgz:36004.got - 2010.04.16 13:43:02.
