data_PCOD8214848
_publ_section_title
;
Structure prediction by ZEFSAII (Michael W. Deem and Ramdas Pophale) SiO2 
 PCOD8214848
Probable space group: P M M A
;
_chemical_formula_sum "Si O2"
_cell_formula_units_Z 40
_cell_length_a 9.887904
_cell_length_b 9.499973
_cell_length_c 24.463690
_cell_angle_alpha 90.000000
_cell_angle_beta 90.000000
_cell_angle_gamma 90.000000
_cell_volume 2297.992342
_symmetry_space_group_name_H-M "P M M A"
_symmetry_group_IT_number 51
_symmetry_cell_setting 'orthorhombic'
loop_
_space_group_symop_operation_xyz
x,y,z
1/2-x,-y,z
1/2+x,-y,-z
-x,y,-z
-x,-y,-z
1/2+x,y,-z
1/2-x,y,z
x,-y,z
loop_
_atom_site_type_symbol
_atom_site_label
_atom_site_fract_x
_atom_site_fract_y
_atom_site_fract_z
Si Si1 0.093822 0.833026 0.549189
Si Si2 0.594568 0.165030 0.648934
Si Si3 0.908734 0.659007 0.754248
Si Si4 0.989996 0.332313 0.871193
Si Si5 0.750000 0.332058 0.067720
Si Si6 0.250000 0.668053 0.055109
O O1 0.250000 0.774138 0.547915
O O2 0.000000 0.773662 0.500000
O O3 0.013668 0.786203 0.603566
O O4 0.101531 0.000000 0.544838
O O5 0.750000 0.203545 0.631781
O O6 0.549860 0.243988 0.703697
O O7 0.583512 0.000000 0.659875
O O8 0.750000 0.660670 0.764818
O O9 0.958356 0.500000 0.742017
O O10 0.977005 0.722509 0.808976
O O11 0.981072 0.500000 0.869224
O O12 0.125542 0.274249 0.897708
O O13 0.876735 0.272824 0.911655
O O14 0.750000 0.500000 0.064849
O O15 0.750000 0.270292 0.006362
O O16 0.250000 0.500000 0.052113
#
# Coordination Sequence:
#
# PCOD8214848 Si02
#       6
#     8   8   8   8   4   4
#     4   9  16  27  45  69  95 120 145 177 220 262
#     4   9  17  29  46  68  91 114 146 185 217 250
#     4   9  16  28  45  62  85 119 152 178 212 262
#     4   9  15  24  36  53  78 109 141 173 214 261
#     4   9  16  22  32  54  81 105 134 177 222 258
#     4   9  14  22  36  52  75 107 140 173 214 264
#
# _framework density 17.406499
#
# number of rings (size 3 to 8) (size 9 to 14) (size 15 to 20)
#    0.000    3.000    1.000    1.200    0.000    4.800 
#    1.800    0.000    0.000    0.600    0.000    0.000 
#    0.000    4.800    0.000    0.000    0.000    0.000 
#
# Total GULP energy -495683.631904 kJ/mol
# GULP energy per Si atom -12392.090798 kJ/mol
# Density = 1.736688 g / cm^3
# Si number density = 17.406499 Si / 1000 Ang^3
#
#
#
# Elastic Constant Matrix: (Units=GPa)
#
#
# Indices 1 2 3 4 5 6 
#
# 1 145.2743 16.1444 96.3027 0.0000 0.0000 0.0000
# 2 16.1444 16.2536 30.8804 0.0000 0.0000 0.0000
# 3 96.3027 30.8804 187.8296 0.0000 0.0000 0.0000
# 4 0.0000 0.0000 0.0000 -7.4513 0.0000 0.0000
# 5 0.0000 0.0000 0.0000 0.0000 31.6495 0.0000
# 6 0.0000 0.0000 0.0000 0.0000 0.0000 5.7327
#
#
#
# Elastic Compliance Matrix: (Units=1/GPa)
#
#
# Indices 1 2 3 4 5 6 
#
# 1 0.010429 -0.000291 -0.005299 0.000000 0.000000 0.000000
# 2 -0.000291 0.089480 -0.014562 0.000000 0.000000 0.000000
# 3 -0.005299 -0.014562 0.010435 0.000000 0.000000 0.000000
# 4 0.000000 0.000000 0.000000 -0.134205 0.000000 0.000000
# 5 0.000000 0.000000 0.000000 0.000000 0.031596 0.000000
# 6 0.000000 0.000000 0.000000 0.000000 0.000000 0.174439
#
#
# Mechanical properties :
#
#
# Convention : Reuss Voigt Hill
#
# Bulk Modulus (GPa) = 14.27754 70.66805 42.47280
# Shear Modulus (GPa) = 20.33976 19.72152 20.03064
#
# Velocity S-wave (km/s) = 3.42206 3.36965 3.39596
# Velocity P-wave (km/s) = 4.88203 7.47169 6.31112
#
# Compressibility (1/GPa) = 0.07004009
#
# Stress axis : x y z
#
# Youngs Moduli (GPa) = 95.88995 11.17565 95.83143
#
# Poissons Ratio (x) = 0.00325 0.50782
# Poissons Ratio (y) = 0.02788 1.39550
# Poissons Ratio (z) = 0.50813 0.16274
#
# Static dielectric constant tensor:
#      x y z
#    x 3.231840 0.000000 0.000000 
#    y 0.000000 2.598190 0.000000 
#    z 0.000000 0.000000 3.435800 
# 
# 
# High freq. dielectric constant tensor:
#      x y z
#    x 1.674610 0.000000 0.000000 
#    y 0.000000 1.593730 0.000000 
#    z 0.000000 0.000000 1.690190 
# 
# From -- ./inp_files/35991.got.cif
#   From: 2010.03.12/outbox.cif.g09.slc.cpg/sg51_18_cif.got.tgz:35991.got - 2010.04.16 13:43:02.
