data_PCOD8214714
_publ_section_title
;
Structure prediction by ZEFSAII (Michael W. Deem and Ramdas Pophale) SiO2 
 PCOD8214714
Probable space group: P M M A
;
_chemical_formula_sum "Si O2"
_cell_formula_units_Z 48
_cell_length_a 9.784312
_cell_length_b 9.832240
_cell_length_c 30.855409
_cell_angle_alpha 90.000000
_cell_angle_beta 90.000000
_cell_angle_gamma 90.000000
_cell_volume 2968.342918
_symmetry_space_group_name_H-M "P M M A"
_symmetry_group_IT_number 51
_symmetry_cell_setting 'orthorhombic'
loop_
_space_group_symop_operation_xyz
x,y,z
1/2-x,-y,z
1/2+x,-y,-z
-x,y,-z
-x,-y,-z
1/2+x,y,-z
1/2-x,y,z
x,-y,z
loop_
_atom_site_type_symbol
_atom_site_label
_atom_site_fract_x
_atom_site_fract_y
_atom_site_fract_z
Si Si1 0.403045 0.338477 0.132882
Si Si2 0.412182 0.152138 0.617141
Si Si3 0.090549 0.341484 0.789725
Si Si4 0.591443 0.657513 0.459256
Si Si5 0.912270 0.152360 0.286912
Si Si6 0.596633 0.661810 0.963020
O O1 0.250000 0.285702 0.143701
O O2 0.403277 0.500000 0.132978
O O3 0.509795 0.284632 0.168477
O O4 0.448127 0.287188 0.084963
O O5 0.250000 0.156944 0.617934
O O6 0.466606 0.257964 0.581548
O O7 0.467364 0.192168 0.665094
O O8 0.462045 0.000000 0.605043
O O9 0.250000 0.313582 0.798021
O O10 0.061842 0.500000 0.781194
O O11 0.032909 0.259913 0.748206
O O12 0.500000 0.700336 0.500000
O O13 0.750000 0.691033 0.469420
O O14 0.572071 0.500000 0.447699
O O15 0.750000 0.156864 0.287489
O O16 0.961927 0.000000 0.274787
O O17 0.750000 0.710924 0.972877
O O18 0.588513 0.500000 0.964459
O O19 0.500000 0.726424 0.000000
#
# Coordination Sequence:
#
# PCOD8214714 Si02
#       6
#     8   8   8   8   8   8
#     4   8  14  24  35  48  72 105 133 156 190 237
#     4   8  14  25  41  60  80 103 132 163 195 233
#     4   9  16  24  37  59  80  97 125 164 196 223
#     4   9  17  28  42  61  84 108 133 162 196 232
#     4   8  14  25  40  58  81 105 127 158 201 239
#     4   8  13  20  30  45  66  95 129 159 188 226
#
# _framework density 16.170636999999999
#
# number of rings (size 3 to 8) (size 9 to 14) (size 15 to 20)
#    0.000    3.667    0.000    2.000    0.000    1.667 
#    0.000    6.667    0.000    1.500    0.000    7.000 
#    0.000    0.667    0.000    1.500    0.000    3.000 
#
# Total GULP energy -594778.420492 kJ/mol
# GULP energy per Si atom -12391.217094 kJ/mol
# Density = 1.613383 g / cm^3
# Si number density = 16.170637 Si / 1000 Ang^3
#
#
#
# Elastic Constant Matrix: (Units=GPa)
#
#
# Indices 1 2 3 4 5 6 
#
# 1 48.3404 26.5623 62.5938 0.0000 0.0000 0.0000
# 2 26.5623 49.3388 65.6947 0.0000 0.0000 0.0000
# 3 62.5938 65.6947 174.3144 0.0000 0.0000 0.0000
# 4 0.0000 0.0000 0.0000 6.9683 0.0000 0.0000
# 5 0.0000 0.0000 0.0000 0.0000 25.0811 0.0000
# 6 0.0000 0.0000 0.0000 0.0000 0.0000 7.2604
#
#
#
# Elastic Compliance Matrix: (Units=1/GPa)
#
#
# Indices 1 2 3 4 5 6 
#
# 1 0.039209 -0.004741 -0.012293 0.000000 0.000000 0.000000
# 2 -0.004741 0.041257 -0.013846 0.000000 0.000000 0.000000
# 3 -0.012293 -0.013846 0.015369 0.000000 0.000000 0.000000
# 4 0.000000 0.000000 0.000000 0.143507 0.000000 0.000000
# 5 0.000000 0.000000 0.000000 0.000000 0.039871 0.000000
# 6 0.000000 0.000000 0.000000 0.000000 0.000000 0.137733
#
#
# Mechanical properties :
#
#
# Convention : Reuss Voigt Hill
#
# Bulk Modulus (GPa) = 29.34703 64.63281 46.98992
# Shear Modulus (GPa) = 10.20278 15.67148 12.93713
#
# Velocity S-wave (km/s) = 2.51459 3.11647 2.83156
# Velocity P-wave (km/s) = 5.15932 7.28051 6.30969
#
# Compressibility (1/GPa) = 0.03407500
#
# Stress axis : x y z
#
# Youngs Moduli (GPa) = 25.50441 24.23852 65.06571
#
# Poissons Ratio (x) = 0.11492 0.79982
# Poissons Ratio (y) = 0.12092 0.90091
# Poissons Ratio (z) = 0.31351 0.33561
#
# Static dielectric constant tensor:
#      x y z
#    x 2.860330 0.000000 0.000000 
#    y 0.000000 2.825440 0.000000 
#    z 0.000000 0.000000 3.548950 
# 
# 
# High freq. dielectric constant tensor:
#      x y z
#    x 1.585400 0.000000 0.000000 
#    y 0.000000 1.583340 0.000000 
#    z 0.000000 0.000000 1.635010 
# 
# From -- ./inp_files/35294.got.cif
#   From: 2010.03.12/outbox.cif.g09.slc.cpg/sg51_18_cif.got.tgz:35294.got - 2010.04.16 13:43:02.
