data_PCOD8214540
_publ_section_title
;
Structure prediction by ZEFSAII (Michael W. Deem and Ramdas Pophale) SiO2 
 PCOD8214540
Probable space group: P M M A
;
_chemical_formula_sum "Si O2"
_cell_formula_units_Z 48
_cell_length_a 30.100935
_cell_length_b 8.761707
_cell_length_c 10.078676
_cell_angle_alpha 90.000000
_cell_angle_beta 90.000000
_cell_angle_gamma 90.000000
_cell_volume 2658.105389
_symmetry_space_group_name_H-M "P M M A"
_symmetry_group_IT_number 51
_symmetry_cell_setting 'orthorhombic'
loop_
_space_group_symop_operation_xyz
x,y,z
1/2-x,-y,z
1/2+x,-y,-z
-x,y,-z
-x,-y,-z
1/2+x,y,-z
1/2-x,y,z
x,-y,z
loop_
_atom_site_type_symbol
_atom_site_label
_atom_site_fract_x
_atom_site_fract_y
_atom_site_fract_z
Si Si1 0.037952 0.181404 0.900794
Si Si2 0.631454 0.678978 0.110296
Si Si3 0.299149 0.818691 0.387199
Si Si4 0.198039 0.823843 0.088852
Si Si5 0.365964 0.180511 0.607783
Si Si6 0.534210 0.820258 0.395496
O O1 0.085382 0.249654 0.942142
O O2 0.024729 0.239070 0.753448
O O3 0.042646 0.000000 0.905888
O O4 0.000000 0.241002 0.000000
O O5 0.625322 0.500000 0.121923
O O6 0.645923 0.744097 0.252608
O O7 0.670304 0.717277 0.008049
O O8 0.250000 0.755019 0.420651
O O9 0.313167 0.770270 0.238845
O O10 0.333525 0.752423 0.494808
O O11 0.298428 0.000000 0.393826
O O12 0.250000 0.801061 0.059220
O O13 0.184506 0.000000 0.067339
O O14 0.415811 0.223358 0.562749
O O15 0.360595 0.000000 0.625607
O O16 0.500000 0.743427 0.500000
O O17 0.527347 0.000000 0.397016
#
# Coordination Sequence:
#
# PCOD8214540 Si02
#       6
#     8   8   8   8   8   8
#     4   9  18  33  53  74  96 126 167 212 253 294
#     4  11  22  34  49  72 106 142 172 204 245 299
#     4   8  15  29  51  77  98 119 157 210 259 297
#     4   9  18  34  55  77 101 130 168 214 258 300
#     4   9  17  31  51  73  98 128 164 206 248 293
#     4   8  14  25  43  69  95 117 148 194 245 289
#
# _framework density 18.057974999999999
#
# number of rings (size 3 to 8) (size 9 to 14) (size 15 to 20)
#    0.000    3.000    0.000    3.500    0.000    2.667 
#    0.000    7.500    0.000    9.000    0.000    0.000 
#    0.000    0.000    0.000    0.000    0.000    0.000 
#
# Total GULP energy -595055.020840 kJ/mol
# GULP energy per Si atom -12396.979601 kJ/mol
# Density = 1.801687 g / cm^3
# Si number density = 18.057975 Si / 1000 Ang^3
#
#
#
# Elastic Constant Matrix: (Units=GPa)
#
#
# Indices 1 2 3 4 5 6 
#
# 1 115.5998 28.4138 87.4763 0.0000 0.0000 0.0000
# 2 28.4138 35.2320 32.6164 0.0000 0.0000 0.0000
# 3 87.4763 32.6164 112.6745 0.0000 0.0000 0.0000
# 4 0.0000 0.0000 0.0000 2.9464 0.0000 0.0000
# 5 0.0000 0.0000 0.0000 0.0000 41.9119 0.0000
# 6 0.0000 0.0000 0.0000 0.0000 0.0000 9.7202
#
#
#
# Elastic Compliance Matrix: (Units=1/GPa)
#
#
# Indices 1 2 3 4 5 6 
#
# 1 0.021135 -0.002534 -0.015675 0.000000 0.000000 0.000000
# 2 -0.002534 0.039078 -0.009345 0.000000 0.000000 0.000000
# 3 -0.015675 -0.009345 0.023750 0.000000 0.000000 0.000000
# 4 0.000000 0.000000 0.000000 0.339394 0.000000 0.000000
# 5 0.000000 0.000000 0.000000 0.000000 0.023860 0.000000
# 6 0.000000 0.000000 0.000000 0.000000 0.000000 0.102878
#
#
# Mechanical properties :
#
#
# Convention : Reuss Voigt Hill
#
# Bulk Modulus (GPa) = 34.65566 62.27992 48.46779
# Shear Modulus (GPa) = 8.13247 18.58235 13.35741
#
# Velocity S-wave (km/s) = 2.12446 3.21134 2.72269
# Velocity P-wave (km/s) = 5.02501 6.95083 6.06485
#
# Compressibility (1/GPa) = 0.02885532
#
# Stress axis : x y z
#
# Youngs Moduli (GPa) = 47.31579 25.58991 42.10600
#
# Poissons Ratio (x) = 0.06483 0.66000
# Poissons Ratio (y) = 0.11988 0.39349
# Poissons Ratio (z) = 0.74166 0.23914
#
# Static dielectric constant tensor:
#      x y z
#    x 3.584120 0.000000 0.000000 
#    y 0.000000 2.877510 0.000000 
#    z 0.000000 0.000000 3.595840 
# 
# 
# High freq. dielectric constant tensor:
#      x y z
#    x 1.703960 0.000000 0.000000 
#    y 0.000000 1.654730 0.000000 
#    z 0.000000 0.000000 1.705350 
# 
# From -- ./inp_files/18600.got.cif
#   From: 2010.03.12/outbox.cif.g09.slc.cpg/sg51_10_cif.got.tgz:18600.got - 2010.04.16 13:43:02.
