data_PCOD8214474
_publ_section_title
;
Structure prediction by ZEFSAII (Michael W. Deem and Ramdas Pophale) SiO2 
 PCOD8214474
Probable space group: P M M A
;
_chemical_formula_sum "Si O2"
_cell_formula_units_Z 64
_cell_length_a 9.071444
_cell_length_b 13.803518
_cell_length_c 29.394363
_cell_angle_alpha 90.000000
_cell_angle_beta 90.000000
_cell_angle_gamma 90.000000
_cell_volume 3680.698659
_symmetry_space_group_name_H-M "P M M A"
_symmetry_group_IT_number 51
_symmetry_cell_setting 'orthorhombic'
loop_
_space_group_symop_operation_xyz
x,y,z
1/2-x,-y,z
1/2+x,-y,-z
-x,y,-z
-x,-y,-z
1/2+x,y,-z
1/2-x,y,z
x,-y,z
loop_
_atom_site_type_symbol
_atom_site_label
_atom_site_fract_x
_atom_site_fract_y
_atom_site_fract_z
Si Si1 0.415235 0.385135 0.543678
Si Si2 0.075411 0.887819 0.778811
Si Si3 0.423917 0.795512 0.133449
Si Si4 0.410038 0.604928 0.770095
Si Si5 0.075884 0.388706 0.364652
Si Si6 0.086510 0.605604 0.876312
Si Si7 0.587825 0.886373 0.957806
Si Si8 0.578907 0.251626 0.717563
O O1 0.500000 0.341385 0.500000
O O2 0.250000 0.342412 0.544827
O O3 0.410297 0.500000 0.539734
O O4 0.499945 0.353775 0.589078
O O5 0.250000 0.874599 0.778976
O O6 0.010314 0.828193 0.821395
O O7 0.010832 0.846055 0.730751
O O8 0.029262 0.000000 0.782529
O O9 0.250000 0.801795 0.143712
O O10 0.466964 0.688977 0.114667
O O11 0.476818 0.864996 0.092259
O O12 0.250000 0.645216 0.752504
O O13 0.439750 0.500000 0.747555
O O14 0.401423 0.592905 0.823065
O O15 0.545916 0.674468 0.758553
O O16 0.250000 0.383906 0.371352
O O17 0.029830 0.500000 0.351978
O O18 0.023980 0.309269 0.327373
O O19 0.250000 0.633372 0.895352
O O20 0.037400 0.500000 0.896667
O O21 0.750000 0.840062 0.959997
O O22 0.593077 0.000000 0.964856
O O23 0.500000 0.838754 0.000000
O O24 0.750000 0.225553 0.714903
#
# Coordination Sequence:
#
# PCOD8214474 Si02
#       8
#     8   8   8   8   8   8   8   8
#     4   9  16  26  42  64  91 127 168 207 247 289
#     4  11  24  39  53  70  95 130 169 205 244 296
#     4  11  21  34  55  81 105 129 160 203 248 290
#     4   9  17  29  45  65  93 128 162 197 235 277
#     4   9  18  31  45  66  98 132 166 203 244 293
#     4   9  18  32  49  71 100 132 165 199 234 277
#     4   9  19  35  54  78 106 131 157 194 243 297
#     4  11  21  32  48  70  96 127 163 208 253 291
#
# _framework density 17.388003000000001
#
# number of rings (size 3 to 8) (size 9 to 14) (size 15 to 20)
#    0.000    2.250    1.250    3.000    0.000    6.000 
#    0.000    3.750    0.000    0.375    0.000    0.000 
#    0.000    0.500    0.000    1.625    0.000    2.375 
#
# Total GULP energy -792881.251371 kJ/mol
# GULP energy per Si atom -12388.769553 kJ/mol
# Density = 1.734843 g / cm^3
# Si number density = 17.388003 Si / 1000 Ang^3
#
#
#
# Elastic Constant Matrix: (Units=GPa)
#
#
# Indices 1 2 3 4 5 6 
#
# 1 64.8269 26.1521 38.5560 0.0000 0.0000 0.0000
# 2 26.1521 67.6104 22.9176 0.0000 0.0000 0.0000
# 3 38.5560 22.9176 90.5392 0.0000 0.0000 0.0000
# 4 0.0000 0.0000 0.0000 15.9458 0.0000 0.0000
# 5 0.0000 0.0000 0.0000 0.0000 27.1321 0.0000
# 6 0.0000 0.0000 0.0000 0.0000 0.0000 19.0148
#
#
#
# Elastic Compliance Matrix: (Units=1/GPa)
#
#
# Indices 1 2 3 4 5 6 
#
# 1 0.022696 -0.006019 -0.008142 0.000000 0.000000 0.000000
# 2 -0.006019 0.017775 -0.001936 0.000000 0.000000 0.000000
# 3 -0.008142 -0.001936 0.015002 0.000000 0.000000 0.000000
# 4 0.000000 0.000000 0.000000 0.062713 0.000000 0.000000
# 5 0.000000 0.000000 0.000000 0.000000 0.036857 0.000000
# 6 0.000000 0.000000 0.000000 0.000000 0.000000 0.052591
#
#
# Mechanical properties :
#
#
# Convention : Reuss Voigt Hill
#
# Bulk Modulus (GPa) = 42.95583 44.24756 43.60169
# Shear Modulus (GPa) = 20.19494 21.44191 20.81843
#
# Velocity S-wave (km/s) = 3.41167 3.51542 3.46394
# Velocity P-wave (km/s) = 6.34644 6.47920 6.41316
#
# Compressibility (1/GPa) = 0.02327973
#
# Stress axis : x y z
#
# Youngs Moduli (GPa) = 44.06030 56.25823 66.65757
#
# Poissons Ratio (x) = 0.33864 0.54269
# Poissons Ratio (y) = 0.26521 0.12905
# Poissons Ratio (z) = 0.35872 0.10892
#
# Static dielectric constant tensor:
#      x y z
#    x 3.445420 0.000000 0.000000 
#    y 0.000000 3.323060 0.000000 
#    z 0.000000 0.000000 3.183250 
# 
# 
# High freq. dielectric constant tensor:
#      x y z
#    x 1.677300 0.000000 0.000000 
#    y 0.000000 1.645150 0.000000 
#    z 0.000000 0.000000 1.650870 
# 
# From -- ./inp_files/37524.got.cif
#   From: 2010.03.12/outbox.cif.g09.slc.cpg/sg51_19_cif.got.tgz:37524.got - 2010.04.16 13:43:02.
