data_PCOD8214211
_publ_section_title
;
Structure prediction by ZEFSAII (Michael W. Deem and Ramdas Pophale) SiO2 
 PCOD8214211
Probable space group: P M M A
;
_chemical_formula_sum "Si O2"
_cell_formula_units_Z 64
_cell_length_a 14.027299
_cell_length_b 9.050542
_cell_length_c 26.370660
_cell_angle_alpha 90.000000
_cell_angle_beta 90.000000
_cell_angle_gamma 90.000000
_cell_volume 3347.878141
_symmetry_space_group_name_H-M "P M M A"
_symmetry_group_IT_number 51
_symmetry_cell_setting 'orthorhombic'
loop_
_space_group_symop_operation_xyz
x,y,z
1/2-x,-y,z
1/2+x,-y,-z
-x,y,-z
-x,-y,-z
1/2+x,y,-z
1/2-x,y,z
x,-y,z
loop_
_atom_site_type_symbol
_atom_site_label
_atom_site_fract_x
_atom_site_fract_y
_atom_site_fract_z
Si Si1 0.961439 0.674763 0.078284
Si Si2 0.644913 0.332675 0.728980
Si Si3 0.855522 0.675498 0.978615
Si Si4 0.482475 0.827293 0.557221
Si Si5 0.041987 0.171353 0.730018
Si Si6 0.859530 0.325415 0.363881
Si Si7 0.644175 0.663841 0.609118
Si Si8 0.857347 0.171411 0.166735
O O1 0.957022 0.500000 0.083761
O O2 0.931276 0.744215 0.131217
O O3 0.069293 0.726935 0.064397
O O4 0.890556 0.729972 0.033847
O O5 0.750000 0.283643 0.749447
O O6 0.623691 0.500000 0.746980
O O7 0.561856 0.225723 0.749358
O O8 0.646178 0.323155 0.668937
O O9 0.750000 0.740980 0.967348
O O10 0.852461 0.500000 0.979341
O O11 0.500000 0.773346 0.500000
O O12 0.394133 0.740092 0.582328
O O13 0.578452 0.792377 0.587633
O O14 0.459771 0.000000 0.559896
O O15 0.075948 0.261245 0.681072
O O16 0.116350 0.200391 0.774958
O O17 0.036367 0.000000 0.715208
O O18 0.750000 0.280063 0.355423
O O19 0.873366 0.500000 0.364664
O O20 0.750000 0.687654 0.587020
O O21 0.606442 0.500000 0.593652
O O22 0.750000 0.230597 0.158156
O O23 0.864526 0.000000 0.153441
#
# Coordination Sequence:
#
# PCOD8214211 Si02
#       8
#     8   8   8   8   8   8   8   8
#     4   9  17  30  52  80 106 139 186 233 271 318
#     4   9  18  34  57  84 111 137 169 214 265 315
#     4   8  14  27  49  78 111 143 178 226 282 329
#     4  11  24  39  56  82 114 145 177 217 266 321
#     4  11  22  37  59  84 111 145 184 226 273 327
#     4  11  24  41  61  84 110 143 183 226 273 325
#     4   9  18  34  57  82 107 136 171 214 261 309
#     4  10  22  38  53  74 109 148 181 221 278 332
#
# _framework density 19.116586000000002
#
# number of rings (size 3 to 8) (size 9 to 14) (size 15 to 20)
#    0.000    2.250    1.250    3.375    0.000    5.250 
#    0.000    5.625    0.000    3.375    0.000    0.000 
#    0.000    0.000    0.000    0.000    0.000    0.000 
#
# Total GULP energy -793467.010171 kJ/mol
# GULP energy per Si atom -12397.922034 kJ/mol
# Density = 1.907308 g / cm^3
# Si number density = 19.116586 Si / 1000 Ang^3
#
#
#
# Elastic Constant Matrix: (Units=GPa)
#
#
# Indices 1 2 3 4 5 6 
#
# 1 138.6269 36.9566 31.5137 0.0000 0.0000 0.0000
# 2 36.9566 61.4585 31.2642 0.0000 0.0000 0.0000
# 3 31.5137 31.2642 66.8063 0.0000 0.0000 0.0000
# 4 0.0000 0.0000 0.0000 28.3780 0.0000 0.0000
# 5 0.0000 0.0000 0.0000 0.0000 23.1529 0.0000
# 6 0.0000 0.0000 0.0000 0.0000 0.0000 24.0126
#
#
#
# Elastic Compliance Matrix: (Units=1/GPa)
#
#
# Indices 1 2 3 4 5 6 
#
# 1 0.008832 -0.004189 -0.002206 0.000000 0.000000 0.000000
# 2 -0.004189 0.023342 -0.008948 0.000000 0.000000 0.000000
# 3 -0.002206 -0.008948 0.020197 0.000000 0.000000 0.000000
# 4 0.000000 0.000000 0.000000 0.035239 0.000000 0.000000
# 5 0.000000 0.000000 0.000000 0.000000 0.043191 0.000000
# 6 0.000000 0.000000 0.000000 0.000000 0.000000 0.041645
#
#
# Mechanical properties :
#
#
# Convention : Reuss Voigt Hill
#
# Bulk Modulus (GPa) = 46.11354 51.81787 48.96571
# Shear Modulus (GPa) = 23.76911 26.25250 25.01080
#
# Velocity S-wave (km/s) = 3.52998 3.70980 3.62101
# Velocity P-wave (km/s) = 6.38662 6.74650 6.56903
#
# Compressibility (1/GPa) = 0.02168560
#
# Stress axis : x y z
#
# Youngs Moduli (GPa) = 113.22847 42.84207 49.51349
#
# Poissons Ratio (x) = 0.17945 0.10922
# Poissons Ratio (y) = 0.47427 0.44303
# Poissons Ratio (z) = 0.24977 0.38333
#
# Static dielectric constant tensor:
#      x y z
#    x 4.338010 0.000000 0.000000 
#    y 0.000000 3.339010 0.000000 
#    z 0.000000 0.000000 3.318900 
# 
# 
# High freq. dielectric constant tensor:
#      x y z
#    x 1.759580 0.000000 0.000000 
#    y 0.000000 1.725650 0.000000 
#    z 0.000000 0.000000 1.723840 
# 
# From -- ./inp_files/35667.got.cif
#   From: 2010.03.12/outbox.cif.g09.slc.cpg/sg51_18_cif.got.tgz:35667.got - 2010.04.16 13:43:02.
