data_PCOD8214815
_publ_section_title
;
Structure prediction by ZEFSAII (Michael W. Deem and Ramdas Pophale) SiO2 
 PCOD8214815
Probable space group: P M M A
;
_chemical_formula_sum "Si O2"
_cell_formula_units_Z 40
_cell_length_a 9.136704
_cell_length_b 9.910726
_cell_length_c 25.753408
_cell_angle_alpha 90.000000
_cell_angle_beta 90.000000
_cell_angle_gamma 90.000000
_cell_volume 2332.006374
_symmetry_space_group_name_H-M "P M M A"
_symmetry_group_IT_number 51
_symmetry_cell_setting 'orthorhombic'
loop_
_space_group_symop_operation_xyz
x,y,z
1/2-x,-y,z
1/2+x,-y,-z
-x,y,-z
-x,-y,-z
1/2+x,y,-z
1/2-x,y,z
x,-y,z
loop_
_atom_site_type_symbol
_atom_site_label
_atom_site_fract_x
_atom_site_fract_y
_atom_site_fract_z
Si Si1 0.584990 0.160535 0.549931
Si Si2 0.077938 0.155644 0.652982
Si Si3 0.076125 0.651097 0.742995
Si Si4 0.421968 0.154782 0.947584
Si Si5 0.423887 0.348768 0.858232
O O1 0.500000 0.219546 0.500000
O O2 0.750000 0.217369 0.549938
O O3 0.502854 0.209172 0.601687
O O4 0.585504 0.000000 0.547437
O O5 0.250000 0.176787 0.644311
O O6 0.015689 0.242309 0.701176
O O7 0.040901 0.000000 0.664566
O O8 0.250000 0.656105 0.743208
O O9 0.023081 0.500000 0.728414
O O10 0.018154 0.690072 0.800605
O O11 0.250000 0.176725 0.954973
O O12 0.486335 0.243973 0.900393
O O13 0.460029 0.000000 0.934894
O O14 0.500000 0.203080 0.000000
O O15 0.250000 0.341897 0.858124
O O16 0.475930 0.500000 0.872710
#
# Coordination Sequence:
#
# PCOD8214815 Si02
#       5
#     8   8   8   8   8
#     4   9  16  26  41  61  86 114 141 171 208 247
#     4   9  16  25  40  64  88 107 133 170 207 244
#     4   8  14  25  41  61  85 111 137 168 208 249
#     4   9  17  28  42  61  85 111 138 170 209 250
#     4   8  14  25  41  61  83 107 138 174 208 243
#
# _framework density 17.152611
#
# number of rings (size 3 to 8) (size 9 to 14) (size 15 to 20)
#    0.000    3.400    0.000    1.800    0.000    3.600 
#    0.000    4.000    0.000    2.400    0.000    8.400 
#    0.000    0.000    0.000    0.000    0.000    0.000 
#
# Total GULP energy -495799.591301 kJ/mol
# GULP energy per Si atom -12394.989783 kJ/mol
# Density = 1.711357 g / cm^3
# Si number density = 17.152611 Si / 1000 Ang^3
#
#
#
# Elastic Constant Matrix: (Units=GPa)
#
#
# Indices 1 2 3 4 5 6 
#
# 1 39.5236 24.1564 42.9423 0.0000 0.0000 0.0000
# 2 24.1564 79.3735 90.6969 0.0000 0.0000 0.0000
# 3 42.9423 90.6969 187.1025 0.0000 0.0000 0.0000
# 4 0.0000 0.0000 0.0000 18.2261 0.0000 0.0000
# 5 0.0000 0.0000 0.0000 0.0000 23.8805 0.0000
# 6 0.0000 0.0000 0.0000 0.0000 0.0000 8.6754
#
#
#
# Elastic Compliance Matrix: (Units=1/GPa)
#
#
# Indices 1 2 3 4 5 6 
#
# 1 0.034068 -0.003214 -0.006261 0.000000 0.000000 0.000000
# 2 -0.003214 0.028545 -0.013099 0.000000 0.000000 0.000000
# 3 -0.006261 -0.013099 0.013132 0.000000 0.000000 0.000000
# 4 0.000000 0.000000 0.000000 0.054866 0.000000 0.000000
# 5 0.000000 0.000000 0.000000 0.000000 0.041875 0.000000
# 6 0.000000 0.000000 0.000000 0.000000 0.000000 0.115268
#
#
# Mechanical properties :
#
#
# Convention : Reuss Voigt Hill
#
# Bulk Modulus (GPa) = 32.68411 69.06564 50.87487
# Shear Modulus (GPa) = 14.57293 20.03667 17.30480
#
# Velocity S-wave (km/s) = 2.91796 3.42152 3.17972
# Velocity P-wave (km/s) = 5.51805 7.48076 6.57308
#
# Compressibility (1/GPa) = 0.03059591
#
# Stress axis : x y z
#
# Youngs Moduli (GPa) = 29.35271 35.03259 76.15272
#
# Poissons Ratio (x) = 0.11259 0.47681
# Poissons Ratio (y) = 0.09434 0.99755
# Poissons Ratio (z) = 0.18378 0.45890
#
# Static dielectric constant tensor:
#      x y z
#    x 2.842400 0.000000 0.000000 
#    y 0.000000 3.140790 0.000000 
#    z 0.000000 0.000000 3.572090 
# 
# 
# High freq. dielectric constant tensor:
#      x y z
#    x 1.618920 0.000000 0.000000 
#    y 0.000000 1.637890 0.000000 
#    z 0.000000 0.000000 1.675450 
# 
# From -- ./inp_files/27050.got.cif
#   From: 2010.03.12/outbox.cif.g09.slc.cpg/sg51_14_cif.got.tgz:27050.got - 2010.04.16 13:43:02.
