data_PCOD8214681
_publ_section_title
;
Structure prediction by ZEFSAII (Michael W. Deem and Ramdas Pophale) SiO2 
 PCOD8214681
Probable space group: P M M A
;
_chemical_formula_sum "Si O2"
_cell_formula_units_Z 64
_cell_length_a 18.430664
_cell_length_b 9.350062
_cell_length_c 21.066182
_cell_angle_alpha 90.000000
_cell_angle_beta 90.000000
_cell_angle_gamma 90.000000
_cell_volume 3630.289875
_symmetry_space_group_name_H-M "P M M A"
_symmetry_group_IT_number 51
_symmetry_cell_setting 'orthorhombic'
loop_
_space_group_symop_operation_xyz
x,y,z
1/2-x,-y,z
1/2+x,-y,-z
-x,y,-z
-x,-y,-z
1/2+x,y,-z
1/2-x,y,z
x,-y,z
loop_
_atom_site_type_symbol
_atom_site_label
_atom_site_fract_x
_atom_site_fract_y
_atom_site_fract_z
Si Si1 0.163111 0.839004 0.015337
Si Si2 0.581841 0.670110 0.499238
Si Si3 0.665161 0.334151 0.623313
Si Si4 0.336334 0.161799 0.254199
Si Si5 0.670468 0.830159 0.120932
Si Si6 0.836767 0.160563 0.256653
Si Si7 0.333928 0.667615 0.623213
Si Si8 0.836577 0.338321 0.865835
O O1 0.250000 0.836678 0.012208
O O2 0.133657 0.732887 0.069421
O O3 0.136921 0.000000 0.031559
O O4 0.131394 0.788323 0.945979
O O5 0.500000 0.729095 0.500000
O O6 0.583700 0.500000 0.497853
O O7 0.623128 0.724388 0.561822
O O8 0.622210 0.729475 0.436828
O O9 0.750000 0.311433 0.610702
O O10 0.647922 0.500000 0.637292
O O11 0.636849 0.242302 0.682689
O O12 0.250000 0.160556 0.252128
O O13 0.366849 0.247259 0.193420
O O14 0.366832 0.000000 0.253415
O O15 0.750000 0.758471 0.120202
O O16 0.631588 0.785218 0.187668
O O17 0.678970 0.000000 0.122095
O O18 0.750000 0.165469 0.252567
O O19 0.865590 0.260948 0.312959
O O20 0.863518 0.000000 0.271194
O O21 0.250000 0.707054 0.612637
O O22 0.345474 0.500000 0.630891
O O23 0.750000 0.337171 0.865276
O O24 0.866116 0.500000 0.861260
#
# Coordination Sequence:
#
# PCOD8214681 Si02
#       8
#     8   8   8   8   8   8   8   8
#     4   8  12  18  28  41  60  91 129 163 194 230
#     4   9  17  29  45  63  82 106 134 161 194 242
#     4   9  16  27  44  63  80 100 130 168 204 235
#     4   9  16  25  37  53  73  98 129 164 200 238
#     4   7  10  17  29  44  63  91 128 164 194 229
#     4   8  13  22  36  53  73  99 132 167 201 238
#     4   9  16  26  41  61  82 103 131 168 204 235
#     4   9  15  21  29  44  68  97 129 164 199 234
#
# _framework density 17.629446000000002
#
# number of rings (size 3 to 8) (size 9 to 14) (size 15 to 20)
#    0.000    3.500    0.000    2.625    0.000    4.500 
#    0.000    1.250    0.000    8.250    0.000    0.000 
#    0.000    0.000    0.000    1.125    0.000   24.750 
#
# Total GULP energy -792926.081970 kJ/mol
# GULP energy per Si atom -12389.470031 kJ/mol
# Density = 1.758932 g / cm^3
# Si number density = 17.629446 Si / 1000 Ang^3
#
#
#
# Elastic Constant Matrix: (Units=GPa)
#
#
# Indices 1 2 3 4 5 6 
#
# 1 26.2021 17.0239 35.6864 0.0000 0.0000 0.0000
# 2 17.0239 81.7342 77.2188 0.0000 0.0000 0.0000
# 3 35.6864 77.2188 216.4267 0.0000 0.0000 0.0000
# 4 0.0000 0.0000 0.0000 33.4466 0.0000 0.0000
# 5 0.0000 0.0000 0.0000 0.0000 1.0686 0.0000
# 6 0.0000 0.0000 0.0000 0.0000 0.0000 4.4299
#
#
#
# Elastic Compliance Matrix: (Units=1/GPa)
#
#
# Indices 1 2 3 4 5 6 
#
# 1 0.050055 -0.003964 -0.006839 0.000000 0.000000 0.000000
# 2 -0.003964 0.018770 -0.006043 0.000000 0.000000 0.000000
# 3 -0.006839 -0.006043 0.007904 0.000000 0.000000 0.000000
# 4 0.000000 0.000000 0.000000 0.029898 0.000000 0.000000
# 5 0.000000 0.000000 0.000000 0.000000 0.935815 0.000000
# 6 0.000000 0.000000 0.000000 0.000000 0.000000 0.225738
#
#
# Mechanical properties :
#
#
# Convention : Reuss Voigt Hill
#
# Bulk Modulus (GPa) = 23.23634 64.91346 44.07490
# Shear Modulus (GPa) = 3.79876 20.75129 12.27502
#
# Velocity S-wave (km/s) = 1.46951 3.43458 2.64157
# Velocity P-wave (km/s) = 4.01102 7.25462 5.86165
#
# Compressibility (1/GPa) = 0.04303604
#
# Stress axis : x y z
#
# Youngs Moduli (GPa) = 19.97793 53.27699 126.51266
#
# Poissons Ratio (x) = 0.21121 0.86524
# Poissons Ratio (y) = 0.07920 0.76454
# Poissons Ratio (z) = 0.13663 0.32196
#
# Static dielectric constant tensor:
#      x y z
#    x 2.597770 0.000000 0.000000 
#    y 0.000000 3.102430 0.000000 
#    z 0.000000 0.000000 3.822000 
# 
# 
# High freq. dielectric constant tensor:
#      x y z
#    x 1.599000 0.000000 0.000000 
#    y 0.000000 1.654070 0.000000 
#    z 0.000000 0.000000 1.710240 
# 
# From -- ./inp_files/34157.got.cif
#   From: 2010.03.12/outbox.cif.g09.slc.cpg/sg51_18_cif.got.tgz:34157.got - 2010.04.16 13:43:02.
