data_PCOD8214514
_publ_section_title
;
Structure prediction by ZEFSAII (Michael W. Deem and Ramdas Pophale) SiO2 
 PCOD8214514
Probable space group: P M M A
;
_chemical_formula_sum "Si O2"
_cell_formula_units_Z 48
_cell_length_a 28.316965
_cell_length_b 8.391944
_cell_length_c 9.984409
_cell_angle_alpha 90.000000
_cell_angle_beta 90.000000
_cell_angle_gamma 90.000000
_cell_volume 2372.638888
_symmetry_space_group_name_H-M "P M M A"
_symmetry_group_IT_number 51
_symmetry_cell_setting 'orthorhombic'
loop_
_space_group_symop_operation_xyz
x,y,z
1/2-x,-y,z
1/2+x,-y,-z
-x,y,-z
-x,-y,-z
1/2+x,y,-z
1/2-x,y,z
x,-y,z
loop_
_atom_site_type_symbol
_atom_site_label
_atom_site_fract_x
_atom_site_fract_y
_atom_site_fract_z
Si Si1 0.348826 0.814189 0.494655
Si Si2 0.750000 0.188560 0.612512
Si Si3 0.604739 0.685409 0.254651
Si Si4 0.404488 0.315239 0.255264
Si Si5 0.750000 0.810942 0.911516
Si Si6 0.351897 0.184806 0.006202
Si Si7 0.996084 0.311326 0.350383
O O1 0.295869 0.752500 0.467455
O O2 0.360010 0.782015 0.649556
O O3 0.384245 0.712427 0.403618
O O4 0.354247 0.000000 0.460489
O O5 0.750000 0.262780 0.761957
O O6 0.750000 0.000000 0.622660
O O7 0.608129 0.500000 0.289012
O O8 0.551401 0.749117 0.277451
O O9 0.619689 0.713868 0.102213
O O10 0.399675 0.500000 0.215645
O O11 0.376097 0.208540 0.150084
O O12 0.459222 0.259709 0.259565
O O13 0.797389 0.754824 0.988344
O O14 0.750000 0.000000 0.899320
O O15 0.354008 0.000000 0.967552
O O16 0.996063 0.500000 0.363342
O O17 0.000000 0.236829 0.500000
#
# Coordination Sequence:
#
# PCOD8214514 Si02
#       7
#     8   4   8   8   4   8   8
#     4  11  21  37  61  89 118 152 195 242 291 346
#     4   9  18  35  60  87 115 153 196 234 289 362
#     4  11  23  41  61  86 121 157 197 243 294 351
#     4  11  21  37  62  90 117 153 199 242 289 346
#     4   9  18  37  62  83 113 161 198 228 287 366
#     4  11  23  41  62  87 120 157 200 244 294 352
#     4   9  18  36  61  85 115 159 198 231 289 366
#
# _framework density 20.230640000000001
#
# number of rings (size 3 to 8) (size 9 to 14) (size 15 to 20)
#    0.000    1.667    3.333    2.000    0.000    1.333 
#    0.000   15.000    0.000    0.000    0.000    0.000 
#    0.000    0.000    0.000    0.000    0.000    0.000 
#
# Total GULP energy -595320.777629 kJ/mol
# GULP energy per Si atom -12402.516201 kJ/mol
# Density = 2.018459 g / cm^3
# Si number density = 20.230640 Si / 1000 Ang^3
#
#
#
# Elastic Constant Matrix: (Units=GPa)
#
#
# Indices 1 2 3 4 5 6 
#
# 1 165.5192 32.4089 45.2360 0.0000 0.0000 0.0000
# 2 32.4089 35.8867 10.2478 0.0000 0.0000 0.0000
# 3 45.2360 10.2478 83.9285 0.0000 0.0000 0.0000
# 4 0.0000 0.0000 0.0000 33.3383 0.0000 0.0000
# 5 0.0000 0.0000 0.0000 0.0000 39.1784 0.0000
# 6 0.0000 0.0000 0.0000 0.0000 0.0000 25.8290
#
#
#
# Elastic Compliance Matrix: (Units=1/GPa)
#
#
# Indices 1 2 3 4 5 6 
#
# 1 0.008315 -0.006454 -0.003693 0.000000 0.000000 0.000000
# 2 -0.006454 0.033882 -0.000658 0.000000 0.000000 0.000000
# 3 -0.003693 -0.000658 0.013986 0.000000 0.000000 0.000000
# 4 0.000000 0.000000 0.000000 0.029996 0.000000 0.000000
# 5 0.000000 0.000000 0.000000 0.000000 0.025524 0.000000
# 6 0.000000 0.000000 0.000000 0.000000 0.000000 0.038716
#
#
# Mechanical properties :
#
#
# Convention : Reuss Voigt Hill
#
# Bulk Modulus (GPa) = 28.92606 51.23553 40.08080
# Shear Modulus (GPa) = 27.23984 32.83192 30.03588
#
# Velocity S-wave (km/s) = 3.67340 4.03287 3.85733
# Velocity P-wave (km/s) = 5.68516 6.86047 6.30028
#
# Compressibility (1/GPa) = 0.03457090
#
# Stress axis : x y z
#
# Youngs Moduli (GPa) = 120.26811 29.51400 71.50013
#
# Poissons Ratio (x) = 0.19049 0.26408
# Poissons Ratio (y) = 0.77624 0.04707
# Poissons Ratio (z) = 0.44420 0.01943
#
# Static dielectric constant tensor:
#      x y z
#    x 4.052630 0.000000 0.000000 
#    y 0.000000 3.270360 0.000000 
#    z 0.000000 0.000000 3.440620 
# 
# 
# High freq. dielectric constant tensor:
#      x y z
#    x 1.807550 0.000000 0.000000 
#    y 0.000000 1.763160 0.000000 
#    z 0.000000 0.000000 1.782110 
# 
# From -- ./inp_files/12971.got.cif
#   From: 2010.03.12/outbox.cif.g09.slc.cpg/sg51_7_cif.got.tgz:12971.got - 2010.04.16 13:43:02.
