data_PCOD8214855
_publ_section_title
;
Structure prediction by ZEFSAII (Michael W. Deem and Ramdas Pophale) SiO2 
 PCOD8214855
Probable space group: P M M A
;
_chemical_formula_sum "Si O2"
_cell_formula_units_Z 56
_cell_length_a 19.348941
_cell_length_b 9.517371
_cell_length_c 17.767385
_cell_angle_alpha 90.000000
_cell_angle_beta 90.000000
_cell_angle_gamma 90.000000
_cell_volume 3271.882603
_symmetry_space_group_name_H-M "P M M A"
_symmetry_group_IT_number 51
_symmetry_cell_setting 'orthorhombic'
loop_
_space_group_symop_operation_xyz
x,y,z
1/2-x,-y,z
1/2+x,-y,-z
-x,y,-z
-x,-y,-z
1/2+x,y,-z
1/2-x,y,z
x,-y,z
loop_
_atom_site_type_symbol
_atom_site_label
_atom_site_fract_x
_atom_site_fract_y
_atom_site_fract_z
Si Si1 0.102078 0.341831 0.732032
Si Si2 0.559325 0.658263 0.706827
Si Si3 0.431368 0.667451 0.460339
Si Si4 0.171298 0.833268 0.016561
Si Si5 0.073845 0.164840 0.150460
Si Si6 0.584272 0.164889 0.126483
Si Si7 0.173296 0.332604 0.582823
O O1 0.127298 0.500000 0.750797
O O2 0.117712 0.243627 0.802856
O O3 0.142285 0.276253 0.661052
O O4 0.022592 0.342799 0.710549
O O5 0.588306 0.500000 0.717458
O O6 0.579245 0.721962 0.625081
O O7 0.590630 0.756014 0.771860
O O8 0.500000 0.728223 0.500000
O O9 0.436522 0.500000 0.456929
O O10 0.367980 0.722958 0.510383
O O11 0.250000 0.773046 0.014943
O O12 0.126340 0.779622 0.945824
O O13 0.173540 0.000000 0.015222
O O14 0.131132 0.782220 0.091116
O O15 0.997288 0.201115 0.118459
O O16 0.080108 0.000000 0.166089
O O17 0.594860 0.000000 0.138483
O O18 0.250000 0.273615 0.574435
O O19 0.169950 0.500000 0.584484
#
# Coordination Sequence:
#
# PCOD8214855 Si02
#       7
#     8   8   8   8   8   8   8
#     4   9  16  27  43  65  91 117 144 177 220 268
#     4   9  16  27  46  69  89 113 148 185 220 261
#     4   9  14  24  43  63  83 113 151 183 212 253
#     4   9  17  30  48  67  86 115 154 186 215 260
#     4   9  17  30  48  68  90 114 145 185 225 260
#     4   9  17  29  47  69  90 112 145 186 222 257
#     4   9  16  25  39  62  90 117 147 183 220 259
#
# _framework density 17.115528999999999
#
# number of rings (size 3 to 8) (size 9 to 14) (size 15 to 20)
#    0.000    3.000    1.429    0.429    0.000    2.286 
#    0.000    1.429    0.000    6.857    0.000    0.000 
#    0.000    0.000    0.000    0.000    0.000    0.000 
#
# Total GULP energy -694162.296014 kJ/mol
# GULP energy per Si atom -12395.755286 kJ/mol
# Density = 1.707657 g / cm^3
# Si number density = 17.115529 Si / 1000 Ang^3
#
#
#
# Elastic Constant Matrix: (Units=GPa)
#
#
# Indices 1 2 3 4 5 6 
#
# 1 85.1640 20.3914 76.9600 0.0000 0.0000 0.0000
# 2 20.3914 28.2264 41.1804 0.0000 0.0000 0.0000
# 3 76.9600 41.1804 185.0647 0.0000 0.0000 0.0000
# 4 0.0000 0.0000 0.0000 14.4597 0.0000 0.0000
# 5 0.0000 0.0000 0.0000 0.0000 23.4447 0.0000
# 6 0.0000 0.0000 0.0000 0.0000 0.0000 9.9593
#
#
#
# Elastic Compliance Matrix: (Units=1/GPa)
#
#
# Indices 1 2 3 4 5 6 
#
# 1 0.019011 -0.003257 -0.007181 0.000000 0.000000 0.000000
# 2 -0.003257 0.053016 -0.010442 0.000000 0.000000 0.000000
# 3 -0.007181 -0.010442 0.010713 0.000000 0.000000 0.000000
# 4 0.000000 0.000000 0.000000 0.069158 0.000000 0.000000
# 5 0.000000 0.000000 0.000000 0.000000 0.042654 0.000000
# 6 0.000000 0.000000 0.000000 0.000000 0.000000 0.100408
#
#
# Mechanical properties :
#
#
# Convention : Reuss Voigt Hill
#
# Bulk Modulus (GPa) = 24.40295 63.94654 44.17475
# Shear Modulus (GPa) = 14.27014 20.23429 17.25221
#
# Velocity S-wave (km/s) = 2.89061 3.44207 3.17832
# Velocity P-wave (km/s) = 5.04278 7.29657 6.27174
#
# Compressibility (1/GPa) = 0.04097866
#
# Stress axis : x y z
#
# Youngs Moduli (GPa) = 52.60013 18.86228 93.34062
#
# Poissons Ratio (x) = 0.06144 0.67029
# Poissons Ratio (y) = 0.17134 0.97470
# Poissons Ratio (z) = 0.37773 0.19697
#
# Static dielectric constant tensor:
#      x y z
#    x 3.227960 0.000000 0.000000 
#    y 0.000000 2.805350 0.000000 
#    z 0.000000 0.000000 3.422720 
# 
# 
# High freq. dielectric constant tensor:
#      x y z
#    x 1.648160 0.000000 0.000000 
#    y 0.000000 1.607160 0.000000 
#    z 0.000000 0.000000 1.674890 
# 
# From -- ./inp_files/18247.got.cif
#   From: 2010.03.12/outbox.cif.g09.slc.cpg/sg51_10_cif.got.tgz:18247.got - 2010.04.16 13:43:02.
