data_PCOD8214807
_publ_section_title
;
Structure prediction by ZEFSAII (Michael W. Deem and Ramdas Pophale) SiO2 
 PCOD8214807
Probable space group: P M M A
;
_chemical_formula_sum "Si O2"
_cell_formula_units_Z 56
_cell_length_a 19.721323
_cell_length_b 9.294588
_cell_length_c 17.989762
_cell_angle_alpha 90.000000
_cell_angle_beta 90.000000
_cell_angle_gamma 90.000000
_cell_volume 3297.551656
_symmetry_space_group_name_H-M "P M M A"
_symmetry_group_IT_number 51
_symmetry_cell_setting 'orthorhombic'
loop_
_space_group_symop_operation_xyz
x,y,z
1/2-x,-y,z
1/2+x,-y,-z
-x,y,-z
-x,-y,-z
1/2+x,y,-z
1/2-x,y,z
x,-y,z
loop_
_atom_site_type_symbol
_atom_site_label
_atom_site_fract_x
_atom_site_fract_y
_atom_site_fract_z
Si Si1 0.924751 0.329827 0.081750
Si Si2 0.169399 0.159737 0.363905
Si Si3 0.171472 0.331318 0.788497
Si Si4 0.830606 0.162443 0.356695
Si Si5 0.169040 0.338005 0.502261
Si Si6 0.327788 0.831093 0.198227
Si Si7 0.922698 0.670378 0.915527
O O1 0.922756 0.500000 0.080671
O O2 0.870988 0.270808 0.141574
O O3 0.000588 0.280375 0.103403
O O4 0.904969 0.276463 0.999156
O O5 0.250000 0.153115 0.367337
O O6 0.140933 0.269115 0.425765
O O7 0.147625 0.210759 0.281512
O O8 0.140643 0.000000 0.380575
O O9 0.250000 0.299220 0.805042
O O10 0.159185 0.500000 0.774254
O O11 0.144989 0.246249 0.716541
O O12 0.750000 0.160436 0.359822
O O13 0.859280 0.245495 0.428701
O O14 0.859436 0.000000 0.355860
O O15 0.250000 0.338085 0.502814
O O16 0.140950 0.500000 0.508502
O O17 0.250000 0.785281 0.186478
O O18 0.372235 0.745321 0.140357
O O19 0.336847 0.000000 0.185285
O O20 0.914355 0.500000 0.907891
#
# Coordination Sequence:
#
# PCOD8214807 Si02
#       7
#     8   8   8   8   8   8   8
#     4   8  16  31  48  67  91 117 147 187 230 267
#     4   8  14  25  39  55  81 117 148 175 215 262
#     4   9  16  27  44  64  87 116 149 184 223 266
#     4   9  16  25  37  56  85 117 146 178 218 262
#     4   9  15  22  35  57  84 113 146 181 214 253
#     4   9  18  31  45  65  95 124 149 184 229 269
#     4   9  17  31  50  68  88 117 153 188 222 268
#
# _framework density 16.982296999999999
#
# number of rings (size 3 to 8) (size 9 to 14) (size 15 to 20)
#    0.000    3.286    0.000    2.571    0.000    4.857 
#    0.000    5.714    0.000    1.714    0.000    1.000 
#    0.000    8.000    0.000    0.000    0.000    0.000 
#
# Total GULP energy -694117.220579 kJ/mol
# GULP energy per Si atom -12394.950367 kJ/mol
# Density = 1.694364 g / cm^3
# Si number density = 16.982297 Si / 1000 Ang^3
#
#
#
# Elastic Constant Matrix: (Units=GPa)
#
#
# Indices 1 2 3 4 5 6 
#
# 1 48.4298 34.0131 61.6082 0.0000 0.0000 0.0000
# 2 34.0131 86.7570 77.1606 0.0000 0.0000 0.0000
# 3 61.6082 77.1606 173.1660 0.0000 0.0000 0.0000
# 4 0.0000 0.0000 0.0000 18.0040 0.0000 0.0000
# 5 0.0000 0.0000 0.0000 0.0000 -1.3064 0.0000
# 6 0.0000 0.0000 0.0000 0.0000 0.0000 12.8739
#
#
#
# Elastic Compliance Matrix: (Units=1/GPa)
#
#
# Indices 1 2 3 4 5 6 
#
# 1 0.038927 -0.004877 -0.011676 0.000000 0.000000 0.000000
# 2 -0.004877 0.019704 -0.007045 0.000000 0.000000 0.000000
# 3 -0.011676 -0.007045 0.013068 0.000000 0.000000 0.000000
# 4 0.000000 0.000000 0.000000 0.055543 0.000000 0.000000
# 5 0.000000 0.000000 0.000000 0.000000 -0.765468 0.000000
# 6 0.000000 0.000000 0.000000 0.000000 0.000000 0.077677
#
#
# Mechanical properties :
#
#
# Convention : Reuss Voigt Hill
#
# Bulk Modulus (GPa) = 40.81055 72.65740 56.73398
# Shear Modulus (GPa) = -9.89734 14.95236 2.52751
#
# Velocity S-wave (km/s) = -2.41675 2.97049 1.22129
# Velocity P-wave (km/s) = 4.03681 7.39203 5.95558
#
# Compressibility (1/GPa) = 0.02450347
#
# Stress axis : x y z
#
# Youngs Moduli (GPa) = 25.68912 50.75130 76.52250
#
# Poissons Ratio (x) = 0.24749 0.89350
# Poissons Ratio (y) = 0.12527 0.53909
# Poissons Ratio (z) = 0.29995 0.35754
#
# Static dielectric constant tensor:
#      x y z
#    x 2.821340 0.000000 0.000000 
#    y 0.000000 3.130790 0.000000 
#    z 0.000000 0.000000 3.534880 
# 
# 
# High freq. dielectric constant tensor:
#      x y z
#    x 1.600480 0.000000 0.000000 
#    y 0.000000 1.644100 0.000000 
#    z 0.000000 0.000000 1.670630 
# 
# From -- ./inp_files/30419.got.cif
#   From: 2010.03.12/outbox.cif.g09.slc.cpg/sg51_16_cif.got.tgz:30419.got - 2010.04.16 13:43:02.
