data_PCOD8214593
_publ_section_title
;
Structure prediction by ZEFSAII (Michael W. Deem and Ramdas Pophale) SiO2 
 PCOD8214593
Probable space group: P M M A
;
_chemical_formula_sum "Si O2"
_cell_formula_units_Z 40
_cell_length_a 9.835887
_cell_length_b 9.100678
_cell_length_c 24.118956
_cell_angle_alpha 90.000000
_cell_angle_beta 90.000000
_cell_angle_gamma 90.000000
_cell_volume 2158.965907
_symmetry_space_group_name_H-M "P M M A"
_symmetry_group_IT_number 51
_symmetry_cell_setting 'orthorhombic'
loop_
_space_group_symop_operation_xyz
x,y,z
1/2-x,-y,z
1/2+x,-y,-z
-x,y,-z
-x,-y,-z
1/2+x,y,-z
1/2-x,y,z
x,-y,z
loop_
_atom_site_type_symbol
_atom_site_label
_atom_site_fract_x
_atom_site_fract_y
_atom_site_fract_z
Si Si1 0.092871 0.667252 0.739424
Si Si2 0.404703 0.826152 0.849823
Si Si3 0.505038 0.326225 0.380744
Si Si4 0.750000 0.169017 0.569871
Si Si5 0.906707 0.174828 0.949389
Si Si6 0.750000 0.831259 0.438461
O O1 0.250000 0.692449 0.724943
O O2 0.064510 0.500000 0.756796
O O3 0.045839 0.767965 0.790375
O O4 0.010406 0.711340 0.684602
O O5 0.250000 0.770825 0.863465
O O6 0.514381 0.768749 0.894590
O O7 0.405271 0.000000 0.848318
O O8 0.511000 0.500000 0.390288
O O9 0.372914 0.256231 0.405054
O O10 0.622279 0.251527 0.415016
O O11 0.750000 0.179018 0.504216
O O12 0.750000 0.000000 0.589400
O O13 0.750000 0.235495 0.951781
O O14 0.900451 0.000000 0.950953
O O15 0.000000 0.233121 0.000000
O O16 0.750000 0.000000 0.418742
#
# Coordination Sequence:
#
# PCOD8214593 Si02
#       6
#     8   8   8   4   8   4
#     4   9  18  35  56  78 105 138 180 226 271 321
#     4   9  17  29  48  75 102 132 174 217 262 317
#     4  11  22  39  61  84 110 147 194 235 277 338
#     4  11  25  41  55  83 119 149 180 229 294 345
#     4   9  16  27  45  71 105 140 173 214 263 312
#     4  11  23  39  61  85 115 147 182 231 288 343
#
# _framework density 18.527387000000001
#
# number of rings (size 3 to 8) (size 9 to 14) (size 15 to 20)
#    0.000    2.200    1.000    2.400    0.000    8.000 
#    1.800    0.000    0.000    0.600    0.000    0.000 
#    0.000    0.000    0.000    0.000    0.000    0.000 
#
# Total GULP energy -495858.987198 kJ/mol
# GULP energy per Si atom -12396.474680 kJ/mol
# Density = 1.848522 g / cm^3
# Si number density = 18.527387 Si / 1000 Ang^3
#
#
#
# Elastic Constant Matrix: (Units=GPa)
#
#
# Indices 1 2 3 4 5 6 
#
# 1 151.1046 48.3327 76.0289 0.0000 0.0000 0.0000
# 2 48.3327 61.8772 57.2964 0.0000 0.0000 0.0000
# 3 76.0289 57.2964 127.4299 0.0000 0.0000 0.0000
# 4 0.0000 0.0000 0.0000 -10.4981 0.0000 0.0000
# 5 0.0000 0.0000 0.0000 0.0000 42.4465 0.0000
# 6 0.0000 0.0000 0.0000 0.0000 0.0000 60.9556
#
#
#
# Elastic Compliance Matrix: (Units=1/GPa)
#
#
# Indices 1 2 3 4 5 6 
#
# 1 0.009980 -0.003910 -0.004196 0.000000 0.000000 0.000000
# 2 -0.003910 0.029221 -0.010806 0.000000 0.000000 0.000000
# 3 -0.004196 -0.010806 0.015210 0.000000 0.000000 0.000000
# 4 0.000000 0.000000 0.000000 -0.095256 0.000000 0.000000
# 5 0.000000 0.000000 0.000000 0.000000 0.023559 0.000000
# 6 0.000000 0.000000 0.000000 0.000000 0.000000 0.016405
#
#
# Mechanical properties :
#
#
# Convention : Reuss Voigt Hill
#
# Bulk Modulus (GPa) = 60.28970 78.19195 69.24083
# Shear Modulus (GPa) = 117.72269 29.16438 73.44353
#
# Velocity S-wave (km/s) = 7.97983 3.97183 6.30290
# Velocity P-wave (km/s) = 10.84044 7.95795 9.50905
#
# Compressibility (1/GPa) = 0.01658658
#
# Stress axis : x y z
#
# Youngs Moduli (GPa) = 100.20098 34.22208 65.74647
#
# Poissons Ratio (x) = 0.13379 0.27590
# Poissons Ratio (y) = 0.39174 0.71046
# Poissons Ratio (z) = 0.42049 0.36980
#
# Static dielectric constant tensor:
#      x y z
#    x 3.499860 0.000000 0.000000 
#    y 0.000000 3.307820 0.000000 
#    z 0.000000 0.000000 3.617710 
# 
# 
# High freq. dielectric constant tensor:
#      x y z
#    x 1.720030 0.000000 0.000000 
#    y 0.000000 1.698700 0.000000 
#    z 0.000000 0.000000 1.731090 
# 
# From -- ./inp_files/36033.got.cif
#   From: 2010.03.12/outbox.cif.g09.slc.cpg/sg51_19_cif.got.tgz:36033.got - 2010.04.16 13:43:02.
