data_PCOD8214526
_publ_section_title
;
Structure prediction by ZEFSAII (Michael W. Deem and Ramdas Pophale) SiO2 
 PCOD8214526
Probable space group: P M M A
;
_chemical_formula_sum "Si O2"
_cell_formula_units_Z 32
_cell_length_a 13.413970
_cell_length_b 11.780978
_cell_length_c 10.228184
_cell_angle_alpha 90.000000
_cell_angle_beta 90.000000
_cell_angle_gamma 90.000000
_cell_volume 1616.356700
_symmetry_space_group_name_H-M "P M M A"
_symmetry_group_IT_number 51
_symmetry_cell_setting 'orthorhombic'
loop_
_space_group_symop_operation_xyz
x,y,z
1/2-x,-y,z
1/2+x,-y,-z
-x,y,-z
-x,-y,-z
1/2+x,y,-z
1/2-x,y,z
x,-y,z
loop_
_atom_site_type_symbol
_atom_site_label
_atom_site_fract_x
_atom_site_fract_y
_atom_site_fract_z
Si Si1 0.750000 0.000000 0.138627
Si Si2 0.750000 0.764051 0.015641
Si Si3 0.250000 0.000000 0.438662
Si Si4 0.250000 0.224024 0.290754
Si Si5 0.529785 0.757138 0.641418
Si Si6 0.577007 0.000000 0.346116
Si Si7 0.929735 0.372967 0.123769
O O1 0.851012 0.000000 0.222050
O O2 0.750000 0.103515 0.040477
O O3 0.750000 0.746310 0.861627
O O4 0.657718 0.709497 0.086491
O O5 0.250000 0.095034 0.330536
O O6 0.149088 0.000000 0.526383
O O7 0.147496 0.270296 0.351113
O O8 0.500000 0.711277 0.500000
O O9 0.494522 0.889205 0.656690
O O10 0.480551 0.679136 0.749714
O O11 0.892039 0.500000 0.157047
O O12 0.000000 0.377672 0.000000
#
# Coordination Sequence:
#
# PCOD8214526 Si02
#       7
#     2   4   2   4   8   4   8
#     4  11  23  36  68 102 135 169 226 276 324 406
#     4  12  23  45  67 103 132 180 227 276 333 409
#     4  11  21  40  60 100 137 181 224 256 354 410
#     4  12  24  38  65 101 130 175 227 273 329 412
#     4  12  24  43  68  99 139 175 223 281 342 402
#     4  11  22  39  65  95 140 183 212 275 340 420
#     4  11  25  46  70  95 132 178 228 282 336 392
#
# _framework density 19.797611
#
# number of rings (size 3 to 8) (size 9 to 14) (size 15 to 20)
#    0.000    0.500    7.500    1.875    0.000    1.500 
#    0.000    3.125    0.000    0.000    0.000    0.000 
#    0.000    0.000    0.000    0.000    0.000    0.000 
#
# Total GULP energy -396538.897152 kJ/mol
# GULP energy per Si atom -12391.840536 kJ/mol
# Density = 1.975255 g / cm^3
# Si number density = 19.797611 Si / 1000 Ang^3
#
#
#
# Elastic Constant Matrix: (Units=GPa)
#
#
# Indices 1 2 3 4 5 6 
#
# 1 146.5128 38.5811 58.2509 0.0000 0.0000 0.0000
# 2 38.5811 116.2125 41.8431 0.0000 0.0000 0.0000
# 3 58.2509 41.8431 141.8043 0.0000 0.0000 0.0000
# 4 0.0000 0.0000 0.0000 -9.9287 0.0000 0.0000
# 5 0.0000 0.0000 0.0000 0.0000 15.5349 0.0000
# 6 0.0000 0.0000 0.0000 0.0000 0.0000 95.1608
#
#
#
# Elastic Compliance Matrix: (Units=1/GPa)
#
#
# Indices 1 2 3 4 5 6 
#
# 1 0.008462 -0.001743 -0.002962 0.000000 0.000000 0.000000
# 2 -0.001743 0.009987 -0.002231 0.000000 0.000000 0.000000
# 3 -0.002962 -0.002231 0.008927 0.000000 0.000000 0.000000
# 4 0.000000 0.000000 0.000000 -0.100718 0.000000 0.000000
# 5 0.000000 0.000000 0.000000 0.000000 0.064371 0.000000
# 6 0.000000 0.000000 0.000000 0.000000 0.000000 0.010509
#
#
# Mechanical properties :
#
#
# Convention : Reuss Voigt Hill
#
# Bulk Modulus (GPa) = 74.04919 75.76441 74.90680
# Shear Modulus (GPa) = 251.14073 37.87704 144.50888
#
# Velocity S-wave (km/s) = 11.27517 4.37877 8.55287
# Velocity P-wave (km/s) = 14.38715 7.99484 11.63846
#
# Compressibility (1/GPa) = 0.01350454
#
# Stress axis : x y z
#
# Youngs Moduli (GPa) = 118.17813 100.13224 112.02108
#
# Poissons Ratio (x) = 0.17451 0.33177
# Poissons Ratio (y) = 0.20596 0.24991
# Poissons Ratio (z) = 0.35001 0.22339
#
# Static dielectric constant tensor:
#      x y z
#    x 3.949650 0.000000 0.000000 
#    y 0.000000 3.666300 0.000000 
#    z 0.000000 0.000000 3.713850 
# 
# 
# High freq. dielectric constant tensor:
#      x y z
#    x 1.791420 0.000000 0.000000 
#    y 0.000000 1.763170 0.000000 
#    z 0.000000 0.000000 1.785760 
# 
# From -- ./inp_files/7672.got.cif
#   From: 2010.03.12/outbox.cif.g09.slc.cpg/sg51_4_cif.got.tgz:7672.got - 2010.04.16 13:43:02.
