data_PCOD8214118
_publ_section_title
;
Structure prediction by ZEFSAII (Michael W. Deem and Ramdas Pophale) SiO2 
 PCOD8214118
Probable space group: P M M A
;
_chemical_formula_sum "Si O2"
_cell_formula_units_Z 48
_cell_length_a 8.740086
_cell_length_b 30.043979
_cell_length_c 9.114670
_cell_angle_alpha 90.000000
_cell_angle_beta 90.000000
_cell_angle_gamma 90.000000
_cell_volume 2393.393489
_symmetry_space_group_name_H-M "P M M A"
_symmetry_group_IT_number 51
_symmetry_cell_setting 'orthorhombic'
loop_
_space_group_symop_operation_xyz
x,y,z
1/2-x,-y,z
1/2+x,-y,-z
-x,y,-z
-x,-y,-z
1/2+x,y,-z
1/2-x,y,z
x,-y,z
loop_
_atom_site_type_symbol
_atom_site_label
_atom_site_fract_x
_atom_site_fract_y
_atom_site_fract_z
Si Si1 0.931033 0.625236 0.657769
Si Si2 0.930215 0.049809 0.653398
Si Si3 0.569718 0.131644 0.841849
Si Si4 0.573329 0.209202 0.344137
Si Si5 0.927233 0.297177 0.156023
Si Si6 0.428778 0.551724 0.846022
O O1 0.750000 0.624091 0.644995
O O2 0.000000 0.636496 0.500000
O O3 0.982010 0.662516 0.771749
O O4 0.991545 0.577619 0.713095
O O5 0.750000 0.050924 0.633930
O O6 0.982671 0.083327 0.781450
O O7 0.000000 0.065993 0.500000
O O8 0.987773 0.000000 0.693928
O O9 0.750000 0.135099 0.855699
O O10 0.513234 0.168615 0.730221
O O11 0.500000 0.139928 0.000000
O O12 0.500000 0.219153 0.500000
O O13 0.750000 0.196337 0.362058
O O14 0.550845 0.253201 0.250144
O O15 0.750000 0.310534 0.140474
O O16 0.000000 0.286800 0.000000
O O17 0.250000 0.562599 0.849041
O O18 0.462097 0.500000 0.818685
O O19 0.500000 0.567588 0.000000
#
# Coordination Sequence:
#
# PCOD8214118 Si02
#       6
#     8   8   8   8   8   8
#     4  12  25  41  62  88 121 158 198 245 295 349
#     4   9  19  36  57  82 112 148 191 238 289 345
#     4  11  23  38  58  84 117 154 194 241 291 346
#     4  11  24  41  63  89 119 154 193 239 290 346
#     4  11  24  42  64  90 120 155 195 239 289 345
#     4  10  21  39  63  90 121 158 200 245 294 349
#
# _framework density 20.055206999999999
#
# number of rings (size 3 to 8) (size 9 to 14) (size 15 to 20)
#    0.000    1.333    0.000    5.500    0.000    9.667 
#    0.000    0.000    0.000    0.000    0.000    0.000 
#    0.000    0.000    0.000    0.000    0.000    0.000 
#
# Total GULP energy -595495.875118 kJ/mol
# GULP energy per Si atom -12406.164065 kJ/mol
# Density = 2.000956 g / cm^3
# Si number density = 20.055207 Si / 1000 Ang^3
#
#
#
# Elastic Constant Matrix: (Units=GPa)
#
#
# Indices 1 2 3 4 5 6 
#
# 1 122.5981 52.0411 54.8760 0.0000 0.0000 0.0000
# 2 52.0411 89.8557 41.7887 0.0000 0.0000 0.0000
# 3 54.8760 41.7887 129.9013 0.0000 0.0000 0.0000
# 4 0.0000 0.0000 0.0000 86.5121 0.0000 0.0000
# 5 0.0000 0.0000 0.0000 0.0000 38.2184 0.0000
# 6 0.0000 0.0000 0.0000 0.0000 0.0000 29.6755
#
#
#
# Elastic Compliance Matrix: (Units=1/GPa)
#
#
# Indices 1 2 3 4 5 6 
#
# 1 0.011913 -0.005361 -0.003308 0.000000 0.000000 0.000000
# 2 -0.005361 0.015500 -0.002721 0.000000 0.000000 0.000000
# 3 -0.003308 -0.002721 0.009971 0.000000 0.000000 0.000000
# 4 0.000000 0.000000 0.000000 0.011559 0.000000 0.000000
# 5 0.000000 0.000000 0.000000 0.000000 0.026165 0.000000
# 6 0.000000 0.000000 0.000000 0.000000 0.000000 0.033698
#
#
# Mechanical properties :
#
#
# Convention : Reuss Voigt Hill
#
# Bulk Modulus (GPa) = 68.48042 71.08518 69.78280
# Shear Modulus (GPa) = 36.64221 43.79117 40.21669
#
# Velocity S-wave (km/s) = 4.27906 4.67790 4.48291
# Velocity P-wave (km/s) = 7.65728 8.04355 7.85279
#
# Compressibility (1/GPa) = 0.01460271
#
# Stress axis : x y z
#
# Youngs Moduli (GPa) = 83.94072 64.51787 100.29071
#
# Poissons Ratio (x) = 0.34590 0.33176
# Poissons Ratio (y) = 0.45003 0.27292
# Poissons Ratio (z) = 0.27767 0.17557
#
# Static dielectric constant tensor:
#      x y z
#    x 3.797350 0.000000 0.000000 
#    y 0.000000 3.906460 0.000000 
#    z 0.000000 0.000000 3.584730 
# 
# 
# High freq. dielectric constant tensor:
#      x y z
#    x 1.795950 0.000000 0.000000 
#    y 0.000000 1.797860 0.000000 
#    z 0.000000 0.000000 1.790410 
# 
# From -- ./inp_files/6001.got.cif
#   From: 2010.03.12/outbox.cif.g09.slc.cpg/sg51_4_cif.got.tgz:6001.got - 2010.04.16 13:43:02.
