data_PCOD8214831
_publ_section_title
;
Structure prediction by ZEFSAII (Michael W. Deem and Ramdas Pophale) SiO2 
 PCOD8214831
Probable space group: P M M A
;
_chemical_formula_sum "Si O2"
_cell_formula_units_Z 48
_cell_length_a 9.379474
_cell_length_b 9.658965
_cell_length_c 31.028975
_cell_angle_alpha 90.000000
_cell_angle_beta 90.000000
_cell_angle_gamma 90.000000
_cell_volume 2811.101363
_symmetry_space_group_name_H-M "P M M A"
_symmetry_group_IT_number 51
_symmetry_cell_setting 'orthorhombic'
loop_
_space_group_symop_operation_xyz
x,y,z
1/2-x,-y,z
1/2+x,-y,-z
-x,y,-z
-x,-y,-z
1/2+x,y,-z
1/2-x,y,z
x,-y,z
loop_
_atom_site_type_symbol
_atom_site_label
_atom_site_fract_x
_atom_site_fract_y
_atom_site_fract_z
Si Si1 0.583646 0.839884 0.457965
Si Si2 0.419887 0.345570 0.620025
Si Si3 0.916313 0.340676 0.795081
Si Si4 0.915473 0.839225 0.876197
Si Si5 0.908371 0.335281 0.285888
Si Si6 0.911425 0.164590 0.040464
O O1 0.500000 0.788088 0.500000
O O2 0.750000 0.811120 0.465611
O O3 0.523015 0.755763 0.417103
O O4 0.552624 0.000000 0.448661
O O5 0.250000 0.349215 0.620365
O O6 0.479765 0.500000 0.611143
O O7 0.469753 0.289706 0.667167
O O8 0.750000 0.324186 0.786920
O O9 0.958510 0.500000 0.804030
O O10 0.966492 0.249667 0.835442
O O11 0.991920 0.280466 0.752438
O O12 0.750000 0.812437 0.887334
O O13 0.009488 0.787197 0.916212
O O14 0.942780 0.000000 0.865871
O O15 0.750000 0.274368 0.278458
O O16 0.902624 0.500000 0.285661
O O17 0.750000 0.223410 0.039716
O O18 0.908416 0.000000 0.037880
O O19 0.000000 0.224773 0.000000
#
# Coordination Sequence:
#
# PCOD8214831 Si02
#       6
#     8   8   8   8   8   8
#     4   9  17  29  44  61  83 111 140 169 204 248
#     4   8  14  26  44  63  82 106 137 172 208 245
#     4   9  17  29  45  64  86 113 143 173 207 249
#     4   9  17  29  44  62  86 114 141 171 209 250
#     4   8  14  26  44  63  82 107 139 172 206 246
#     4   9  16  26  42  64  88 113 142 176 213 252
#
# _framework density 17.075158999999999
#
# number of rings (size 3 to 8) (size 9 to 14) (size 15 to 20)
#    0.000    3.333    0.000    1.500    0.000    3.000 
#    0.000    1.667    0.000    2.500    0.000    0.000 
#    0.000    0.000    0.000    0.000    0.000    0.000 
#
# Total GULP energy -595003.502788 kJ/mol
# GULP energy per Si atom -12395.906308 kJ/mol
# Density = 1.703629 g / cm^3
# Si number density = 17.075159 Si / 1000 Ang^3
#
#
#
# Elastic Constant Matrix: (Units=GPa)
#
#
# Indices 1 2 3 4 5 6 
#
# 1 65.4739 26.1870 73.1361 0.0000 0.0000 0.0000
# 2 26.1870 43.7827 60.8935 0.0000 0.0000 0.0000
# 3 73.1361 60.8935 198.8368 0.0000 0.0000 0.0000
# 4 0.0000 0.0000 0.0000 29.3143 0.0000 0.0000
# 5 0.0000 0.0000 0.0000 0.0000 34.2250 0.0000
# 6 0.0000 0.0000 0.0000 0.0000 0.0000 12.2705
#
#
#
# Elastic Compliance Matrix: (Units=1/GPa)
#
#
# Indices 1 2 3 4 5 6 
#
# 1 0.026315 -0.003967 -0.008464 0.000000 0.000000 0.000000
# 2 -0.003967 0.040385 -0.010909 0.000000 0.000000 0.000000
# 3 -0.008464 -0.010909 0.011483 0.000000 0.000000 0.000000
# 4 0.000000 0.000000 0.000000 0.034113 0.000000 0.000000
# 5 0.000000 0.000000 0.000000 0.000000 0.029218 0.000000
# 6 0.000000 0.000000 0.000000 0.000000 0.000000 0.081496
#
#
# Mechanical properties :
#
#
# Convention : Reuss Voigt Hill
#
# Bulk Modulus (GPa) = 31.74315 69.83630 50.78972
# Shear Modulus (GPa) = 17.84501 25.02041 21.43271
#
# Velocity S-wave (km/s) = 3.23629 3.83209 3.54672
# Velocity P-wave (km/s) = 5.70923 7.78255 6.82508
#
# Compressibility (1/GPa) = 0.03150286
#
# Stress axis : x y z
#
# Youngs Moduli (GPa) = 38.00174 24.76191 87.08349
#
# Poissons Ratio (x) = 0.09823 0.73708
# Poissons Ratio (y) = 0.15076 0.94995
# Poissons Ratio (z) = 0.32165 0.27012
#
# Static dielectric constant tensor:
#      x y z
#    x 3.119420 0.000000 0.000000 
#    y 0.000000 2.919100 0.000000 
#    z 0.000000 0.000000 3.533310 
# 
# 
# High freq. dielectric constant tensor:
#      x y z
#    x 1.640640 0.000000 0.000000 
#    y 0.000000 1.617530 0.000000 
#    z 0.000000 0.000000 1.673750 
# 
# From -- ./inp_files/34523.got.cif
#   From: 2010.03.12/outbox.cif.g09.slc.cpg/sg51_18_cif.got.tgz:34523.got - 2010.04.16 13:43:02.
