data_PCOD8214786
_publ_section_title
;
Structure prediction by ZEFSAII (Michael W. Deem and Ramdas Pophale) SiO2 
 PCOD8214786
Probable space group: P M M A
;
_chemical_formula_sum "Si O2"
_cell_formula_units_Z 56
_cell_length_a 19.211433
_cell_length_b 9.338266
_cell_length_c 18.112299
_cell_angle_alpha 90.000000
_cell_angle_beta 90.000000
_cell_angle_gamma 90.000000
_cell_volume 3249.373095
_symmetry_space_group_name_H-M "P M M A"
_symmetry_group_IT_number 51
_symmetry_cell_setting 'orthorhombic'
loop_
_space_group_symop_operation_xyz
x,y,z
1/2-x,-y,z
1/2+x,-y,-z
-x,y,-z
-x,-y,-z
1/2+x,y,-z
1/2-x,y,z
x,-y,z
loop_
_atom_site_type_symbol
_atom_site_label
_atom_site_fract_x
_atom_site_fract_y
_atom_site_fract_z
Si Si1 0.172494 0.170377 0.277246
Si Si2 0.832923 0.339009 0.424057
Si Si3 0.832827 0.159671 0.560677
Si Si4 0.830610 0.166052 0.282289
Si Si5 0.921014 0.167184 0.856598
Si Si6 0.417175 0.833902 0.859729
Si Si7 0.082729 0.661852 0.001272
O O1 0.250000 0.230465 0.260380
O O2 0.146318 0.221228 0.358378
O O3 0.119456 0.225883 0.215146
O O4 0.174950 0.000000 0.278353
O O5 0.750000 0.337436 0.426621
O O6 0.862100 0.500000 0.421282
O O7 0.863388 0.262719 0.497261
O O8 0.858966 0.255233 0.351756
O O9 0.750000 0.152402 0.555844
O O10 0.863367 0.000000 0.548437
O O11 0.750000 0.198391 0.266239
O O12 0.873824 0.215256 0.211207
O O13 0.842955 0.000000 0.300491
O O14 0.891241 0.253731 0.926536
O O15 0.002155 0.197065 0.843406
O O16 0.906596 0.000000 0.870891
O O17 0.404689 0.000000 0.878562
O O18 0.389097 0.742005 0.928626
O O19 0.111750 0.500000 0.002751
O O20 0.000000 0.663761 0.000000
#
# Coordination Sequence:
#
# PCOD8214786 Si02
#       7
#     8   8   8   8   8   8   8
#     4   8  14  25  43  67  90 111 137 170 209 250
#     4   9  16  25  39  61  86 110 139 174 209 245
#     4   8  13  23  40  60  82 109 140 170 200 240
#     4   9  17  29  44  62  85 111 139 173 213 254
#     4   9  16  28  47  67  86 108 138 176 210 243
#     4   9  17  29  46  66  84 106 140 178 212 245
#     4   9  17  29  45  64  85 111 143 174 205 247
#
# _framework density 17.234093000000001
#
# number of rings (size 3 to 8) (size 9 to 14) (size 15 to 20)
#    0.000    3.286    0.000    1.714    0.000    4.000 
#    0.000    1.429    0.000    6.429    0.000    6.000 
#    0.000    0.000    0.000    0.000    0.000    0.000 
#
# Total GULP energy -694210.871520 kJ/mol
# GULP energy per Si atom -12396.622706 kJ/mol
# Density = 1.719487 g / cm^3
# Si number density = 17.234093 Si / 1000 Ang^3
#
#
#
# Elastic Constant Matrix: (Units=GPa)
#
#
# Indices 1 2 3 4 5 6 
#
# 1 33.5557 25.2256 49.7166 0.0000 0.0000 0.0000
# 2 25.2256 89.2609 84.2913 0.0000 0.0000 0.0000
# 3 49.7166 84.2913 197.2915 0.0000 0.0000 0.0000
# 4 0.0000 0.0000 0.0000 10.5080 0.0000 0.0000
# 5 0.0000 0.0000 0.0000 0.0000 14.8304 0.0000
# 6 0.0000 0.0000 0.0000 0.0000 0.0000 10.0097
#
#
#
# Elastic Compliance Matrix: (Units=1/GPa)
#
#
# Indices 1 2 3 4 5 6 
#
# 1 0.048241 -0.003610 -0.010614 0.000000 0.000000 0.000000
# 2 -0.003610 0.019050 -0.007229 0.000000 0.000000 0.000000
# 3 -0.010614 -0.007229 0.010832 0.000000 0.000000 0.000000
# 4 0.000000 0.000000 0.000000 0.095165 0.000000 0.000000
# 5 0.000000 0.000000 0.000000 0.000000 0.067429 0.000000
# 6 0.000000 0.000000 0.000000 0.000000 0.000000 0.099903
#
#
# Mechanical properties :
#
#
# Convention : Reuss Voigt Hill
#
# Bulk Modulus (GPa) = 28.39590 70.95279 49.67435
# Shear Modulus (GPa) = 12.64969 17.79460 15.22215
#
# Velocity S-wave (km/s) = 2.71217 3.21678 2.97519
# Velocity P-wave (km/s) = 5.13032 7.41999 6.37873
#
# Compressibility (1/GPa) = 0.03521635
#
# Stress axis : x y z
#
# Youngs Moduli (GPa) = 20.72919 52.49306 92.31840
#
# Poissons Ratio (x) = 0.18949 0.97989
# Poissons Ratio (y) = 0.07483 0.66740
# Poissons Ratio (z) = 0.22003 0.37949
#
# Static dielectric constant tensor:
#      x y z
#    x 2.818380 0.000000 0.000000 
#    y 0.000000 3.189880 0.000000 
#    z 0.000000 0.000000 3.535540 
# 
# 
# High freq. dielectric constant tensor:
#      x y z
#    x 1.611370 0.000000 0.000000 
#    y 0.000000 1.649730 0.000000 
#    z 0.000000 0.000000 1.681890 
# 
# From -- ./inp_files/30426.got.cif
#   From: 2010.03.12/outbox.cif.g09.slc.cpg/sg51_16_cif.got.tgz:30426.got - 2010.04.16 13:43:02.
