data_PCOD8214045
_publ_section_title
;
Structure prediction by ZEFSAII (Michael W. Deem and Ramdas Pophale) SiO2 
 PCOD8214045
Probable space group: P M M A
;
_chemical_formula_sum "Si O2"
_cell_formula_units_Z 40
_cell_length_a 8.776012
_cell_length_b 11.724205
_cell_length_c 20.351178
_cell_angle_alpha 90.000000
_cell_angle_beta 90.000000
_cell_angle_gamma 90.000000
_cell_volume 2093.968599
_symmetry_space_group_name_H-M "P M M A"
_symmetry_group_IT_number 51
_symmetry_cell_setting 'orthorhombic'
loop_
_space_group_symop_operation_xyz
x,y,z
1/2-x,-y,z
1/2+x,-y,-z
-x,y,-z
-x,-y,-z
1/2+x,y,-z
1/2-x,y,z
x,-y,z
loop_
_atom_site_type_symbol
_atom_site_label
_atom_site_fract_x
_atom_site_fract_y
_atom_site_fract_z
Si Si1 0.073011 0.868397 0.184132
Si Si2 0.425940 0.134136 0.568205
Si Si3 0.070195 0.734939 0.930484
Si Si4 0.068934 0.500000 0.870015
Si Si5 0.930724 0.500000 0.278821
Si Si6 0.570019 0.732787 0.687125
O O1 0.250000 0.846786 0.169337
O O2 0.016813 0.796473 0.246678
O O3 0.976677 0.831260 0.121155
O O4 0.039401 0.000000 0.199219
O O5 0.500000 0.174015 0.500000
O O6 0.250000 0.170986 0.569267
O O7 0.516944 0.194446 0.625700
O O8 0.445608 0.000000 0.578187
O O9 0.250000 0.732270 0.937066
O O10 0.006372 0.611740 0.907235
O O11 0.000000 0.768076 0.000000
O O12 0.250000 0.500000 0.868481
O O13 0.005677 0.500000 0.795777
O O14 0.750000 0.500000 0.280422
O O15 0.992123 0.390102 0.316730
O O16 0.750000 0.718763 0.684930
#
# Coordination Sequence:
#
# PCOD8214045 Si02
#       6
#     8   8   8   4   4   8
#     4  10  22  39  58  82 113 150 192 238 288 344
#     4  10  21  38  62  92 125 162 201 241 288 341
#     4  11  22  38  58  83 112 147 189 238 293 349
#     4   9  19  36  58  83 112 144 185 236 288 343
#     4  11  21  38  61  87 119 153 194 243 292 349
#     4  11  22  38  61  90 121 155 196 243 294 348
#
# _framework density 19.102481999999998
#
# number of rings (size 3 to 8) (size 9 to 14) (size 15 to 20)
#    0.000    1.600    2.000    3.000    0.000    3.600 
#    0.000    2.000    0.000    0.000    0.000    0.000 
#    0.000    0.000    0.000    0.000    0.000    0.000 
#
# Total GULP energy -496245.619557 kJ/mol
# GULP energy per Si atom -12406.140489 kJ/mol
# Density = 1.905900 g / cm^3
# Si number density = 19.102482 Si / 1000 Ang^3
#
#
#
# Elastic Constant Matrix: (Units=GPa)
#
#
# Indices 1 2 3 4 5 6 
#
# 1 77.2962 35.6077 42.2128 0.0000 0.0000 0.0000
# 2 35.6077 77.7476 29.1857 0.0000 0.0000 0.0000
# 3 42.2128 29.1857 123.9638 0.0000 0.0000 0.0000
# 4 0.0000 0.0000 0.0000 54.7758 0.0000 0.0000
# 5 0.0000 0.0000 0.0000 0.0000 33.3178 0.0000
# 6 0.0000 0.0000 0.0000 0.0000 0.0000 28.4016
#
#
#
# Elastic Compliance Matrix: (Units=1/GPa)
#
#
# Indices 1 2 3 4 5 6 
#
# 1 0.018648 -0.006754 -0.004760 0.000000 0.000000 0.000000
# 2 -0.006754 0.016555 -0.001598 0.000000 0.000000 0.000000
# 3 -0.004760 -0.001598 0.010064 0.000000 0.000000 0.000000
# 4 0.000000 0.000000 0.000000 0.018256 0.000000 0.000000
# 5 0.000000 0.000000 0.000000 0.000000 0.030014 0.000000
# 6 0.000000 0.000000 0.000000 0.000000 0.000000 0.035209
#
#
# Mechanical properties :
#
#
# Convention : Reuss Voigt Hill
#
# Bulk Modulus (GPa) = 52.51050 54.77997 53.64524
# Shear Modulus (GPa) = 30.99474 34.76581 32.88027
#
# Velocity S-wave (km/s) = 4.03246 4.27073 4.15330
# Velocity P-wave (km/s) = 7.01637 7.28409 7.15149
#
# Compressibility (1/GPa) = 0.01904381
#
# Stress axis : x y z
#
# Youngs Moduli (GPa) = 53.62511 60.40432 99.36428
#
# Poissons Ratio (x) = 0.40795 0.47298
# Poissons Ratio (y) = 0.36217 0.15877
# Poissons Ratio (z) = 0.25526 0.09652
#
# Static dielectric constant tensor:
#      x y z
#    x 3.438990 0.000000 0.000000 
#    y 0.000000 3.524340 0.000000 
#    z 0.000000 0.000000 3.523380 
# 
# 
# High freq. dielectric constant tensor:
#      x y z
#    x 1.743690 0.000000 0.000000 
#    y 0.000000 1.745630 0.000000 
#    z 0.000000 0.000000 1.747470 
# 
# From -- ./inp_files/31448.got.cif
#   From: 2010.03.12/outbox.cif.g09.slc.cpg/sg51_16_cif.got.tgz:31448.got - 2010.04.16 13:43:02.
