data_PCOD8214392
_publ_section_title
;
Structure prediction by ZEFSAII (Michael W. Deem and Ramdas Pophale) SiO2 
 PCOD8214392
Probable space group: P M M A
;
_chemical_formula_sum "Si O2"
_cell_formula_units_Z 48
_cell_length_a 10.082224
_cell_length_b 31.146560
_cell_length_c 7.671543
_cell_angle_alpha 90.000000
_cell_angle_beta 90.000000
_cell_angle_gamma 90.000000
_cell_volume 2409.068525
_symmetry_space_group_name_H-M "P M M A"
_symmetry_group_IT_number 51
_symmetry_cell_setting 'orthorhombic'
loop_
_space_group_symop_operation_xyz
x,y,z
1/2-x,-y,z
1/2+x,-y,-z
-x,y,-z
-x,-y,-z
1/2+x,y,-z
1/2-x,y,z
x,-y,z
loop_
_atom_site_type_symbol
_atom_site_label
_atom_site_fract_x
_atom_site_fract_y
_atom_site_fract_z
Si Si1 0.250000 0.107434 0.313414
Si Si2 0.602383 0.370289 0.646855
Si Si3 0.250000 0.164239 0.988556
Si Si4 0.100385 0.546153 0.153672
Si Si5 0.510416 0.049070 0.795368
Si Si6 0.250000 0.907069 0.697063
Si Si7 0.095915 0.724268 0.329495
Si Si8 0.500000 0.221477 0.000000
O O1 0.378110 0.079455 0.278889
O O2 0.250000 0.120770 0.517844
O O3 0.250000 0.149711 0.191718
O O4 0.500000 0.361441 0.500000
O O5 0.750000 0.379898 0.575016
O O6 0.549945 0.412311 0.744614
O O7 0.599211 0.324720 0.747062
O O8 0.250000 0.123274 0.864348
O O9 0.121643 0.191895 0.944023
O O10 0.250000 0.554699 0.085468
O O11 0.097013 0.500000 0.257969
O O12 0.000000 0.540720 0.000000
O O13 0.374829 0.061389 0.700900
O O14 0.545882 0.000000 0.752212
O O15 0.500000 0.056790 0.000000
O O16 0.250000 0.737364 0.375206
O O17 0.038981 0.751209 0.169276
O O18 0.000000 0.730202 0.500000
#
# Coordination Sequence:
#
# PCOD8214392 Si02
#       8
#     4   8   4   8   8   4   8   4
#     4  12  25  43  67  94 130 172 210 257 308 369
#     4   9  19  36  56  83 118 152 192 245 303 366
#     4  12  26  46  65  94 128 162 217 264 316 384
#     4   9  18  32  50  77 114 155 199 244 290 354
#     4  11  22  41  68  98 135 172 210 261 309 356
#     4  12  25  43  69  94 128 172 214 257 306 365
#     4  10  23  43  67  97 127 160 208 264 326 391
#     4  12  26  44  70  90 124 164 210 266 326 394
#
# _framework density 19.924714999999999
#
# number of rings (size 3 to 8) (size 9 to 14) (size 15 to 20)
#    0.000    1.500    2.500    2.000    2.333    5.667 
#    0.000    0.000    0.000    0.000    0.000    0.000 
#    0.000    0.000    0.000    0.000    0.000    0.000 
#
# Total GULP energy -594742.177366 kJ/mol
# GULP energy per Si atom -12390.462028 kJ/mol
# Density = 1.987937 g / cm^3
# Si number density = 19.924715 Si / 1000 Ang^3
#
#
#
# Elastic Constant Matrix: (Units=GPa)
#
#
# Indices 1 2 3 4 5 6 
#
# 1 114.0834 35.8629 18.9112 0.0000 0.0000 0.0000
# 2 35.8629 92.5468 32.3398 0.0000 0.0000 0.0000
# 3 18.9112 32.3398 80.0230 0.0000 0.0000 0.0000
# 4 0.0000 0.0000 0.0000 12.6473 0.0000 0.0000
# 5 0.0000 0.0000 0.0000 0.0000 26.0171 0.0000
# 6 0.0000 0.0000 0.0000 0.0000 0.0000 39.5002
#
#
#
# Elastic Compliance Matrix: (Units=1/GPa)
#
#
# Indices 1 2 3 4 5 6 
#
# 1 0.010041 -0.003565 -0.000932 0.000000 0.000000 0.000000
# 2 -0.003565 0.013848 -0.004754 0.000000 0.000000 0.000000
# 3 -0.000932 -0.004754 0.014638 0.000000 0.000000 0.000000
# 4 0.000000 0.000000 0.000000 0.079068 0.000000 0.000000
# 5 0.000000 0.000000 0.000000 0.000000 0.038436 0.000000
# 6 0.000000 0.000000 0.000000 0.000000 0.000000 0.025316
#
#
# Mechanical properties :
#
#
# Convention : Reuss Voigt Hill
#
# Bulk Modulus (GPa) = 49.93901 51.20898 50.57399
# Shear Modulus (GPa) = 24.21014 28.93553 26.57283
#
# Velocity S-wave (km/s) = 3.48958 3.81497 3.65590
# Velocity P-wave (km/s) = 6.43075 6.72029 6.57711
#
# Compressibility (1/GPa) = 0.02002443
#
# Stress axis : x y z
#
# Youngs Moduli (GPa) = 99.59398 72.21200 68.31590
#
# Poissons Ratio (x) = 0.25745 0.06367
# Poissons Ratio (y) = 0.35507 0.32477
# Poissons Ratio (z) = 0.09283 0.34329
#
# Static dielectric constant tensor:
#      x y z
#    x 3.877340 0.000000 0.000000 
#    y 0.000000 4.332050 0.000000 
#    z 0.000000 0.000000 3.532530 
# 
# 
# High freq. dielectric constant tensor:
#      x y z
#    x 1.800050 0.000000 0.000000 
#    y 0.000000 1.795350 0.000000 
#    z 0.000000 0.000000 1.751280 
# 
# From -- ./inp_files/6329.got.cif
#   From: 2010.03.12/outbox.cif.g09.slc.cpg/sg51_4_cif.got.tgz:6329.got - 2010.04.16 13:43:02.
