data_PCOD8214549
_publ_section_title
;
Structure prediction by ZEFSAII (Michael W. Deem and Ramdas Pophale) SiO2 
 PCOD8214549
Probable space group: P M M A
;
_chemical_formula_sum "Si O2"
_cell_formula_units_Z 48
_cell_length_a 8.939126
_cell_length_b 13.812886
_cell_length_c 24.355229
_cell_angle_alpha 90.000000
_cell_angle_beta 90.000000
_cell_angle_gamma 90.000000
_cell_volume 3007.265027
_symmetry_space_group_name_H-M "P M M A"
_symmetry_group_IT_number 51
_symmetry_cell_setting 'orthorhombic'
loop_
_space_group_symop_operation_xyz
x,y,z
1/2-x,-y,z
1/2+x,-y,-z
-x,y,-z
-x,-y,-z
1/2+x,y,-z
1/2-x,y,z
x,-y,z
loop_
_atom_site_type_symbol
_atom_site_label
_atom_site_fract_x
_atom_site_fract_y
_atom_site_fract_z
Si Si1 0.429059 0.609001 0.328538
Si Si2 0.915238 0.615354 0.552316
Si Si3 0.927575 0.784922 0.056629
Si Si4 0.573709 0.610714 0.887445
Si Si5 0.075431 0.109838 0.155335
Si Si6 0.925251 0.288798 0.777409
O O1 0.250000 0.610808 0.330933
O O2 0.483459 0.500000 0.315596
O O3 0.489292 0.643568 0.388600
O O4 0.496729 0.678694 0.280827
O O5 0.750000 0.659244 0.549095
O O6 0.910665 0.500000 0.548458
O O7 0.000000 0.660398 0.500000
O O8 0.750000 0.785143 0.051980
O O9 0.985037 0.676580 0.069396
O O10 0.978906 0.860846 0.102751
O O11 0.000000 0.820567 0.000000
O O12 0.750000 0.629386 0.894983
O O13 0.530360 0.500000 0.898617
O O14 0.521996 0.639717 0.826075
O O15 0.250000 0.124616 0.140602
O O16 0.031038 0.178416 0.206899
O O17 0.039268 0.000000 0.172236
O O18 0.750000 0.300037 0.770218
#
# Coordination Sequence:
#
# PCOD8214549 Si02
#       6
#     8   8   8   8   8   8
#     4   8  12  18  32  56  82 107 137 170 200 234
#     4   8  13  20  30  46  71 104 139 171 200 230
#     4  11  22  35  50  67  88 112 140 173 206 245
#     4   9  17  30  48  68  90 116 143 171 206 247
#     4   9  18  33  51  69  88 108 131 165 212 261
#     4   8  13  23  41  64  86 107 134 168 205 247
#
# _framework density 15.961346000000001
#
# number of rings (size 3 to 8) (size 9 to 14) (size 15 to 20)
#    0.000    3.167    0.000    4.000    0.000    3.333 
#    0.000    0.000    0.000    4.000    0.000    4.667 
#    0.000    0.667    0.000    0.500    0.000    1.000 
#
# Total GULP energy -594789.258854 kJ/mol
# GULP energy per Si atom -12391.442893 kJ/mol
# Density = 1.592502 g / cm^3
# Si number density = 15.961346 Si / 1000 Ang^3
#
#
#
# Elastic Constant Matrix: (Units=GPa)
#
#
# Indices 1 2 3 4 5 6 
#
# 1 50.4691 21.8691 31.3203 0.0000 0.0000 0.0000
# 2 21.8691 88.6410 42.1183 0.0000 0.0000 0.0000
# 3 31.3203 42.1183 131.8864 0.0000 0.0000 0.0000
# 4 0.0000 0.0000 0.0000 13.6927 0.0000 0.0000
# 5 0.0000 0.0000 0.0000 0.0000 18.4571 0.0000
# 6 0.0000 0.0000 0.0000 0.0000 0.0000 13.8837
#
#
#
# Elastic Compliance Matrix: (Units=1/GPa)
#
#
# Indices 1 2 3 4 5 6 
#
# 1 0.024296 -0.003835 -0.004545 0.000000 0.000000 0.000000
# 2 -0.003835 0.013905 -0.003530 0.000000 0.000000 0.000000
# 3 -0.004545 -0.003530 0.009789 0.000000 0.000000 0.000000
# 4 0.000000 0.000000 0.000000 0.073032 0.000000 0.000000
# 5 0.000000 0.000000 0.000000 0.000000 0.054180 0.000000
# 6 0.000000 0.000000 0.000000 0.000000 0.000000 0.072027
#
#
# Mechanical properties :
#
#
# Convention : Reuss Voigt Hill
#
# Bulk Modulus (GPa) = 41.37252 51.29019 46.33135
# Shear Modulus (GPa) = 17.91442 20.91929 19.41686
#
# Velocity S-wave (km/s) = 3.35380 3.62418 3.49161
# Velocity P-wave (km/s) = 6.40110 7.05100 6.73390
#
# Compressibility (1/GPa) = 0.02417063
#
# Stress axis : x y z
#
# Youngs Moduli (GPa) = 41.15827 71.91781 102.15568
#
# Poissons Ratio (x) = 0.27577 0.46433
# Poissons Ratio (y) = 0.15782 0.36060
# Poissons Ratio (z) = 0.18708 0.25386
#
# Static dielectric constant tensor:
#      x y z
#    x 2.770570 0.000000 0.000000 
#    y 0.000000 2.891330 0.000000 
#    z 0.000000 0.000000 3.372680 
# 
# 
# High freq. dielectric constant tensor:
#      x y z
#    x 1.579580 0.000000 0.000000 
#    y 0.000000 1.580380 0.000000 
#    z 0.000000 0.000000 1.616960 
# 
# From -- ./inp_files/34632.got.cif
#   From: 2010.03.12/outbox.cif.g09.slc.cpg/sg51_18_cif.got.tgz:34632.got - 2010.04.16 13:43:02.
