data_PCOD8214539
_publ_section_title
;
Structure prediction by ZEFSAII (Michael W. Deem and Ramdas Pophale) SiO2 
 PCOD8214539
Probable space group: P M M A
;
_chemical_formula_sum "Si O2"
_cell_formula_units_Z 48
_cell_length_a 14.311936
_cell_length_b 8.761895
_cell_length_c 21.293375
_cell_angle_alpha 90.000000
_cell_angle_beta 90.000000
_cell_angle_gamma 90.000000
_cell_volume 2670.182421
_symmetry_space_group_name_H-M "P M M A"
_symmetry_group_IT_number 51
_symmetry_cell_setting 'orthorhombic'
loop_
_space_group_symop_operation_xyz
x,y,z
1/2-x,-y,z
1/2+x,-y,-z
-x,y,-z
-x,-y,-z
1/2+x,y,-z
1/2-x,y,z
x,-y,z
loop_
_atom_site_type_symbol
_atom_site_label
_atom_site_fract_x
_atom_site_fract_y
_atom_site_fract_z
Si Si1 0.143831 0.319345 0.328296
Si Si2 0.146481 0.319517 0.999701
Si Si3 0.999791 0.179420 0.237259
Si Si4 0.999588 0.680440 0.897894
Si Si5 0.144002 0.318954 0.671661
Si Si6 0.000302 0.319663 0.569450
O O1 0.250000 0.261201 0.331702
O O2 0.137986 0.500000 0.319243
O O3 0.092459 0.269168 0.392733
O O4 0.093474 0.244003 0.269026
O O5 0.250000 0.245302 0.999569
O O6 0.153285 0.500000 0.999741
O O7 0.091177 0.269831 0.937173
O O8 0.091475 0.269701 0.062321
O O9 0.000974 0.223334 0.164962
O O10 0.906521 0.247964 0.268181
O O11 0.998062 0.000000 0.245498
O O12 0.999461 0.500000 0.883397
O O13 0.250000 0.259546 0.668579
O O14 0.139136 0.500000 0.678862
O O15 0.091700 0.265404 0.607970
O O16 0.002400 0.500000 0.562444
O O17 0.000000 0.244019 0.500000
#
# Coordination Sequence:
#
# PCOD8214539 Si02
#       6
#     8   8   8   8   8   8
#     4   9  18  33  52  73  98 130 168 206 244 291
#     4   8  15  29  50  74  96 120 154 197 240 283
#     4  11  22  34  49  71 102 135 167 205 247 291
#     4   9  17  31  51  73  96 123 160 200 237 285
#     4   9  18  33  52  73  98 130 168 206 244 291
#     4   8  14  26  47  77 106 125 150 198 256 303
#
# _framework density 17.976299999999998
#
# number of rings (size 3 to 8) (size 9 to 14) (size 15 to 20)
#    0.000    3.000    0.000    3.500    0.000    2.667 
#    0.000    8.333    0.000    9.000    0.000    9.333 
#    0.000    0.000    0.000    0.000    0.000    0.000 
#
# Total GULP energy -595036.308452 kJ/mol
# GULP energy per Si atom -12396.589759 kJ/mol
# Density = 1.793539 g / cm^3
# Si number density = 17.976300 Si / 1000 Ang^3
#
#
#
# Elastic Constant Matrix: (Units=GPa)
#
#
# Indices 1 2 3 4 5 6 
#
# 1 172.9093 23.8792 69.3878 0.0000 0.0000 0.0000
# 2 23.8792 29.9546 19.0538 0.0000 0.0000 0.0000
# 3 69.3878 19.0538 143.8273 0.0000 0.0000 0.0000
# 4 0.0000 0.0000 0.0000 -1.8120 0.0000 0.0000
# 5 0.0000 0.0000 0.0000 0.0000 2.7515 0.0000
# 6 0.0000 0.0000 0.0000 0.0000 0.0000 7.9325
#
#
#
# Elastic Compliance Matrix: (Units=1/GPa)
#
#
# Indices 1 2 3 4 5 6 
#
# 1 0.007600 -0.004069 -0.003128 0.000000 0.000000 0.000000
# 2 -0.004069 0.038635 -0.003155 0.000000 0.000000 0.000000
# 3 -0.003128 -0.003155 0.008880 0.000000 0.000000 0.000000
# 4 0.000000 0.000000 0.000000 -0.551871 0.000000 0.000000
# 5 0.000000 0.000000 0.000000 0.000000 0.363442 0.000000
# 6 0.000000 0.000000 0.000000 0.000000 0.000000 0.126063
#
#
# Mechanical properties :
#
#
# Convention : Reuss Voigt Hill
#
# Bulk Modulus (GPa) = 29.06069 63.48141 46.27105
# Shear Modulus (GPa) = 200.61097 17.39910 109.00503
#
# Velocity S-wave (km/s) = 10.57543 3.11447 7.79550
# Velocity P-wave (km/s) = 12.85772 6.95153 10.33549
#
# Compressibility (1/GPa) = 0.03441075
#
# Stress axis : x y z
#
# Youngs Moduli (GPa) = 131.57031 25.88342 112.61722
#
# Poissons Ratio (x) = 0.10533 0.35223
# Poissons Ratio (y) = 0.53542 0.35530
# Poissons Ratio (z) = 0.41151 0.08166
#
# Static dielectric constant tensor:
#      x y z
#    x 3.857110 0.000000 0.000000 
#    y 0.000000 2.870730 0.000000 
#    z 0.000000 0.000000 3.430800 
# 
# 
# High freq. dielectric constant tensor:
#      x y z
#    x 1.703320 0.000000 0.000000 
#    y 0.000000 1.652390 0.000000 
#    z 0.000000 0.000000 1.701040 
# 
# From -- ./inp_files/29469.got.cif
#   From: 2010.03.12/outbox.cif.g09.slc.cpg/sg51_15_cif.got.tgz:29469.got - 2010.04.16 13:43:02.
