data_PCOD8214364
_publ_section_title
;
Structure prediction by ZEFSAII (Michael W. Deem and Ramdas Pophale) SiO2 
 PCOD8214364
Probable space group: P M M A
;
_chemical_formula_sum "Si O2"
_cell_formula_units_Z 48
_cell_length_a 14.666277
_cell_length_b 16.787662
_cell_length_c 9.270968
_cell_angle_alpha 90.000000
_cell_angle_beta 90.000000
_cell_angle_gamma 90.000000
_cell_volume 2282.628219
_symmetry_space_group_name_H-M "P M M A"
_symmetry_group_IT_number 51
_symmetry_cell_setting 'orthorhombic'
loop_
_space_group_symop_operation_xyz
x,y,z
1/2-x,-y,z
1/2+x,-y,-z
-x,y,-z
-x,-y,-z
1/2+x,y,-z
1/2-x,y,z
x,-y,z
loop_
_atom_site_type_symbol
_atom_site_label
_atom_site_fract_x
_atom_site_fract_y
_atom_site_fract_z
Si Si1 0.351611 0.346178 0.189703
Si Si2 0.143617 0.907735 0.365285
Si Si3 0.647542 0.500000 0.322492
Si Si4 0.978078 0.195140 0.839846
Si Si5 0.850365 0.193583 0.361680
Si Si6 0.106988 0.500000 0.007066
Si Si7 0.101139 0.349873 0.507114
O O1 0.250000 0.309439 0.171350
O O2 0.428210 0.280613 0.154643
O O3 0.363819 0.378627 0.351942
O O4 0.359206 0.420974 0.085095
O O5 0.250000 0.893260 0.333084
O O6 0.086620 0.868273 0.237155
O O7 0.116425 0.869842 0.518921
O O8 0.118346 0.000000 0.371850
O O9 0.750000 0.500000 0.382483
O O10 0.648715 0.500000 0.151292
O O11 0.596539 0.577381 0.381562
O O12 0.076168 0.200519 0.763999
O O13 0.000000 0.165051 0.000000
O O14 0.750000 0.169187 0.300048
O O15 0.835507 0.279134 0.436646
O O16 0.000000 0.500000 0.000000
O O17 0.000000 0.313017 0.500000
#
# Coordination Sequence:
#
# PCOD8214364 Si02
#       7
#     8   8   4   8   8   4   8
#     4  12  24  43  67  92 129 178 227 276 336 402
#     4  10  22  45  76 105 134 172 222 277 332 398
#     4  12  26  40  60  94 126 165 215 278 339 393
#     4  12  26  42  64 101 142 180 220 270 334 404
#     4  11  23  43  69  99 132 173 223 276 331 391
#     4  12  27  46  61  90 132 177 226 275 337 410
#     4  12  22  42  66  92 125 166 221 281 333 388
#
# _framework density 21.028390999999999
#
# number of rings (size 3 to 8) (size 9 to 14) (size 15 to 20)
#    0.000    0.500    3.333    5.500    2.333    3.000 
#    0.000    0.000    0.000    2.000    0.000    0.000 
#    0.000    0.000    0.000    0.000    0.000    0.000 
#
# Total GULP energy -595399.090025 kJ/mol
# GULP energy per Si atom -12404.147709 kJ/mol
# Density = 2.098053 g / cm^3
# Si number density = 21.028391 Si / 1000 Ang^3
#
#
#
# Elastic Constant Matrix: (Units=GPa)
#
#
# Indices 1 2 3 4 5 6 
#
# 1 134.2699 30.8041 52.1725 0.0000 0.0000 0.0000
# 2 30.8041 136.0444 54.1169 0.0000 0.0000 0.0000
# 3 52.1725 54.1169 145.4200 0.0000 0.0000 0.0000
# 4 0.0000 0.0000 0.0000 4.2497 0.0000 0.0000
# 5 0.0000 0.0000 0.0000 0.0000 28.1481 0.0000
# 6 0.0000 0.0000 0.0000 0.0000 0.0000 36.1494
#
#
#
# Elastic Compliance Matrix: (Units=1/GPa)
#
#
# Indices 1 2 3 4 5 6 
#
# 1 0.008739 -0.000859 -0.002816 0.000000 0.000000 0.000000
# 2 -0.000859 0.008712 -0.002934 0.000000 0.000000 0.000000
# 3 -0.002816 -0.002934 0.008979 0.000000 0.000000 0.000000
# 4 0.000000 0.000000 0.000000 0.235310 0.000000 0.000000
# 5 0.000000 0.000000 0.000000 0.000000 0.035526 0.000000
# 6 0.000000 0.000000 0.000000 0.000000 0.000000 0.027663
#
#
# Mechanical properties :
#
#
# Convention : Reuss Voigt Hill
#
# Bulk Modulus (GPa) = 75.68440 76.65792 76.17116
# Shear Modulus (GPa) = 14.59643 32.28551 23.44097
#
# Velocity S-wave (km/s) = 2.63749 3.92258 3.34238
# Velocity P-wave (km/s) = 6.73386 7.55309 7.15521
#
# Compressibility (1/GPa) = 0.01321276
#
# Stress axis : x y z
#
# Youngs Moduli (GPa) = 114.43286 114.78282 111.37453
#
# Poissons Ratio (x) = 0.09856 0.31359
# Poissons Ratio (y) = 0.09826 0.32678
# Poissons Ratio (z) = 0.32221 0.33678
#
# Static dielectric constant tensor:
#      x y z
#    x 4.032780 0.000000 0.000000 
#    y 0.000000 3.738660 0.000000 
#    z 0.000000 0.000000 3.473910 
# 
# 
# High freq. dielectric constant tensor:
#      x y z
#    x 1.849670 0.000000 0.000000 
#    y 0.000000 1.816370 0.000000 
#    z 0.000000 0.000000 1.819930 
# 
# From -- ./inp_files/8338.got.cif
#   From: 2010.03.12/outbox.cif.g09.slc.cpg/sg51_5_cif.got.tgz:8338.got - 2010.04.16 13:43:02.
