data_PCOD8214377
_publ_section_title
;
Structure prediction by ZEFSAII (Michael W. Deem and Ramdas Pophale) SiO2 
 PCOD8214377
Probable space group: P M M A
;
_chemical_formula_sum "Si O2"
_cell_formula_units_Z 32
_cell_length_a 17.505285
_cell_length_b 13.973387
_cell_length_c 6.905911
_cell_angle_alpha 90.000000
_cell_angle_beta 90.000000
_cell_angle_gamma 90.000000
_cell_volume 1689.241919
_symmetry_space_group_name_H-M "P M M A"
_symmetry_group_IT_number 51
_symmetry_cell_setting 'orthorhombic'
loop_
_space_group_symop_operation_xyz
x,y,z
1/2-x,-y,z
1/2+x,-y,-z
-x,y,-z
-x,-y,-z
1/2+x,y,-z
1/2-x,y,z
x,-y,z
loop_
_atom_site_type_symbol
_atom_site_label
_atom_site_fract_x
_atom_site_fract_y
_atom_site_fract_z
Si Si1 0.839574 0.500000 0.202006
Si Si2 0.085232 0.348147 0.069889
Si Si3 0.840216 0.851266 0.837845
Si Si4 0.919285 0.500000 0.599356
Si Si5 0.162866 0.000000 0.847222
Si Si6 0.412868 0.000000 0.442090
O O1 0.750000 0.500000 0.164119
O O2 0.854799 0.500000 0.432615
O O3 0.875095 0.405294 0.105227
O O4 0.133044 0.255706 0.126845
O O5 0.086898 0.407456 0.267117
O O6 0.000000 0.322307 0.000000
O O7 0.750000 0.855765 0.787428
O O8 0.887662 0.903280 0.668111
O O9 0.859928 0.905760 0.034827
O O10 0.000000 0.500000 0.500000
O O11 0.250000 0.000000 0.798335
O O12 0.123505 0.000000 0.647339
O O13 0.500000 0.000000 0.500000
#
# Coordination Sequence:
#
# PCOD8214377 Si02
#       6
#     4   8   8   4   4   4
#     4  11  23  41  63  91 123 161 209 253 306 372
#     4  11  23  39  66  90 125 161 203 257 307 365
#     4  10  23  41  62  89 124 160 202 250 304 364
#     4  11  21  42  62  88 123 166 201 247 310 356
#     4   9  20  41  62  81 120 163 193 240 305 357
#     4  11  24  38  63  93 122 158 205 252 298 360
#
# _framework density 18.94341
#
# number of rings (size 3 to 8) (size 9 to 14) (size 15 to 20)
#    0.000    1.500    2.500    3.375    3.500    7.000 
#    0.000    0.000    0.000    0.000    0.000    0.000 
#    0.000    0.000    0.000    0.000    0.000    0.000 
#
# Total GULP energy -396742.914533 kJ/mol
# GULP energy per Si atom -12398.216079 kJ/mol
# Density = 1.890029 g / cm^3
# Si number density = 18.943410 Si / 1000 Ang^3
#
#
#
# Elastic Constant Matrix: (Units=GPa)
#
#
# Indices 1 2 3 4 5 6 
#
# 1 413.0824 58.9382 38.2644 0.0000 0.0000 0.0000
# 2 58.9382 146.1552 58.9795 0.0000 0.0000 0.0000
# 3 38.2644 58.9795 158.4055 0.0000 0.0000 0.0000
# 4 0.0000 0.0000 0.0000 11.2827 0.0000 0.0000
# 5 0.0000 0.0000 0.0000 0.0000 34.4516 0.0000
# 6 0.0000 0.0000 0.0000 0.0000 0.0000 32.1421
#
#
#
# Elastic Compliance Matrix: (Units=1/GPa)
#
#
# Indices 1 2 3 4 5 6 
#
# 1 0.002579 -0.000928 -0.000277 0.000000 0.000000 0.000000
# 2 -0.000928 0.008386 -0.002898 0.000000 0.000000 0.000000
# 3 -0.000277 -0.002898 0.007459 0.000000 0.000000 0.000000
# 4 0.000000 0.000000 0.000000 0.088632 0.000000 0.000000
# 5 0.000000 0.000000 0.000000 0.000000 0.029026 0.000000
# 6 0.000000 0.000000 0.000000 0.000000 0.000000 0.031112
#
#
# Mechanical properties :
#
#
# Convention : Reuss Voigt Hill
#
# Bulk Modulus (GPa) = 97.88037 114.44526 106.16282
# Shear Modulus (GPa) = 27.96327 53.00601 40.48464
#
# Velocity S-wave (km/s) = 3.84623 5.29547 4.62793
# Velocity P-wave (km/s) = 8.45617 9.89620 9.20439
#
# Compressibility (1/GPa) = 0.01021655
#
# Stress axis : x y z
#
# Youngs Moduli (GPa) = 387.75733 119.24944 134.06628
#
# Poissons Ratio (x) = 0.11067 0.03719
# Poissons Ratio (y) = 0.35985 0.38854
# Poissons Ratio (z) = 0.10758 0.34560
#
# Static dielectric constant tensor:
#      x y z
#    x 3.536470 0.000000 0.000000 
#    y 0.000000 3.497370 0.000000 
#    z 0.000000 0.000000 3.797570 
# 
# 
# High freq. dielectric constant tensor:
#      x y z
#    x 1.749430 0.000000 0.000000 
#    y 0.000000 1.739450 0.000000 
#    z 0.000000 0.000000 1.750300 
# 
# From -- ./inp_files/1870.got.cif
#   From: 2010.03.12/outbox.cif.g09.slc.cpg/sg51_1_cif.got.tgz:1870.got - 2010.04.16 13:43:02.
