data_PCOD8214833
_publ_section_title
;
Structure prediction by ZEFSAII (Michael W. Deem and Ramdas Pophale) SiO2 
 PCOD8214833
Probable space group: P M M A
;
_chemical_formula_sum "Si O2"
_cell_formula_units_Z 40
_cell_length_a 9.658620
_cell_length_b 9.657938
_cell_length_c 25.664708
_cell_angle_alpha 90.000000
_cell_angle_beta 90.000000
_cell_angle_gamma 90.000000
_cell_volume 2394.064355
_symmetry_space_group_name_H-M "P M M A"
_symmetry_group_IT_number 51
_symmetry_cell_setting 'orthorhombic'
loop_
_space_group_symop_operation_xyz
x,y,z
1/2-x,-y,z
1/2+x,-y,-z
-x,y,-z
-x,-y,-z
1/2+x,y,-z
1/2-x,y,z
x,-y,z
loop_
_atom_site_type_symbol
_atom_site_label
_atom_site_fract_x
_atom_site_fract_y
_atom_site_fract_z
Si Si1 0.910447 0.660844 0.147577
Si Si2 0.910708 0.160722 0.549281
Si Si3 0.095886 0.664692 0.242008
Si Si4 0.910073 0.159746 0.049293
Si Si5 0.914636 0.345924 0.643931
O O1 0.750000 0.685576 0.159730
O O2 0.942836 0.500000 0.136809
O O3 0.958841 0.747134 0.097542
O O4 0.994079 0.719359 0.197161
O O5 0.750000 0.193814 0.537994
O O6 0.968527 0.243568 0.599150
O O7 0.000000 0.209468 0.500000
O O8 0.933970 0.000000 0.561270
O O9 0.250000 0.724730 0.231734
O O10 0.101689 0.500000 0.241687
O O11 0.038854 0.710745 0.299043
O O12 0.750000 0.186603 0.035678
O O13 0.937170 0.000000 0.063684
O O14 0.000000 0.206190 0.000000
O O15 0.750000 0.352092 0.643897
O O16 0.974695 0.500000 0.633438
#
# Coordination Sequence:
#
# PCOD8214833 Si02
#       5
#     8   8   8   8   8
#     4   9  17  29  45  65  88 112 138 170 208 248
#     4   9  17  29  44  61  83 111 140 171 209 250
#     4   8  14  26  44  64  85 110 139 170 206 247
#     4   9  18  32  47  62  84 114 143 171 207 249
#     4   8  14  26  44  63  83 109 140 172 206 245
#
# _framework density 16.707989000000001
#
# number of rings (size 3 to 8) (size 9 to 14) (size 15 to 20)
#    0.000    3.400    0.000    1.200    0.000    1.600 
#    0.000    2.000    0.000    2.400    0.000    0.000 
#    0.000    0.000    0.000    0.000    0.000    0.000 
#
# Total GULP energy -495852.927887 kJ/mol
# GULP energy per Si atom -12396.323197 kJ/mol
# Density = 1.666996 g / cm^3
# Si number density = 16.707989 Si / 1000 Ang^3
#
#
#
# Elastic Constant Matrix: (Units=GPa)
#
#
# Indices 1 2 3 4 5 6 
#
# 1 53.5708 30.4402 70.7459 0.0000 0.0000 0.0000
# 2 30.4402 53.1840 70.6400 0.0000 0.0000 0.0000
# 3 70.7459 70.6400 191.6054 0.0000 0.0000 0.0000
# 4 0.0000 0.0000 0.0000 13.5840 0.0000 0.0000
# 5 0.0000 0.0000 0.0000 0.0000 32.8568 0.0000
# 6 0.0000 0.0000 0.0000 0.0000 0.0000 14.5941
#
#
#
# Elastic Compliance Matrix: (Units=1/GPa)
#
#
# Indices 1 2 3 4 5 6 
#
# 1 0.037384 -0.006003 -0.011590 0.000000 0.000000 0.000000
# 2 -0.006003 0.037809 -0.011723 0.000000 0.000000 0.000000
# 3 -0.011590 -0.011723 0.013820 0.000000 0.000000 0.000000
# 4 0.000000 0.000000 0.000000 0.073616 0.000000 0.000000
# 5 0.000000 0.000000 0.000000 0.000000 0.030435 0.000000
# 6 0.000000 0.000000 0.000000 0.000000 0.000000 0.068521
#
#
# Mechanical properties :
#
#
# Convention : Reuss Voigt Hill
#
# Bulk Modulus (GPa) = 32.91460 71.33473 52.12467
# Shear Modulus (GPa) = 15.13583 20.64261 17.88922
#
# Velocity S-wave (km/s) = 3.01309 3.51877 3.27570
# Velocity P-wave (km/s) = 5.64337 7.70043 6.75071
#
# Compressibility (1/GPa) = 0.03038165
#
# Stress axis : x y z
#
# Youngs Moduli (GPa) = 26.74976 26.44895 72.35756
#
# Poissons Ratio (x) = 0.15877 0.83862
# Poissons Ratio (y) = 0.16057 0.84823
# Poissons Ratio (z) = 0.31003 0.31005
#
# Static dielectric constant tensor:
#      x y z
#    x 3.031290 0.000000 0.000000 
#    y 0.000000 3.016760 0.000000 
#    z 0.000000 0.000000 3.452410 
# 
# 
# High freq. dielectric constant tensor:
#      x y z
#    x 1.620810 0.000000 0.000000 
#    y 0.000000 1.620660 0.000000 
#    z 0.000000 0.000000 1.653730 
# 
# From -- ./inp_files/23078.got.cif
#   From: 2010.03.12/outbox.cif.g09.slc.cpg/sg51_12_cif.got.tgz:23078.got - 2010.04.16 13:43:02.
