data_PCOD8214648
_publ_section_title
;
Structure prediction by ZEFSAII (Michael W. Deem and Ramdas Pophale) SiO2 
 PCOD8214648
Probable space group: P M M A
;
_chemical_formula_sum "Si O2"
_cell_formula_units_Z 64
_cell_length_a 19.566362
_cell_length_b 19.826202
_cell_length_c 8.691289
_cell_angle_alpha 90.000000
_cell_angle_beta 90.000000
_cell_angle_gamma 90.000000
_cell_volume 3371.582586
_symmetry_space_group_name_H-M "P M M A"
_symmetry_group_IT_number 51
_symmetry_cell_setting 'orthorhombic'
loop_
_space_group_symop_operation_xyz
x,y,z
1/2-x,-y,z
1/2+x,-y,-z
-x,y,-z
-x,-y,-z
1/2+x,y,-z
1/2-x,y,z
x,-y,z
loop_
_atom_site_type_symbol
_atom_site_label
_atom_site_fract_x
_atom_site_fract_y
_atom_site_fract_z
Si Si1 0.067888 0.076575 0.403157
Si Si2 0.464051 0.423321 0.841304
Si Si3 0.674350 0.306336 0.532238
Si Si4 0.033101 0.307550 0.339231
Si Si5 0.325801 0.361118 0.801590
Si Si6 0.948078 0.819157 0.865409
Si Si7 0.828053 0.841548 0.404860
Si Si8 0.171300 0.212478 0.919753
O O1 0.059818 0.118802 0.248627
O O2 0.128765 0.101541 0.511728
O O3 0.000000 0.083237 0.500000
O O4 0.083346 0.000000 0.354841
O O5 0.480219 0.500000 0.793637
O O6 0.492632 0.373943 0.711328
O O7 0.382293 0.414319 0.858075
O O8 0.500000 0.404095 0.000000
O O9 0.750000 0.316250 0.607701
O O10 0.613576 0.326810 0.647874
O O11 0.669543 0.352214 0.381483
O O12 0.662344 0.228454 0.493474
O O13 0.022492 0.247123 0.219059
O O14 0.000000 0.283246 0.500000
O O15 0.250000 0.387834 0.845570
O O16 0.340639 0.290550 0.883139
O O17 0.872927 0.806269 0.932703
O O18 0.000000 0.839105 0.000000
O O19 0.750000 0.865082 0.409265
O O20 0.851452 0.832010 0.227736
O O21 0.250000 0.198347 0.960554
#
# Coordination Sequence:
#
# PCOD8214648 Si02
#       8
#     8   8   8   8   8   8   8   8
#     4  11  24  40  58  82 114 155 202 248 293 347
#     4  11  24  40  57  83 120 159 201 247 299 361
#     4   9  18  33  58  89 115 141 186 244 289 338
#     4  12  22  36  61  88 116 151 198 244 301 351
#     4   9  17  35  59  84 114 150 194 242 293 348
#     4  12  24  35  58  86 119 154 194 240 297 356
#     4   9  18  37  62  85 113 148 191 240 291 345
#     4   9  19  35  59  88 117 147 187 242 297 352
#
# _framework density 18.982184
#
# number of rings (size 3 to 8) (size 9 to 14) (size 15 to 20)
#    0.000    1.750    2.500    4.500    1.750    2.000 
#    0.000    1.250    0.000    1.875    0.000    0.000 
#    0.000    0.000    0.000    0.000    0.000    0.000 
#
# Total GULP energy -793699.164434 kJ/mol
# GULP energy per Si atom -12401.549444 kJ/mol
# Density = 1.893898 g / cm^3
# Si number density = 18.982184 Si / 1000 Ang^3
#
#
#
# Elastic Constant Matrix: (Units=GPa)
#
#
# Indices 1 2 3 4 5 6 
#
# 1 118.0310 42.7091 40.7057 0.0000 0.0000 0.0000
# 2 42.7091 87.9106 49.2420 0.0000 0.0000 0.0000
# 3 40.7057 49.2420 85.7656 0.0000 0.0000 0.0000
# 4 0.0000 0.0000 0.0000 20.3081 0.0000 0.0000
# 5 0.0000 0.0000 0.0000 0.0000 38.1953 0.0000
# 6 0.0000 0.0000 0.0000 0.0000 0.0000 18.8728
#
#
#
# Elastic Compliance Matrix: (Units=1/GPa)
#
#
# Indices 1 2 3 4 5 6 
#
# 1 0.010818 -0.003508 -0.003120 0.000000 0.000000 0.000000
# 2 -0.003508 0.017905 -0.008615 0.000000 0.000000 0.000000
# 3 -0.003120 -0.008615 0.018087 0.000000 0.000000 0.000000
# 4 0.000000 0.000000 0.000000 0.049241 0.000000 0.000000
# 5 0.000000 0.000000 0.000000 0.000000 0.026181 0.000000
# 6 0.000000 0.000000 0.000000 0.000000 0.000000 0.052986
#
#
# Mechanical properties :
#
#
# Convention : Reuss Voigt Hill
#
# Bulk Modulus (GPa) = 61.26252 61.89120 61.57686
# Shear Modulus (GPa) = 23.68023 26.07860 24.87942
#
# Velocity S-wave (km/s) = 3.53583 3.71056 3.62425
# Velocity P-wave (km/s) = 7.00094 7.14377 7.07271
#
# Compressibility (1/GPa) = 0.01632319
#
# Stress axis : x y z
#
# Youngs Moduli (GPa) = 92.44096 55.85008 55.28804
#
# Poissons Ratio (x) = 0.19591 0.17252
# Poissons Ratio (y) = 0.32425 0.47632
# Poissons Ratio (z) = 0.28845 0.48117
#
# Static dielectric constant tensor:
#      x y z
#    x 3.915850 0.000000 0.000000 
#    y 0.000000 3.219970 0.000000 
#    z 0.000000 0.000000 3.403620 
# 
# 
# High freq. dielectric constant tensor:
#      x y z
#    x 1.760450 0.000000 0.000000 
#    y 0.000000 1.707480 0.000000 
#    z 0.000000 0.000000 1.731440 
# 
# From -- ./inp_files/11171.got.cif
#   From: 2010.03.12/outbox.cif.g09.slc.cpg/sg51_6_cif.got.tgz:11171.got - 2010.04.16 13:43:02.
