data_PCOD8214193
_publ_section_title
;
Structure prediction by ZEFSAII (Michael W. Deem and Ramdas Pophale) SiO2 
 PCOD8214193
Probable space group: P M M A
;
_chemical_formula_sum "Si O2"
_cell_formula_units_Z 56
_cell_length_a 9.219247
_cell_length_b 13.926912
_cell_length_c 20.912036
_cell_angle_alpha 90.000000
_cell_angle_beta 90.000000
_cell_angle_gamma 90.000000
_cell_volume 2685.014281
_symmetry_space_group_name_H-M "P M M A"
_symmetry_group_IT_number 51
_symmetry_cell_setting 'orthorhombic'
loop_
_space_group_symop_operation_xyz
x,y,z
1/2-x,-y,z
1/2+x,-y,-z
-x,y,-z
-x,-y,-z
1/2+x,y,-z
1/2-x,y,z
x,-y,z
loop_
_atom_site_type_symbol
_atom_site_label
_atom_site_fract_x
_atom_site_fract_y
_atom_site_fract_z
Si Si1 0.083711 0.606872 0.124561
Si Si2 0.416286 0.202999 0.061874
Si Si3 0.918187 0.203605 0.563980
Si Si4 0.915914 0.113713 0.806208
Si Si5 0.084597 0.114079 0.682016
Si Si6 0.087506 0.385786 0.753100
Si Si7 0.915318 0.392233 0.631110
O O1 0.250000 0.602630 0.146346
O O2 0.029608 0.500000 0.104025
O O3 0.062801 0.681255 0.066468
O O4 0.996257 0.650401 0.184394
O O5 0.250000 0.174181 0.052259
O O6 0.476256 0.154196 0.126535
O O7 0.500000 0.164074 0.000000
O O8 0.750000 0.173310 0.559022
O O9 0.933848 0.319087 0.572194
O O10 0.000000 0.171782 0.500000
O O11 0.989490 0.149020 0.622904
O O12 0.750000 0.148050 0.795179
O O13 0.014698 0.154019 0.748133
O O14 0.925420 0.000000 0.809083
O O15 0.250000 0.151685 0.676612
O O16 0.080148 0.000000 0.682314
O O17 0.250000 0.345184 0.754774
O O18 0.083164 0.500000 0.752776
O O19 0.011595 0.349116 0.688565
O O20 0.750000 0.394337 0.655318
O O21 0.964424 0.500000 0.610277
#
# Coordination Sequence:
#
# PCOD8214193 Si02
#       7
#     8   8   8   8   8   8   8
#     4   9  18  33  51  72 105 148 189 230 278 335
#     4  10  22  37  54  80 112 148 190 232 282 340
#     4  11  24  40  60  87 120 158 198 239 288 343
#     4   9  19  38  62  86 113 146 185 231 284 343
#     4  10  22  41  65  92 119 149 189 238 292 349
#     4   9  17  29  48  77 107 137 181 236 287 330
#     4   9  19  36  56  79 112 155 197 235 281 339
#
# _framework density 20.8565
#
# number of rings (size 3 to 8) (size 9 to 14) (size 15 to 20)
#    0.000    2.429    0.000    1.286    2.000    6.000 
#    0.000    0.000    0.000    0.000    0.000    0.000 
#    0.000    0.000    0.000    0.000    0.000    0.000 
#
# Total GULP energy -694367.451130 kJ/mol
# GULP energy per Si atom -12399.418770 kJ/mol
# Density = 2.080903 g / cm^3
# Si number density = 20.856500 Si / 1000 Ang^3
#
#
#
# Elastic Constant Matrix: (Units=GPa)
#
#
# Indices 1 2 3 4 5 6 
#
# 1 120.0287 17.3789 76.6690 0.0000 0.0000 0.0000
# 2 17.3789 17.5107 25.0393 0.0000 0.0000 0.0000
# 3 76.6690 25.0393 154.9635 0.0000 0.0000 0.0000
# 4 0.0000 0.0000 0.0000 23.5881 0.0000 0.0000
# 5 0.0000 0.0000 0.0000 0.0000 38.8672 0.0000
# 6 0.0000 0.0000 0.0000 0.0000 0.0000 20.4088
#
#
#
# Elastic Compliance Matrix: (Units=1/GPa)
#
#
# Indices 1 2 3 4 5 6 
#
# 1 0.012462 -0.004619 -0.005419 0.000000 0.000000 0.000000
# 2 -0.004619 0.075979 -0.009992 0.000000 0.000000 0.000000
# 3 -0.005419 -0.009992 0.010749 0.000000 0.000000 0.000000
# 4 0.000000 0.000000 0.000000 0.042394 0.000000 0.000000
# 5 0.000000 0.000000 0.000000 0.000000 0.025729 0.000000
# 6 0.000000 0.000000 0.000000 0.000000 0.000000 0.048999
#
#
# Mechanical properties :
#
#
# Convention : Reuss Voigt Hill
#
# Bulk Modulus (GPa) = 16.91176 58.96414 37.93795
# Shear Modulus (GPa) = 18.11066 28.13386 23.12226
#
# Velocity S-wave (km/s) = 2.94997 3.67676 3.33323
# Velocity P-wave (km/s) = 4.44177 6.80863 5.74834
#
# Compressibility (1/GPa) = 0.05913046
#
# Stress axis : x y z
#
# Youngs Moduli (GPa) = 80.24666 13.16147 93.03401
#
# Poissons Ratio (x) = 0.06079 0.50416
# Poissons Ratio (y) = 0.37064 0.92957
# Poissons Ratio (z) = 0.43487 0.13151
#
# Static dielectric constant tensor:
#      x y z
#    x 3.881130 0.000000 0.000000 
#    y 0.000000 3.804370 0.000000 
#    z 0.000000 0.000000 3.574020 
# 
# 
# High freq. dielectric constant tensor:
#      x y z
#    x 1.812250 0.000000 0.000000 
#    y 0.000000 1.822160 0.000000 
#    z 0.000000 0.000000 1.801860 
# 
# From -- ./inp_files/31862.got.cif
#   From: 2010.03.12/outbox.cif.g09.slc.cpg/sg51_16_cif.got.tgz:31862.got - 2010.04.16 13:43:02.
