data_PCOD8214354
_publ_section_title
;
Structure prediction by ZEFSAII (Michael W. Deem and Ramdas Pophale) SiO2 
 PCOD8214354
Probable space group: P M M A
;
_chemical_formula_sum "Si O2"
_cell_formula_units_Z 32
_cell_length_a 15.402002
_cell_length_b 7.672194
_cell_length_c 13.564657
_cell_angle_alpha 90.000000
_cell_angle_beta 90.000000
_cell_angle_gamma 90.000000
_cell_volume 1602.896822
_symmetry_space_group_name_H-M "P M M A"
_symmetry_group_IT_number 51
_symmetry_cell_setting 'orthorhombic'
loop_
_space_group_symop_operation_xyz
x,y,z
1/2-x,-y,z
1/2+x,-y,-z
-x,y,-z
-x,-y,-z
1/2+x,y,-z
1/2-x,y,z
x,-y,z
loop_
_atom_site_type_symbol
_atom_site_label
_atom_site_fract_x
_atom_site_fract_y
_atom_site_fract_z
Si Si1 0.352495 0.500000 0.611823
Si Si2 0.852558 0.500000 0.612535
Si Si3 0.099190 0.199611 0.245227
Si Si4 0.095749 0.193894 0.750745
Si Si5 0.750000 0.796998 0.901476
Si Si6 0.250000 0.304209 0.879721
O O1 0.250000 0.500000 0.619297
O O2 0.384932 0.500000 0.499739
O O3 0.388710 0.672832 0.662626
O O4 0.750000 0.500000 0.620894
O O5 0.889251 0.324600 0.661367
O O6 0.164427 0.258078 0.158944
O O7 0.000979 0.219550 0.205236
O O8 0.119504 0.000000 0.277415
O O9 0.163205 0.212760 0.840233
O O10 0.105378 0.000000 0.705889
O O11 0.750000 0.000000 0.926951
O O12 0.750000 0.692353 0.002759
O O13 0.250000 0.500000 0.838239
#
# Coordination Sequence:
#
# PCOD8214354 Si02
#       6
#     4   4   8   8   4   4
#     4  11  23  41  61  95 123 160 207 248 300 366
#     4  11  23  39  67  89 125 164 199 250 306 358
#     4  10  23  41  64  92 122 160 206 248 298 362
#     4  11  22  41  65  89 123 163 202 250 302 355
#     4  10  22  42  62  87 124 159 200 252 302 359
#     4  12  24  40  62  92 125 158 204 251 301 365
#
# _framework density 19.963857000000001
#
# number of rings (size 3 to 8) (size 9 to 14) (size 15 to 20)
#    0.000    1.250    3.750    1.875    1.750    4.000 
#    0.000   10.000    0.000    0.000    0.000    0.000 
#    0.000    0.000    0.000    0.000    0.000    0.000 
#
# Total GULP energy -396898.048103 kJ/mol
# GULP energy per Si atom -12403.064003 kJ/mol
# Density = 1.991842 g / cm^3
# Si number density = 19.963857 Si / 1000 Ang^3
#
#
#
# Elastic Constant Matrix: (Units=GPa)
#
#
# Indices 1 2 3 4 5 6 
#
# 1 162.6000 50.2798 68.3352 0.0000 0.0000 0.0000
# 2 50.2798 128.9194 62.5992 0.0000 0.0000 0.0000
# 3 68.3352 62.5992 141.4375 0.0000 0.0000 0.0000
# 4 0.0000 0.0000 0.0000 27.0947 0.0000 0.0000
# 5 0.0000 0.0000 0.0000 0.0000 10.2826 0.0000
# 6 0.0000 0.0000 0.0000 0.0000 0.0000 28.3195
#
#
#
# Elastic Compliance Matrix: (Units=1/GPa)
#
#
# Indices 1 2 3 4 5 6 
#
# 1 0.007961 -0.001576 -0.003149 0.000000 0.000000 0.000000
# 2 -0.001576 0.010192 -0.003750 0.000000 0.000000 0.000000
# 3 -0.003149 -0.003750 0.010251 0.000000 0.000000 0.000000
# 4 0.000000 0.000000 0.000000 0.036908 0.000000 0.000000
# 5 0.000000 0.000000 0.000000 0.000000 0.097252 0.000000
# 6 0.000000 0.000000 0.000000 0.000000 0.000000 0.035311
#
#
# Mechanical properties :
#
#
# Convention : Reuss Voigt Hill
#
# Bulk Modulus (GPa) = 87.29384 88.37616 87.83500
# Shear Modulus (GPa) = 22.86853 29.92219 26.39536
#
# Velocity S-wave (km/s) = 3.38819 3.87566 3.64009
# Velocity P-wave (km/s) = 7.68943 8.02445 7.85873
#
# Compressibility (1/GPa) = 0.01145556
#
# Stress axis : x y z
#
# Youngs Moduli (GPa) = 125.61807 98.11576 97.55061
#
# Poissons Ratio (x) = 0.15461 0.30716
# Poissons Ratio (y) = 0.19795 0.36577
# Poissons Ratio (z) = 0.39554 0.36789
#
# Static dielectric constant tensor:
#      x y z
#    x 3.946210 0.000000 0.000000 
#    y 0.000000 4.289870 0.000000 
#    z 0.000000 0.000000 3.437720 
# 
# 
# High freq. dielectric constant tensor:
#      x y z
#    x 1.799450 0.000000 0.000000 
#    y 0.000000 1.795320 0.000000 
#    z 0.000000 0.000000 1.757300 
# 
# From -- ./inp_files/16008.got.cif
#   From: 2010.03.12/outbox.cif.g09.slc.cpg/sg51_9_cif.got.tgz:16008.got - 2010.04.16 13:43:02.
