data_PCOD8214780
_publ_section_title
;
Structure prediction by ZEFSAII (Michael W. Deem and Ramdas Pophale) SiO2 
 PCOD8214780
Probable space group: P M M A
;
_chemical_formula_sum "Si O2"
_cell_formula_units_Z 48
_cell_length_a 23.870135
_cell_length_b 9.527525
_cell_length_c 13.604039
_cell_angle_alpha 90.000000
_cell_angle_beta 90.000000
_cell_angle_gamma 90.000000
_cell_volume 3093.875551
_symmetry_space_group_name_H-M "P M M A"
_symmetry_group_IT_number 51
_symmetry_cell_setting 'orthorhombic'
loop_
_space_group_symop_operation_xyz
x,y,z
1/2-x,-y,z
1/2+x,-y,-z
-x,y,-z
-x,-y,-z
1/2+x,y,-z
1/2-x,y,z
x,-y,z
loop_
_atom_site_type_symbol
_atom_site_label
_atom_site_fract_x
_atom_site_fract_y
_atom_site_fract_z
Si Si1 0.688720 0.167101 0.153230
Si Si2 0.685831 0.163403 0.375976
Si Si3 0.916648 0.166197 0.040569
Si Si4 0.974145 0.165894 0.846499
Si Si5 0.520984 0.662467 0.654471
Si Si6 0.588580 0.662320 0.460693
O O1 0.750000 0.223544 0.120646
O O2 0.675680 0.214857 0.264325
O O3 0.642068 0.230168 0.079378
O O4 0.688907 0.000000 0.150069
O O5 0.750000 0.192986 0.407180
O O6 0.644611 0.248213 0.446665
O O7 0.671671 0.000000 0.386665
O O8 0.966186 0.218579 0.111855
O O9 0.915898 0.000000 0.047397
O O10 0.927292 0.209444 0.927486
O O11 0.960363 0.244715 0.746359
O O12 0.973721 0.000000 0.826798
O O13 0.520718 0.500000 0.684948
O O14 0.566435 0.690367 0.570104
O O15 0.459386 0.707608 0.616882
O O16 0.603515 0.500000 0.446124
#
# Coordination Sequence:
#
# PCOD8214780 Si02
#       6
#     8   8   8   8   8   8
#     4   8  13  22  38  60  85 110 132 160 204 250
#     4   9  17  28  44  68  92 110 135 175 214 247
#     4   8  14  24  38  59  85 109 136 168 201 246
#     4   9  16  26  42  62  83 109 139 171 207 247
#     4   9  18  31  44  61  86 112 142 180 214 247
#     4   9  18  31  45  61  84 115 145 173 210 256
#
# _framework density 15.514521
#
# number of rings (size 3 to 8) (size 9 to 14) (size 15 to 20)
#    0.000    3.333    0.000    4.000    0.000    3.000 
#    0.000    3.333    0.000    2.000    0.000    2.333 
#    0.000    0.000    0.000    0.000    0.000    0.000 
#
# Total GULP energy -594930.865650 kJ/mol
# GULP energy per Si atom -12394.393034 kJ/mol
# Density = 1.547921 g / cm^3
# Si number density = 15.514521 Si / 1000 Ang^3
#
#
#
# Elastic Constant Matrix: (Units=GPa)
#
#
# Indices 1 2 3 4 5 6 
#
# 1 117.0719 40.1748 56.9748 0.0000 0.0000 0.0000
# 2 40.1748 42.0876 42.5835 0.0000 0.0000 0.0000
# 3 56.9748 42.5835 100.6212 0.0000 0.0000 0.0000
# 4 0.0000 0.0000 0.0000 16.3495 0.0000 0.0000
# 5 0.0000 0.0000 0.0000 0.0000 25.8357 0.0000
# 6 0.0000 0.0000 0.0000 0.0000 0.0000 20.6766
#
#
#
# Elastic Compliance Matrix: (Units=1/GPa)
#
#
# Indices 1 2 3 4 5 6 
#
# 1 0.013497 -0.009009 -0.003830 0.000000 0.000000 0.000000
# 2 -0.009009 0.047565 -0.015029 0.000000 0.000000 0.000000
# 3 -0.003830 -0.015029 0.018467 0.000000 0.000000 0.000000
# 4 0.000000 0.000000 0.000000 0.061164 0.000000 0.000000
# 5 0.000000 0.000000 0.000000 0.000000 0.038706 0.000000
# 6 0.000000 0.000000 0.000000 0.000000 0.000000 0.048364
#
#
# Mechanical properties :
#
#
# Convention : Reuss Voigt Hill
#
# Bulk Modulus (GPa) = 42.02651 59.91633 50.97142
# Shear Modulus (GPa) = 17.15679 20.57553 18.86616
#
# Velocity S-wave (km/s) = 3.32905 3.64567 3.49095
# Velocity P-wave (km/s) = 6.47488 7.51163 7.01244
#
# Compressibility (1/GPa) = 0.02379451
#
# Stress axis : x y z
#
# Youngs Moduli (GPa) = 74.09013 21.02381 54.14992
#
# Poissons Ratio (x) = 0.18939 0.20739
# Poissons Ratio (y) = 0.66744 0.81382
# Poissons Ratio (z) = 0.28376 0.31597
#
# Static dielectric constant tensor:
#      x y z
#    x 3.203350 0.000000 0.000000 
#    y 0.000000 2.595040 0.000000 
#    z 0.000000 0.000000 2.900480 
# 
# 
# High freq. dielectric constant tensor:
#      x y z
#    x 1.591730 0.000000 0.000000 
#    y 0.000000 1.562240 0.000000 
#    z 0.000000 0.000000 1.586480 
# 
# From -- ./inp_files/26013.got.cif
#   From: 2010.03.12/outbox.cif.g09.slc.cpg/sg51_14_cif.got.tgz:26013.got - 2010.04.16 13:43:02.
