data_PCOD8214793
_publ_section_title
;
Structure prediction by ZEFSAII (Michael W. Deem and Ramdas Pophale) SiO2 
 PCOD8214793
Probable space group: P M M A
;
_chemical_formula_sum "Si O2"
_cell_formula_units_Z 56
_cell_length_a 9.375408
_cell_length_b 13.934749
_cell_length_c 29.076909
_cell_angle_alpha 90.000000
_cell_angle_beta 90.000000
_cell_angle_gamma 90.000000
_cell_volume 3798.722456
_symmetry_space_group_name_H-M "P M M A"
_symmetry_group_IT_number 51
_symmetry_cell_setting 'orthorhombic'
loop_
_space_group_symop_operation_xyz
x,y,z
1/2-x,-y,z
1/2+x,-y,-z
-x,y,-z
-x,-y,-z
1/2+x,y,-z
1/2-x,y,z
x,-y,z
loop_
_atom_site_type_symbol
_atom_site_label
_atom_site_fract_x
_atom_site_fract_y
_atom_site_fract_z
Si Si1 0.907913 0.613757 0.372172
Si Si2 0.918660 0.787974 0.954311
Si Si3 0.589466 0.385525 0.543412
Si Si4 0.081180 0.288867 0.190157
Si Si5 0.919061 0.394431 0.900769
Si Si6 0.417966 0.609728 0.730991
Si Si7 0.580953 0.894078 0.863344
O O1 0.750000 0.656033 0.382026
O O2 0.899246 0.500000 0.376066
O O3 0.958520 0.641294 0.320887
O O4 0.017819 0.654847 0.409844
O O5 0.750000 0.793535 0.962845
O O6 0.967607 0.680140 0.940063
O O7 0.968349 0.859300 0.913772
O O8 0.000000 0.819668 0.000000
O O9 0.500000 0.346971 0.500000
O O10 0.750000 0.345175 0.540302
O O11 0.590833 0.500000 0.543595
O O12 0.250000 0.295083 0.198283
O O13 0.030588 0.359859 0.149488
O O14 0.032865 0.180864 0.176059
O O15 0.001539 0.317817 0.236373
O O16 0.750000 0.397667 0.900218
O O17 0.983956 0.500000 0.911032
O O18 0.250000 0.619819 0.739205
O O19 0.466349 0.500000 0.740206
O O20 0.750000 0.897059 0.863713
O O21 0.516905 0.000000 0.853194
#
# Coordination Sequence:
#
# PCOD8214793 Si02
#       7
#     8   8   8   8   8   8   8
#     4   8  14  24  34  44  63  93 126 155 186 227
#     4   9  17  28  42  59  77  98 123 150 182 220
#     4   9  15  21  30  44  62  87 122 164 203 231
#     4   9  16  26  43  62  74  92 127 163 188 218
#     4   8  14  25  39  54  74  99 124 150 181 218
#     4   9  17  27  38  54  79 107 127 151 195 239
#     4   8  15  29  46  61  78 100 124 151 188 233
#
# _framework density 14.741797999999999
#
# number of rings (size 3 to 8) (size 9 to 14) (size 15 to 20)
#    0.000    3.429    0.000    3.429    0.000    3.714 
#    0.000    4.286    0.000    2.143    0.000    0.000 
#    0.000    0.000    0.000    0.000    0.000    0.714 
#
# Total GULP energy -693982.888705 kJ/mol
# GULP energy per Si atom -12392.551584 kJ/mol
# Density = 1.470825 g / cm^3
# Si number density = 14.741798 Si / 1000 Ang^3
#
#
#
# Elastic Constant Matrix: (Units=GPa)
#
#
# Indices 1 2 3 4 5 6 
#
# 1 56.0676 21.4872 52.9001 0.0000 0.0000 0.0000
# 2 21.4872 79.0042 38.5372 0.0000 0.0000 0.0000
# 3 52.9001 38.5372 121.2819 0.0000 0.0000 0.0000
# 4 0.0000 0.0000 0.0000 10.3853 0.0000 0.0000
# 5 0.0000 0.0000 0.0000 0.0000 28.0840 0.0000
# 6 0.0000 0.0000 0.0000 0.0000 0.0000 8.7426
#
#
#
# Elastic Compliance Matrix: (Units=1/GPa)
#
#
# Indices 1 2 3 4 5 6 
#
# 1 0.030613 -0.002145 -0.012671 0.000000 0.000000 0.000000
# 2 -0.002145 0.015130 -0.003872 0.000000 0.000000 0.000000
# 3 -0.012671 -0.003872 0.015002 0.000000 0.000000 0.000000
# 4 0.000000 0.000000 0.000000 0.096290 0.000000 0.000000
# 5 0.000000 0.000000 0.000000 0.000000 0.035607 0.000000
# 6 0.000000 0.000000 0.000000 0.000000 0.000000 0.114382
#
#
# Mechanical properties :
#
#
# Convention : Reuss Voigt Hill
#
# Bulk Modulus (GPa) = 42.79187 53.57808 48.18498
# Shear Modulus (GPa) = 14.19692 19.00434 16.60063
#
# Velocity S-wave (km/s) = 3.10665 3.59436 3.35937
# Velocity P-wave (km/s) = 6.47758 7.32456 6.91405
#
# Compressibility (1/GPa) = 0.02336892
#
# Stress axis : x y z
#
# Youngs Moduli (GPa) = 32.66606 66.09567 66.65687
#
# Poissons Ratio (x) = 0.14179 0.84460
# Poissons Ratio (y) = 0.07008 0.25808
# Poissons Ratio (z) = 0.41391 0.25590
#
# Static dielectric constant tensor:
#      x y z
#    x 2.692500 0.000000 0.000000 
#    y 0.000000 2.888180 0.000000 
#    z 0.000000 0.000000 2.911490 
# 
# 
# High freq. dielectric constant tensor:
#      x y z
#    x 1.543320 0.000000 0.000000 
#    y 0.000000 1.518670 0.000000 
#    z 0.000000 0.000000 1.564830 
# 
# From -- ./inp_files/37487.got.cif
#   From: 2010.03.12/outbox.cif.g09.slc.cpg/sg51_19_cif.got.tgz:37487.got - 2010.04.16 13:43:02.
