data_PCOD8214837
_publ_section_title
;
Structure prediction by ZEFSAII (Michael W. Deem and Ramdas Pophale) SiO2 
 PCOD8214837
Probable space group: P M M A
;
_chemical_formula_sum "Si O2"
_cell_formula_units_Z 64
_cell_length_a 9.346153
_cell_length_b 18.554164
_cell_length_c 26.313205
_cell_angle_alpha 90.000000
_cell_angle_beta 90.000000
_cell_angle_gamma 90.000000
_cell_volume 4562.974340
_symmetry_space_group_name_H-M "P M M A"
_symmetry_group_IT_number 51
_symmetry_cell_setting 'orthorhombic'
loop_
_space_group_symop_operation_xyz
x,y,z
1/2-x,-y,z
1/2+x,-y,-z
-x,y,-z
-x,-y,-z
1/2+x,y,-z
1/2-x,y,z
x,-y,z
loop_
_atom_site_type_symbol
_atom_site_label
_atom_site_fract_x
_atom_site_fract_y
_atom_site_fract_z
Si Si1 0.087995 0.719831 0.888030
Si Si2 0.915747 0.583513 0.645983
Si Si3 0.414741 0.420404 0.839272
Si Si4 0.418196 0.081917 0.844935
Si Si5 0.588195 0.414263 0.452147
Si Si6 0.084214 0.344813 0.249897
Si Si7 0.088151 0.847689 0.951362
Si Si8 0.415645 0.795521 0.196751
O O1 0.250000 0.737737 0.867770
O O2 0.065700 0.633054 0.888301
O O3 0.070354 0.760793 0.942042
O O4 0.967131 0.751068 0.851796
O O5 0.750000 0.594910 0.631744
O O6 0.946290 0.500000 0.658627
O O7 0.962569 0.631390 0.694001
O O8 0.010622 0.611401 0.599185
O O9 0.250000 0.423892 0.823174
O O10 0.471087 0.500000 0.854492
O O11 0.497032 0.391037 0.790574
O O12 0.250000 0.089725 0.836844
O O13 0.463114 0.109825 0.900982
O O14 0.495857 0.129636 0.801203
O O15 0.469616 0.000000 0.838750
O O16 0.500000 0.382979 0.500000
O O17 0.750000 0.383905 0.453385
O O18 0.589557 0.500000 0.454743
O O19 0.250000 0.362906 0.240281
O O20 0.057010 0.258261 0.244553
O O21 0.250000 0.868570 0.963782
O O22 0.000000 0.872869 0.000000
O O23 0.250000 0.815295 0.191046
#
# Coordination Sequence:
#
# PCOD8214837 Si02
#       8
#     8   8   8   8   8   8   8   8
#     4   8  15  28  41  53  73  99 122 145 179 222
#     4   9  16  25  36  50  71 100 131 161 194 230
#     4   9  16  25  39  57  73  92 122 157 188 220
#     4   9  18  32  46  59  78 102 123 143 173 215
#     4   9  16  25  36  49  66  91 126 167 206 239
#     4   9  17  27  38  54  78 104 125 150 190 233
#     4   9  17  28  42  58  75  96 120 146 177 214
#     4   9  16  26  41  60  78  97 124 153 178 211
#
# _framework density 14.025938999999999
#
# number of rings (size 3 to 8) (size 9 to 14) (size 15 to 20)
#    0.000    3.125    0.000    1.875    0.000    5.750 
#    0.000    1.250    0.000    0.375    0.000    0.000 
#    0.000    0.000    0.000    0.000    0.000    1.375 
#
# Total GULP energy -792928.589529 kJ/mol
# GULP energy per Si atom -12389.509211 kJ/mol
# Density = 1.399402 g / cm^3
# Si number density = 14.025939 Si / 1000 Ang^3
#
#
#
# Elastic Constant Matrix: (Units=GPa)
#
#
# Indices 1 2 3 4 5 6 
#
# 1 52.3787 29.9564 27.0452 0.0000 0.0000 0.0000
# 2 29.9564 96.6338 29.0210 0.0000 0.0000 0.0000
# 3 27.0452 29.0210 48.3408 0.0000 0.0000 0.0000
# 4 0.0000 0.0000 0.0000 11.7133 0.0000 0.0000
# 5 0.0000 0.0000 0.0000 0.0000 20.6145 0.0000
# 6 0.0000 0.0000 0.0000 0.0000 0.0000 16.5400
#
#
#
# Elastic Compliance Matrix: (Units=1/GPa)
#
#
# Indices 1 2 3 4 5 6 
#
# 1 0.028677 -0.004967 -0.013062 0.000000 0.000000 0.000000
# 2 -0.004967 0.013485 -0.005317 0.000000 0.000000 0.000000
# 3 -0.013062 -0.005317 0.031186 0.000000 0.000000 0.000000
# 4 0.000000 0.000000 0.000000 0.085373 0.000000 0.000000
# 5 0.000000 0.000000 0.000000 0.000000 0.048509 0.000000
# 6 0.000000 0.000000 0.000000 0.000000 0.000000 0.060460
#
#
# Mechanical properties :
#
#
# Convention : Reuss Voigt Hill
#
# Bulk Modulus (GPa) = 37.51421 41.04427 39.27924
# Shear Modulus (GPa) = 15.46713 17.19561 16.33137
#
# Velocity S-wave (km/s) = 3.32437 3.50521 3.41599
# Velocity P-wave (km/s) = 6.44513 6.76081 6.60486
#
# Compressibility (1/GPa) = 0.02665656
#
# Stress axis : x y z
#
# Youngs Moduli (GPa) = 34.87132 74.15754 32.06570
#
# Poissons Ratio (x) = 0.36834 0.41884
# Poissons Ratio (y) = 0.17321 0.17048
# Poissons Ratio (z) = 0.45549 0.39427
#
# Static dielectric constant tensor:
#      x y z
#    x 2.832280 0.000000 0.000000 
#    y 0.000000 2.900930 0.000000 
#    z 0.000000 0.000000 2.593460 
# 
# 
# High freq. dielectric constant tensor:
#      x y z
#    x 1.544090 0.000000 0.000000 
#    y 0.000000 1.514810 0.000000 
#    z 0.000000 0.000000 1.499030 
# 
# From -- ./inp_files/36483.got.cif
#   From: 2010.03.12/outbox.cif.g09.slc.cpg/sg51_19_cif.got.tgz:36483.got - 2010.04.16 13:43:02.
