data_PCOD8214891
_publ_section_title
;
Structure prediction by ZEFSAII (Michael W. Deem and Ramdas Pophale) SiO2 
 PCOD8214891
Probable space group: P M M A
;
_chemical_formula_sum "Si O2"
_cell_formula_units_Z 40
_cell_length_a 16.541026
_cell_length_b 10.431904
_cell_length_c 13.350152
_cell_angle_alpha 90.000000
_cell_angle_beta 90.000000
_cell_angle_gamma 90.000000
_cell_volume 2303.627405
_symmetry_space_group_name_H-M "P M M A"
_symmetry_group_IT_number 51
_symmetry_cell_setting 'orthorhombic'
loop_
_space_group_symop_operation_xyz
x,y,z
1/2-x,-y,z
1/2+x,-y,-z
-x,y,-z
-x,-y,-z
1/2+x,y,-z
1/2-x,y,z
x,-y,z
loop_
_atom_site_type_symbol
_atom_site_label
_atom_site_fract_x
_atom_site_fract_y
_atom_site_fract_z
Si Si1 0.840518 0.744253 0.122879
Si Si2 0.049607 0.643845 0.599070
Si Si3 0.341766 0.861443 0.667000
Si Si4 0.993229 0.641684 0.816424
Si Si5 0.582072 0.141368 0.940122
O O1 0.750000 0.680067 0.127524
O O2 0.849886 0.844349 0.213535
O O3 0.915556 0.646197 0.136599
O O4 0.847311 0.816554 0.016458
O O5 0.086630 0.500000 0.596315
O O6 0.993657 0.659585 0.696854
O O7 0.000000 0.672869 0.500000
O O8 0.120122 0.747516 0.602981
O O9 0.250000 0.863021 0.632778
O O10 0.381811 0.000000 0.641988
O O11 0.959787 0.500000 0.844223
O O12 0.931386 0.750009 0.855746
O O13 0.603260 0.000000 0.894243
O O14 0.500000 0.129330 0.000000
#
# Coordination Sequence:
#
# PCOD8214891 Si02
#       5
#     8   8   8   8   8
#     4   9  17  28  45  69  95 121 149 182 221 267
#     4   9  18  32  49  68  89 117 154 190 225 270
#     4   9  17  29  46  70  97 119 142 180 229 273
#     4   9  18  31  46  65  91 120 150 188 229 265
#     4   9  17  28  43  63  88 120 152 176 208 261
#
# _framework density 17.363918999999999
#
# number of rings (size 3 to 8) (size 9 to 14) (size 15 to 20)
#    0.000    3.000    0.000    0.600    0.000   10.800 
#    0.000    4.000    0.000    1.200    0.000    2.800 
#    0.000    0.000    0.000    0.000    0.000    0.000 
#
# Total GULP energy -495543.518094 kJ/mol
# GULP energy per Si atom -12388.587952 kJ/mol
# Density = 1.732440 g / cm^3
# Si number density = 17.363919 Si / 1000 Ang^3
#
#
#
# Elastic Constant Matrix: (Units=GPa)
#
#
# Indices 1 2 3 4 5 6 
#
# 1 47.8499 36.0115 36.4033 0.0000 0.0000 0.0000
# 2 36.0115 150.7406 62.7025 0.0000 0.0000 0.0000
# 3 36.4033 62.7025 87.8499 0.0000 0.0000 0.0000
# 4 0.0000 0.0000 0.0000 15.5962 0.0000 0.0000
# 5 0.0000 0.0000 0.0000 0.0000 19.8082 0.0000
# 6 0.0000 0.0000 0.0000 0.0000 0.0000 16.4786
#
#
#
# Elastic Compliance Matrix: (Units=1/GPa)
#
#
# Indices 1 2 3 4 5 6 
#
# 1 0.031431 -0.002974 -0.010902 0.000000 0.000000 0.000000
# 2 -0.002974 0.009717 -0.005703 0.000000 0.000000 0.000000
# 3 -0.010902 -0.005703 0.019971 0.000000 0.000000 0.000000
# 4 0.000000 0.000000 0.000000 0.064118 0.000000 0.000000
# 5 0.000000 0.000000 0.000000 0.000000 0.050484 0.000000
# 6 0.000000 0.000000 0.000000 0.000000 0.000000 0.060685
#
#
# Mechanical properties :
#
#
# Convention : Reuss Voigt Hill
#
# Bulk Modulus (GPa) = 45.53475 61.85277 53.69376
# Shear Modulus (GPa) = 17.67521 20.46480 19.07001
#
# Velocity S-wave (km/s) = 3.19396 3.43677 3.31759
# Velocity P-wave (km/s) = 6.31526 7.17268 6.75758
#
# Compressibility (1/GPa) = 0.02196125
#
# Stress axis : x y z
#
# Youngs Moduli (GPa) = 31.81616 102.91733 50.07322
#
# Poissons Ratio (x) = 0.30608 0.54587
# Poissons Ratio (y) = 0.09462 0.28556
# Poissons Ratio (z) = 0.34684 0.58691
#
# Static dielectric constant tensor:
#      x y z
#    x 3.094990 0.000000 0.000000 
#    y 0.000000 3.562490 0.000000 
#    z 0.000000 0.000000 3.116800 
# 
# 
# High freq. dielectric constant tensor:
#      x y z
#    x 1.633140 0.000000 0.000000 
#    y 0.000000 1.681560 0.000000 
#    z 0.000000 0.000000 1.648800 
# 
# From -- ./inp_files/23723.got.cif
#   From: 2010.03.12/outbox.cif.g09.slc.cpg/sg51_12_cif.got.tgz:23723.got - 2010.04.16 13:43:02.
