data_PCOD8214740
_publ_section_title
;
Structure prediction by ZEFSAII (Michael W. Deem and Ramdas Pophale) SiO2 
 PCOD8214740
Probable space group: P M M A
;
_chemical_formula_sum "Si O2"
_cell_formula_units_Z 40
_cell_length_a 9.773303
_cell_length_b 9.289024
_cell_length_c 25.950367
_cell_angle_alpha 90.000000
_cell_angle_beta 90.000000
_cell_angle_gamma 90.000000
_cell_volume 2355.889695
_symmetry_space_group_name_H-M "P M M A"
_symmetry_group_IT_number 51
_symmetry_cell_setting 'orthorhombic'
loop_
_space_group_symop_operation_xyz
x,y,z
1/2-x,-y,z
1/2+x,-y,-z
-x,y,-z
-x,-y,-z
1/2+x,y,-z
1/2-x,y,z
x,-y,z
loop_
_atom_site_type_symbol
_atom_site_label
_atom_site_fract_x
_atom_site_fract_y
_atom_site_fract_z
Si Si1 0.913357 0.837776 0.753943
Si Si2 0.912665 0.662342 0.851701
Si Si3 0.402383 0.328363 0.455828
Si Si4 0.412975 0.339517 0.342520
Si Si5 0.092032 0.832819 0.048138
O O1 0.750000 0.837031 0.754229
O O2 0.970889 0.747683 0.802350
O O3 0.970166 0.766667 0.701363
O O4 0.969739 0.000000 0.757525
O O5 0.750000 0.661240 0.849371
O O6 0.970760 0.500000 0.851162
O O7 0.961627 0.741790 0.903394
O O8 0.500000 0.263135 0.500000
O O9 0.250000 0.266648 0.465030
O O10 0.398699 0.500000 0.458473
O O11 0.458216 0.282873 0.399169
O O12 0.250000 0.345658 0.341024
O O13 0.471042 0.500000 0.332100
O O14 0.250000 0.798537 0.035151
O O15 0.072526 0.000000 0.061819
O O16 0.000000 0.786229 0.000000
#
# Coordination Sequence:
#
# PCOD8214740 Si02
#       5
#     8   8   8   8   8
#     4   9  15  22  34  53  77 103 129 160 201 245
#     4   9  16  25  38  57  81 107 134 166 204 242
#     4   8  13  21  34  53  76 101 129 160 193 230
#     4   8  13  21  33  50  73  99 126 158 196 236
#     4   9  17  29  44  62  85 112 140 168 198 235
#
# _framework density 16.978722000000001
#
# number of rings (size 3 to 8) (size 9 to 14) (size 15 to 20)
#    0.000    3.400    0.000    2.400    0.000    5.200 
#    0.000    0.000    0.000    0.600    0.000    1.400 
#    0.000    4.800    0.000    0.000    0.000    0.000 
#
# Total GULP energy -495780.666054 kJ/mol
# GULP energy per Si atom -12394.516651 kJ/mol
# Density = 1.694008 g / cm^3
# Si number density = 16.978722 Si / 1000 Ang^3
#
#
#
# Elastic Constant Matrix: (Units=GPa)
#
#
# Indices 1 2 3 4 5 6 
#
# 1 26.0997 18.7399 39.0958 0.0000 0.0000 0.0000
# 2 18.7399 103.1883 85.4981 0.0000 0.0000 0.0000
# 3 39.0958 85.4981 190.4853 0.0000 0.0000 0.0000
# 4 0.0000 0.0000 0.0000 21.0550 0.0000 0.0000
# 5 0.0000 0.0000 0.0000 0.0000 20.7154 0.0000
# 6 0.0000 0.0000 0.0000 0.0000 0.0000 6.7755
#
#
#
# Elastic Compliance Matrix: (Units=1/GPa)
#
#
# Indices 1 2 3 4 5 6 
#
# 1 0.055391 -0.001019 -0.010911 0.000000 0.000000 0.000000
# 2 -0.001019 0.015448 -0.006725 0.000000 0.000000 0.000000
# 3 -0.010911 -0.006725 0.010507 0.000000 0.000000 0.000000
# 4 0.000000 0.000000 0.000000 0.047495 0.000000 0.000000
# 5 0.000000 0.000000 0.000000 0.000000 0.048273 0.000000
# 6 0.000000 0.000000 0.000000 0.000000 0.000000 0.147591
#
#
# Mechanical properties :
#
#
# Convention : Reuss Voigt Hill
#
# Bulk Modulus (GPa) = 22.70829 67.38232 45.04530
# Shear Modulus (GPa) = 13.27340 21.47178 17.37259
#
# Velocity S-wave (km/s) = 2.79904 3.56002 3.20222
# Velocity P-wave (km/s) = 4.88362 7.52800 6.34510
#
# Compressibility (1/GPa) = 0.04403679
#
# Stress axis : x y z
#
# Youngs Moduli (GPa) = 18.05358 64.73435 95.17012
#
# Poissons Ratio (x) = 0.06594 1.03843
# Poissons Ratio (y) = 0.01839 0.63998
# Poissons Ratio (z) = 0.19699 0.43531
#
# Static dielectric constant tensor:
#      x y z
#    x 2.640440 0.000000 0.000000 
#    y 0.000000 3.154300 0.000000 
#    z 0.000000 0.000000 3.515010 
# 
# 
# High freq. dielectric constant tensor:
#      x y z
#    x 1.577770 0.000000 0.000000 
#    y 0.000000 1.639100 0.000000 
#    z 0.000000 0.000000 1.674200 
# 
# From -- ./inp_files/32782.got.cif
#   From: 2010.03.12/outbox.cif.g09.slc.cpg/sg51_17_cif.got.tgz:32782.got - 2010.04.16 13:43:02.
