data_PCOD8214391
_publ_section_title
;
Structure prediction by ZEFSAII (Michael W. Deem and Ramdas Pophale) SiO2 
 PCOD8214391
Probable space group: P M M A
;
_chemical_formula_sum "Si O2"
_cell_formula_units_Z 32
_cell_length_a 10.159447
_cell_length_b 21.306744
_cell_length_c 6.808797
_cell_angle_alpha 90.000000
_cell_angle_beta 90.000000
_cell_angle_gamma 90.000000
_cell_volume 1473.864448
_symmetry_space_group_name_H-M "P M M A"
_symmetry_group_IT_number 51
_symmetry_cell_setting 'orthorhombic'
loop_
_space_group_symop_operation_xyz
x,y,z
1/2-x,-y,z
1/2+x,-y,-z
-x,y,-z
-x,-y,-z
1/2+x,y,-z
1/2-x,y,z
x,-y,z
loop_
_atom_site_type_symbol
_atom_site_label
_atom_site_fract_x
_atom_site_fract_y
_atom_site_fract_z
Si Si1 0.396937 0.265406 0.155750
Si Si2 0.600501 0.865014 0.678091
Si Si3 0.897100 0.000000 0.672038
Si Si4 0.500000 0.343509 0.500000
Si Si5 0.601922 0.571896 0.166587
O O1 0.250000 0.276810 0.073954
O O2 0.427342 0.191193 0.171795
O O3 0.408906 0.299067 0.366230
O O4 0.500000 0.294141 0.000000
O O5 0.500000 0.859564 0.500000
O O6 0.750000 0.857838 0.596762
O O7 0.583832 0.933543 0.788034
O O8 0.000000 0.000000 0.500000
O O9 0.750000 0.000000 0.581264
O O10 0.410108 0.387116 0.637037
O O11 0.750000 0.579335 0.082650
O O12 0.572111 0.500000 0.223723
O O13 0.500000 0.594824 0.000000
#
# Coordination Sequence:
#
# PCOD8214391 Si02
#       5
#     8   8   4   4   8
#     4  11  25  41  59  86 122 161 204 251 301 355
#     4   9  17  33  55  83 113 151 195 245 300 355
#     4   8  14  26  51  80 110 143 189 243 297 353
#     4  12  23  40  66  91 120 160 208 244 294 347
#     4  10  23  43  67  96 127 158 195 243 296 352
#
# _framework density 21.71163
#
# number of rings (size 3 to 8) (size 9 to 14) (size 15 to 20)
#    0.000    2.000    1.250    1.875    0.000    7.000 
#    0.000    3.125    0.000    0.000    0.000    0.000 
#    0.000    0.000    0.000    0.000    0.000    0.000 
#
# Total GULP energy -396506.099000 kJ/mol
# GULP energy per Si atom -12390.815594 kJ/mol
# Density = 2.166221 g / cm^3
# Si number density = 21.711630 Si / 1000 Ang^3
#
#
#
# Elastic Constant Matrix: (Units=GPa)
#
#
# Indices 1 2 3 4 5 6 
#
# 1 137.7888 38.9237 57.6500 0.0000 0.0000 0.0000
# 2 38.9237 144.6123 48.3075 0.0000 0.0000 0.0000
# 3 57.6500 48.3075 97.1808 0.0000 0.0000 0.0000
# 4 0.0000 0.0000 0.0000 18.3248 0.0000 0.0000
# 5 0.0000 0.0000 0.0000 0.0000 31.1190 0.0000
# 6 0.0000 0.0000 0.0000 0.0000 0.0000 193.3796
#
#
#
# Elastic Compliance Matrix: (Units=1/GPa)
#
#
# Indices 1 2 3 4 5 6 
#
# 1 0.009736 -0.000829 -0.005363 0.000000 0.000000 0.000000
# 2 -0.000829 0.008362 -0.003665 0.000000 0.000000 0.000000
# 3 -0.005363 -0.003665 0.015294 0.000000 0.000000 0.000000
# 4 0.000000 0.000000 0.000000 0.054571 0.000000 0.000000
# 5 0.000000 0.000000 0.000000 0.000000 0.032135 0.000000
# 6 0.000000 0.000000 0.000000 0.000000 0.000000 0.005171
#
#
# Mechanical properties :
#
#
# Convention : Reuss Voigt Hill
#
# Bulk Modulus (GPa) = 73.11562 74.37156 73.74359
# Shear Modulus (GPa) = 33.43530 64.21140 48.82335
#
# Velocity S-wave (km/s) = 3.92850 5.44416 4.74721
# Velocity P-wave (km/s) = 7.37065 8.59343 8.00542
#
# Compressibility (1/GPa) = 0.01367697
#
# Stress axis : x y z
#
# Youngs Moduli (GPa) = 102.71546 119.58168 65.38612
#
# Poissons Ratio (x) = 0.09911 0.35069
# Poissons Ratio (y) = 0.08513 0.23966
# Poissons Ratio (z) = 0.55091 0.43830
#
# Static dielectric constant tensor:
#      x y z
#    x 3.926510 0.000000 0.000000 
#    y 0.000000 4.683610 0.000000 
#    z 0.000000 0.000000 3.316380 
# 
# 
# High freq. dielectric constant tensor:
#      x y z
#    x 1.860490 0.000000 0.000000 
#    y 0.000000 1.897600 0.000000 
#    z 0.000000 0.000000 1.797230 
# 
# From -- ./inp_files/772.got.cif
#   From: 2010.03.12/outbox.cif.g09.slc.cpg/sg51_1_cif.got.tgz:772.got - 2010.04.16 13:43:02.
