data_PCOD8214448
_publ_section_title
;
Structure prediction by ZEFSAII (Michael W. Deem and Ramdas Pophale) SiO2 
 PCOD8214448
Probable space group: P M M A
;
_chemical_formula_sum "Si O2"
_cell_formula_units_Z 48
_cell_length_a 14.264048
_cell_length_b 11.532936
_cell_length_c 16.976243
_cell_angle_alpha 90.000000
_cell_angle_beta 90.000000
_cell_angle_gamma 90.000000
_cell_volume 2792.699818
_symmetry_space_group_name_H-M "P M M A"
_symmetry_group_IT_number 51
_symmetry_cell_setting 'orthorhombic'
loop_
_space_group_symop_operation_xyz
x,y,z
1/2-x,-y,z
1/2+x,-y,-z
-x,y,-z
-x,-y,-z
1/2+x,y,-z
1/2-x,y,z
x,-y,z
loop_
_atom_site_type_symbol
_atom_site_label
_atom_site_fract_x
_atom_site_fract_y
_atom_site_fract_z
Si Si1 0.566603 0.742326 0.069231
Si Si2 0.250000 0.137056 0.148307
Si Si3 0.982834 0.862786 0.627412
Si Si4 0.639156 0.500000 0.011512
Si Si5 0.646316 0.136882 0.485226
Si Si6 0.750000 0.136578 0.029046
Si Si7 0.432027 0.744218 0.213068
Si Si8 0.860688 0.500000 0.827099
O O1 0.593760 0.609687 0.053731
O O2 0.658921 0.820226 0.074683
O O3 0.514679 0.760432 0.150975
O O4 0.500000 0.789847 0.000000
O O5 0.157864 0.179229 0.192301
O O6 0.250000 0.000000 0.147289
O O7 0.250000 0.189244 0.059724
O O8 0.899374 0.826829 0.568244
O O9 0.972445 0.785880 0.704446
O O10 0.081429 0.825350 0.587919
O O11 0.980174 0.000000 0.646872
O O12 0.750000 0.500000 0.023905
O O13 0.611998 0.500000 0.919413
O O14 0.750000 0.193309 0.477454
O O15 0.653727 0.000000 0.484076
O O16 0.750000 0.000000 0.026529
O O17 0.402995 0.610393 0.217019
O O18 0.750000 0.500000 0.817675
#
# Coordination Sequence:
#
# PCOD8214448 Si02
#       8
#     8   4   8   4   8   4   8   4
#     4  12  22  38  58  79 104 147 193 237 284 322
#     4  11  22  35  53  79 108 143 185 228 275 330
#     4   9  19  34  54  85 115 142 179 220 275 335
#     4  11  20  38  64  78  98 136 201 261 287 309
#     4   8  15  32  58  83 109 143 182 223 266 320
#     4  11  24  39  51  73 110 153 191 220 271 348
#     4  12  23  36  56  82 114 144 182 234 285 332
#     4  11  21  35  57  82 110 141 183 243 296 326
#
# _framework density 17.187669
#
# number of rings (size 3 to 8) (size 9 to 14) (size 15 to 20)
#    0.000    1.500    5.000    2.250    1.167    1.667 
#    1.500    0.000    0.000    2.000    0.000    1.167 
#    0.000    0.000    0.000    0.000    0.000    0.000 
#
# Total GULP energy -595267.311761 kJ/mol
# GULP energy per Si atom -12401.402328 kJ/mol
# Density = 1.714855 g / cm^3
# Si number density = 17.187669 Si / 1000 Ang^3
#
#
#
# Elastic Constant Matrix: (Units=GPa)
#
#
# Indices 1 2 3 4 5 6 
#
# 1 153.4794 39.5326 74.6709 0.0000 0.0000 0.0000
# 2 39.5326 68.6134 49.2450 0.0000 0.0000 0.0000
# 3 74.6709 49.2450 144.7850 0.0000 0.0000 0.0000
# 4 0.0000 0.0000 0.0000 39.2556 0.0000 0.0000
# 5 0.0000 0.0000 0.0000 0.0000 17.4990 0.0000
# 6 0.0000 0.0000 0.0000 0.0000 0.0000 3.8687
#
#
#
# Elastic Compliance Matrix: (Units=1/GPa)
#
#
# Indices 1 2 3 4 5 6 
#
# 1 0.009000 -0.002453 -0.003807 0.000000 0.000000 0.000000
# 2 -0.002453 0.019950 -0.005520 0.000000 0.000000 0.000000
# 3 -0.003807 -0.005520 0.010748 0.000000 0.000000 0.000000
# 4 0.000000 0.000000 0.000000 0.025474 0.000000 0.000000
# 5 0.000000 0.000000 0.000000 0.000000 0.057146 0.000000
# 6 0.000000 0.000000 0.000000 0.000000 0.000000 0.258488
#
#
# Mechanical properties :
#
#
# Convention : Reuss Voigt Hill
#
# Bulk Modulus (GPa) = 61.97128 77.08610 69.52869
# Shear Modulus (GPa) = 12.20273 25.68660 18.94466
#
# Velocity S-wave (km/s) = 2.66742 3.87004 3.32358
# Velocity P-wave (km/s) = 6.75431 8.05709 7.43429
#
# Compressibility (1/GPa) = 0.01613651
#
# Stress axis : x y z
#
# Youngs Moduli (GPa) = 111.11648 50.12607 93.04128
#
# Poissons Ratio (x) = 0.12295 0.35422
# Poissons Ratio (y) = 0.27254 0.51363
# Poissons Ratio (z) = 0.42304 0.27672
#
# Static dielectric constant tensor:
#      x y z
#    x 3.766660 0.000000 0.000000 
#    y 0.000000 3.065540 0.000000 
#    z 0.000000 0.000000 3.053820 
# 
# 
# High freq. dielectric constant tensor:
#      x y z
#    x 1.684850 0.000000 0.000000 
#    y 0.000000 1.644890 0.000000 
#    z 0.000000 0.000000 1.645640 
# 
# From -- ./inp_files/24140.got.cif
#   From: 2010.03.12/outbox.cif.g09.slc.cpg/sg51_13_cif.got.tgz:24140.got - 2010.04.16 13:43:02.
