data_PCOD8214325
_publ_section_title
;
Structure prediction by ZEFSAII (Michael W. Deem and Ramdas Pophale) SiO2 
 PCOD8214325
Probable space group: P M M A
;
_chemical_formula_sum "Si O2"
_cell_formula_units_Z 48
_cell_length_a 9.551934
_cell_length_b 14.188601
_cell_length_c 17.826789
_cell_angle_alpha 90.000000
_cell_angle_beta 90.000000
_cell_angle_gamma 90.000000
_cell_volume 2416.039405
_symmetry_space_group_name_H-M "P M M A"
_symmetry_group_IT_number 51
_symmetry_cell_setting 'orthorhombic'
loop_
_space_group_symop_operation_xyz
x,y,z
1/2-x,-y,z
1/2+x,-y,-z
-x,y,-z
-x,-y,-z
1/2+x,y,-z
1/2-x,y,z
x,-y,z
loop_
_atom_site_type_symbol
_atom_site_label
_atom_site_fract_x
_atom_site_fract_y
_atom_site_fract_z
Si Si1 0.409147 0.105675 0.066549
Si Si2 0.407050 0.264872 0.179083
Si Si3 0.983908 0.782215 0.654692
Si Si4 0.409603 0.604487 0.573780
Si Si5 0.913228 0.610907 0.074238
Si Si6 0.250000 0.889769 0.615788
Si Si7 0.750000 0.113156 0.561151
O O1 0.250000 0.107594 0.039252
O O2 0.434455 0.165373 0.140248
O O3 0.459872 0.000000 0.084951
O O4 0.500000 0.150672 0.000000
O O5 0.250000 0.303367 0.162706
O O6 0.416810 0.237431 0.265483
O O7 0.519344 0.340196 0.147897
O O8 0.022379 0.677591 0.629691
O O9 0.119199 0.847122 0.659545
O O10 0.883936 0.837490 0.597402
O O11 0.500000 0.606038 0.500000
O O12 0.250000 0.633030 0.554608
O O13 0.415137 0.500000 0.610382
O O14 0.750000 0.640709 0.065239
O O15 0.925957 0.500000 0.087465
O O16 0.000000 0.641485 0.000000
O O17 0.250000 0.864291 0.527380
O O18 0.250000 0.000000 0.627679
O O19 0.750000 0.000000 0.575804
#
# Coordination Sequence:
#
# PCOD8214325 Si02
#       7
#     8   8   8   8   8   4   4
#     4   9  19  37  59  83 113 152 197 241 289 349
#     4  11  24  40  59  90 126 168 210 256 314 372
#     4  12  24  41  62  95 129 167 212 269 331 386
#     4  10  22  40  64  91 120 158 203 255 315 382
#     4  10  22  41  68  98 130 170 213 259 310 369
#     4  11  24  42  65  93 122 163 219 275 331 396
#     4  11  24  44  69  91 122 167 219 273 333 398
#
# _framework density 19.867225000000001
#
# number of rings (size 3 to 8) (size 9 to 14) (size 15 to 20)
#    0.000    1.500    1.667    3.000    2.333    6.333 
#    0.000    1.667    0.000    0.000    0.000    0.000 
#    0.000    0.000    0.000    0.000    0.000    0.000 
#
# Total GULP energy -595150.539855 kJ/mol
# GULP energy per Si atom -12398.969580 kJ/mol
# Density = 1.982201 g / cm^3
# Si number density = 19.867225 Si / 1000 Ang^3
#
#
#
# Elastic Constant Matrix: (Units=GPa)
#
#
# Indices 1 2 3 4 5 6 
#
# 1 120.0476 49.8149 29.6658 0.0000 0.0000 0.0000
# 2 49.8149 102.1319 40.9346 0.0000 0.0000 0.0000
# 3 29.6658 40.9346 79.2396 0.0000 0.0000 0.0000
# 4 0.0000 0.0000 0.0000 23.1268 0.0000 0.0000
# 5 0.0000 0.0000 0.0000 0.0000 33.5682 0.0000
# 6 0.0000 0.0000 0.0000 0.0000 0.0000 38.0144
#
#
#
# Elastic Compliance Matrix: (Units=1/GPa)
#
#
# Indices 1 2 3 4 5 6 
#
# 1 0.010610 -0.004518 -0.001638 0.000000 0.000000 0.000000
# 2 -0.004518 0.014272 -0.005681 0.000000 0.000000 0.000000
# 3 -0.001638 -0.005681 0.016168 0.000000 0.000000 0.000000
# 4 0.000000 0.000000 0.000000 0.043240 0.000000 0.000000
# 5 0.000000 0.000000 0.000000 0.000000 0.029790 0.000000
# 6 0.000000 0.000000 0.000000 0.000000 0.000000 0.026306
#
#
# Mechanical properties :
#
#
# Convention : Reuss Voigt Hill
#
# Bulk Modulus (GPa) = 57.55477 60.24996 58.90237
# Shear Modulus (GPa) = 29.43727 31.00879 30.22303
#
# Velocity S-wave (km/s) = 3.85346 3.95498 3.90455
# Velocity P-wave (km/s) = 6.98795 7.15877 7.07388
#
# Compressibility (1/GPa) = 0.01737475
#
# Stress axis : x y z
#
# Youngs Moduli (GPa) = 94.25292 70.06627 61.85028
#
# Poissons Ratio (x) = 0.31659 0.10130
# Poissons Ratio (y) = 0.42588 0.35139
# Poissons Ratio (z) = 0.15438 0.39807
#
# Static dielectric constant tensor:
#      x y z
#    x 3.875230 0.000000 0.000000 
#    y 0.000000 3.965640 0.000000 
#    z 0.000000 0.000000 3.449040 
# 
# 
# High freq. dielectric constant tensor:
#      x y z
#    x 1.790910 0.000000 0.000000 
#    y 0.000000 1.791820 0.000000 
#    z 0.000000 0.000000 1.759690 
# 
# From -- ./inp_files/27624.got.cif
#   From: 2010.03.12/outbox.cif.g09.slc.cpg/sg51_14_cif.got.tgz:27624.got - 2010.04.16 13:43:02.
