data_PCOD8214165
_publ_section_title
;
Structure prediction by ZEFSAII (Michael W. Deem and Ramdas Pophale) SiO2 
 PCOD8214165
Probable space group: P M M A
;
_chemical_formula_sum "Si O2"
_cell_formula_units_Z 48
_cell_length_a 16.423794
_cell_length_b 14.248238
_cell_length_c 9.925328
_cell_angle_alpha 90.000000
_cell_angle_beta 90.000000
_cell_angle_gamma 90.000000
_cell_volume 2322.627254
_symmetry_space_group_name_H-M "P M M A"
_symmetry_group_IT_number 51
_symmetry_cell_setting 'orthorhombic'
loop_
_space_group_symop_operation_xyz
x,y,z
1/2-x,-y,z
1/2+x,-y,-z
-x,y,-z
-x,-y,-z
1/2+x,y,-z
1/2-x,y,z
x,-y,z
loop_
_atom_site_type_symbol
_atom_site_label
_atom_site_fract_x
_atom_site_fract_y
_atom_site_fract_z
Si Si1 0.593619 0.601324 0.965149
Si Si2 0.656079 0.605660 0.671310
Si Si3 0.656332 0.892845 0.787997
Si Si4 0.907787 0.782756 0.546244
Si Si5 0.343294 0.892467 0.698623
Si Si6 0.406496 0.201207 0.956145
O O1 0.636079 0.500000 0.001892
O O2 0.629131 0.691544 0.044948
O O3 0.500000 0.591591 0.000000
O O4 0.604119 0.620909 0.806493
O O5 0.750000 0.628071 0.704816
O O6 0.645692 0.500000 0.615615
O O7 0.623089 0.675479 0.556142
O O8 0.750000 0.879632 0.746056
O O9 0.599741 0.830166 0.692573
O O10 0.628682 0.000000 0.773180
O O11 0.645313 0.862120 0.942220
O O12 0.852217 0.840148 0.442978
O O13 0.000000 0.784931 0.500000
O O14 0.250000 0.886983 0.745609
O O15 0.399647 0.841858 0.808271
O O16 0.371679 0.000000 0.681583
O O17 0.500000 0.202406 0.000000
#
# Coordination Sequence:
#
# PCOD8214165 Si02
#       6
#     8   8   8   8   8   8
#     4   9  19  36  62  93 126 160 198 248 306 364
#     4  10  21  40  67  95 123 162 211 257 303 363
#     4  11  23  40  63  88 117 161 217 266 307 366
#     4  12  25  40  63  91 123 163 204 256 311 368
#     4  11  25  43  61  86 125 167 202 249 315 371
#     4  11  22  37  62  93 125 160 201 256 312 368
#
# _framework density 20.666253999999999
#
# number of rings (size 3 to 8) (size 9 to 14) (size 15 to 20)
#    0.000    1.333    1.667    4.000    2.333    7.667 
#    0.000    0.833    0.000    1.000    0.000    0.000 
#    0.000    0.000    0.000    0.000    0.000    0.000 
#
# Total GULP energy -595251.595601 kJ/mol
# GULP energy per Si atom -12401.074908 kJ/mol
# Density = 2.061922 g / cm^3
# Si number density = 20.666254 Si / 1000 Ang^3
#
#
#
# Elastic Constant Matrix: (Units=GPa)
#
#
# Indices 1 2 3 4 5 6 
#
# 1 73.1293 37.2367 17.3188 0.0000 0.0000 0.0000
# 2 37.2367 178.5809 49.1797 0.0000 0.0000 0.0000
# 3 17.3188 49.1797 83.6103 0.0000 0.0000 0.0000
# 4 0.0000 0.0000 0.0000 39.2792 0.0000 0.0000
# 5 0.0000 0.0000 0.0000 0.0000 31.3044 0.0000
# 6 0.0000 0.0000 0.0000 0.0000 0.0000 25.2243
#
#
#
# Elastic Compliance Matrix: (Units=1/GPa)
#
#
# Indices 1 2 3 4 5 6 
#
# 1 0.015467 -0.002796 -0.001559 0.000000 0.000000 0.000000
# 2 -0.002796 0.007187 -0.003649 0.000000 0.000000 0.000000
# 3 -0.001559 -0.003649 0.014429 0.000000 0.000000 0.000000
# 4 0.000000 0.000000 0.000000 0.025459 0.000000 0.000000
# 5 0.000000 0.000000 0.000000 0.000000 0.031944 0.000000
# 6 0.000000 0.000000 0.000000 0.000000 0.000000 0.039644
#
#
# Mechanical properties :
#
#
# Convention : Reuss Voigt Hill
#
# Bulk Modulus (GPa) = 47.44578 60.31009 53.87794
# Shear Modulus (GPa) = 31.81381 34.60059 33.20720
#
# Velocity S-wave (km/s) = 3.92779 4.09621 4.01288
# Velocity P-wave (km/s) = 6.60136 7.18457 6.89913
#
# Compressibility (1/GPa) = 0.02107669
#
# Stress axis : x y z
#
# Youngs Moduli (GPa) = 64.65272 139.13182 69.30316
#
# Poissons Ratio (x) = 0.38897 0.10807
# Poissons Ratio (y) = 0.18075 0.25286
# Poissons Ratio (z) = 0.10082 0.50763
#
# Static dielectric constant tensor:
#      x y z
#    x 3.580940 0.000000 0.000000 
#    y 0.000000 4.392290 0.000000 
#    z 0.000000 0.000000 3.578840 
# 
# 
# High freq. dielectric constant tensor:
#      x y z
#    x 1.801600 0.000000 0.000000 
#    y 0.000000 1.835620 0.000000 
#    z 0.000000 0.000000 1.792380 
# 
# From -- ./inp_files/9582.got.cif
#   From: 2010.03.12/outbox.cif.g09.slc.cpg/sg51_5_cif.got.tgz:9582.got - 2010.04.16 13:43:02.
