data_PCOD8214635
_publ_section_title
;
Structure prediction by ZEFSAII (Michael W. Deem and Ramdas Pophale) SiO2 
 PCOD8214635
Probable space group: P M M A
;
_chemical_formula_sum "Si O2"
_cell_formula_units_Z 40
_cell_length_a 14.305604
_cell_length_b 8.426299
_cell_length_c 17.121778
_cell_angle_alpha 90.000000
_cell_angle_beta 90.000000
_cell_angle_gamma 90.000000
_cell_volume 2063.915565
_symmetry_space_group_name_H-M "P M M A"
_symmetry_group_IT_number 51
_symmetry_cell_setting 'orthorhombic'
loop_
_space_group_symop_operation_xyz
x,y,z
1/2-x,-y,z
1/2+x,-y,-z
-x,y,-z
-x,-y,-z
1/2+x,y,-z
1/2-x,y,z
x,-y,z
loop_
_atom_site_type_symbol
_atom_site_label
_atom_site_fract_x
_atom_site_fract_y
_atom_site_fract_z
Si Si1 0.482372 0.187759 0.625126
Si Si2 0.444721 0.185486 0.077466
Si Si3 0.750000 0.181666 0.140859
Si Si4 0.931806 0.682200 0.210096
Si Si5 0.646190 0.812066 0.515210
Si Si6 0.250000 0.314622 0.028232
O O1 0.470630 0.281709 0.704650
O O2 0.399643 0.241123 0.566620
O O3 0.581456 0.241199 0.587654
O O4 0.479868 0.000000 0.640672
O O5 0.486053 0.282205 0.149436
O O6 0.337655 0.231291 0.068040
O O7 0.455589 0.000000 0.094573
O O8 0.500000 0.235912 0.000000
O O9 0.658884 0.211643 0.192935
O O10 0.750000 0.000000 0.112353
O O11 0.750000 0.291807 0.064830
O O12 0.902082 0.500000 0.203821
O O13 0.750000 0.736993 0.523266
O O14 0.651884 0.000000 0.515468
O O15 0.250000 0.500000 0.046858
#
# Coordination Sequence:
#
# PCOD8214635 Si02
#       6
#     8   8   4   8   8   4
#     4   9  18  34  57  85 116 150 196 242 289 352
#     4  11  23  41  65  88 117 160 208 246 289 352
#     4  12  24  40  62  88 117 154 201 246 294 358
#     4  12  25  40  59  88 124 157 195 249 307 352
#     4   8  15  31  57  86 113 149 196 244 287 343
#     4  12  24  40  64  92 121 154 195 248 310 358
#
# _framework density 19.380637
#
# number of rings (size 3 to 8) (size 9 to 14) (size 15 to 20)
#    0.000    1.600    2.000    5.400    1.400    0.800 
#    1.800    2.000    0.000    1.200    0.000    0.000 
#    0.000    0.000    0.000    0.000    0.000    0.000 
#
# Total GULP energy -496136.930071 kJ/mol
# GULP energy per Si atom -12403.423252 kJ/mol
# Density = 1.933653 g / cm^3
# Si number density = 19.380637 Si / 1000 Ang^3
#
#
#
# Elastic Constant Matrix: (Units=GPa)
#
#
# Indices 1 2 3 4 5 6 
#
# 1 165.3655 14.5772 59.2112 0.0000 0.0000 0.0000
# 2 14.5772 56.9406 21.3593 0.0000 0.0000 0.0000
# 3 59.2112 21.3593 125.2132 0.0000 0.0000 0.0000
# 4 0.0000 0.0000 0.0000 14.4388 0.0000 0.0000
# 5 0.0000 0.0000 0.0000 0.0000 29.4882 0.0000
# 6 0.0000 0.0000 0.0000 0.0000 0.0000 20.7056
#
#
#
# Elastic Compliance Matrix: (Units=1/GPa)
#
#
# Indices 1 2 3 4 5 6 
#
# 1 0.007300 -0.000613 -0.003347 0.000000 0.000000 0.000000
# 2 -0.000613 0.018814 -0.002919 0.000000 0.000000 0.000000
# 3 -0.003347 -0.002919 0.010067 0.000000 0.000000 0.000000
# 4 0.000000 0.000000 0.000000 0.069258 0.000000 0.000000
# 5 0.000000 0.000000 0.000000 0.000000 0.033912 0.000000
# 6 0.000000 0.000000 0.000000 0.000000 0.000000 0.048296
#
#
# Mechanical properties :
#
#
# Convention : Reuss Voigt Hill
#
# Bulk Modulus (GPa) = 44.60019 59.75720 52.17869
# Shear Modulus (GPa) = 23.93709 29.75130 26.84420
#
# Velocity S-wave (km/s) = 3.51822 3.92229 3.72574
# Velocity P-wave (km/s) = 6.29019 7.17028 6.74461
#
# Compressibility (1/GPa) = 0.02242143
#
# Stress axis : x y z
#
# Youngs Moduli (GPa) = 136.98943 53.15118 99.33142
#
# Poissons Ratio (x) = 0.03259 0.33250
# Poissons Ratio (y) = 0.08400 0.28999
# Poissons Ratio (z) = 0.45855 0.15517
#
# Static dielectric constant tensor:
#      x y z
#    x 3.967190 0.000000 0.000000 
#    y 0.000000 3.308820 0.000000 
#    z 0.000000 0.000000 3.467270 
# 
# 
# High freq. dielectric constant tensor:
#      x y z
#    x 1.766620 0.000000 0.000000 
#    y 0.000000 1.739790 0.000000 
#    z 0.000000 0.000000 1.751770 
# 
# From -- ./inp_files/23817.got.cif
#   From: 2010.03.12/outbox.cif.g09.slc.cpg/sg51_12_cif.got.tgz:23817.got - 2010.04.16 13:43:02.
