data_PCOD8214912
_publ_section_title
;
Structure prediction by ZEFSAII (Michael W. Deem and Ramdas Pophale) SiO2 
 PCOD8214912
Probable space group: P N N A
;
_chemical_formula_sum "Si O2"
_cell_formula_units_Z 48
_cell_length_a 5.230462
_cell_length_b 30.472376
_cell_length_c 10.813629
_cell_angle_alpha 90.000000
_cell_angle_beta 90.000000
_cell_angle_gamma 90.000000
_cell_volume 1723.525984
_symmetry_space_group_name_H-M "P N N A"
_symmetry_group_IT_number 52
_symmetry_cell_setting 'orthorhombic'
loop_
_space_group_symop_operation_xyz
x,y,z
1/2-x,-y,z
x,1/2-y,1/2-z
1/2-x,1/2+y,1/2-z
-x,-y,-z
1/2+x,y,-z
-x,1/2+y,1/2+z
1/2+x,1/2-y,1/2+z
loop_
_atom_site_type_symbol
_atom_site_label
_atom_site_fract_x
_atom_site_fract_y
_atom_site_fract_z
Si Si1 0.676838 0.405724 0.111214
Si Si2 0.250000 0.000000 0.201139
Si Si3 0.228688 0.277612 0.081402
Si Si4 0.750000 0.500000 0.141708
Si Si5 0.826479 0.629805 0.842278
Si Si6 0.822712 0.091693 0.926181
Si Si7 0.161662 0.317503 0.420333
O O1 0.707736 0.456010 0.061387
O O2 0.420602 0.400859 0.196013
O O3 0.906033 0.391514 0.203082
O O4 0.650794 0.374576 0.993050
O O5 0.503028 0.991718 0.276856
O O6 0.279550 0.043120 0.119079
O O7 0.193496 0.317159 0.180879
O O8 0.201985 0.229482 0.147501
O O9 0.511482 0.281083 0.023958
O O10 0.729438 0.136291 0.841228
O O11 0.616517 0.098639 0.036929
O O12 0.371653 0.320521 0.530804
#
# Coordination Sequence:
#
# PCOD8214912 Si02
#       7
#     8   4   8   4   8   8   8
#     4  10  20  33  49  71 103 134 184 217 259 294
#     4  12  24  39  57  74 104 144 174 214 256 310
#     4  10  14  25  43  76 110 127 155 199 268 312
#     4  12  26  39  49  74 102 146 186 212 250 308
#     4  10  17  30  52  76  98 136 171 226 265 286
#     4  10  19  36  58  86 105 128 163 211 269 313
#     4   8  16  25  45  76 114 124 146 196 261 319
#
# _framework density 27.849886000000001
#
# number of rings (size 3 to 8) (size 9 to 14) (size 15 to 20)
#    0.000    2.000    3.333    2.500    0.000    2.667 
#    0.000    0.000    0.000    0.000    0.000    7.000 
#    0.000    0.000    0.000    0.000    0.000    0.000 
#
# Total GULP energy -594749.138804 kJ/mol
# GULP energy per Si atom -12390.607058 kJ/mol
# Density = 2.778650 g / cm^3
# Si number density = 27.849886 Si / 1000 Ang^3
#
#
#
# Elastic Constant Matrix: (Units=GPa)
#
#
# Indices 1 2 3 4 5 6 
#
# 1 204.3163 26.1232 19.4580 0.0000 0.0000 0.0000
# 2 26.1232 252.2225 45.6504 0.0000 0.0000 0.0000
# 3 19.4580 45.6504 47.9943 0.0000 0.0000 0.0000
# 4 0.0000 0.0000 0.0000 61.0197 0.0000 0.0000
# 5 0.0000 0.0000 0.0000 0.0000 22.6209 0.0000
# 6 0.0000 0.0000 0.0000 0.0000 0.0000 40.4583
#
#
#
# Elastic Compliance Matrix: (Units=1/GPa)
#
#
# Indices 1 2 3 4 5 6 
#
# 1 0.005098 -0.000186 -0.001890 0.000000 0.000000 0.000000
# 2 -0.000186 0.004796 -0.004486 0.000000 0.000000 0.000000
# 3 -0.001890 -0.004486 0.025869 0.000000 0.000000 0.000000
# 4 0.000000 0.000000 0.000000 0.016388 0.000000 0.000000
# 5 0.000000 0.000000 0.000000 0.000000 0.044207 0.000000
# 6 0.000000 0.000000 0.000000 0.000000 0.000000 0.024717
#
#
# Mechanical properties :
#
#
# Convention : Reuss Voigt Hill
#
# Bulk Modulus (GPa) = 44.17204 76.33293 60.25249
# Shear Modulus (GPa) = 35.27426 52.37321 43.82374
#
# Velocity S-wave (km/s) = 3.56277 4.34124 3.97113
# Velocity P-wave (km/s) = 5.72884 7.25236 6.53515
#
# Compressibility (1/GPa) = 0.02263875
#
# Stress axis : x y z
#
# Youngs Moduli (GPa) = 196.14979 208.50625 38.65572
#
# Poissons Ratio (x) = 0.03877 0.07306
# Poissons Ratio (y) = 0.03647 0.17343
# Poissons Ratio (z) = 0.37073 0.93545
#
# Static dielectric constant tensor:
#      x y z
#    x 6.717420 0.000000 0.000000 
#    y 0.000000 6.131110 0.000000 
#    z 0.000000 0.000000 4.809010 
# 
# 
# High freq. dielectric constant tensor:
#      x y z
#    x 2.155240 0.000000 0.000000 
#    y 0.000000 2.175800 0.000000 
#    z 0.000000 0.000000 2.120600 
# 
# From -- ./inp_files/23722.got.cif
#   From: 2010.06.25/outbox.cif.g09.slc.cpg/sg52_12_cif.got.tgz:23722.got - 2010.06.26 19:32:48.
