data_PCOD8214725
_publ_section_title
;
Structure prediction by ZEFSAII (Michael W. Deem and Ramdas Pophale) SiO2 
 PCOD8214725
Probable space group: P M M A
;
_chemical_formula_sum "Si O2"
_cell_formula_units_Z 48
_cell_length_a 9.400418
_cell_length_b 9.384306
_cell_length_c 31.181262
_cell_angle_alpha 90.000000
_cell_angle_beta 90.000000
_cell_angle_gamma 90.000000
_cell_volume 2750.698651
_symmetry_space_group_name_H-M "P M M A"
_symmetry_group_IT_number 51
_symmetry_cell_setting 'orthorhombic'
loop_
_space_group_symop_operation_xyz
x,y,z
1/2-x,-y,z
1/2+x,-y,-z
-x,y,-z
-x,-y,-z
1/2+x,y,-z
1/2-x,y,z
x,-y,z
loop_
_atom_site_type_symbol
_atom_site_label
_atom_site_fract_x
_atom_site_fract_y
_atom_site_fract_z
Si Si1 0.089376 0.670028 0.959534
Si Si2 0.590261 0.330776 0.785750
Si Si3 0.411355 0.830401 0.459671
Si Si4 0.584358 0.664673 0.294035
Si Si5 0.589783 0.669620 0.880290
Si Si6 0.085577 0.166493 0.622592
O O1 0.250000 0.728947 0.962340
O O2 0.089780 0.500000 0.959280
O O3 0.016920 0.730700 0.916178
O O4 0.000000 0.727292 0.000000
O O5 0.750000 0.277524 0.776994
O O6 0.583274 0.500000 0.785172
O O7 0.490969 0.269754 0.748095
O O8 0.540044 0.277489 0.832955
O O9 0.500000 0.769536 0.500000
O O10 0.250000 0.770771 0.460788
O O11 0.489786 0.778318 0.416663
O O12 0.409492 0.000000 0.461557
O O13 0.750000 0.686309 0.286406
O O14 0.544214 0.500000 0.301263
O O15 0.532083 0.750759 0.335465
O O16 0.750000 0.723719 0.889834
O O17 0.588903 0.500000 0.881728
O O18 0.250000 0.200954 0.611994
O O19 0.063374 0.000000 0.630979
#
# Coordination Sequence:
#
# PCOD8214725 Si02
#       6
#     8   8   8   8   8   8
#     4   9  15  20  26  37  54  78 109 146 188 231
#     4   8  14  24  37  52  70  94 124 158 196 236
#     4   9  16  26  42  64  87 109 134 165 199 234
#     4   9  17  28  42  60  81 105 134 168 202 235
#     4   8  13  21  31  42  58  81 111 148 187 226
#     4   9  17  29  44  62  85 111 136 163 198 238
#
# _framework density 17.450113999999999
#
# number of rings (size 3 to 8) (size 9 to 14) (size 15 to 20)
#    0.000    3.333    0.000    2.000    0.000    5.333 
#    0.000    3.333    0.000    0.500    0.000    0.000 
#    0.000    0.000    0.000    0.000    0.000    0.833 
#
# Total GULP energy -594937.952419 kJ/mol
# GULP energy per Si atom -12394.540675 kJ/mol
# Density = 1.741040 g / cm^3
# Si number density = 17.450114 Si / 1000 Ang^3
#
#
#
# Elastic Constant Matrix: (Units=GPa)
#
#
# Indices 1 2 3 4 5 6 
#
# 1 123.2130 15.1168 105.5388 0.0000 0.0000 0.0000
# 2 15.1168 11.1863 23.9538 0.0000 0.0000 0.0000
# 3 105.5388 23.9538 199.7348 0.0000 0.0000 0.0000
# 4 0.0000 0.0000 0.0000 -0.1338 0.0000 0.0000
# 5 0.0000 0.0000 0.0000 0.0000 42.3549 0.0000
# 6 0.0000 0.0000 0.0000 0.0000 0.0000 7.4040
#
#
#
# Elastic Compliance Matrix: (Units=1/GPa)
#
#
# Indices 1 2 3 4 5 6 
#
# 1 0.014988 -0.004434 -0.007388 0.000000 0.000000 0.000000
# 2 -0.004434 0.121597 -0.012240 0.000000 0.000000 0.000000
# 3 -0.007388 -0.012240 0.010378 0.000000 0.000000 0.000000
# 4 0.000000 0.000000 0.000000 -7.472768 0.000000 0.000000
# 5 0.000000 0.000000 0.000000 0.000000 0.023610 0.000000
# 6 0.000000 0.000000 0.000000 0.000000 0.000000 0.135063
#
#
# Mechanical properties :
#
#
# Convention : Reuss Voigt Hill
#
# Bulk Modulus (GPa) = 10.11741 69.26143 39.68942
# Shear Modulus (GPa) = -0.70561 22.55999 10.92719
#
# Velocity S-wave (km/s) = -0.63658 3.59949 2.50511
# Velocity P-wave (km/s) = 2.29569 7.55330 5.58223
#
# Compressibility (1/GPa) = 0.09883950
#
# Stress axis : x y z
#
# Youngs Moduli (GPa) = 66.71910 8.22387 96.35538
#
# Poissons Ratio (x) = 0.03647 0.71186
# Poissons Ratio (y) = 0.29587 1.17937
# Poissons Ratio (z) = 0.49291 0.10066
#
# Static dielectric constant tensor:
#      x y z
#    x 3.398490 0.000000 0.000000 
#    y 0.000000 2.523180 0.000000 
#    z 0.000000 0.000000 3.655780 
# 
# 
# High freq. dielectric constant tensor:
#      x y z
#    x 1.677470 0.000000 0.000000 
#    y 0.000000 1.587900 0.000000 
#    z 0.000000 0.000000 1.693750 
# 
# From -- ./inp_files/36133.got.cif
#   From: 2010.03.12/outbox.cif.g09.slc.cpg/sg51_19_cif.got.tgz:36133.got - 2010.04.16 13:43:02.
