data_PCOD8214726
_publ_section_title
;
Structure prediction by ZEFSAII (Michael W. Deem and Ramdas Pophale) SiO2 
 PCOD8214726
Probable space group: P M M A
;
_chemical_formula_sum "Si O2"
_cell_formula_units_Z 40
_cell_length_a 9.534068
_cell_length_b 9.448203
_cell_length_c 25.862495
_cell_angle_alpha 90.000000
_cell_angle_beta 90.000000
_cell_angle_gamma 90.000000
_cell_volume 2329.688633
_symmetry_space_group_name_H-M "P M M A"
_symmetry_group_IT_number 51
_symmetry_cell_setting 'orthorhombic'
loop_
_space_group_symop_operation_xyz
x,y,z
1/2-x,-y,z
1/2+x,-y,-z
-x,y,-z
-x,-y,-z
1/2+x,y,-z
1/2-x,y,z
x,-y,z
loop_
_atom_site_type_symbol
_atom_site_label
_atom_site_fract_x
_atom_site_fract_y
_atom_site_fract_z
Si Si1 0.587116 0.164498 0.148726
Si Si2 0.090965 0.831190 0.548261
Si Si3 0.092817 0.831945 0.243303
Si Si4 0.092119 0.168455 0.357676
Si Si5 0.912451 0.664118 0.049306
O O1 0.750000 0.191232 0.158425
O O2 0.509001 0.227975 0.198984
O O3 0.533847 0.247918 0.098486
O O4 0.552567 0.000000 0.140012
O O5 0.250000 0.772453 0.544911
O O6 0.000000 0.775030 0.500000
O O7 0.017607 0.771771 0.600356
O O8 0.093231 0.000000 0.548373
O O9 0.250000 0.779567 0.231224
O O10 0.046664 0.778047 0.300403
O O11 0.086208 0.000000 0.243054
O O12 0.250000 0.221463 0.370594
O O13 0.091294 0.000000 0.359212
O O14 0.750000 0.694953 0.037780
O O15 0.940176 0.500000 0.061025
O O16 0.000000 0.716141 0.000000
#
# Coordination Sequence:
#
# PCOD8214726 Si02
#       5
#     8   8   8   8   8
#     4   9  17  28  42  61  83 104 129 164 201 235
#     4   9  15  20  26  37  54  79 114 155 195 232
#     4   8  14  24  37  53  73  97 124 155 194 238
#     4   8  13  21  31  42  59  84 114 149 188 229
#     4   9  18  32  47  62  82 108 135 162 195 236
#
# _framework density 17.169675999999999
#
# number of rings (size 3 to 8) (size 9 to 14) (size 15 to 20)
#    0.000    3.400    0.000    1.800    0.000    4.400 
#    0.000    4.000    0.000    0.000    0.000    0.000 
#    0.000    0.000    0.000    0.000    0.000    1.000 
#
# Total GULP energy -495778.065667 kJ/mol
# GULP energy per Si atom -12394.451642 kJ/mol
# Density = 1.713060 g / cm^3
# Si number density = 17.169676 Si / 1000 Ang^3
#
#
#
# Elastic Constant Matrix: (Units=GPa)
#
#
# Indices 1 2 3 4 5 6 
#
# 1 109.8388 18.5074 101.3409 0.0000 0.0000 0.0000
# 2 18.5074 14.6098 29.4236 0.0000 0.0000 0.0000
# 3 101.3409 29.4236 191.1605 0.0000 0.0000 0.0000
# 4 0.0000 0.0000 0.0000 0.4103 0.0000 0.0000
# 5 0.0000 0.0000 0.0000 0.0000 41.8362 0.0000
# 6 0.0000 0.0000 0.0000 0.0000 0.0000 8.3776
#
#
#
# Elastic Compliance Matrix: (Units=1/GPa)
#
#
# Indices 1 2 3 4 5 6 
#
# 1 0.018091 -0.005220 -0.008787 0.000000 0.000000 0.000000
# 2 -0.005220 0.100704 -0.012733 0.000000 0.000000 0.000000
# 3 -0.008787 -0.012733 0.011850 0.000000 0.000000 0.000000
# 4 0.000000 0.000000 0.000000 2.437444 0.000000 0.000000
# 5 0.000000 0.000000 0.000000 0.000000 0.023903 0.000000
# 6 0.000000 0.000000 0.000000 0.000000 0.000000 0.119365
#
#
# Mechanical properties :
#
#
# Convention : Reuss Voigt Hill
#
# Bulk Modulus (GPa) = 12.95947 68.23921 40.59934
# Shear Modulus (GPa) = 1.79176 21.21395 11.50285
#
# Velocity S-wave (km/s) = 1.02266 3.51885 2.59115
# Velocity P-wave (km/s) = 2.99311 7.50600 5.71396
#
# Compressibility (1/GPa) = 0.07716366
#
# Stress axis : x y z
#
# Youngs Moduli (GPa) = 55.27496 9.93008 84.39125
#
# Poissons Ratio (x) = 0.05184 0.74158
# Poissons Ratio (y) = 0.28855 1.07455
# Poissons Ratio (z) = 0.48572 0.12644
#
# Static dielectric constant tensor:
#      x y z
#    x 3.338660 0.000000 0.000000 
#    y 0.000000 2.544510 0.000000 
#    z 0.000000 0.000000 3.613110 
# 
# 
# High freq. dielectric constant tensor:
#      x y z
#    x 1.664320 0.000000 0.000000 
#    y 0.000000 1.584290 0.000000 
#    z 0.000000 0.000000 1.679390 
# 
# From -- ./inp_files/32793.got.cif
#   From: 2010.03.12/outbox.cif.g09.slc.cpg/sg51_17_cif.got.tgz:32793.got - 2010.04.16 13:43:02.
