data_PCOD8214624
_publ_section_title
;
Structure prediction by ZEFSAII (Michael W. Deem and Ramdas Pophale) SiO2 
 PCOD8214624
Probable space group: P M M A
;
_chemical_formula_sum "Si O2"
_cell_formula_units_Z 48
_cell_length_a 9.552835
_cell_length_b 13.974598
_cell_length_c 18.362949
_cell_angle_alpha 90.000000
_cell_angle_beta 90.000000
_cell_angle_gamma 90.000000
_cell_volume 2451.399133
_symmetry_space_group_name_H-M "P M M A"
_symmetry_group_IT_number 51
_symmetry_cell_setting 'orthorhombic'
loop_
_space_group_symop_operation_xyz
x,y,z
1/2-x,-y,z
1/2+x,-y,-z
-x,y,-z
-x,-y,-z
1/2+x,y,-z
1/2-x,y,z
x,-y,z
loop_
_atom_site_type_symbol
_atom_site_label
_atom_site_fract_x
_atom_site_fract_y
_atom_site_fract_z
Si Si1 0.904876 0.390763 0.193683
Si Si2 0.250000 0.387972 0.388425
Si Si3 0.582078 0.299121 0.928621
Si Si4 0.914727 0.107665 0.696595
Si Si5 0.584727 0.103196 0.862908
Si Si6 0.750000 0.385159 0.445342
Si Si7 0.026655 0.299807 0.658276
O O1 0.750000 0.379208 0.157538
O O2 0.930666 0.500000 0.217536
O O3 0.903035 0.324976 0.265144
O O4 0.027879 0.362433 0.138287
O O5 0.250000 0.500000 0.390357
O O6 0.250000 0.350990 0.471422
O O7 0.379370 0.351718 0.342431
O O8 0.750000 0.311176 0.936558
O O9 0.534388 0.189252 0.914393
O O10 0.500000 0.334575 0.000000
O O11 0.750000 0.127935 0.687123
O O12 0.962215 0.121209 0.780158
O O13 0.004123 0.184934 0.650712
O O14 0.950728 0.000000 0.669848
O O15 0.750000 0.098555 0.863868
O O16 0.524239 0.000000 0.890199
O O17 0.750000 0.500000 0.435762
O O18 0.885857 0.338861 0.409313
#
# Coordination Sequence:
#
# PCOD8214624 Si02
#       7
#     8   4   8   8   8   4   8
#     4  11  24  41  61  86 119 158 200 247 301 357
#     4  11  24  38  61  93 126 162 210 249 295 373
#     4  11  23  39  60  86 119 157 200 250 302 355
#     4   9  17  33  59  91 121 153 199 254 307 357
#     4   8  15  30  53  82 115 149 188 236 294 353
#     4  11  24  42  59  87 132 172 196 243 315 367
#     4  12  21  38  64  92 122 162 205 252 304 361
#
# _framework density 19.580653000000002
#
# number of rings (size 3 to 8) (size 9 to 14) (size 15 to 20)
#    0.000    1.667    3.333    3.500    1.167    2.333 
#    0.000    0.417    0.000    5.500    0.000    0.000 
#    0.000    0.000    0.000    0.000    0.000    0.000 
#
# Total GULP energy -595038.288161 kJ/mol
# GULP energy per Si atom -12396.631003 kJ/mol
# Density = 1.953609 g / cm^3
# Si number density = 19.580653 Si / 1000 Ang^3
#
#
#
# Elastic Constant Matrix: (Units=GPa)
#
#
# Indices 1 2 3 4 5 6 
#
# 1 90.9123 33.0568 18.2124 0.0000 0.0000 0.0000
# 2 33.0568 111.0490 26.2328 0.0000 0.0000 0.0000
# 3 18.2124 26.2328 54.9379 0.0000 0.0000 0.0000
# 4 0.0000 0.0000 0.0000 57.6151 0.0000 0.0000
# 5 0.0000 0.0000 0.0000 0.0000 28.4264 0.0000
# 6 0.0000 0.0000 0.0000 0.0000 0.0000 31.4546
#
#
#
# Elastic Compliance Matrix: (Units=1/GPa)
#
#
# Indices 1 2 3 4 5 6 
#
# 1 0.012682 -0.003136 -0.002707 0.000000 0.000000 0.000000
# 2 -0.003136 0.010925 -0.004177 0.000000 0.000000 0.000000
# 3 -0.002707 -0.004177 0.021094 0.000000 0.000000 0.000000
# 4 0.000000 0.000000 0.000000 0.017357 0.000000 0.000000
# 5 0.000000 0.000000 0.000000 0.000000 0.035179 0.000000
# 6 0.000000 0.000000 0.000000 0.000000 0.000000 0.031792
#
#
# Mechanical properties :
#
#
# Convention : Reuss Voigt Hill
#
# Bulk Modulus (GPa) = 40.54841 45.76701 43.15771
# Shear Modulus (GPa) = 31.78859 35.45903 33.62381
#
# Velocity S-wave (km/s) = 4.03360 4.26011 4.14840
# Velocity P-wave (km/s) = 6.51511 6.90090 6.71077
#
# Compressibility (1/GPa) = 0.02466188
#
# Stress axis : x y z
#
# Youngs Moduli (GPa) = 78.85144 91.53101 47.40603
#
# Poissons Ratio (x) = 0.28702 0.12832
# Poissons Ratio (y) = 0.24726 0.19803
# Poissons Ratio (z) = 0.21344 0.38235
#
# Static dielectric constant tensor:
#      x y z
#    x 3.447980 0.000000 0.000000 
#    y 0.000000 4.693020 0.000000 
#    z 0.000000 0.000000 3.456120 
# 
# 
# High freq. dielectric constant tensor:
#      x y z
#    x 1.751000 0.000000 0.000000 
#    y 0.000000 1.772620 0.000000 
#    z 0.000000 0.000000 1.743190 
# 
# From -- ./inp_files/27663.got.cif
#   From: 2010.03.12/outbox.cif.g09.slc.cpg/sg51_14_cif.got.tgz:27663.got - 2010.04.16 13:43:02.
