data_PCOD8214322
_publ_section_title
;
Structure prediction by ZEFSAII (Michael W. Deem and Ramdas Pophale) SiO2 
 PCOD8214322
Probable space group: P M M A
;
_chemical_formula_sum "Si O2"
_cell_formula_units_Z 48
_cell_length_a 15.147074
_cell_length_b 15.566184
_cell_length_c 10.047427
_cell_angle_alpha 90.000000
_cell_angle_beta 90.000000
_cell_angle_gamma 90.000000
_cell_volume 2369.003849
_symmetry_space_group_name_H-M "P M M A"
_symmetry_group_IT_number 51
_symmetry_cell_setting 'orthorhombic'
loop_
_space_group_symop_operation_xyz
x,y,z
1/2-x,-y,z
1/2+x,-y,-z
-x,y,-z
-x,-y,-z
1/2+x,y,-z
1/2-x,y,z
x,-y,z
loop_
_atom_site_type_symbol
_atom_site_label
_atom_site_fract_x
_atom_site_fract_y
_atom_site_fract_z
Si Si1 0.851807 0.798085 0.255906
Si Si2 0.910195 0.500000 0.081981
Si Si3 0.850535 0.500000 0.370079
Si Si4 0.103877 0.680670 0.504020
Si Si5 0.148020 0.230144 0.236047
Si Si6 0.506175 0.900014 0.844076
Si Si7 0.849880 0.317961 0.023272
O O1 0.750000 0.825659 0.233103
O O2 0.860122 0.754069 0.398552
O O3 0.914369 0.880527 0.234010
O O4 0.891437 0.728497 0.151358
O O5 0.917896 0.500000 0.243775
O O6 0.855478 0.418982 0.035535
O O7 0.000000 0.500000 0.000000
O O8 0.750000 0.500000 0.315300
O O9 0.863830 0.585053 0.458715
O O10 0.141153 0.707508 0.361777
O O11 0.000000 0.681487 0.500000
O O12 0.250000 0.201329 0.218705
O O13 0.108329 0.286569 0.114475
O O14 0.086053 0.146202 0.236048
O O15 0.526135 0.000000 0.831516
O O16 0.500000 0.873253 0.000000
O O17 0.750000 0.288181 0.021169
#
# Coordination Sequence:
#
# PCOD8214322 Si02
#       7
#     8   4   4   8   8   8   8
#     4  11  22  42  69  96 129 176 219 262 325 398
#     4  12  26  34  62  96 128 169 222 270 319 369
#     4  12  25  44  64  93 134 180 230 271 322 391
#     4  12  25  42  69  95 133 178 222 270 329 389
#     4  11  24  43  66  97 133 172 216 271 335 392
#     4  11  24  42  70 102 133 167 212 275 334 395
#     4  10  22  40  63  88 125 171 217 266 317 376
#
# _framework density 20.261679999999998
#
# number of rings (size 3 to 8) (size 9 to 14) (size 15 to 20)
#    0.000    0.833    5.000    2.500    4.667    1.333 
#    0.000    4.167    0.000    2.000    0.000    0.000 
#    0.000    0.000    0.000    0.000    0.000    0.000 
#
# Total GULP energy -595059.142522 kJ/mol
# GULP energy per Si atom -12397.065469 kJ/mol
# Density = 2.021556 g / cm^3
# Si number density = 20.261680 Si / 1000 Ang^3
#
#
#
# Elastic Constant Matrix: (Units=GPa)
#
#
# Indices 1 2 3 4 5 6 
#
# 1 114.7317 32.8855 23.5209 0.0000 0.0000 0.0000
# 2 32.8855 102.7236 40.1714 0.0000 0.0000 0.0000
# 3 23.5209 40.1714 115.5047 0.0000 0.0000 0.0000
# 4 0.0000 0.0000 0.0000 28.2310 0.0000 0.0000
# 5 0.0000 0.0000 0.0000 0.0000 29.8889 0.0000
# 6 0.0000 0.0000 0.0000 0.0000 0.0000 23.9585
#
#
#
# Elastic Compliance Matrix: (Units=1/GPa)
#
#
# Indices 1 2 3 4 5 6 
#
# 1 0.009703 -0.002701 -0.001036 0.000000 0.000000 0.000000
# 2 -0.002701 0.012019 -0.003630 0.000000 0.000000 0.000000
# 3 -0.001036 -0.003630 0.010131 0.000000 0.000000 0.000000
# 4 0.000000 0.000000 0.000000 0.035422 0.000000 0.000000
# 5 0.000000 0.000000 0.000000 0.000000 0.033457 0.000000
# 6 0.000000 0.000000 0.000000 0.000000 0.000000 0.041739
#
#
# Mechanical properties :
#
#
# Convention : Reuss Voigt Hill
#
# Bulk Modulus (GPa) = 58.41777 58.45727 58.43752
# Shear Modulus (GPa) = 30.69142 32.17449 31.43295
#
# Velocity S-wave (km/s) = 3.89620 3.98923 3.94299
# Velocity P-wave (km/s) = 7.00962 7.08042 7.04511
#
# Compressibility (1/GPa) = 0.01711808
#
# Stress axis : x y z
#
# Youngs Moduli (GPa) = 103.06504 83.20080 98.70445
#
# Poissons Ratio (x) = 0.22471 0.10230
# Poissons Ratio (y) = 0.27836 0.35831
# Poissons Ratio (z) = 0.10682 0.30203
#
# Static dielectric constant tensor:
#      x y z
#    x 3.758140 0.000000 0.000000 
#    y 0.000000 3.502210 0.000000 
#    z 0.000000 0.000000 3.945370 
# 
# 
# High freq. dielectric constant tensor:
#      x y z
#    x 1.800880 0.000000 0.000000 
#    y 0.000000 1.779910 0.000000 
#    z 0.000000 0.000000 1.798190 
# 
# From -- ./inp_files/8310.got.cif
#   From: 2010.03.12/outbox.cif.g09.slc.cpg/sg51_5_cif.got.tgz:8310.got - 2010.04.16 13:43:02.
