data_PCOD8214172
_publ_section_title
;
Structure prediction by ZEFSAII (Michael W. Deem and Ramdas Pophale) SiO2 
 PCOD8214172
Probable space group: P M M A
;
_chemical_formula_sum "Si O2"
_cell_formula_units_Z 30
_cell_length_a 19.427113
_cell_length_b 7.693214
_cell_length_c 10.578555
_cell_angle_alpha 90.000000
_cell_angle_beta 90.000000
_cell_angle_gamma 90.000000
_cell_volume 1581.038436
_symmetry_space_group_name_H-M "P M M A"
_symmetry_group_IT_number 51
_symmetry_cell_setting 'orthorhombic'
loop_
_space_group_symop_operation_xyz
x,y,z
1/2-x,-y,z
1/2+x,-y,-z
-x,y,-z
-x,-y,-z
1/2+x,y,-z
1/2-x,y,z
x,-y,z
loop_
_atom_site_type_symbol
_atom_site_label
_atom_site_fract_x
_atom_site_fract_y
_atom_site_fract_z
Si Si1 0.250000 0.699044 0.093440
Si Si2 0.132090 0.694611 0.287404
Si Si3 0.750000 0.000000 0.102658
Si Si4 0.167899 0.000000 0.472677
Si Si5 0.888720 0.000000 0.252199
Si Si6 0.506406 0.192174 0.860406
O O1 0.250000 0.500000 0.046395
O O2 0.183001 0.743455 0.174499
O O3 0.250000 0.823328 0.974813
O O4 0.146981 0.500000 0.338340
O O5 0.054916 0.697919 0.231917
O O6 0.144265 0.827473 0.400387
O O7 0.815472 0.000000 0.189883
O O8 0.122901 0.000000 0.598778
O O9 0.250000 0.000000 0.496024
O O10 0.931860 0.171504 0.207918
O O11 0.540380 0.000000 0.879429
O O12 0.500000 0.280247 0.000000
#
# Coordination Sequence:
#
# PCOD8214172 Si02
#       6
#     4   8   2   4   4   8
#     4  10  22  35  57  93 117 144 205 252 288 356
#     4  11  22  38  63  90 117 160 202 240 296 352
#     4  12  20  38  66  82 116 164 192 248 310 348
#     4  12  22  40  60  83 122 164 195 254 291 332
#     4  10  22  37  61  89 115 159 209 229 304 367
#     4   9  19  37  61  89 123 149 189 250 301 355
#
# _framework density 18.974869999999999
#
# number of rings (size 3 to 8) (size 9 to 14) (size 15 to 20)
#    0.800    0.800    3.333    2.400    0.000    2.667 
#    0.000    5.333    0.000    0.000    0.000    0.000 
#    0.000    0.000    0.000    0.000    0.000    0.000 
#
# Total GULP energy -371904.647605 kJ/mol
# GULP energy per Si atom -12396.821587 kJ/mol
# Density = 1.893168 g / cm^3
# Si number density = 18.974870 Si / 1000 Ang^3
#
#
#
# Elastic Constant Matrix: (Units=GPa)
#
#
# Indices 1 2 3 4 5 6 
#
# 1 140.9340 25.5372 52.7520 0.0000 0.0000 0.0000
# 2 25.5372 85.0168 49.2778 0.0000 0.0000 0.0000
# 3 52.7520 49.2778 115.5259 0.0000 0.0000 0.0000
# 4 0.0000 0.0000 0.0000 -1.7160 0.0000 0.0000
# 5 0.0000 0.0000 0.0000 0.0000 36.5645 0.0000
# 6 0.0000 0.0000 0.0000 0.0000 0.0000 26.3777
#
#
#
# Elastic Compliance Matrix: (Units=1/GPa)
#
#
# Indices 1 2 3 4 5 6 
#
# 1 0.008569 -0.000406 -0.003739 0.000000 0.000000 0.000000
# 2 -0.000406 0.015645 -0.006488 0.000000 0.000000 0.000000
# 3 -0.003739 -0.006488 0.013131 0.000000 0.000000 0.000000
# 4 0.000000 0.000000 0.000000 -0.582762 0.000000 0.000000
# 5 0.000000 0.000000 0.000000 0.000000 0.027349 0.000000
# 6 0.000000 0.000000 0.000000 0.000000 0.000000 0.037911
#
#
# Mechanical properties :
#
#
# Convention : Reuss Voigt Hill
#
# Bulk Modulus (GPa) = 62.19877 66.29009 64.24443
# Shear Modulus (GPa) = -11.02461 26.50589 7.74064
#
# Velocity S-wave (km/s) = -2.41303 3.74156 2.02195
# Velocity P-wave (km/s) = 5.00870 7.32648 6.27552
#
# Compressibility (1/GPa) = 0.01607749
#
# Stress axis : x y z
#
# Youngs Moduli (GPa) = 116.70213 63.91831 76.15603
#
# Poissons Ratio (x) = 0.02598 0.28477
# Poissons Ratio (y) = 0.04744 0.49408
# Poissons Ratio (z) = 0.43639 0.41469
#
# Static dielectric constant tensor:
#      x y z
#    x 3.564730 0.000000 0.000000 
#    y 0.000000 3.289990 0.000000 
#    z 0.000000 0.000000 3.329850 
# 
# 
# High freq. dielectric constant tensor:
#      x y z
#    x 1.748230 0.000000 0.000000 
#    y 0.000000 1.720980 0.000000 
#    z 0.000000 0.000000 1.727060 
# 
# From -- ./inp_files/10343.got.cif
#   From: 2010.03.12/outbox.cif.g09.slc.cpg/sg51_6_cif.got.tgz:10343.got - 2010.04.16 13:43:02.
