data_PCOD8214573
_publ_section_title
;
Structure prediction by ZEFSAII (Michael W. Deem and Ramdas Pophale) SiO2 
 PCOD8214573
Probable space group: P M M A
;
_chemical_formula_sum "Si O2"
_cell_formula_units_Z 52
_cell_length_a 8.786620
_cell_length_b 14.714510
_cell_length_c 20.336092
_cell_angle_alpha 90.000000
_cell_angle_beta 90.000000
_cell_angle_gamma 90.000000
_cell_volume 2629.269763
_symmetry_space_group_name_H-M "P M M A"
_symmetry_group_IT_number 51
_symmetry_cell_setting 'orthorhombic'
loop_
_space_group_symop_operation_xyz
x,y,z
1/2-x,-y,z
1/2+x,-y,-z
-x,y,-z
-x,-y,-z
1/2+x,y,-z
1/2-x,y,z
x,-y,z
loop_
_atom_site_type_symbol
_atom_site_label
_atom_site_fract_x
_atom_site_fract_y
_atom_site_fract_z
Si Si1 0.574502 0.101807 0.297864
Si Si2 0.429627 0.606148 0.767404
Si Si3 0.429311 0.102763 0.067327
Si Si4 0.419351 0.500000 0.566857
Si Si5 0.575030 0.152639 0.571455
Si Si6 0.578744 0.653844 0.636459
Si Si7 0.430662 0.773704 0.188312
O O1 0.750000 0.133563 0.298609
O O2 0.513056 0.096393 0.372863
O O3 0.478431 0.172790 0.254805
O O4 0.558419 0.000000 0.268593
O O5 0.250000 0.610720 0.753824
O O6 0.477655 0.500000 0.778814
O O7 0.528917 0.658161 0.711866
O O8 0.481686 0.676225 0.824595
O O9 0.250000 0.105358 0.060290
O O10 0.483833 0.165135 0.127260
O O11 0.487213 0.000000 0.080453
O O12 0.500000 0.141249 0.000000
O O13 0.250000 0.500000 0.545080
O O14 0.500000 0.500000 0.500000
O O15 0.454057 0.587154 0.608710
O O16 0.500000 0.138884 0.500000
O O17 0.750000 0.120421 0.567316
O O18 0.563998 0.256147 0.594401
O O19 0.750000 0.615291 0.631877
O O20 0.250000 0.758069 0.190610
#
# Coordination Sequence:
#
# PCOD8214573 Si02
#       7
#     8   8   8   4   8   8   8
#     4  11  24  40  60  86 115 151 197 246 296 354
#     4  11  23  38  59  86 117 154 196 245 297 350
#     4   9  19  36  60  93 131 167 201 238 285 343
#     4  12  24  36  52  76 106 142 183 236 299 362
#     4  11  24  40  59  80 106 145 190 242 301 359
#     4  11  22  37  57  80 106 141 187 239 300 362
#     4  11  22  38  62  91 124 161 198 243 295 349
#
# _framework density 19.777353000000002
#
# number of rings (size 3 to 8) (size 9 to 14) (size 15 to 20)
#    0.000    1.231    2.308    3.923    0.000    7.385 
#    0.000    1.538    0.000    0.462    0.000    0.000 
#    0.000    0.000    0.000    0.000    0.000    0.000 
#
# Total GULP energy -644485.410879 kJ/mol
# GULP energy per Si atom -12393.950209 kJ/mol
# Density = 1.973234 g / cm^3
# Si number density = 19.777353 Si / 1000 Ang^3
#
#
#
# Elastic Constant Matrix: (Units=GPa)
#
#
# Indices 1 2 3 4 5 6 
#
# 1 98.5513 38.2682 24.2982 0.0000 0.0000 0.0000
# 2 38.2682 110.9206 42.9748 0.0000 0.0000 0.0000
# 3 24.2982 42.9748 103.1244 0.0000 0.0000 0.0000
# 4 0.0000 0.0000 0.0000 21.6174 0.0000 0.0000
# 5 0.0000 0.0000 0.0000 0.0000 33.4870 0.0000
# 6 0.0000 0.0000 0.0000 0.0000 0.0000 36.4232
#
#
#
# Elastic Compliance Matrix: (Units=1/GPa)
#
#
# Indices 1 2 3 4 5 6 
#
# 1 0.011861 -0.003589 -0.001299 0.000000 0.000000 0.000000
# 2 -0.003589 0.011837 -0.004087 0.000000 0.000000 0.000000
# 3 -0.001299 -0.004087 0.011706 0.000000 0.000000 0.000000
# 4 0.000000 0.000000 0.000000 0.046259 0.000000 0.000000
# 5 0.000000 0.000000 0.000000 0.000000 0.029862 0.000000
# 6 0.000000 0.000000 0.000000 0.000000 0.000000 0.027455
#
#
# Mechanical properties :
#
#
# Convention : Reuss Voigt Hill
#
# Bulk Modulus (GPa) = 57.29309 58.18652 57.73981
# Shear Modulus (GPa) = 30.72212 32.10918 31.41565
#
# Velocity S-wave (km/s) = 3.94559 4.03368 3.98988
# Velocity P-wave (km/s) = 7.05612 7.15393 7.10520
#
# Compressibility (1/GPa) = 0.01745411
#
# Stress axis : x y z
#
# Youngs Moduli (GPa) = 84.31112 84.47977 85.42320
#
# Poissons Ratio (x) = 0.30317 0.11098
# Poissons Ratio (y) = 0.30257 0.34915
# Poissons Ratio (z) = 0.10953 0.34529
#
# Static dielectric constant tensor:
#      x y z
#    x 3.654400 0.000000 0.000000 
#    y 0.000000 3.842370 0.000000 
#    z 0.000000 0.000000 3.386260 
# 
# 
# High freq. dielectric constant tensor:
#      x y z
#    x 1.781730 0.000000 0.000000 
#    y 0.000000 1.780610 0.000000 
#    z 0.000000 0.000000 1.751460 
# 
# From -- ./inp_files/31773.got.cif
#   From: 2010.03.12/outbox.cif.g09.slc.cpg/sg51_16_cif.got.tgz:31773.got - 2010.04.16 13:43:02.
