data_PCOD8214978
_publ_section_title
;
Structure prediction by ZEFSAII (Michael W. Deem and Ramdas Pophale) SiO2 
 PCOD8214978
Probable space group: P N N A
;
_chemical_formula_sum "Si O2"
_cell_formula_units_Z 60
_cell_length_a 15.094957
_cell_length_b 19.499437
_cell_length_c 12.286364
_cell_angle_alpha 90.000000
_cell_angle_beta 90.000000
_cell_angle_gamma 90.000000
_cell_volume 3616.407242
_symmetry_space_group_name_H-M "P N N A"
_symmetry_group_IT_number 52
_symmetry_cell_setting 'orthorhombic'
loop_
_space_group_symop_operation_xyz
x,y,z
1/2-x,-y,z
x,1/2-y,1/2-z
1/2-x,1/2+y,1/2-z
-x,-y,-z
1/2+x,y,-z
-x,1/2+y,1/2+z
1/2+x,1/2-y,1/2+z
loop_
_atom_site_type_symbol
_atom_site_label
_atom_site_fract_x
_atom_site_fract_y
_atom_site_fract_z
Si Si1 0.056983 0.995489 0.838055
Si Si2 0.250000 0.500000 0.574202
Si Si3 0.005425 0.388465 0.503967
Si Si4 0.361794 0.353238 0.163234
Si Si5 0.197801 0.433134 0.210365
Si Si6 0.694344 0.373400 0.561063
Si Si7 0.361718 0.204223 0.096171
Si Si8 0.462500 0.489078 0.119169
O O1 0.162871 0.998635 0.850943
O O2 0.037149 0.995981 0.709756
O O3 0.005301 0.058603 0.895112
O O4 0.018146 0.926935 0.892141
O O5 0.251869 0.565778 0.496885
O O6 0.103089 0.354451 0.499102
O O7 0.934342 0.328428 0.517104
O O8 0.263201 0.383261 0.142839
O O9 0.376246 0.285638 0.091086
O O10 0.374952 0.331552 0.287758
O O11 0.432836 0.410204 0.129778
O O12 0.250000 0.500000 0.251394
O O13 0.165069 0.394283 0.317585
O O14 0.116698 0.456319 0.134818
O O15 0.760733 0.309004 0.557870
O O16 0.500000 0.500000 0.000000
#
# Coordination Sequence:
#
# PCOD8214978 Si02
#       8
#     8   4   8   8   8   8   8   8
#     4  10  19  31  50  82 111 134 177 224 273 315
#     4  10  18  28  50  84 114 134 162 222 282 332
#     4  10  18  29  54  82 111 134 167 228 286 324
#     4   9  20  35  54  77 104 140 178 229 266 319
#     4   9  17  31  53  75 101 129 179 224 260 307
#     4  10  17  27  53  85 104 137 163 218 287 329
#     4  10  18  34  54  79 112 136 175 217 287 335
#     4  11  21  37  55  76 105 149 189 223 255 305
#
# _framework density 16.591052000000001
#
# number of rings (size 3 to 8) (size 9 to 14) (size 15 to 20)
#    0.000    2.133    4.667    0.000    0.000    0.000 
#    6.000    0.000    0.000    0.800    0.000    0.000 
#    0.000    0.000    0.000    0.000    0.000    0.000 
#
# Total GULP energy -743842.422811 kJ/mol
# GULP energy per Si atom -12397.373714 kJ/mol
# Density = 1.655329 g / cm^3
# Si number density = 16.591052 Si / 1000 Ang^3
#
#
#
# Elastic Constant Matrix: (Units=GPa)
#
#
# Indices 1 2 3 4 5 6 
#
# 1 99.9305 51.4321 41.4827 0.0000 0.0000 0.0000
# 2 51.4321 99.1463 33.3335 0.0000 0.0000 0.0000
# 3 41.4827 33.3335 90.0739 0.0000 0.0000 0.0000
# 4 0.0000 0.0000 0.0000 15.1912 0.0000 0.0000
# 5 0.0000 0.0000 0.0000 0.0000 22.2799 0.0000
# 6 0.0000 0.0000 0.0000 0.0000 0.0000 20.2789
#
#
#
# Elastic Compliance Matrix: (Units=1/GPa)
#
#
# Indices 1 2 3 4 5 6 
#
# 1 0.015191 -0.006314 -0.004659 0.000000 0.000000 0.000000
# 2 -0.006314 0.014143 -0.002326 0.000000 0.000000 0.000000
# 3 -0.004659 -0.002326 0.014109 0.000000 0.000000 0.000000
# 4 0.000000 0.000000 0.000000 0.065828 0.000000 0.000000
# 5 0.000000 0.000000 0.000000 0.000000 0.044883 0.000000
# 6 0.000000 0.000000 0.000000 0.000000 0.000000 0.049312
#
#
# Mechanical properties :
#
#
# Convention : Reuss Voigt Hill
#
# Bulk Modulus (GPa) = 59.36831 60.18306 59.77568
# Shear Modulus (GPa) = 21.21522 22.41015 21.81269
#
# Velocity S-wave (km/s) = 3.57979 3.67923 3.62985
# Velocity P-wave (km/s) = 7.27651 7.37578 7.32631
#
# Compressibility (1/GPa) = 0.01684400
#
# Stress axis : x y z
#
# Youngs Moduli (GPa) = 65.83000 70.70426 70.87790
#
# Poissons Ratio (x) = 0.44640 0.33025
# Poissons Ratio (y) = 0.41562 0.16489
# Poissons Ratio (z) = 0.30673 0.16448
#
# Static dielectric constant tensor:
#      x y z
#    x 3.157480 0.000000 0.000000 
#    y 0.000000 3.068910 0.000000 
#    z 0.000000 0.000000 2.803610 
# 
# 
# High freq. dielectric constant tensor:
#      x y z
#    x 1.648220 0.000000 0.000000 
#    y 0.000000 1.623890 0.000000 
#    z 0.000000 0.000000 1.607710 
# 
# From -- ./inp_files/19837.got.cif
#   From: 2010.06.25/outbox.cif.g09.slc.cpg/sg52_10_cif.got.tgz:19837.got - 2010.06.26 19:32:48.
