data_PCOD8214093
_publ_section_title
;
Structure prediction by ZEFSAII (Michael W. Deem and Ramdas Pophale) SiO2 
 PCOD8214093
Probable space group: P M M A
;
_chemical_formula_sum "Si O2"
_cell_formula_units_Z 48
_cell_length_a 15.104042
_cell_length_b 8.507059
_cell_length_c 18.814632
_cell_angle_alpha 90.000000
_cell_angle_beta 90.000000
_cell_angle_gamma 90.000000
_cell_volume 2417.510437
_symmetry_space_group_name_H-M "P M M A"
_symmetry_group_IT_number 51
_symmetry_cell_setting 'orthorhombic'
loop_
_space_group_symop_operation_xyz
x,y,z
1/2-x,-y,z
1/2+x,-y,-z
-x,y,-z
-x,-y,-z
1/2+x,y,-z
1/2-x,y,z
x,-y,z
loop_
_atom_site_type_symbol
_atom_site_label
_atom_site_fract_x
_atom_site_fract_y
_atom_site_fract_z
Si Si1 0.250000 0.312862 0.580239
Si Si2 0.250000 0.681230 0.421885
Si Si3 0.089564 0.815134 0.166271
Si Si4 0.250000 0.181419 0.927224
Si Si5 0.399873 0.682751 0.832032
Si Si6 0.750000 0.316588 0.920421
Si Si7 0.601663 0.820052 0.673133
Si Si8 0.100987 0.816939 0.678764
O O1 0.250000 0.500000 0.584476
O O2 0.250000 0.242233 0.500315
O O3 0.337642 0.246804 0.616846
O O4 0.250000 0.500000 0.436518
O O5 0.338345 0.720760 0.379212
O O6 0.163579 0.766042 0.110887
O O7 0.121162 0.769987 0.245619
O O8 0.000404 0.722673 0.147272
O O9 0.069376 0.000000 0.162015
O O10 0.162775 0.215664 0.882050
O O11 0.250000 0.000000 0.950821
O O12 0.250000 0.292703 0.995686
O O13 0.381062 0.500000 0.844823
O O14 0.378257 0.723881 0.750700
O O15 0.750000 0.500000 0.901370
O O16 0.499623 0.788104 0.654165
O O17 0.627887 0.000000 0.661776
O O18 0.118507 0.000000 0.693588
#
# Coordination Sequence:
#
# PCOD8214093 Si02
#       8
#     4   4   8   4   8   4   8   8
#     4  11  24  39  54  81 118 155 190 235 290 345
#     4  11  24  37  54  82 118 154 190 233 290 347
#     4  10  21  40  63  89 118 154 196 239 287 346
#     4  12  25  42  61  84 118 160 197 236 287 348
#     4  11  22  39  63  91 119 150 190 242 292 341
#     4  12  25  40  59  89 122 155 195 242 293 344
#     4   9  20  38  61  85 112 146 191 238 281 334
#     4  10  21  39  62  87 112 148 194 239 285 342
#
# _framework density 19.855136000000002
#
# number of rings (size 3 to 8) (size 9 to 14) (size 15 to 20)
#    0.000    1.500    0.000    6.500    0.000    8.667 
#    0.000    6.667    0.000    0.000    0.000    0.000 
#    0.000    0.000    0.000    0.000    0.000    0.000 
#
# Total GULP energy -595446.770170 kJ/mol
# GULP energy per Si atom -12405.141045 kJ/mol
# Density = 1.980994 g / cm^3
# Si number density = 19.855136 Si / 1000 Ang^3
#
#
#
# Elastic Constant Matrix: (Units=GPa)
#
#
# Indices 1 2 3 4 5 6 
#
# 1 109.5222 21.1668 66.2474 0.0000 0.0000 0.0000
# 2 21.1668 75.0336 12.5741 0.0000 0.0000 0.0000
# 3 66.2474 12.5741 106.9016 0.0000 0.0000 0.0000
# 4 0.0000 0.0000 0.0000 31.4107 0.0000 0.0000
# 5 0.0000 0.0000 0.0000 0.0000 -21.5893 0.0000
# 6 0.0000 0.0000 0.0000 0.0000 0.0000 31.7416
#
#
#
# Elastic Compliance Matrix: (Units=1/GPa)
#
#
# Indices 1 2 3 4 5 6 
#
# 1 0.015143 -0.002754 -0.009060 0.000000 0.000000 0.000000
# 2 -0.002754 0.014096 0.000048 0.000000 0.000000 0.000000
# 3 -0.009060 0.000048 0.014963 0.000000 0.000000 0.000000
# 4 0.000000 0.000000 0.000000 0.031836 0.000000 0.000000
# 5 0.000000 0.000000 0.000000 0.000000 -0.046319 0.000000
# 6 0.000000 0.000000 0.000000 0.000000 0.000000 0.031504
#
#
# Mechanical properties :
#
#
# Convention : Reuss Voigt Hill
#
# Bulk Modulus (GPa) = 48.37573 54.60379 51.48976
# Shear Modulus (GPa) = 54.55787 21.07720 37.81754
#
# Velocity S-wave (km/s) = 5.24763 3.26168 4.36899
# Velocity P-wave (km/s) = 7.81883 6.46108 7.17215
#
# Compressibility (1/GPa) = 0.02067152
#
# Stress axis : x y z
#
# Youngs Moduli (GPa) = 66.03643 70.94198 66.82930
#
# Poissons Ratio (x) = 0.19534 0.60550
# Poissons Ratio (y) = 0.18183 -0.00323
# Poissons Ratio (z) = 0.59832 -0.00343
#
# Static dielectric constant tensor:
#      x y z
#    x 3.669990 0.000000 0.000000 
#    y 0.000000 3.624030 0.000000 
#    z 0.000000 0.000000 3.602770 
# 
# 
# High freq. dielectric constant tensor:
#      x y z
#    x 1.787950 0.000000 0.000000 
#    y 0.000000 1.783290 0.000000 
#    z 0.000000 0.000000 1.772480 
# 
# From -- ./inp_files/29676.got.cif
#   From: 2010.03.12/outbox.cif.g09.slc.cpg/sg51_15_cif.got.tgz:29676.got - 2010.04.16 13:43:02.
