data_PCOD8214612
_publ_section_title
;
Structure prediction by ZEFSAII (Michael W. Deem and Ramdas Pophale) SiO2 
 PCOD8214612
Probable space group: P M M A
;
_chemical_formula_sum "Si O2"
_cell_formula_units_Z 56
_cell_length_a 13.767854
_cell_length_b 9.116298
_cell_length_c 23.285637
_cell_angle_alpha 90.000000
_cell_angle_beta 90.000000
_cell_angle_gamma 90.000000
_cell_volume 2922.623608
_symmetry_space_group_name_H-M "P M M A"
_symmetry_group_IT_number 51
_symmetry_cell_setting 'orthorhombic'
loop_
_space_group_symop_operation_xyz
x,y,z
1/2-x,-y,z
1/2+x,-y,-z
-x,y,-z
-x,-y,-z
1/2+x,y,-z
1/2-x,y,z
x,-y,z
loop_
_atom_site_type_symbol
_atom_site_label
_atom_site_fract_x
_atom_site_fract_y
_atom_site_fract_z
Si Si1 0.861256 0.329088 0.919612
Si Si2 0.134898 0.162456 0.971164
Si Si3 0.139004 0.173813 0.843597
Si Si4 0.862926 0.828488 0.697047
Si Si5 0.044489 0.673776 0.409907
Si Si6 0.856503 0.326481 0.473780
Si Si7 0.538828 0.326325 0.801886
O O1 0.750000 0.280087 0.911733
O O2 0.869835 0.500000 0.930021
O O3 0.917217 0.279399 0.862922
O O4 0.909903 0.254678 0.975901
O O5 0.250000 0.158979 0.977622
O O6 0.111574 0.228547 0.908171
O O7 0.091430 0.000000 0.975903
O O8 0.250000 0.214661 0.828557
O O9 0.070007 0.259849 0.798994
O O10 0.123275 0.000000 0.838434
O O11 0.750000 0.798215 0.685092
O O12 0.893124 0.745016 0.754377
O O13 0.925573 0.764505 0.645289
O O14 0.885024 0.000000 0.703923
O O15 0.054220 0.500000 0.398029
O O16 0.933487 0.719592 0.424994
O O17 0.111102 0.725833 0.463029
O O18 0.750000 0.260308 0.459368
O O19 0.852916 0.500000 0.475827
O O20 0.535778 0.500000 0.792418
#
# Coordination Sequence:
#
# PCOD8214612 Si02
#       7
#     8   8   8   8   8   8   8
#     4   9  18  32  49  72 103 134 165 210 267 319
#     4   8  15  29  50  74  99 131 169 206 252 315
#     4   9  19  37  57  76 102 135 171 215 266 320
#     4  11  24  40  57  78 106 141 180 222 269 321
#     4   9  17  31  55  84 112 147 187 223 263 310
#     4   8  14  27  51  85 120 149 180 220 264 311
#     4  11  23  37  55  78 103 135 178 224 268 317
#
# _framework density 19.160865999999999
#
# number of rings (size 3 to 8) (size 9 to 14) (size 15 to 20)
#    0.000    2.714    0.000    3.429    0.000    4.857 
#    0.000    7.857    0.000    3.857    0.000    0.000 
#    0.000    0.000    0.000    0.000    0.000    0.000 
#
# Total GULP energy -694228.500963 kJ/mol
# GULP energy per Si atom -12396.937517 kJ/mol
# Density = 1.911725 g / cm^3
# Si number density = 19.160866 Si / 1000 Ang^3
#
#
#
# Elastic Constant Matrix: (Units=GPa)
#
#
# Indices 1 2 3 4 5 6 
#
# 1 106.5867 35.3952 41.6201 0.0000 0.0000 0.0000
# 2 35.3952 60.2870 36.1001 0.0000 0.0000 0.0000
# 3 41.6201 36.1001 69.3974 0.0000 0.0000 0.0000
# 4 0.0000 0.0000 0.0000 52.2600 0.0000 0.0000
# 5 0.0000 0.0000 0.0000 0.0000 29.4922 0.0000
# 6 0.0000 0.0000 0.0000 0.0000 0.0000 21.8937
#
#
#
# Elastic Compliance Matrix: (Units=1/GPa)
#
#
# Indices 1 2 3 4 5 6 
#
# 1 0.012974 -0.004296 -0.005546 0.000000 0.000000 0.000000
# 2 -0.004296 0.025514 -0.010696 0.000000 0.000000 0.000000
# 3 -0.005546 -0.010696 0.023300 0.000000 0.000000 0.000000
# 4 0.000000 0.000000 0.000000 0.019135 0.000000 0.000000
# 5 0.000000 0.000000 0.000000 0.000000 0.033907 0.000000
# 6 0.000000 0.000000 0.000000 0.000000 0.000000 0.045675
#
#
# Mechanical properties :
#
#
# Convention : Reuss Voigt Hill
#
# Bulk Modulus (GPa) = 48.28117 51.38908 49.83512
# Shear Modulus (GPa) = 23.98226 28.93956 26.46091
#
# Velocity S-wave (km/s) = 3.54167 3.89053 3.72020
# Velocity P-wave (km/s) = 6.47897 6.86001 6.67221
#
# Compressibility (1/GPa) = 0.02071201
#
# Stress axis : x y z
#
# Youngs Moduli (GPa) = 77.07437 39.19354 42.91852
#
# Poissons Ratio (x) = 0.16839 0.23804
# Poissons Ratio (y) = 0.33113 0.45905
# Poissons Ratio (z) = 0.42748 0.41921
#
# Static dielectric constant tensor:
#      x y z
#    x 3.841510 0.000000 0.000000 
#    y 0.000000 3.290410 0.000000 
#    z 0.000000 0.000000 3.434600 
# 
# 
# High freq. dielectric constant tensor:
#      x y z
#    x 1.756690 0.000000 0.000000 
#    y 0.000000 1.723070 0.000000 
#    z 0.000000 0.000000 1.732960 
# 
# From -- ./inp_files/33369.got.cif
#   From: 2010.03.12/outbox.cif.g09.slc.cpg/sg51_17_cif.got.tgz:33369.got - 2010.04.16 13:43:02.
