data_PCOD8214974
_publ_section_title
;
Structure prediction by ZEFSAII (Michael W. Deem and Ramdas Pophale) SiO2 
 PCOD8214974
Probable space group: P N N A
;
_chemical_formula_sum "Si O2"
_cell_formula_units_Z 60
_cell_length_a 27.722099
_cell_length_b 5.433964
_cell_length_c 27.286408
_cell_angle_alpha 90.000000
_cell_angle_beta 90.000000
_cell_angle_gamma 90.000000
_cell_volume 4110.448731
_symmetry_space_group_name_H-M "P N N A"
_symmetry_group_IT_number 52
_symmetry_cell_setting 'orthorhombic'
loop_
_space_group_symop_operation_xyz
x,y,z
1/2-x,-y,z
x,1/2-y,1/2-z
1/2-x,1/2+y,1/2-z
-x,-y,-z
1/2+x,y,-z
-x,1/2+y,1/2+z
1/2+x,1/2-y,1/2+z
loop_
_atom_site_type_symbol
_atom_site_label
_atom_site_fract_x
_atom_site_fract_y
_atom_site_fract_z
Si Si1 0.333002 0.675006 0.125471
Si Si2 0.608419 0.728313 0.013998
Si Si3 0.297602 0.380028 0.036089
Si Si4 0.065077 0.224877 0.092326
Si Si5 0.307132 0.498208 0.223814
Si Si6 0.533220 0.729342 0.927987
Si Si7 0.930885 0.769379 0.023891
Si Si8 0.250000 0.500000 0.394432
O O1 0.323868 0.577947 0.070673
O O2 0.385904 0.793788 0.123624
O O3 0.330452 0.477696 0.169260
O O4 0.288744 0.859801 0.139663
O O5 0.665965 0.722493 0.004862
O O6 0.580386 0.724690 0.962355
O O7 0.595166 0.478535 0.044113
O O8 0.593998 0.977575 0.044027
O O9 0.250000 0.500000 0.010771
O O10 0.282840 0.163517 0.071297
O O11 0.035131 0.477249 0.104355
O O12 0.035529 0.975169 0.105987
O O13 0.074080 0.221542 0.034301
O O14 0.250000 0.500000 0.220126
O O15 0.325789 0.750000 0.250000
O O16 0.325771 0.250000 0.250000
O O17 0.486504 0.749462 0.961835
#
# Coordination Sequence:
#
# PCOD8214974 Si02
#       8
#     8   8   8   8   8   8   8   4
#     4  11  21  32  46  61  76  96 122 158 197 245
#     4  10  17  27  38  54  74  98 124 148 175 219
#     4  10  20  29  40  57  76  99 125 157 196 233
#     4  10  18  27  42  59  79  95 119 143 180 223
#     4  10  23  37  49  60  73  93 123 160 203 250
#     4  10  17  27  41  59  80 101 119 144 176 222
#     4  10  17  27  41  57  79 101 122 145 176 219
#     4  10  20  28  46  58  72  96 120 154 198 238
#
# _framework density 14.596947
#
# number of rings (size 3 to 8) (size 9 to 14) (size 15 to 20)
#    0.000    1.867    2.667    6.800    6.533    0.000 
#    0.000    0.000    0.000    0.000    0.000    0.000 
#    0.000    0.000    0.000    0.000    0.000    0.000 
#
# Total GULP energy -743343.478189 kJ/mol
# GULP energy per Si atom -12389.057970 kJ/mol
# Density = 1.456372 g / cm^3
# Si number density = 14.596947 Si / 1000 Ang^3
#
#
#
# Elastic Constant Matrix: (Units=GPa)
#
#
# Indices 1 2 3 4 5 6 
#
# 1 80.4632 33.1903 24.7372 0.0000 0.0000 0.0000
# 2 33.1903 136.3924 14.6284 0.0000 0.0000 0.0000
# 3 24.7372 14.6284 18.1021 0.0000 0.0000 0.0000
# 4 0.0000 0.0000 0.0000 12.9099 0.0000 0.0000
# 5 0.0000 0.0000 0.0000 0.0000 12.6950 0.0000
# 6 0.0000 0.0000 0.0000 0.0000 0.0000 21.1284
#
#
#
# Elastic Compliance Matrix: (Units=1/GPa)
#
#
# Indices 1 2 3 4 5 6 
#
# 1 0.022094 -0.002341 -0.028301 0.000000 0.000000 0.000000
# 2 -0.002341 0.008276 -0.003488 0.000000 0.000000 0.000000
# 3 -0.028301 -0.003488 0.096736 0.000000 0.000000 0.000000
# 4 0.000000 0.000000 0.000000 0.077460 0.000000 0.000000
# 5 0.000000 0.000000 0.000000 0.000000 0.078771 0.000000
# 6 0.000000 0.000000 0.000000 0.000000 0.000000 0.047330
#
#
# Mechanical properties :
#
#
# Convention : Reuss Voigt Hill
#
# Bulk Modulus (GPa) = 16.99387 42.22993 29.61190
# Shear Modulus (GPa) = 11.94622 20.17343 16.05982
#
# Velocity S-wave (km/s) = 2.86388 3.72160 3.32055
# Velocity P-wave (km/s) = 4.75427 6.88916 5.91877
#
# Compressibility (1/GPa) = 0.05884476
#
# Stress axis : x y z
#
# Youngs Moduli (GPa) = 45.26016 120.83670 10.33746
#
# Poissons Ratio (x) = 0.28291 0.29256
# Poissons Ratio (y) = 0.10596 0.03606
# Poissons Ratio (z) = 1.28091 0.42151
#
# Static dielectric constant tensor:
#      x y z
#    x 2.761940 0.000000 0.000000 
#    y 0.000000 4.044110 0.000000 
#    z 0.000000 0.000000 2.214820 
# 
# 
# High freq. dielectric constant tensor:
#      x y z
#    x 1.545620 0.000000 0.000000 
#    y 0.000000 1.595720 0.000000 
#    z 0.000000 0.000000 1.461440 
# 
# From -- ./inp_files/45216.got.cif
#   From: 2010.06.25/outbox.cif.g09.slc.cpg/sg52_23_cif.got.tgz:45216.got - 2010.06.26 19:32:48.
