data_PCOD8214190
_publ_section_title
;
Structure prediction by ZEFSAII (Michael W. Deem and Ramdas Pophale) SiO2 
 PCOD8214190
Probable space group: P M M A
;
_chemical_formula_sum "Si O2"
_cell_formula_units_Z 44
_cell_length_a 8.935713
_cell_length_b 28.411695
_cell_length_c 9.155806
_cell_angle_alpha 90.000000
_cell_angle_beta 90.000000
_cell_angle_gamma 90.000000
_cell_volume 2324.464604
_symmetry_space_group_name_H-M "P M M A"
_symmetry_group_IT_number 51
_symmetry_cell_setting 'orthorhombic'
loop_
_space_group_symop_operation_xyz
x,y,z
1/2-x,-y,z
1/2+x,-y,-z
-x,y,-z
-x,-y,-z
1/2+x,y,-z
1/2-x,y,z
x,-y,z
loop_
_atom_site_type_symbol
_atom_site_label
_atom_site_fract_x
_atom_site_fract_y
_atom_site_fract_z
Si Si1 0.928085 0.690125 0.657727
Si Si2 0.573930 0.053063 0.152165
Si Si3 0.923463 0.862929 0.347611
Si Si4 0.074376 0.398375 0.157093
Si Si5 0.423880 0.500000 0.153491
Si Si6 0.926157 0.772127 0.156810
O O1 0.750000 0.694922 0.645478
O O2 0.979287 0.640635 0.728273
O O3 0.000000 0.694133 0.500000
O O4 0.992445 0.730953 0.757363
O O5 0.750000 0.058581 0.130303
O O6 0.515038 0.088604 0.276567
O O7 0.529399 0.000000 0.198662
O O8 0.500000 0.067245 0.000000
O O9 0.750000 0.867636 0.380622
O O10 0.958430 0.820745 0.238169
O O11 0.000000 0.852404 0.500000
O O12 0.250000 0.393853 0.130036
O O13 0.031945 0.449972 0.228757
O O14 0.000000 0.390182 0.000000
O O15 0.250000 0.500000 0.123454
O O16 0.500000 0.500000 0.000000
O O17 0.750000 0.761379 0.143716
O O18 0.000000 0.776234 0.000000
#
# Coordination Sequence:
#
# PCOD8214190 Si02
#       6
#     8   8   8   8   4   8
#     4  11  23  38  55  78 108 142 178 219 267 317
#     4   9  18  34  55  79 107 139 177 220 263 309
#     4  10  22  37  54  79 110 142 176 216 263 314
#     4   9  18  32  53  78 104 135 173 216 261 311
#     4   8  14  28  49  74 102 132 168 212 259 306
#     4  11  23  39  59  82 107 138 177 220 265 316
#
# _framework density 18.929089000000001
#
# number of rings (size 3 to 8) (size 9 to 14) (size 15 to 20)
#    0.000    2.182    0.000    2.727    0.000    6.909 
#    0.000    0.455    0.000    0.000    0.000    0.000 
#    0.000    0.000    0.000    0.000    0.000    0.000 
#
# Total GULP energy -545418.751945 kJ/mol
# GULP energy per Si atom -12395.880726 kJ/mol
# Density = 1.888601 g / cm^3
# Si number density = 18.929089 Si / 1000 Ang^3
#
#
#
# Elastic Constant Matrix: (Units=GPa)
#
#
# Indices 1 2 3 4 5 6 
#
# 1 58.5312 55.5724 54.4822 0.0000 0.0000 0.0000
# 2 55.5724 145.6066 72.9551 0.0000 0.0000 0.0000
# 3 54.4822 72.9551 137.1148 0.0000 0.0000 0.0000
# 4 0.0000 0.0000 0.0000 186.7424 0.0000 0.0000
# 5 0.0000 0.0000 0.0000 0.0000 31.9726 0.0000
# 6 0.0000 0.0000 0.0000 0.0000 0.0000 25.8622
#
#
#
# Elastic Compliance Matrix: (Units=1/GPa)
#
#
# Indices 1 2 3 4 5 6 
#
# 1 0.033041 -0.008225 -0.008752 0.000000 0.000000 0.000000
# 2 -0.008225 0.011412 -0.002804 0.000000 0.000000 0.000000
# 3 -0.008752 -0.002804 0.012263 0.000000 0.000000 0.000000
# 4 0.000000 0.000000 0.000000 0.005355 0.000000 0.000000
# 5 0.000000 0.000000 0.000000 0.000000 0.031277 0.000000
# 6 0.000000 0.000000 0.000000 0.000000 0.000000 0.038666
#
#
# Mechanical properties :
#
#
# Convention : Reuss Voigt Hill
#
# Bulk Modulus (GPa) = 58.29832 78.58576 68.44204
# Shear Modulus (GPa) = 28.20165 59.46497 43.83331
#
# Velocity S-wave (km/s) = 3.86406 5.61095 4.81735
# Velocity P-wave (km/s) = 7.12552 9.14238 8.19622
#
# Compressibility (1/GPa) = 0.01715315
#
# Stress axis : x y z
#
# Youngs Moduli (GPa) = 30.26507 87.62839 81.54828
#
# Poissons Ratio (x) = 0.72077 0.71375
# Poissons Ratio (y) = 0.24894 0.22863
# Poissons Ratio (z) = 0.26489 0.24568
#
# Static dielectric constant tensor:
#      x y z
#    x 3.505790 0.000000 0.000000 
#    y 0.000000 4.189470 0.000000 
#    z 0.000000 0.000000 3.387950 
# 
# 
# High freq. dielectric constant tensor:
#      x y z
#    x 1.735540 0.000000 0.000000 
#    y 0.000000 1.762530 0.000000 
#    z 0.000000 0.000000 1.722700 
# 
# From -- ./inp_files/5763.got.cif
#   From: 2010.03.12/outbox.cif.g09.slc.cpg/sg51_3_cif.got.tgz:5763.got - 2010.04.16 13:43:02.
