data_PCOD8214296
_publ_section_title
;
Structure prediction by ZEFSAII (Michael W. Deem and Ramdas Pophale) SiO2 
 PCOD8214296
Probable space group: P M M A
;
_chemical_formula_sum "Si O2"
_cell_formula_units_Z 48
_cell_length_a 17.791801
_cell_length_b 14.398201
_cell_length_c 9.968459
_cell_angle_alpha 90.000000
_cell_angle_beta 90.000000
_cell_angle_gamma 90.000000
_cell_volume 2553.619414
_symmetry_space_group_name_H-M "P M M A"
_symmetry_group_IT_number 51
_symmetry_cell_setting 'orthorhombic'
loop_
_space_group_symop_operation_xyz
x,y,z
1/2-x,-y,z
1/2+x,-y,-z
-x,y,-z
-x,-y,-z
1/2+x,y,-z
1/2-x,y,z
x,-y,z
loop_
_atom_site_type_symbol
_atom_site_label
_atom_site_fract_x
_atom_site_fract_y
_atom_site_fract_z
Si Si1 0.465691 0.398846 0.712954
Si Si2 0.409224 0.791497 0.767431
Si Si3 0.837007 0.892892 0.986915
Si Si4 0.433532 0.109247 0.270540
Si Si5 0.885956 0.601289 0.571687
Si Si6 0.333363 0.792956 0.483755
O O1 0.449142 0.500000 0.780313
O O2 0.432011 0.315246 0.801696
O O3 0.555192 0.385321 0.693898
O O4 0.430061 0.395220 0.566958
O O5 0.361836 0.829413 0.890570
O O6 0.483528 0.850877 0.742983
O O7 0.356042 0.796378 0.638674
O O8 0.750000 0.875389 0.953702
O O9 0.852172 0.000000 0.024621
O O10 0.884589 0.862695 0.858102
O O11 0.394092 0.147938 0.403094
O O12 0.440109 0.000000 0.286437
O O13 0.845569 0.500000 0.586344
O O14 0.828598 0.687149 0.572375
O O15 0.250000 0.836025 0.468071
#
# Coordination Sequence:
#
# PCOD8214296 Si02
#       6
#     8   8   8   8   8   8
#     4   8  14  27  51  80 108 138 174 218 267 315
#     4  11  20  35  59  86 108 138 184 234 269 317
#     4  10  22  40  59  79 106 142 182 226 279 333
#     4  11  23  39  57  77 106 146 188 226 270 331
#     4   8  14  28  49  75 108 143 177 215 261 317
#     4  11  22  34  52  83 116 144 177 224 280 325
#
# _framework density 18.796849000000002
#
# number of rings (size 3 to 8) (size 9 to 14) (size 15 to 20)
#    0.000    2.167    1.667    3.500    0.000    4.667 
#    0.000    0.000    0.000    4.500    0.000    0.000 
#    0.000    0.000    0.000    0.000    0.000    0.000 
#
# Total GULP energy -594999.386368 kJ/mol
# GULP energy per Si atom -12395.820549 kJ/mol
# Density = 1.875407 g / cm^3
# Si number density = 18.796849 Si / 1000 Ang^3
#
#
#
# Elastic Constant Matrix: (Units=GPa)
#
#
# Indices 1 2 3 4 5 6 
#
# 1 65.5955 12.7503 4.1935 0.0000 0.0000 0.0000
# 2 12.7503 93.8622 26.8125 0.0000 0.0000 0.0000
# 3 4.1935 26.8125 45.5339 0.0000 0.0000 0.0000
# 4 0.0000 0.0000 0.0000 4.7578 0.0000 0.0000
# 5 0.0000 0.0000 0.0000 0.0000 20.1290 0.0000
# 6 0.0000 0.0000 0.0000 0.0000 0.0000 22.5739
#
#
#
# Elastic Compliance Matrix: (Units=1/GPa)
#
#
# Indices 1 2 3 4 5 6 
#
# 1 0.015660 -0.002062 -0.000228 0.000000 0.000000 0.000000
# 2 -0.002062 0.013080 -0.007512 0.000000 0.000000 0.000000
# 3 -0.000228 -0.007512 0.026406 0.000000 0.000000 0.000000
# 4 0.000000 0.000000 0.000000 0.210183 0.000000 0.000000
# 5 0.000000 0.000000 0.000000 0.000000 0.049680 0.000000
# 6 0.000000 0.000000 0.000000 0.000000 0.000000 0.044299
#
#
# Mechanical properties :
#
#
# Convention : Reuss Voigt Hill
#
# Bulk Modulus (GPa) = 28.13586 32.50049 30.31817
# Shear Modulus (GPa) = 12.79559 20.24115 16.51837
#
# Velocity S-wave (km/s) = 2.61191 3.28508 2.96764
# Velocity P-wave (km/s) = 4.90887 5.63178 5.28270
#
# Compressibility (1/GPa) = 0.03554184
#
# Stress axis : x y z
#
# Youngs Moduli (GPa) = 63.85546 76.45283 37.86993
#
# Poissons Ratio (x) = 0.15766 0.00863
# Poissons Ratio (y) = 0.13168 0.28449
# Poissons Ratio (z) = 0.01456 0.57433
#
# Static dielectric constant tensor:
#      x y z
#    x 3.367520 0.000000 0.000000 
#    y 0.000000 3.901250 0.000000 
#    z 0.000000 0.000000 3.178260 
# 
# 
# High freq. dielectric constant tensor:
#      x y z
#    x 1.725850 0.000000 0.000000 
#    y 0.000000 1.743800 0.000000 
#    z 0.000000 0.000000 1.698800 
# 
# From -- ./inp_files/9635.got.cif
#   From: 2010.03.12/outbox.cif.g09.slc.cpg/sg51_5_cif.got.tgz:9635.got - 2010.04.16 13:43:02.
