data_PCOD8214970
_publ_section_title
;
Structure prediction by ZEFSAII (Michael W. Deem and Ramdas Pophale) SiO2 
 PCOD8214970
Probable space group: P N N A
;
_chemical_formula_sum "Si O2"
_cell_formula_units_Z 48
_cell_length_a 18.382681
_cell_length_b 9.225378
_cell_length_c 16.551792
_cell_angle_alpha 90.000000
_cell_angle_beta 90.000000
_cell_angle_gamma 90.000000
_cell_volume 2806.971744
_symmetry_space_group_name_H-M "P N N A"
_symmetry_group_IT_number 52
_symmetry_cell_setting 'orthorhombic'
loop_
_space_group_symop_operation_xyz
x,y,z
1/2-x,-y,z
x,1/2-y,1/2-z
1/2-x,1/2+y,1/2-z
-x,-y,-z
1/2+x,y,-z
-x,1/2+y,1/2+z
1/2+x,1/2-y,1/2+z
loop_
_atom_site_type_symbol
_atom_site_label
_atom_site_fract_x
_atom_site_fract_y
_atom_site_fract_z
Si Si1 0.750000 0.000000 0.171637
Si Si2 0.257940 0.692341 0.522906
Si Si3 0.865258 0.014453 0.306769
Si Si4 0.496782 0.997885 0.865551
Si Si5 0.968324 0.250000 0.250000
Si Si6 0.554308 0.250000 0.250000
Si Si7 0.879460 0.017110 0.994597
Si Si8 0.750000 0.500000 0.061280
O O1 0.737016 0.142309 0.116817
O O2 0.820349 0.031295 0.224539
O O3 0.177812 0.649672 0.491008
O O4 0.328092 0.622651 0.479775
O O5 0.267897 0.862122 0.506923
O O6 0.923594 0.142090 0.307404
O O7 0.897947 0.852178 0.308979
O O8 0.818734 0.042301 0.385407
O O9 0.492016 0.857887 0.807004
O O10 0.566089 0.969385 0.920664
O O11 0.511601 0.144168 0.812382
O O12 0.423607 0.012871 0.920274
#
# Coordination Sequence:
#
# PCOD8214970 Si02
#       8
#     4   8   8   8   4   4   8   4
#     4   9  16  26  42  64  96 137 156 170 222 299
#     4  10  18  31  48  66  93 125 162 196 234 282
#     4  10  17  25  40  68 102 126 151 181 226 289
#     4  10  19  33  52  73  96 127 163 198 236 284
#     4  10  18  29  46  69  98 128 160 194 232 276
#     4  10  18  29  46  69  98 128 160 194 232 276
#     4   9  19  35  52  68  96 135 163 185 236 302
#     4  11  18  24  42  72  98 121 150 194 234 273
#
# _framework density 17.100277999999999
#
# number of rings (size 3 to 8) (size 9 to 14) (size 15 to 20)
#    0.000    2.333    0.000    8.000    0.000    2.667 
#    0.000    3.333    0.000   16.000    0.000    0.000 
#    0.000    0.000    0.000    0.000    0.000    0.000 
#
# Total GULP energy -594672.952151 kJ/mol
# GULP energy per Si atom -12389.019836 kJ/mol
# Density = 1.706136 g / cm^3
# Si number density = 17.100278 Si / 1000 Ang^3
#
#
#
# Elastic Constant Matrix: (Units=GPa)
#
#
# Indices 1 2 3 4 5 6 
#
# 1 66.2365 0.7868 24.5562 0.0000 0.0000 0.0000
# 2 0.7868 98.3872 10.7171 0.0000 0.0000 0.0000
# 3 24.5562 10.7171 53.3610 0.0000 0.0000 0.0000
# 4 0.0000 0.0000 0.0000 9.3694 0.0000 0.0000
# 5 0.0000 0.0000 0.0000 0.0000 20.6658 0.0000
# 6 0.0000 0.0000 0.0000 0.0000 0.0000 6.9577
#
#
#
# Elastic Compliance Matrix: (Units=1/GPa)
#
#
# Indices 1 2 3 4 5 6 
#
# 1 0.018262 0.000787 -0.008562 0.000000 0.000000 0.000000
# 2 0.000787 0.010425 -0.002456 0.000000 0.000000 0.000000
# 3 -0.008562 -0.002456 0.023174 0.000000 0.000000 0.000000
# 4 0.000000 0.000000 0.000000 0.106730 0.000000 0.000000
# 5 0.000000 0.000000 0.000000 0.000000 0.048389 0.000000
# 6 0.000000 0.000000 0.000000 0.000000 0.000000 0.143725
#
#
# Mechanical properties :
#
#
# Convention : Reuss Voigt Hill
#
# Bulk Modulus (GPa) = 31.84857 32.23387 32.04122
# Shear Modulus (GPa) = 13.10152 19.52688 16.31420
#
# Velocity S-wave (km/s) = 2.77096 3.38287 3.09209
# Velocity P-wave (km/s) = 5.37612 5.84374 5.61480
#
# Compressibility (1/GPa) = 0.03139858
#
# Stress axis : x y z
#
# Youngs Moduli (GPa) = 54.75736 95.92195 43.15227
#
# Poissons Ratio (x) = -0.07545 0.36948
# Poissons Ratio (y) = -0.04307 0.10597
# Poissons Ratio (z) = 0.46884 0.23557
#
# Static dielectric constant tensor:
#      x y z
#    x 3.127820 0.000000 0.000000 
#    y 0.000000 3.270020 0.000000 
#    z 0.000000 0.000000 2.869180 
# 
# 
# High freq. dielectric constant tensor:
#      x y z
#    x 1.646060 0.000000 0.000000 
#    y 0.000000 1.670860 0.000000 
#    z 0.000000 0.000000 1.619320 
# 
# From -- ./inp_files/33697.got.cif
#   From: 2010.06.25/outbox.cif.g09.slc.cpg/sg52_17_cif.got.tgz:33697.got - 2010.06.26 19:32:48.
