data_PCOD8214758
_publ_section_title
;
Structure prediction by ZEFSAII (Michael W. Deem and Ramdas Pophale) SiO2 
 PCOD8214758
Probable space group: P M M A
;
_chemical_formula_sum "Si O2"
_cell_formula_units_Z 48
_cell_length_a 9.385103
_cell_length_b 9.748070
_cell_length_c 30.895857
_cell_angle_alpha 90.000000
_cell_angle_beta 90.000000
_cell_angle_gamma 90.000000
_cell_volume 2826.558178
_symmetry_space_group_name_H-M "P M M A"
_symmetry_group_IT_number 51
_symmetry_cell_setting 'orthorhombic'
loop_
_space_group_symop_operation_xyz
x,y,z
1/2-x,-y,z
1/2+x,-y,-z
-x,y,-z
-x,-y,-z
1/2+x,y,-z
1/2-x,y,z
x,-y,z
loop_
_atom_site_type_symbol
_atom_site_label
_atom_site_fract_x
_atom_site_fract_y
_atom_site_fract_z
Si Si1 0.089102 0.663622 0.540939
Si Si2 0.583451 0.158027 0.793198
Si Si3 0.090917 0.336773 0.378930
Si Si4 0.084283 0.657786 0.957661
Si Si5 0.080421 0.652766 0.283753
Si Si6 0.415615 0.841822 0.877910
O O1 0.250000 0.720683 0.538337
O O2 0.090109 0.500000 0.541153
O O3 0.000000 0.718680 0.500000
O O4 0.015371 0.721152 0.584564
O O5 0.750000 0.184671 0.800598
O O6 0.522405 0.244962 0.752932
O O7 0.502524 0.206917 0.836081
O O8 0.550903 0.000000 0.782916
O O9 0.250000 0.277397 0.387120
O O10 0.098560 0.500000 0.381156
O O11 0.032411 0.293975 0.331347
O O12 0.250000 0.681370 0.967053
O O13 0.050701 0.500000 0.946249
O O14 0.031411 0.750498 0.917941
O O15 0.000000 0.705858 0.000000
O O16 0.250000 0.648534 0.283331
O O17 0.019932 0.500000 0.274612
O O18 0.250000 0.816969 0.868230
O O19 0.447607 0.000000 0.889074
#
# Coordination Sequence:
#
# PCOD8214758 Si02
#       6
#     8   8   8   8   8   8
#     4   9  15  21  30  46  70 100 132 164 199 241
#     4   9  17  29  45  65  87 110 140 178 212 243
#     4   8  13  22  35  49  68  97 131 164 198 238
#     4   9  18  32  48  66  89 115 142 173 209 248
#     4   8  14  25  41  60  82 109 139 170 207 250
#     4   9  18  32  47  63  86 115 142 169 207 252
#
# _framework density 16.981784999999999
#
# number of rings (size 3 to 8) (size 9 to 14) (size 15 to 20)
#    0.000    3.333    0.000    1.500    0.000    3.667 
#    0.000    0.833    0.000    1.000    0.000    0.000 
#    0.000    0.667    0.000    1.167    0.000    1.667 
#
# Total GULP energy -595044.872270 kJ/mol
# GULP energy per Si atom -12396.768172 kJ/mol
# Density = 1.694313 g / cm^3
# Si number density = 16.981785 Si / 1000 Ang^3
#
#
#
# Elastic Constant Matrix: (Units=GPa)
#
#
# Indices 1 2 3 4 5 6 
#
# 1 70.6493 27.1660 71.5265 0.0000 0.0000 0.0000
# 2 27.1660 45.8602 65.1996 0.0000 0.0000 0.0000
# 3 71.5265 65.1996 192.5075 0.0000 0.0000 0.0000
# 4 0.0000 0.0000 0.0000 6.4377 0.0000 0.0000
# 5 0.0000 0.0000 0.0000 0.0000 31.9474 0.0000
# 6 0.0000 0.0000 0.0000 0.0000 0.0000 12.0433
#
#
#
# Elastic Compliance Matrix: (Units=1/GPa)
#
#
# Indices 1 2 3 4 5 6 
#
# 1 0.022878 -0.002830 -0.007542 0.000000 0.000000 0.000000
# 2 -0.002830 0.042406 -0.013311 0.000000 0.000000 0.000000
# 3 -0.007542 -0.013311 0.012505 0.000000 0.000000 0.000000
# 4 0.000000 0.000000 0.000000 0.155335 0.000000 0.000000
# 5 0.000000 0.000000 0.000000 0.000000 0.031301 0.000000
# 6 0.000000 0.000000 0.000000 0.000000 0.000000 0.083034
#
#
# Mechanical properties :
#
#
# Convention : Reuss Voigt Hill
#
# Bulk Modulus (GPa) = 32.86912 70.75570 51.81241
# Shear Modulus (GPa) = 12.34674 19.76067 16.05371
#
# Velocity S-wave (km/s) = 2.69933 3.41492 3.07799
# Velocity P-wave (km/s) = 5.39562 7.57000 6.57334
#
# Compressibility (1/GPa) = 0.03042369
#
# Stress axis : x y z
#
# Youngs Moduli (GPa) = 43.70978 23.58182 79.96778
#
# Poissons Ratio (x) = 0.06673 0.60312
# Poissons Ratio (y) = 0.12369 1.06443
# Poissons Ratio (z) = 0.32966 0.31389
#
# Static dielectric constant tensor:
#      x y z
#    x 3.091040 0.000000 0.000000 
#    y 0.000000 2.899760 0.000000 
#    z 0.000000 0.000000 3.480180 
# 
# 
# High freq. dielectric constant tensor:
#      x y z
#    x 1.637150 0.000000 0.000000 
#    y 0.000000 1.610800 0.000000 
#    z 0.000000 0.000000 1.668120 
# 
# From -- ./inp_files/34522.got.cif
#   From: 2010.03.12/outbox.cif.g09.slc.cpg/sg51_18_cif.got.tgz:34522.got - 2010.04.16 13:43:02.
