data_PCOD8214699
_publ_section_title
;
Structure prediction by ZEFSAII (Michael W. Deem and Ramdas Pophale) SiO2 
 PCOD8214699
Probable space group: P M M A
;
_chemical_formula_sum "Si O2"
_cell_formula_units_Z 40
_cell_length_a 9.955226
_cell_length_b 9.776565
_cell_length_c 25.725936
_cell_angle_alpha 90.000000
_cell_angle_beta 90.000000
_cell_angle_gamma 90.000000
_cell_volume 2503.851689
_symmetry_space_group_name_H-M "P M M A"
_symmetry_group_IT_number 51
_symmetry_cell_setting 'orthorhombic'
loop_
_space_group_symop_operation_xyz
x,y,z
1/2-x,-y,z
1/2+x,-y,-z
-x,y,-z
-x,-y,-z
1/2+x,y,-z
1/2-x,y,z
x,-y,z
loop_
_atom_site_type_symbol
_atom_site_label
_atom_site_fract_x
_atom_site_fract_y
_atom_site_fract_z
Si Si1 0.600228 0.162842 0.755132
Si Si2 0.900384 0.837270 0.158662
Si Si3 0.405517 0.341343 0.452387
Si Si4 0.090540 0.848219 0.359268
Si Si5 0.599775 0.837244 0.042966
O O1 0.750000 0.222523 0.764260
O O2 0.502165 0.225938 0.798926
O O3 0.543896 0.203197 0.697884
O O4 0.605601 0.000000 0.758913
O O5 0.750000 0.784071 0.170641
O O6 0.944858 0.790103 0.100796
O O7 0.902464 0.000000 0.161795
O O8 0.500000 0.298111 0.500000
O O9 0.250000 0.307209 0.465772
O O10 0.422918 0.500000 0.438710
O O11 0.459333 0.256888 0.402945
O O12 0.250000 0.855538 0.358457
O O13 0.032493 0.000000 0.371380
O O14 0.750000 0.784288 0.031042
O O15 0.597050 0.000000 0.040049
O O16 0.500000 0.773116 0.000000
#
# Coordination Sequence:
#
# PCOD8214699 Si02
#       5
#     8   8   8   8   8
#     4   8  13  21  33  47  61  81 111 142 172 210
#     4   8  13  20  28  39  58  82 106 138 181 218
#     4   9  17  29  44  60  78 101 127 153 183 221
#     4   8  14  25  40  57  77  99 123 154 189 221
#     4   8  13  19  25  34  50  74 105 140 175 208
#
# _framework density 15.975387
#
# number of rings (size 3 to 8) (size 9 to 14) (size 15 to 20)
#    0.000    3.800    0.000    2.400    0.000    1.200 
#    0.000    5.000    0.000    1.200    0.000    0.000 
#    0.000    0.000    0.000    0.000    0.000    1.000 
#
# Total GULP energy -495616.886024 kJ/mol
# GULP energy per Si atom -12390.422151 kJ/mol
# Density = 1.593903 g / cm^3
# Si number density = 15.975387 Si / 1000 Ang^3
#
#
#
# Elastic Constant Matrix: (Units=GPa)
#
#
# Indices 1 2 3 4 5 6 
#
# 1 78.5145 19.4511 84.3939 0.0000 0.0000 0.0000
# 2 19.4511 21.0207 36.7415 0.0000 0.0000 0.0000
# 3 84.3939 36.7415 173.6970 0.0000 0.0000 0.0000
# 4 0.0000 0.0000 0.0000 1.1540 0.0000 0.0000
# 5 0.0000 0.0000 0.0000 0.0000 32.9071 0.0000
# 6 0.0000 0.0000 0.0000 0.0000 0.0000 6.4736
#
#
#
# Elastic Compliance Matrix: (Units=1/GPa)
#
#
# Indices 1 2 3 4 5 6 
#
# 1 0.026797 -0.003235 -0.012336 0.000000 0.000000 0.000000
# 2 -0.003235 0.075868 -0.014476 0.000000 0.000000 0.000000
# 3 -0.012336 -0.014476 0.014813 0.000000 0.000000 0.000000
# 4 0.000000 0.000000 0.000000 0.866518 0.000000 0.000000
# 5 0.000000 0.000000 0.000000 0.000000 0.030389 0.000000
# 6 0.000000 0.000000 0.000000 0.000000 0.000000 0.154473
#
#
# Mechanical properties :
#
#
# Convention : Reuss Voigt Hill
#
# Bulk Modulus (GPa) = 17.42641 61.60059 39.51350
# Shear Modulus (GPa) = 4.00615 16.94999 10.47807
#
# Velocity S-wave (km/s) = 1.58529 3.26084 2.56381
# Velocity P-wave (km/s) = 3.77926 7.26780 5.79240
#
# Compressibility (1/GPa) = 0.05738417
#
# Stress axis : x y z
#
# Youngs Moduli (GPa) = 37.31704 13.18070 67.50929
#
# Poissons Ratio (x) = 0.04264 0.83277
# Poissons Ratio (y) = 0.12073 0.97728
# Poissons Ratio (z) = 0.46033 0.19081
#
# Static dielectric constant tensor:
#      x y z
#    x 3.116430 0.000000 0.000000 
#    y 0.000000 2.511060 0.000000 
#    z 0.000000 0.000000 3.443260 
# 
# 
# High freq. dielectric constant tensor:
#      x y z
#    x 1.597680 0.000000 0.000000 
#    y 0.000000 1.541990 0.000000 
#    z 0.000000 0.000000 1.627580 
# 
# From -- ./inp_files/32784.got.cif
#   From: 2010.03.12/outbox.cif.g09.slc.cpg/sg51_17_cif.got.tgz:32784.got - 2010.04.16 13:43:02.
