data_PCOD8214884
_publ_section_title
;
Structure prediction by ZEFSAII (Michael W. Deem and Ramdas Pophale) SiO2 
 PCOD8214884
Probable space group: P M M A
;
_chemical_formula_sum "Si O2"
_cell_formula_units_Z 48
_cell_length_a 9.312863
_cell_length_b 9.372678
_cell_length_c 30.949769
_cell_angle_alpha 90.000000
_cell_angle_beta 90.000000
_cell_angle_gamma 90.000000
_cell_volume 2701.495964
_symmetry_space_group_name_H-M "P M M A"
_symmetry_group_IT_number 51
_symmetry_cell_setting 'orthorhombic'
loop_
_space_group_symop_operation_xyz
x,y,z
1/2-x,-y,z
1/2+x,-y,-z
-x,y,-z
-x,-y,-z
1/2+x,y,-z
1/2-x,y,z
x,-y,z
loop_
_atom_site_type_symbol
_atom_site_label
_atom_site_fract_x
_atom_site_fract_y
_atom_site_fract_z
Si Si1 0.087473 0.330065 0.959023
Si Si2 0.582470 0.835162 0.457329
Si Si3 0.584071 0.666640 0.875686
Si Si4 0.079134 0.338637 0.624941
Si Si5 0.081854 0.164733 0.707148
Si Si6 0.916350 0.165034 0.791714
O O1 0.250000 0.270928 0.960265
O O2 0.087384 0.500000 0.960470
O O3 0.009771 0.276268 0.915629
O O4 0.000000 0.269156 0.000000
O O5 0.500000 0.784688 0.500000
O O6 0.750000 0.808224 0.465158
O O7 0.522397 0.742082 0.417607
O O8 0.550894 0.000000 0.446632
O O9 0.750000 0.701141 0.885825
O O10 0.559930 0.500000 0.867850
O O11 0.529898 0.747296 0.833077
O O12 0.250000 0.335220 0.625052
O O13 0.020108 0.500000 0.624999
O O14 0.021717 0.257250 0.667299
O O15 0.250000 0.188421 0.713992
O O16 0.003559 0.219032 0.750208
O O17 0.045730 0.000000 0.697435
O O18 0.750000 0.194389 0.782445
O O19 0.947704 0.000000 0.801081
#
# Coordination Sequence:
#
# PCOD8214884 Si02
#       6
#     8   8   8   8   8   8
#     4   9  16  26  42  65  92 120 150 185 224 265
#     4   9  17  30  48  68  90 118 152 187 222 263
#     4   9  17  29  45  65  89 117 148 182 221 264
#     4   9  17  29  46  68  92 118 148 183 224 267
#     4   9  17  30  48  67  86 112 148 185 218 258
#     4   9  18  32  48  66  90 120 150 181 222 269
#
# _framework density 17.767934
#
# number of rings (size 3 to 8) (size 9 to 14) (size 15 to 20)
#    0.000    3.000    0.000    1.000    0.000    5.667 
#    0.000    0.833    0.000    5.500    0.000    0.000 
#    0.000    0.000    0.000    0.000    0.000    0.000 
#
# Total GULP energy -595229.732804 kJ/mol
# GULP energy per Si atom -12400.619433 kJ/mol
# Density = 1.772749 g / cm^3
# Si number density = 17.767934 Si / 1000 Ang^3
#
#
#
# Elastic Constant Matrix: (Units=GPa)
#
#
# Indices 1 2 3 4 5 6 
#
# 1 63.7273 31.7630 71.4123 0.0000 0.0000 0.0000
# 2 31.7630 68.0826 77.3231 0.0000 0.0000 0.0000
# 3 71.4123 77.3231 204.9051 0.0000 0.0000 0.0000
# 4 0.0000 0.0000 0.0000 30.3539 0.0000 0.0000
# 5 0.0000 0.0000 0.0000 0.0000 35.3719 0.0000
# 6 0.0000 0.0000 0.0000 0.0000 0.0000 13.9625
#
#
#
# Elastic Compliance Matrix: (Units=1/GPa)
#
#
# Indices 1 2 3 4 5 6 
#
# 1 0.026148 -0.003236 -0.007892 0.000000 0.000000 0.000000
# 2 -0.003236 0.026105 -0.008723 0.000000 0.000000 0.000000
# 3 -0.007892 -0.008723 0.010922 0.000000 0.000000 0.000000
# 4 0.000000 0.000000 0.000000 0.032945 0.000000 0.000000
# 5 0.000000 0.000000 0.000000 0.000000 0.028271 0.000000
# 6 0.000000 0.000000 0.000000 0.000000 0.000000 0.071620
#
#
# Mechanical properties :
#
#
# Convention : Reuss Voigt Hill
#
# Bulk Modulus (GPa) = 42.60129 77.52351 60.06240
# Shear Modulus (GPa) = 20.53065 26.35212 23.44139
#
# Velocity S-wave (km/s) = 3.40294 3.85532 3.63617
# Velocity P-wave (km/s) = 6.28240 7.97144 7.17678
#
# Compressibility (1/GPa) = 0.02347347
#
# Stress axis : x y z
#
# Youngs Moduli (GPa) = 38.24325 38.30710 91.55426
#
# Poissons Ratio (x) = 0.12397 0.72254
# Poissons Ratio (y) = 0.12376 0.79864
# Poissons Ratio (z) = 0.30181 0.33416
#
# Static dielectric constant tensor:
#      x y z
#    x 3.132360 0.000000 0.000000 
#    y 0.000000 3.137940 0.000000 
#    z 0.000000 0.000000 3.497500 
# 
# 
# High freq. dielectric constant tensor:
#      x y z
#    x 1.666050 0.000000 0.000000 
#    y 0.000000 1.663640 0.000000 
#    z 0.000000 0.000000 1.701030 
# 
# From -- ./inp_files/37051.got.cif
#   From: 2010.03.12/outbox.cif.g09.slc.cpg/sg51_19_cif.got.tgz:37051.got - 2010.04.16 13:43:02.
