data_PCOD8214828
_publ_section_title
;
Structure prediction by ZEFSAII (Michael W. Deem and Ramdas Pophale) SiO2 
 PCOD8214828
Probable space group: P M M A
;
_chemical_formula_sum "Si O2"
_cell_formula_units_Z 64
_cell_length_a 28.658094
_cell_length_b 14.955287
_cell_length_c 10.227111
_cell_angle_alpha 90.000000
_cell_angle_beta 90.000000
_cell_angle_gamma 90.000000
_cell_volume 4383.237715
_symmetry_space_group_name_H-M "P M M A"
_symmetry_group_IT_number 51
_symmetry_cell_setting 'orthorhombic'
loop_
_space_group_symop_operation_xyz
x,y,z
1/2-x,-y,z
1/2+x,-y,-z
-x,y,-z
-x,-y,-z
1/2+x,y,-z
1/2-x,y,z
x,-y,z
loop_
_atom_site_type_symbol
_atom_site_label
_atom_site_fract_x
_atom_site_fract_y
_atom_site_fract_z
Si Si1 0.876723 0.101246 0.784117
Si Si2 0.805337 0.599726 0.991189
Si Si3 0.477031 0.106520 0.131049
Si Si4 0.804472 0.746986 0.788186
Si Si5 0.805411 0.400435 0.283492
Si Si6 0.470189 0.106353 0.618615
Si Si7 0.195838 0.743329 0.511800
Si Si8 0.127530 0.899304 0.519535
O O1 0.923074 0.136804 0.857733
O O2 0.832833 0.163022 0.820714
O O3 0.888324 0.104198 0.630859
O O4 0.864089 0.000000 0.827182
O O5 0.750000 0.597080 0.984087
O O6 0.824739 0.500000 0.960323
O O7 0.821134 0.629555 0.137343
O O8 0.823963 0.669164 0.882943
O O9 0.508411 0.145706 0.248285
O O10 0.478678 0.000000 0.133896
O O11 0.500000 0.145609 0.000000
O O12 0.750000 0.767823 0.813009
O O13 0.812992 0.715668 0.638835
O O14 0.750000 0.401931 0.291346
O O15 0.824710 0.500000 0.313039
O O16 0.825131 0.333443 0.393830
O O17 0.500000 0.147632 0.500000
O O18 0.416103 0.134518 0.605862
O O19 0.473851 0.000000 0.614982
O O20 0.250000 0.759164 0.539620
O O21 0.171281 0.836255 0.547555
O O22 0.142472 0.000000 0.557963
#
# Coordination Sequence:
#
# PCOD8214828 Si02
#       8
#     8   8   8   8   8   8   8   8
#     4   9  16  27  41  57  82 114 141 167 201 237
#     4   8  14  26  43  59  76 102 134 167 206 247
#     4   9  16  26  40  58  78  99 128 173 219 245
#     4   9  17  27  40  60  84 110 141 171 194 228
#     4   8  14  26  43  59  77 104 133 164 208 250
#     4   9  14  24  42  58  72  98 135 170 206 242
#     4   9  17  27  39  59  86 111 137 170 201 230
#     4   9  16  26  41  59  80 111 146 170 193 236
#
# _framework density 14.601079
#
# number of rings (size 3 to 8) (size 9 to 14) (size 15 to 20)
#    0.000    3.250    1.250    0.750    0.000    1.000 
#    2.250    5.000    0.000    0.000    0.000    3.500 
#    0.000    2.000    0.000    0.125    0.000    0.000 
#
# Total GULP energy -793206.878414 kJ/mol
# GULP energy per Si atom -12393.857475 kJ/mol
# Density = 1.456785 g / cm^3
# Si number density = 14.601079 Si / 1000 Ang^3
#
#
#
# Elastic Constant Matrix: (Units=GPa)
#
#
# Indices 1 2 3 4 5 6 
#
# 1 59.9602 39.7859 43.4563 0.0000 0.0000 0.0000
# 2 39.7859 80.2271 51.5006 0.0000 0.0000 0.0000
# 3 43.4563 51.5006 94.7470 0.0000 0.0000 0.0000
# 4 0.0000 0.0000 0.0000 17.9295 0.0000 0.0000
# 5 0.0000 0.0000 0.0000 0.0000 16.8102 0.0000
# 6 0.0000 0.0000 0.0000 0.0000 0.0000 2.1115
#
#
#
# Elastic Compliance Matrix: (Units=1/GPa)
#
#
# Indices 1 2 3 4 5 6 
#
# 1 0.028550 -0.008836 -0.008292 0.000000 0.000000 0.000000
# 2 -0.008836 0.021879 -0.007840 0.000000 0.000000 0.000000
# 3 -0.008292 -0.007840 0.018619 0.000000 0.000000 0.000000
# 4 0.000000 0.000000 0.000000 0.055774 0.000000 0.000000
# 5 0.000000 0.000000 0.000000 0.000000 0.059488 0.000000
# 6 0.000000 0.000000 0.000000 0.000000 0.000000 0.473600
#
#
# Mechanical properties :
#
#
# Convention : Reuss Voigt Hill
#
# Bulk Modulus (GPa) = 52.32028 56.04666 54.18347
# Shear Modulus (GPa) = 7.00068 14.04966 10.52517
#
# Velocity S-wave (km/s) = 2.19204 3.10536 2.68778
# Velocity P-wave (km/s) = 6.50520 7.16423 6.84266
#
# Compressibility (1/GPa) = 0.01911305
#
# Stress axis : x y z
#
# Youngs Moduli (GPa) = 35.02604 45.70560 53.70785
#
# Poissons Ratio (x) = 0.40383 0.44535
# Poissons Ratio (y) = 0.30947 0.42108
# Poissons Ratio (z) = 0.29044 0.35834
#
# Static dielectric constant tensor:
#      x y z
#    x 2.631750 0.000000 0.000000 
#    y 0.000000 2.752190 0.000000 
#    z 0.000000 0.000000 3.040050 
# 
# 
# High freq. dielectric constant tensor:
#      x y z
#    x 1.532000 0.000000 0.000000 
#    y 0.000000 1.526090 0.000000 
#    z 0.000000 0.000000 1.560020 
# 
# From -- ./inp_files/13239.got.cif
#   From: 2010.03.12/outbox.cif.g09.slc.cpg/sg51_7_cif.got.tgz:13239.got - 2010.04.16 13:43:02.
