data_PCOD8214294
_publ_section_title
;
Structure prediction by ZEFSAII (Michael W. Deem and Ramdas Pophale) SiO2 
 PCOD8214294
Probable space group: P M M A
;
_chemical_formula_sum "Si O2"
_cell_formula_units_Z 40
_cell_length_a 18.136633
_cell_length_b 9.015134
_cell_length_c 12.641401
_cell_angle_alpha 90.000000
_cell_angle_beta 90.000000
_cell_angle_gamma 90.000000
_cell_volume 2066.921864
_symmetry_space_group_name_H-M "P M M A"
_symmetry_group_IT_number 51
_symmetry_cell_setting 'orthorhombic'
loop_
_space_group_symop_operation_xyz
x,y,z
1/2-x,-y,z
1/2+x,-y,-z
-x,y,-z
-x,-y,-z
1/2+x,y,-z
1/2-x,y,z
x,-y,z
loop_
_atom_site_type_symbol
_atom_site_label
_atom_site_fract_x
_atom_site_fract_y
_atom_site_fract_z
Si Si1 0.082629 0.828945 0.705529
Si Si2 0.570685 0.324242 0.680184
Si Si3 0.665030 0.170236 0.506277
Si Si4 0.664150 0.328097 0.109177
Si Si5 0.831549 0.324116 0.871667
O O1 0.143588 0.803809 0.615461
O O2 0.114061 0.769573 0.815257
O O3 0.009772 0.743290 0.671257
O O4 0.062311 0.000000 0.719665
O O5 0.564032 0.500000 0.682317
O O6 0.617362 0.277777 0.578674
O O7 0.610487 0.262502 0.786252
O O8 0.750000 0.213825 0.519717
O O9 0.650305 0.000000 0.539126
O O10 0.750000 0.298351 0.131668
O O11 0.644907 0.500000 0.127514
O O12 0.643879 0.278352 0.989760
O O13 0.750000 0.258969 0.846594
O O14 0.827041 0.500000 0.865215
#
# Coordination Sequence:
#
# PCOD8214294 Si02
#       5
#     8   8   8   8   8
#     4  11  23  38  55  78 113 151 183 219 269 326
#     4  11  22  36  57  84 112 142 181 228 273 319
#     4  10  22  40  59  78 105 143 182 221 272 331
#     4   9  18  35  59  83 107 139 182 228 270 318
#     4   8  16  33  56  81 109 141 177 221 275 327
#
# _framework density 19.352450000000001
#
# number of rings (size 3 to 8) (size 9 to 14) (size 15 to 20)
#    0.000    2.200    0.000    4.200    0.000    7.200 
#    0.000    6.000    0.000    2.400    0.000    0.000 
#    0.000    0.000    0.000    0.000    0.000    0.000 
#
# Total GULP energy -496080.641240 kJ/mol
# GULP energy per Si atom -12402.016031 kJ/mol
# Density = 1.930840 g / cm^3
# Si number density = 19.352450 Si / 1000 Ang^3
#
#
#
# Elastic Constant Matrix: (Units=GPa)
#
#
# Indices 1 2 3 4 5 6 
#
# 1 81.5202 34.6103 25.6293 0.0000 0.0000 0.0000
# 2 34.6103 68.3311 31.4674 0.0000 0.0000 0.0000
# 3 25.6293 31.4674 82.1903 0.0000 0.0000 0.0000
# 4 0.0000 0.0000 0.0000 6.5177 0.0000 0.0000
# 5 0.0000 0.0000 0.0000 0.0000 27.9415 0.0000
# 6 0.0000 0.0000 0.0000 0.0000 0.0000 28.2385
#
#
#
# Elastic Compliance Matrix: (Units=1/GPa)
#
#
# Indices 1 2 3 4 5 6 
#
# 1 0.015974 -0.007038 -0.002287 0.000000 0.000000 0.000000
# 2 -0.007038 0.020868 -0.005795 0.000000 0.000000 0.000000
# 3 -0.002287 -0.005795 0.015099 0.000000 0.000000 0.000000
# 4 0.000000 0.000000 0.000000 0.153428 0.000000 0.000000
# 5 0.000000 0.000000 0.000000 0.000000 0.035789 0.000000
# 6 0.000000 0.000000 0.000000 0.000000 0.000000 0.035413
#
#
# Mechanical properties :
#
#
# Convention : Reuss Voigt Hill
#
# Bulk Modulus (GPa) = 46.07948 46.16172 46.12060
# Shear Modulus (GPa) = 15.92139 21.89518 18.90828
#
# Velocity S-wave (km/s) = 2.87140 3.36726 3.12917
# Velocity P-wave (km/s) = 5.90386 6.24683 6.07777
#
# Compressibility (1/GPa) = 0.02170163
#
# Stress axis : x y z
#
# Youngs Moduli (GPa) = 62.60256 47.92021 66.23146
#
# Poissons Ratio (x) = 0.33726 0.15144
# Poissons Ratio (y) = 0.44059 0.38381
# Poissons Ratio (z) = 0.14314 0.27769
#
# Static dielectric constant tensor:
#      x y z
#    x 3.741450 0.000000 0.000000 
#    y 0.000000 3.340150 0.000000 
#    z 0.000000 0.000000 3.693250 
# 
# 
# High freq. dielectric constant tensor:
#      x y z
#    x 1.758990 0.000000 0.000000 
#    y 0.000000 1.733850 0.000000 
#    z 0.000000 0.000000 1.765690 
# 
# From -- ./inp_files/17062.got.cif
#   From: 2010.03.12/outbox.cif.g09.slc.cpg/sg51_9_cif.got.tgz:17062.got - 2010.04.16 13:43:02.
