data_PCOD8214538
_publ_section_title
;
Structure prediction by ZEFSAII (Michael W. Deem and Ramdas Pophale) SiO2 
 PCOD8214538
Probable space group: P M M A
;
_chemical_formula_sum "Si O2"
_cell_formula_units_Z 48
_cell_length_a 18.442161
_cell_length_b 8.869837
_cell_length_c 16.406344
_cell_angle_alpha 90.000000
_cell_angle_beta 90.000000
_cell_angle_gamma 90.000000
_cell_volume 2683.732722
_symmetry_space_group_name_H-M "P M M A"
_symmetry_group_IT_number 51
_symmetry_cell_setting 'orthorhombic'
loop_
_space_group_symop_operation_xyz
x,y,z
1/2-x,-y,z
1/2+x,-y,-z
-x,y,-z
-x,-y,-z
1/2+x,y,-z
1/2-x,y,z
x,-y,z
loop_
_atom_site_type_symbol
_atom_site_label
_atom_site_fract_x
_atom_site_fract_y
_atom_site_fract_z
Si Si1 0.956917 0.822974 0.758762
Si Si2 0.413723 0.677575 0.671592
Si Si3 0.165086 0.673768 0.333793
Si Si4 0.025761 0.320745 0.911860
Si Si5 0.829646 0.322954 0.168339
Si Si6 0.830119 0.321218 0.484150
O O1 0.876498 0.777930 0.730535
O O2 0.971505 0.748281 0.846026
O O3 0.012282 0.763730 0.690406
O O4 0.963912 0.000000 0.768171
O O5 0.430518 0.500000 0.670379
O O6 0.353626 0.716548 0.739763
O O7 0.385155 0.738625 0.584672
O O8 0.250000 0.698640 0.319895
O O9 0.143867 0.500000 0.319235
O O10 0.142925 0.723967 0.425642
O O11 0.021334 0.500000 0.903906
O O12 0.108464 0.264093 0.894481
O O13 0.000000 0.263873 0.000000
O O14 0.750000 0.249460 0.150986
O O15 0.822502 0.500000 0.157837
O O16 0.750000 0.253123 0.468262
O O17 0.824647 0.500000 0.477768
#
# Coordination Sequence:
#
# PCOD8214538 Si02
#       6
#     8   8   8   8   8   8
#     4  11  22  34  49  70  99 132 164 197 241 301
#     4   9  16  28  48  72  98 127 162 203 245 291
#     4   9  18  34  54  73  95 126 168 214 251 284
#     4   9  18  34  55  76  98 124 159 204 251 299
#     4   8  13  23  44  73  99 122 151 191 238 287
#     4   8  14  26  48  76  99 124 165 214 254 283
#
# _framework density 17.885536999999999
#
# number of rings (size 3 to 8) (size 9 to 14) (size 15 to 20)
#    0.000    3.000    0.000    4.000    0.000    3.333 
#    0.000    5.000    0.000   16.500    0.000    0.000 
#    0.000    0.000    0.000    0.000    0.000    0.000 
#
# Total GULP energy -594968.627966 kJ/mol
# GULP energy per Si atom -12395.179749 kJ/mol
# Density = 1.784483 g / cm^3
# Si number density = 17.885537 Si / 1000 Ang^3
#
#
#
# Elastic Constant Matrix: (Units=GPa)
#
#
# Indices 1 2 3 4 5 6 
#
# 1 98.7838 22.7924 71.9475 0.0000 0.0000 0.0000
# 2 22.7924 33.7184 28.4111 0.0000 0.0000 0.0000
# 3 71.9475 28.4111 124.9888 0.0000 0.0000 0.0000
# 4 0.0000 0.0000 0.0000 5.6794 0.0000 0.0000
# 5 0.0000 0.0000 0.0000 0.0000 23.7420 0.0000
# 6 0.0000 0.0000 0.0000 0.0000 0.0000 5.8699
#
#
#
# Elastic Compliance Matrix: (Units=1/GPa)
#
#
# Indices 1 2 3 4 5 6 
#
# 1 0.017906 -0.004229 -0.009346 0.000000 0.000000 0.000000
# 2 -0.004229 0.037682 -0.006131 0.000000 0.000000 0.000000
# 3 -0.009346 -0.006131 0.014774 0.000000 0.000000 0.000000
# 4 0.000000 0.000000 0.000000 0.176075 0.000000 0.000000
# 5 0.000000 0.000000 0.000000 0.000000 0.042119 0.000000
# 6 0.000000 0.000000 0.000000 0.000000 0.000000 0.170360
#
#
# Mechanical properties :
#
#
# Convention : Reuss Voigt Hill
#
# Bulk Modulus (GPa) = 32.31001 55.97701 44.14351
# Shear Modulus (GPa) = 9.83004 16.01427 12.92215
#
# Velocity S-wave (km/s) = 2.34692 2.99553 2.69084
# Velocity P-wave (km/s) = 5.04461 6.58252 5.86420
#
# Compressibility (1/GPa) = 0.03095016
#
# Stress axis : x y z
#
# Youngs Moduli (GPa) = 55.84801 26.53779 67.68567
#
# Poissons Ratio (x) = 0.11222 0.63258
# Poissons Ratio (y) = 0.23617 0.41500
# Poissons Ratio (z) = 0.52195 0.16271
#
# Static dielectric constant tensor:
#      x y z
#    x 3.500880 0.000000 0.000000 
#    y 0.000000 2.856290 0.000000 
#    z 0.000000 0.000000 3.371360 
# 
# 
# High freq. dielectric constant tensor:
#      x y z
#    x 1.695810 0.000000 0.000000 
#    y 0.000000 1.645010 0.000000 
#    z 0.000000 0.000000 1.685490 
# 
# From -- ./inp_files/30061.got.cif
#   From: 2010.03.12/outbox.cif.g09.slc.cpg/sg51_16_cif.got.tgz:30061.got - 2010.04.16 13:43:02.
