data_PCOD8214583
_publ_section_title
;
Structure prediction by ZEFSAII (Michael W. Deem and Ramdas Pophale) SiO2 
 PCOD8214583
Probable space group: P M M A
;
_chemical_formula_sum "Si O2"
_cell_formula_units_Z 48
_cell_length_a 19.197316
_cell_length_b 8.456571
_cell_length_c 14.915422
_cell_angle_alpha 90.000000
_cell_angle_beta 90.000000
_cell_angle_gamma 90.000000
_cell_volume 2421.421301
_symmetry_space_group_name_H-M "P M M A"
_symmetry_group_IT_number 51
_symmetry_cell_setting 'orthorhombic'
loop_
_space_group_symop_operation_xyz
x,y,z
1/2-x,-y,z
1/2+x,-y,-z
-x,y,-z
-x,-y,-z
1/2+x,y,-z
1/2-x,y,z
x,-y,z
loop_
_atom_site_type_symbol
_atom_site_label
_atom_site_fract_x
_atom_site_fract_y
_atom_site_fract_z
Si Si1 0.331022 0.817698 0.424761
Si Si2 0.673162 0.187781 0.373593
Si Si3 0.593344 0.681316 0.738867
Si Si4 0.557014 0.815091 0.237520
Si Si5 0.571047 0.316785 0.047553
Si Si6 0.330008 0.817254 0.095575
O O1 0.250000 0.794309 0.401772
O O2 0.347132 0.759748 0.525729
O O3 0.377268 0.710667 0.360016
O O4 0.352555 0.000000 0.411896
O O5 0.750000 0.255003 0.348736
O O6 0.616769 0.252357 0.303382
O O7 0.676374 0.000000 0.370375
O O8 0.604401 0.500000 0.766515
O O9 0.512058 0.718973 0.740453
O O10 0.633816 0.790376 0.809099
O O11 0.581959 0.786361 0.136274
O O12 0.543705 0.000000 0.253426
O O13 0.566996 0.500000 0.074110
O O14 0.500000 0.261060 0.000000
O O15 0.635195 0.287874 0.981345
O O16 0.250000 0.765883 0.103204
O O17 0.338041 0.000000 0.069467
#
# Coordination Sequence:
#
# PCOD8214583 Si02
#       6
#     8   8   8   8   8   8
#     4   9  18  36  61  85 113 151 194 240 290 345
#     4   8  17  36  61  88 115 146 191 245 293 339
#     4  12  24  37  55  84 122 158 193 237 292 352
#     4  11  22  37  62  89 116 153 197 244 290 344
#     4  11  23  40  61  86 119 157 192 234 293 356
#     4  11  24  41  63  90 116 149 198 247 289 343
#
# _framework density 19.823067000000002
#
# number of rings (size 3 to 8) (size 9 to 14) (size 15 to 20)
#    0.000    1.667    1.667    4.500    0.000    5.667 
#    0.000    6.667    0.000    3.500    0.000    0.000 
#    0.000    0.000    0.000    0.000    0.000    0.000 
#
# Total GULP energy -595424.426591 kJ/mol
# GULP energy per Si atom -12404.675554 kJ/mol
# Density = 1.977795 g / cm^3
# Si number density = 19.823067 Si / 1000 Ang^3
#
#
#
# Elastic Constant Matrix: (Units=GPa)
#
#
# Indices 1 2 3 4 5 6 
#
# 1 130.9136 19.2549 69.1160 0.0000 0.0000 0.0000
# 2 19.2549 47.7550 14.0661 0.0000 0.0000 0.0000
# 3 69.1160 14.0661 128.8720 0.0000 0.0000 0.0000
# 4 0.0000 0.0000 0.0000 15.2335 0.0000 0.0000
# 5 0.0000 0.0000 0.0000 0.0000 37.9017 0.0000
# 6 0.0000 0.0000 0.0000 0.0000 0.0000 16.2833
#
#
#
# Elastic Compliance Matrix: (Units=1/GPa)
#
#
# Indices 1 2 3 4 5 6 
#
# 1 0.011004 -0.002788 -0.005597 0.000000 0.000000 0.000000
# 2 -0.002788 0.022342 -0.000943 0.000000 0.000000 0.000000
# 3 -0.005597 -0.000943 0.010864 0.000000 0.000000 0.000000
# 4 0.000000 0.000000 0.000000 0.065645 0.000000 0.000000
# 5 0.000000 0.000000 0.000000 0.000000 0.026384 0.000000
# 6 0.000000 0.000000 0.000000 0.000000 0.000000 0.061413
#
#
# Mechanical properties :
#
#
# Convention : Reuss Voigt Hill
#
# Bulk Modulus (GPa) = 39.13393 56.93496 48.03445
# Shear Modulus (GPa) = 22.23934 27.55728 24.89831
#
# Velocity S-wave (km/s) = 3.35310 3.73253 3.54789
# Velocity P-wave (km/s) = 5.89708 6.88184 6.40840
#
# Compressibility (1/GPa) = 0.02555327
#
# Stress axis : x y z
#
# Youngs Moduli (GPa) = 90.87826 44.75832 92.04343
#
# Poissons Ratio (x) = 0.12479 0.51518
# Poissons Ratio (y) = 0.25338 0.08683
# Poissons Ratio (z) = 0.50866 0.04222
#
# Static dielectric constant tensor:
#      x y z
#    x 3.775950 0.000000 0.000000 
#    y 0.000000 3.353700 0.000000 
#    z 0.000000 0.000000 3.688660 
# 
# 
# High freq. dielectric constant tensor:
#      x y z
#    x 1.776530 0.000000 0.000000 
#    y 0.000000 1.757930 0.000000 
#    z 0.000000 0.000000 1.781030 
# 
# From -- ./inp_files/24799.got.cif
#   From: 2010.03.12/outbox.cif.g09.slc.cpg/sg51_13_cif.got.tgz:24799.got - 2010.04.16 13:43:02.
