data_PCOD8214119
_publ_section_title
;
Structure prediction by ZEFSAII (Michael W. Deem and Ramdas Pophale) SiO2 
 PCOD8214119
Probable space group: P M M A
;
_chemical_formula_sum "Si O2"
_cell_formula_units_Z 48
_cell_length_a 8.690434
_cell_length_b 30.527147
_cell_length_c 9.093358
_cell_angle_alpha 90.000000
_cell_angle_beta 90.000000
_cell_angle_gamma 90.000000
_cell_volume 2412.414738
_symmetry_space_group_name_H-M "P M M A"
_symmetry_group_IT_number 51
_symmetry_cell_setting 'orthorhombic'
loop_
_space_group_symop_operation_xyz
x,y,z
1/2-x,-y,z
1/2+x,-y,-z
-x,y,-z
-x,-y,-z
1/2+x,y,-z
1/2-x,y,z
x,-y,z
loop_
_atom_site_type_symbol
_atom_site_label
_atom_site_fract_x
_atom_site_fract_y
_atom_site_fract_z
Si Si1 0.569770 0.449295 0.154688
Si Si2 0.427713 0.212501 0.657344
Si Si3 0.069841 0.047406 0.839171
Si Si4 0.068430 0.376142 0.341905
Si Si5 0.431157 0.134494 0.162168
Si Si6 0.072020 0.700533 0.843603
O O1 0.750000 0.439892 0.151734
O O2 0.531460 0.500000 0.182054
O O3 0.492723 0.423094 0.287898
O O4 0.500000 0.433278 0.000000
O O5 0.500000 0.221042 0.500000
O O6 0.250000 0.199253 0.643457
O O7 0.518256 0.173840 0.735555
O O8 0.450301 0.256779 0.746286
O O9 0.250000 0.056991 0.850175
O O10 0.988649 0.088910 0.760925
O O11 0.039405 0.000000 0.759940
O O12 0.000000 0.044622 0.000000
O O13 0.250000 0.377636 0.355100
O O14 0.000000 0.364502 0.500000
O O15 0.018826 0.339609 0.226340
O O16 0.250000 0.133962 0.148539
O O17 0.500000 0.140496 0.000000
O O18 0.250000 0.687399 0.859461
O O19 0.000000 0.711562 0.000000
#
# Coordination Sequence:
#
# PCOD8214119 Si02
#       6
#     8   8   8   8   8   8
#     4  10  21  39  63  90 121 158 201 247 294 345
#     4  11  24  41  61  85 115 150 189 234 285 342
#     4   9  16  27  46  74 108 144 184 232 283 334
#     4  12  25  41  62  88 122 159 197 242 292 348
#     4  11  21  34  55  82 114 150 190 236 284 338
#     4  11  24  42  65  91 119 152 192 237 285 340
#
# _framework density 19.897076999999999
#
# number of rings (size 3 to 8) (size 9 to 14) (size 15 to 20)
#    0.000    1.333    0.000    7.500    0.000    7.667 
#    0.000    0.000    0.000    0.500    0.000    0.000 
#    0.000    0.000    0.000    0.000    0.000    0.000 
#
# Total GULP energy -595283.109301 kJ/mol
# GULP energy per Si atom -12401.731444 kJ/mol
# Density = 1.985179 g / cm^3
# Si number density = 19.897077 Si / 1000 Ang^3
#
#
#
# Elastic Constant Matrix: (Units=GPa)
#
#
# Indices 1 2 3 4 5 6 
#
# 1 168.6118 61.6206 50.7283 0.0000 0.0000 0.0000
# 2 61.6206 103.4466 34.5179 0.0000 0.0000 0.0000
# 3 50.7283 34.5179 94.9550 0.0000 0.0000 0.0000
# 4 0.0000 0.0000 0.0000 -17.3147 0.0000 0.0000
# 5 0.0000 0.0000 0.0000 0.0000 31.9550 0.0000
# 6 0.0000 0.0000 0.0000 0.0000 0.0000 -25.5617
#
#
#
# Elastic Compliance Matrix: (Units=1/GPa)
#
#
# Indices 1 2 3 4 5 6 
#
# 1 0.008265 -0.003926 -0.002988 0.000000 0.000000 0.000000
# 2 -0.003926 0.012866 -0.002580 0.000000 0.000000 0.000000
# 3 -0.002988 -0.002580 0.013065 0.000000 0.000000 0.000000
# 4 0.000000 0.000000 0.000000 -0.057754 0.000000 0.000000
# 5 0.000000 0.000000 0.000000 0.000000 0.031294 0.000000
# 6 0.000000 0.000000 0.000000 0.000000 0.000000 -0.039121
#
#
# Mechanical properties :
#
#
# Convention : Reuss Voigt Hill
#
# Bulk Modulus (GPa) = 65.75182 73.41634 69.58408
# Shear Modulus (GPa) = -682.28431 12.49217 -334.89607
#
# Velocity S-wave (km/s) = -18.53783 2.50839 -12.98767
# Velocity P-wave (km/s) = 20.61756 6.73554 13.77890
#
# Compressibility (1/GPa) = 0.01520870
#
# Stress axis : x y z
#
# Youngs Moduli (GPa) = 120.99908 77.72304 76.53798
#
# Poissons Ratio (x) = 0.30513 0.22870
# Poissons Ratio (y) = 0.47503 0.19745
# Poissons Ratio (z) = 0.36155 0.20051
#
# Static dielectric constant tensor:
#      x y z
#    x 3.838020 0.000000 0.000000 
#    y 0.000000 4.158500 0.000000 
#    z 0.000000 0.000000 3.444160 
# 
# 
# High freq. dielectric constant tensor:
#      x y z
#    x 1.797400 0.000000 0.000000 
#    y 0.000000 1.799550 0.000000 
#    z 0.000000 0.000000 1.753240 
# 
# From -- ./inp_files/6059.got.cif
#   From: 2010.03.12/outbox.cif.g09.slc.cpg/sg51_4_cif.got.tgz:6059.got - 2010.04.16 13:43:02.
