data_PCOD8214014
_publ_section_title
;
Structure prediction by ZEFSAII (Michael W. Deem and Ramdas Pophale) SiO2 
 PCOD8214014
Probable space group: P M M A
;
_chemical_formula_sum "Si O2"
_cell_formula_units_Z 64
_cell_length_a 8.885853
_cell_length_b 14.413075
_cell_length_c 23.933311
_cell_angle_alpha 90.000000
_cell_angle_beta 90.000000
_cell_angle_gamma 90.000000
_cell_volume 3065.198153
_symmetry_space_group_name_H-M "P M M A"
_symmetry_group_IT_number 51
_symmetry_cell_setting 'orthorhombic'
loop_
_space_group_symop_operation_xyz
x,y,z
1/2-x,-y,z
1/2+x,-y,-z
-x,y,-z
-x,-y,-z
1/2+x,y,-z
1/2-x,y,z
x,-y,z
loop_
_atom_site_type_symbol
_atom_site_label
_atom_site_fract_x
_atom_site_fract_y
_atom_site_fract_z
Si Si1 0.571896 0.272125 0.557385
Si Si2 0.572693 0.771246 0.057086
Si Si3 0.419557 0.890060 0.272444
Si Si4 0.922062 0.390068 0.348073
Si Si5 0.916486 0.390076 0.761910
Si Si6 0.925661 0.107483 0.161489
Si Si7 0.927068 0.893108 0.385270
Si Si8 0.927773 0.394070 0.885728
O O1 0.500000 0.308990 0.500000
O O2 0.750000 0.269513 0.551856
O O3 0.525513 0.342798 0.605795
O O4 0.510481 0.168402 0.568539
O O5 0.750000 0.770860 0.050072
O O6 0.519408 0.839415 0.106386
O O7 0.515517 0.667594 0.069517
O O8 0.500000 0.808261 0.000000
O O9 0.250000 0.853522 0.280709
O O10 0.486845 0.849584 0.214869
O O11 0.519879 0.857000 0.324560
O O12 0.425367 0.000000 0.268795
O O13 0.750000 0.359749 0.357211
O O14 0.942585 0.500000 0.353277
O O15 0.972902 0.354326 0.286713
O O16 0.750000 0.347973 0.751350
O O17 0.904436 0.500000 0.760730
O O18 0.976911 0.361478 0.823240
O O19 0.750000 0.121731 0.172732
O O20 0.965820 0.000000 0.152655
O O21 0.750000 0.878433 0.390153
O O22 0.973075 0.000000 0.395153
O O23 0.750000 0.381560 0.893135
O O24 0.975636 0.500000 0.896610
#
# Coordination Sequence:
#
# PCOD8214014 Si02
#       8
#     8   8   8   8   8   8   8   8
#     4  12  26  43  62  84 114 152 197 245 287 337
#     4  11  24  39  56  79 107 143 188 235 280 331
#     4   9  17  31  55  88 120 149 185 228 277 335
#     4  10  21  38  61  89 121 155 191 234 284 339
#     4   8  15  31  56  85 115 147 184 226 278 338
#     4   9  19  37  58  80 110 148 187 229 280 335
#     4  10  21  39  63  89 119 154 190 233 285 339
#     4   9  19  37  60  84 112 146 182 224 275 330
#
# _framework density 20.879563999999998
#
# number of rings (size 3 to 8) (size 9 to 14) (size 15 to 20)
#    0.000    2.250    0.000    3.375    0.000    6.750 
#    0.000    3.750    0.000    0.000    0.000    0.000 
#    0.000    0.000    0.000    0.000    0.000    0.000 
#
# Total GULP energy -793726.442592 kJ/mol
# GULP energy per Si atom -12401.975665 kJ/mol
# Density = 2.083204 g / cm^3
# Si number density = 20.879564 Si / 1000 Ang^3
#
#
#
# Elastic Constant Matrix: (Units=GPa)
#
#
# Indices 1 2 3 4 5 6 
#
# 1 100.4304 9.5516 31.9032 0.0000 0.0000 0.0000
# 2 9.5516 28.3505 0.2748 0.0000 0.0000 0.0000
# 3 31.9032 0.2748 89.8746 0.0000 0.0000 0.0000
# 4 0.0000 0.0000 0.0000 31.6892 0.0000 0.0000
# 5 0.0000 0.0000 0.0000 0.0000 41.1030 0.0000
# 6 0.0000 0.0000 0.0000 0.0000 0.0000 25.6278
#
#
#
# Elastic Compliance Matrix: (Units=1/GPa)
#
#
# Indices 1 2 3 4 5 6 
#
# 1 0.011634 -0.003880 -0.004118 0.000000 0.000000 0.000000
# 2 -0.003880 0.036568 0.001265 0.000000 0.000000 0.000000
# 3 -0.004118 0.001265 0.012585 0.000000 0.000000 0.000000
# 4 0.000000 0.000000 0.000000 0.031556 0.000000 0.000000
# 5 0.000000 0.000000 0.000000 0.000000 0.024329 0.000000
# 6 0.000000 0.000000 0.000000 0.000000 0.000000 0.039020
#
#
# Mechanical properties :
#
#
# Convention : Reuss Voigt Hill
#
# Bulk Modulus (GPa) = 21.13198 33.56830 27.35014
# Shear Modulus (GPa) = 27.03713 31.47906 29.25810
#
# Velocity S-wave (km/s) = 3.60239 3.88706 3.74743
# Velocity P-wave (km/s) = 5.23887 6.02143 5.64373
#
# Compressibility (1/GPa) = 0.04732165
#
# Stress axis : x y z
#
# Youngs Moduli (GPa) = 85.95284 27.34660 79.46262
#
# Poissons Ratio (x) = 0.10610 0.32723
# Poissons Ratio (y) = 0.33348 -0.10055
# Poissons Ratio (z) = 0.35395 -0.03461
#
# Static dielectric constant tensor:
#      x y z
#    x 3.755750 0.000000 0.000000 
#    y 0.000000 3.671910 0.000000 
#    z 0.000000 0.000000 3.922110 
# 
# 
# High freq. dielectric constant tensor:
#      x y z
#    x 1.816270 0.000000 0.000000 
#    y 0.000000 1.813400 0.000000 
#    z 0.000000 0.000000 1.820600 
# 
# From -- ./inp_files/34880.got.cif
#   From: 2010.03.12/outbox.cif.g09.slc.cpg/sg51_18_cif.got.tgz:34880.got - 2010.04.16 13:43:02.
