data_PCOD8214202
_publ_section_title
;
Structure prediction by ZEFSAII (Michael W. Deem and Ramdas Pophale) SiO2 
 PCOD8214202
Probable space group: P M M A
;
_chemical_formula_sum "Si O2"
_cell_formula_units_Z 48
_cell_length_a 30.626773
_cell_length_b 7.608066
_cell_length_c 10.082520
_cell_angle_alpha 90.000000
_cell_angle_beta 90.000000
_cell_angle_gamma 90.000000
_cell_volume 2349.333131
_symmetry_space_group_name_H-M "P M M A"
_symmetry_group_IT_number 51
_symmetry_cell_setting 'orthorhombic'
loop_
_space_group_symop_operation_xyz
x,y,z
1/2-x,-y,z
1/2+x,-y,-z
-x,y,-z
-x,-y,-z
1/2+x,y,-z
1/2-x,y,z
x,-y,z
loop_
_atom_site_type_symbol
_atom_site_label
_atom_site_fract_x
_atom_site_fract_y
_atom_site_fract_z
Si Si1 0.298584 0.792639 0.950518
Si Si2 0.368904 0.209313 0.162980
Si Si3 0.799275 0.701277 0.340092
Si Si4 0.128890 0.802647 0.457789
Si Si5 0.566142 0.500000 0.921543
Si Si6 0.041982 0.794664 0.590934
Si Si7 0.471516 0.500000 0.799999
O O1 0.250000 0.716045 0.974929
O O2 0.316923 0.722793 0.809885
O O3 0.297367 0.000000 0.943714
O O4 0.328765 0.728870 0.070801
O O5 0.357655 0.271461 0.313408
O O6 0.410756 0.318432 0.118591
O O7 0.377834 0.000000 0.148767
O O8 0.750000 0.779153 0.350345
O O9 0.799781 0.500000 0.382050
O O10 0.830538 0.799398 0.442203
O O11 0.085061 0.715285 0.517354
O O12 0.114531 0.000000 0.431766
O O13 0.520567 0.500000 0.848566
O O14 0.562179 0.500000 0.079407
O O15 0.036633 0.679687 0.721460
O O16 0.000000 0.765203 0.500000
O O17 0.047236 0.000000 0.630941
#
# Coordination Sequence:
#
# PCOD8214202 Si02
#       7
#     8   8   8   8   4   8   4
#     4   9  19  37  60  85 116 158 201 241 296 361
#     4  10  23  41  62  89 123 161 200 250 303 361
#     4  10  22  37  57  89 124 158 200 253 305 359
#     4  10  22  38  61  90 118 158 204 250 307 361
#     4  11  26  42  61  90 121 160 203 250 308 364
#     4  10  22  40  64  93 124 160 207 257 308 367
#     4  11  25  42  62  90 120 161 207 247 309 368
#
# _framework density 20.431328000000001
#
# number of rings (size 3 to 8) (size 9 to 14) (size 15 to 20)
#    0.000    2.000    0.000    1.750    5.833    4.333 
#    0.000    3.333    0.000    0.000    0.000    0.000 
#    0.000    0.000    0.000    0.000    0.000    0.000 
#
# Total GULP energy -595095.189188 kJ/mol
# GULP energy per Si atom -12397.816441 kJ/mol
# Density = 2.038483 g / cm^3
# Si number density = 20.431328 Si / 1000 Ang^3
#
#
#
# Elastic Constant Matrix: (Units=GPa)
#
#
# Indices 1 2 3 4 5 6 
#
# 1 109.8855 18.5120 85.1630 0.0000 0.0000 0.0000
# 2 18.5120 59.6018 44.8780 0.0000 0.0000 0.0000
# 3 85.1630 44.8780 184.1054 0.0000 0.0000 0.0000
# 4 0.0000 0.0000 0.0000 28.7605 0.0000 0.0000
# 5 0.0000 0.0000 0.0000 0.0000 31.3897 0.0000
# 6 0.0000 0.0000 0.0000 0.0000 0.0000 30.9257
#
#
#
# Elastic Compliance Matrix: (Units=1/GPa)
#
#
# Indices 1 2 3 4 5 6 
#
# 1 0.014207 0.000656 -0.006732 0.000000 0.000000 0.000000
# 2 0.000656 0.020580 -0.005320 0.000000 0.000000 0.000000
# 3 -0.006732 -0.005320 0.009843 0.000000 0.000000 0.000000
# 4 0.000000 0.000000 0.000000 0.034770 0.000000 0.000000
# 5 0.000000 0.000000 0.000000 0.000000 0.031858 0.000000
# 6 0.000000 0.000000 0.000000 0.000000 0.000000 0.032336
#
#
# Mechanical properties :
#
#
# Convention : Reuss Voigt Hill
#
# Bulk Modulus (GPa) = 45.79165 72.29988 59.04576
# Shear Modulus (GPa) = 28.79124 31.88449 30.33786
#
# Velocity S-wave (km/s) = 3.75797 3.95469 3.85758
# Velocity P-wave (km/s) = 6.42580 7.50442 6.98596
#
# Compressibility (1/GPa) = 0.02183804
#
# Stress axis : x y z
#
# Youngs Moduli (GPa) = 70.38723 48.59060 101.59983
#
# Poissons Ratio (x) = -0.03188 0.68395
# Poissons Ratio (y) = -0.04619 0.54053
# Poissons Ratio (z) = 0.47384 0.25851
#
# Static dielectric constant tensor:
#      x y z
#    x 3.871180 0.000000 0.000000 
#    y 0.000000 3.604120 0.000000 
#    z 0.000000 0.000000 3.875850 
# 
# 
# High freq. dielectric constant tensor:
#      x y z
#    x 1.800960 0.000000 0.000000 
#    y 0.000000 1.799540 0.000000 
#    z 0.000000 0.000000 1.805260 
# 
# From -- ./inp_files/12938.got.cif
#   From: 2010.03.12/outbox.cif.g09.slc.cpg/sg51_7_cif.got.tgz:12938.got - 2010.04.16 13:43:02.
