data_PCOD8214587
_publ_section_title
;
Structure prediction by ZEFSAII (Michael W. Deem and Ramdas Pophale) SiO2 
 PCOD8214587
Probable space group: P M M A
;
_chemical_formula_sum "Si O2"
_cell_formula_units_Z 48
_cell_length_a 8.510179
_cell_length_b 10.154816
_cell_length_c 27.866084
_cell_angle_alpha 90.000000
_cell_angle_beta 90.000000
_cell_angle_gamma 90.000000
_cell_volume 2408.167525
_symmetry_space_group_name_H-M "P M M A"
_symmetry_group_IT_number 51
_symmetry_cell_setting 'orthorhombic'
loop_
_space_group_symop_operation_xyz
x,y,z
1/2-x,-y,z
1/2+x,-y,-z
-x,y,-z
-x,-y,-z
1/2+x,y,-z
1/2-x,y,z
x,-y,z
loop_
_atom_site_type_symbol
_atom_site_label
_atom_site_fract_x
_atom_site_fract_y
_atom_site_fract_z
Si Si1 0.936875 0.000000 0.724092
Si Si2 0.936906 0.500000 0.697692
Si Si3 0.563095 0.500000 0.589161
Si Si4 0.062880 0.648037 0.130143
Si Si5 0.062542 0.729243 0.234243
Si Si6 0.936572 0.000000 0.614846
Si Si7 0.563781 0.148825 0.948721
Si Si8 0.564010 0.770279 0.448949
O O1 0.002616 0.872734 0.751901
O O2 0.995641 0.000000 0.669528
O O3 0.750000 0.000000 0.724816
O O4 0.750000 0.500000 0.696530
O O5 0.002647 0.500000 0.643614
O O6 0.999991 0.628078 0.725633
O O7 0.750000 0.500000 0.588139
O O8 0.500133 0.625778 0.561331
O O9 0.250000 0.653660 0.130899
O O10 0.005669 0.500000 0.117657
O O11 0.996254 0.689105 0.182179
O O12 0.995751 0.750613 0.090978
O O13 0.250000 0.726916 0.233301
O O14 0.003441 0.868690 0.591422
O O15 0.750000 0.000000 0.610780
O O16 0.750000 0.154590 0.949805
O O17 0.506440 0.000000 0.936781
O O18 0.500000 0.195228 0.000000
O O19 0.500000 0.819832 0.500000
O O20 0.750000 0.769873 0.449825
#
# Coordination Sequence:
#
# PCOD8214587 Si02
#       8
#     4   4   4   8   8   4   8   8
#     4   9  18  28  46  75 108 137 169 213 264 319
#     4   9  16  28  48  73 106 141 171 207 262 319
#     4  11  22  38  61  89 120 153 189 233 280 337
#     4   9  16  26  42  67 101 135 167 210 264 317
#     4   9  15  25  41  69 105 137 165 207 265 319
#     4  11  22  40  61  87 118 151 189 233 284 341
#     4   9  18  31  47  69  98 132 171 215 264 313
#     4  12  25  42  62  87 117 152 192 236 286 340
#
# _framework density 19.932168000000001
#
# number of rings (size 3 to 8) (size 9 to 14) (size 15 to 20)
#    0.000    2.167    0.833    3.500    1.167    3.000 
#    0.000    0.000    0.000    0.000    0.000    7.000 
#    0.000    0.000    0.000    0.000    0.000    0.000 
#
# Total GULP energy -595235.660902 kJ/mol
# GULP energy per Si atom -12400.742935 kJ/mol
# Density = 1.988680 g / cm^3
# Si number density = 19.932168 Si / 1000 Ang^3
#
#
#
# Elastic Constant Matrix: (Units=GPa)
#
#
# Indices 1 2 3 4 5 6 
#
# 1 49.2406 16.8337 17.5653 0.0000 0.0000 0.0000
# 2 16.8337 152.6504 62.3368 0.0000 0.0000 0.0000
# 3 17.5653 62.3368 137.9482 0.0000 0.0000 0.0000
# 4 0.0000 0.0000 0.0000 47.0553 0.0000 0.0000
# 5 0.0000 0.0000 0.0000 0.0000 19.6856 0.0000
# 6 0.0000 0.0000 0.0000 0.0000 0.0000 19.9557
#
#
#
# Elastic Compliance Matrix: (Units=1/GPa)
#
#
# Indices 1 2 3 4 5 6 
#
# 1 0.021567 -0.001541 -0.002050 0.000000 0.000000 0.000000
# 2 -0.001541 0.008143 -0.003484 0.000000 0.000000 0.000000
# 3 -0.002050 -0.003484 0.009084 0.000000 0.000000 0.000000
# 4 0.000000 0.000000 0.000000 0.021252 0.000000 0.000000
# 5 0.000000 0.000000 0.000000 0.000000 0.050799 0.000000
# 6 0.000000 0.000000 0.000000 0.000000 0.000000 0.050111
#
#
# Mechanical properties :
#
#
# Convention : Reuss Voigt Hill
#
# Bulk Modulus (GPa) = 40.57597 59.25676 49.91637
# Shear Modulus (GPa) = 27.27475 33.54620 30.41047
#
# Velocity S-wave (km/s) = 3.70317 4.10691 3.91026
# Velocity P-wave (km/s) = 6.21980 7.23068 6.74420
#
# Compressibility (1/GPa) = 0.02464513
#
# Stress axis : x y z
#
# Youngs Moduli (GPa) = 46.36819 122.79762 110.07998
#
# Poissons Ratio (x) = 0.18926 0.22562
# Poissons Ratio (y) = 0.07147 0.38348
# Poissons Ratio (z) = 0.09504 0.42779
#
# Static dielectric constant tensor:
#      x y z
#    x 3.093360 0.000000 0.000000 
#    y 0.000000 3.920130 0.000000 
#    z 0.000000 0.000000 3.882620 
# 
# 
# High freq. dielectric constant tensor:
#      x y z
#    x 1.723910 0.000000 0.000000 
#    y 0.000000 1.794710 0.000000 
#    z 0.000000 0.000000 1.790480 
# 
# From -- ./inp_files/37246.got.cif
#   From: 2010.03.12/outbox.cif.g09.slc.cpg/sg51_19_cif.got.tgz:37246.got - 2010.04.16 13:43:02.
