data_PCOD8214571
_publ_section_title
;
Structure prediction by ZEFSAII (Michael W. Deem and Ramdas Pophale) SiO2 
 PCOD8214571
Probable space group: P M M A
;
_chemical_formula_sum "Si O2"
_cell_formula_units_Z 64
_cell_length_a 14.203109
_cell_length_b 9.089423
_cell_length_c 25.662792
_cell_angle_alpha 90.000000
_cell_angle_beta 90.000000
_cell_angle_gamma 90.000000
_cell_volume 3313.016806
_symmetry_space_group_name_H-M "P M M A"
_symmetry_group_IT_number 51
_symmetry_cell_setting 'orthorhombic'
loop_
_space_group_symop_operation_xyz
x,y,z
1/2-x,-y,z
1/2+x,-y,-z
-x,y,-z
-x,-y,-z
1/2+x,y,-z
1/2-x,y,z
x,-y,z
loop_
_atom_site_type_symbol
_atom_site_label
_atom_site_fract_x
_atom_site_fract_y
_atom_site_fract_z
Si Si1 0.644566 0.174868 0.472294
Si Si2 0.857017 0.669598 0.173353
Si Si3 0.642466 0.824581 0.680851
Si Si4 0.455005 0.174936 0.423368
Si Si5 0.400318 0.165356 0.931052
Si Si6 0.351881 0.335541 0.142056
Si Si7 0.476581 0.173770 0.220559
Si Si8 0.118545 0.165659 0.045525
O O1 0.750000 0.238250 0.459842
O O2 0.564432 0.227632 0.430739
O O3 0.610410 0.230195 0.529084
O O4 0.649600 0.000000 0.472168
O O5 0.750000 0.692930 0.191287
O O6 0.886332 0.500000 0.174209
O O7 0.869449 0.725374 0.114351
O O8 0.920134 0.755080 0.216128
O O9 0.750000 0.764752 0.683737
O O10 0.590035 0.761561 0.629586
O O11 0.581167 0.766924 0.729588
O O12 0.644530 0.000000 0.680271
O O13 0.453963 0.000000 0.422093
O O14 0.508932 0.177496 0.943617
O O15 0.373464 0.000000 0.913214
O O16 0.351167 0.205152 0.986183
O O17 0.250000 0.335670 0.170334
O O18 0.395478 0.500000 0.143316
O O19 0.420983 0.220138 0.168954
O O20 0.332837 0.283190 0.083152
O O21 0.487842 0.000000 0.222165
O O22 0.153126 0.000000 0.057842
#
# Coordination Sequence:
#
# PCOD8214571 Si02
#       8
#     8   8   8   8   8   8   8   8
#     4   8  12  18  31  53  85 127 170 210 254 305
#     4  11  24  40  58  79 102 131 168 210 259 314
#     4   9  17  29  46  68  94 127 169 216 262 306
#     4   8  13  21  34  56  87 125 171 217 258 304
#     4   9  18  34  56  81 106 133 165 202 248 304
#     4  11  23  36  52  77 107 137 169 207 255 310
#     4  11  22  37  56  76  99 130 172 220 264 308
#     4   9  18  33  54  80 108 136 165 200 248 305
#
# _framework density 19.317741000000002
#
# number of rings (size 3 to 8) (size 9 to 14) (size 15 to 20)
#    0.000    2.500    1.250    3.375    0.000    5.000 
#    0.000    4.375    0.000    2.250    0.000    0.000 
#    0.000    0.000    0.000    9.000    0.000   50.000 
#
# Total GULP energy -793039.569971 kJ/mol
# GULP energy per Si atom -12391.243281 kJ/mol
# Density = 1.927377 g / cm^3
# Si number density = 19.317741 Si / 1000 Ang^3
#
#
#
# Elastic Constant Matrix: (Units=GPa)
#
#
# Indices 1 2 3 4 5 6 
#
# 1 150.1962 34.9377 61.0567 0.0000 0.0000 0.0000
# 2 34.9377 60.5555 30.7060 0.0000 0.0000 0.0000
# 3 61.0567 30.7060 115.1709 0.0000 0.0000 0.0000
# 4 0.0000 0.0000 0.0000 2.6900 0.0000 0.0000
# 5 0.0000 0.0000 0.0000 0.0000 7.7682 0.0000
# 6 0.0000 0.0000 0.0000 0.0000 0.0000 23.5401
#
#
#
# Elastic Compliance Matrix: (Units=1/GPa)
#
#
# Indices 1 2 3 4 5 6 
#
# 1 0.008994 -0.003205 -0.003914 0.000000 0.000000 0.000000
# 2 -0.003205 0.020237 -0.003697 0.000000 0.000000 0.000000
# 3 -0.003914 -0.003697 0.011743 0.000000 0.000000 0.000000
# 4 0.000000 0.000000 0.000000 0.371745 0.000000 0.000000
# 5 0.000000 0.000000 0.000000 0.000000 0.128730 0.000000
# 6 0.000000 0.000000 0.000000 0.000000 0.000000 0.042481
#
#
# Mechanical properties :
#
#
# Convention : Reuss Voigt Hill
#
# Bulk Modulus (GPa) = 51.69428 64.36927 58.03178
# Shear Modulus (GPa) = 8.16982 20.08115 14.12548
#
# Velocity S-wave (km/s) = 2.05873 3.22765 2.70704
# Velocity P-wave (km/s) = 5.69818 6.87634 6.31479
#
# Compressibility (1/GPa) = 0.01934450
#
# Stress axis : x y z
#
# Youngs Moduli (GPa) = 111.17933 49.41398 85.15570
#
# Poissons Ratio (x) = 0.15836 0.33329
# Poissons Ratio (y) = 0.35630 0.31478
# Poissons Ratio (z) = 0.43514 0.18266
#
# Static dielectric constant tensor:
#      x y z
#    x 3.849000 0.000000 0.000000 
#    y 0.000000 3.108800 0.000000 
#    z 0.000000 0.000000 3.850590 
# 
# 
# High freq. dielectric constant tensor:
#      x y z
#    x 1.769870 0.000000 0.000000 
#    y 0.000000 1.702650 0.000000 
#    z 0.000000 0.000000 1.733760 
# 
# From -- ./inp_files/35627.got.cif
#   From: 2010.03.12/outbox.cif.g09.slc.cpg/sg51_18_cif.got.tgz:35627.got - 2010.04.16 13:43:02.
