data_PCOD8214318
_publ_section_title
;
Structure prediction by ZEFSAII (Michael W. Deem and Ramdas Pophale) SiO2 
 PCOD8214318
Probable space group: P M M A
;
_chemical_formula_sum "Si O2"
_cell_formula_units_Z 64
_cell_length_a 14.870751
_cell_length_b 18.239013
_cell_length_c 11.394913
_cell_angle_alpha 90.000000
_cell_angle_beta 90.000000
_cell_angle_gamma 90.000000
_cell_volume 3090.617421
_symmetry_space_group_name_H-M "P M M A"
_symmetry_group_IT_number 51
_symmetry_cell_setting 'orthorhombic'
loop_
_space_group_symop_operation_xyz
x,y,z
1/2-x,-y,z
1/2+x,-y,-z
-x,y,-z
-x,-y,-z
1/2+x,y,-z
1/2-x,y,z
x,-y,z
loop_
_atom_site_type_symbol
_atom_site_label
_atom_site_fract_x
_atom_site_fract_y
_atom_site_fract_z
Si Si1 0.895255 0.418136 0.984355
Si Si2 0.145000 0.807617 0.227572
Si Si3 0.982733 0.415843 0.367317
Si Si4 0.649224 0.661564 0.198366
Si Si5 0.485140 0.914392 0.366584
Si Si6 0.849159 0.355638 0.749907
Si Si7 0.850588 0.916993 0.206255
Si Si8 0.853965 0.208793 0.034279
O O1 0.875424 0.500000 0.939629
O O2 0.848003 0.407347 0.110117
O O3 0.854127 0.360748 0.891693
O O4 0.000000 0.403535 0.000000
O O5 0.250000 0.831074 0.222581
O O6 0.092332 0.867756 0.303261
O O7 0.133760 0.728303 0.288879
O O8 0.103315 0.799150 0.095693
O O9 0.948422 0.500000 0.358922
O O10 0.078065 0.410746 0.302461
O O11 0.000000 0.391237 0.500000
O O12 0.911542 0.359366 0.310512
O O13 0.750000 0.679912 0.243983
O O14 0.605480 0.728849 0.122341
O O15 0.500000 0.889599 0.500000
O O16 0.581032 0.897389 0.309011
O O17 0.458097 0.000000 0.357516
O O18 0.750000 0.380200 0.707566
O O19 0.750000 0.901662 0.255148
O O20 0.870740 0.869670 0.091990
O O21 0.861876 0.000000 0.163775
O O22 0.750000 0.229304 0.019240
#
# Coordination Sequence:
#
# PCOD8214318 Si02
#       8
#     8   8   8   8   8   8   8   8
#     4  11  21  34  58  91 122 156 200 255 324 390
#     4  10  22  40  62  91 127 163 201 251 312 371
#     4  11  26  45  63  87 122 166 216 265 314 371
#     4  11  22  39  63  92 125 161 207 262 319 385
#     4  10  23  41  62  91 125 165 214 257 297 357
#     4  11  23  41  62  87 122 162 204 255 314 376
#     4   9  19  37  60  87 121 160 203 252 306 366
#     4   9  19  37  60  90 125 160 199 249 315 379
#
# _framework density 20.707837000000001
#
# number of rings (size 3 to 8) (size 9 to 14) (size 15 to 20)
#    0.000    1.750    2.500    1.125    1.750    5.250 
#    0.000    5.000    0.000    0.000    0.000    0.000 
#    0.000    0.000    0.000    0.000    0.000    0.000 
#
# Total GULP energy -793490.358157 kJ/mol
# GULP energy per Si atom -12398.286846 kJ/mol
# Density = 2.066071 g / cm^3
# Si number density = 20.707837 Si / 1000 Ang^3
#
#
#
# Elastic Constant Matrix: (Units=GPa)
#
#
# Indices 1 2 3 4 5 6 
#
# 1 91.7049 45.2517 43.3934 0.0000 0.0000 0.0000
# 2 45.2517 92.8934 47.0792 0.0000 0.0000 0.0000
# 3 43.3934 47.0792 127.3463 0.0000 0.0000 0.0000
# 4 0.0000 0.0000 0.0000 35.1526 0.0000 0.0000
# 5 0.0000 0.0000 0.0000 0.0000 21.5417 0.0000
# 6 0.0000 0.0000 0.0000 0.0000 0.0000 8.8881
#
#
#
# Elastic Compliance Matrix: (Units=1/GPa)
#
#
# Indices 1 2 3 4 5 6 
#
# 1 0.015240 -0.005897 -0.003013 0.000000 0.000000 0.000000
# 2 -0.005897 0.015529 -0.003732 0.000000 0.000000 0.000000
# 3 -0.003013 -0.003732 0.010259 0.000000 0.000000 0.000000
# 4 0.000000 0.000000 0.000000 0.028447 0.000000 0.000000
# 5 0.000000 0.000000 0.000000 0.000000 0.046422 0.000000
# 6 0.000000 0.000000 0.000000 0.000000 0.000000 0.112509
#
#
# Mechanical properties :
#
#
# Convention : Reuss Voigt Hill
#
# Bulk Modulus (GPa) = 63.51329 64.82146 64.16738
# Shear Modulus (GPa) = 19.30968 24.86450 22.08709
#
# Velocity S-wave (km/s) = 3.05697 3.46891 3.26944
# Velocity P-wave (km/s) = 6.57250 6.88588 6.73101
#
# Compressibility (1/GPa) = 0.01574474
#
# Stress axis : x y z
#
# Youngs Moduli (GPa) = 65.61631 64.39639 97.47725
#
# Poissons Ratio (x) = 0.37975 0.29370
# Poissons Ratio (y) = 0.38694 0.36374
# Poissons Ratio (z) = 0.19770 0.24030
#
# Static dielectric constant tensor:
#      x y z
#    x 3.759450 0.000000 0.000000 
#    y 0.000000 3.721420 0.000000 
#    z 0.000000 0.000000 3.653910 
# 
# 
# High freq. dielectric constant tensor:
#      x y z
#    x 1.809710 0.000000 0.000000 
#    y 0.000000 1.814170 0.000000 
#    z 0.000000 0.000000 1.793050 
# 
# From -- ./inp_files/16855.got.cif
#   From: 2010.03.12/outbox.cif.g09.slc.cpg/sg51_9_cif.got.tgz:16855.got - 2010.04.16 13:43:02.
