data_PCOD8214679
_publ_section_title
;
Structure prediction by ZEFSAII (Michael W. Deem and Ramdas Pophale) SiO2 
 PCOD8214679
Probable space group: P M M A
;
_chemical_formula_sum "Si O2"
_cell_formula_units_Z 28
_cell_length_a 9.166074
_cell_length_b 7.433482
_cell_length_c 19.862874
_cell_angle_alpha 90.000000
_cell_angle_beta 90.000000
_cell_angle_gamma 90.000000
_cell_volume 1353.373726
_symmetry_space_group_name_H-M "P M M A"
_symmetry_group_IT_number 51
_symmetry_cell_setting 'orthorhombic'
loop_
_space_group_symop_operation_xyz
x,y,z
1/2-x,-y,z
1/2+x,-y,-z
-x,y,-z
-x,-y,-z
1/2+x,y,-z
1/2-x,y,z
x,-y,z
loop_
_atom_site_type_symbol
_atom_site_label
_atom_site_fract_x
_atom_site_fract_y
_atom_site_fract_z
Si Si1 0.420388 0.290343 0.158769
Si Si2 0.075604 0.000000 0.928287
Si Si3 0.086992 0.285460 0.564386
Si Si4 0.411009 0.286905 0.309703
O O1 0.250000 0.246442 0.145764
O O2 0.451134 0.500000 0.145830
O O3 0.523715 0.178884 0.109817
O O4 0.463949 0.233879 0.234943
O O5 0.250000 0.000000 0.935280
O O6 0.000000 0.000000 0.000000
O O7 0.250000 0.210218 0.559639
O O8 0.084834 0.500000 0.564904
O O9 0.000000 0.211056 0.500000
O O10 0.017703 0.208075 0.633320
O O11 0.250000 0.207325 0.322763
O O12 0.403639 0.500000 0.314976
#
# Coordination Sequence:
#
# PCOD8214679 Si02
#       4
#     8   4   8   8
#     4   9  19  38  63  88 116 151 190 234 284 338
#     4  12  26  42  62  88 119 152 187 230 278 336
#     4   9  15  21  32  55  91 134 178 225 273 320
#     4   8  14  26  45  69  98 134 176 222 273 327
#
# _framework density 20.689039000000001
#
# number of rings (size 3 to 8) (size 9 to 14) (size 15 to 20)
#    0.000    2.857    0.000    3.857    0.000    5.714 
#    0.000    2.857    0.000    0.000    0.000    1.000 
#    0.000    0.000    0.000    0.000    0.000    0.000 
#
# Total GULP energy -347088.876402 kJ/mol
# GULP energy per Si atom -12396.031300 kJ/mol
# Density = 2.064195 g / cm^3
# Si number density = 20.689039 Si / 1000 Ang^3
#
#
#
# Elastic Constant Matrix: (Units=GPa)
#
#
# Indices 1 2 3 4 5 6 
#
# 1 174.9098 39.1345 115.4551 0.0000 0.0000 0.0000
# 2 39.1345 62.5695 41.5579 0.0000 0.0000 0.0000
# 3 115.4551 41.5579 192.7262 0.0000 0.0000 0.0000
# 4 0.0000 0.0000 0.0000-3719.2870 0.0000 0.0000
# 5 0.0000 0.0000 0.0000 0.0000 44.1777 0.0000
# 6 0.0000 0.0000 0.0000 0.0000 0.0000 16.1210
#
#
#
# Elastic Compliance Matrix: (Units=1/GPa)
#
#
# Indices 1 2 3 4 5 6 
#
# 1 0.009807 -0.002605 -0.005314 0.000000 0.000000 0.000000
# 2 -0.002605 0.019346 -0.002611 0.000000 0.000000 0.000000
# 3 -0.005314 -0.002611 0.008935 0.000000 0.000000 0.000000
# 4 0.000000 0.000000 0.000000 -0.000269 0.000000 0.000000
# 5 0.000000 0.000000 0.000000 0.000000 0.022636 0.000000
# 6 0.000000 0.000000 0.000000 0.000000 0.000000 0.062031
#
#
# Mechanical properties :
#
#
# Convention : Reuss Voigt Hill
#
# Bulk Modulus (GPa) = 58.72342 91.38895 75.05618
# Shear Modulus (GPa) = 33.50724 -716.19380 -341.34328
#
# Velocity S-wave (km/s) = 4.02875 -18.62585 -12.85868
# Velocity P-wave (km/s) = 7.07718 20.45225 13.56849
#
# Compressibility (1/GPa) = 0.01702898
#
# Stress axis : x y z
#
# Youngs Moduli (GPa) = 101.96301 51.69107 111.92056
#
# Poissons Ratio (x) = 0.13465 0.59470
# Poissons Ratio (y) = 0.26561 0.29223
# Poissons Ratio (z) = 0.54179 0.13497
#
# Static dielectric constant tensor:
#      x y z
#    x 3.868730 0.000000 0.000000 
#    y 0.000000 3.321530 0.000000 
#    z 0.000000 0.000000 3.982390 
# 
# 
# High freq. dielectric constant tensor:
#      x y z
#    x 1.800820 0.000000 0.000000 
#    y 0.000000 1.787860 0.000000 
#    z 0.000000 0.000000 1.816260 
# 
# From -- ./inp_files/26854.got.cif
#   From: 2010.03.12/outbox.cif.g09.slc.cpg/sg51_14_cif.got.tgz:26854.got - 2010.04.16 13:43:02.
