data_PCOD8214626
_publ_section_title
;
Structure prediction by ZEFSAII (Michael W. Deem and Ramdas Pophale) SiO2 
 PCOD8214626
Probable space group: P M M A
;
_chemical_formula_sum "Si O2"
_cell_formula_units_Z 64
_cell_length_a 17.120973
_cell_length_b 20.178268
_cell_length_c 9.845820
_cell_angle_alpha 90.000000
_cell_angle_beta 90.000000
_cell_angle_gamma 90.000000
_cell_volume 3401.451008
_symmetry_space_group_name_H-M "P M M A"
_symmetry_group_IT_number 51
_symmetry_cell_setting 'orthorhombic'
loop_
_space_group_symop_operation_xyz
x,y,z
1/2-x,-y,z
1/2+x,-y,-z
-x,y,-z
-x,-y,-z
1/2+x,y,-z
1/2-x,y,z
x,-y,z
loop_
_atom_site_type_symbol
_atom_site_label
_atom_site_fract_x
_atom_site_fract_y
_atom_site_fract_z
Si Si1 0.842608 0.311485 0.289826
Si Si2 0.091962 0.682931 0.010536
Si Si3 0.342778 0.426793 0.515052
Si Si4 0.660540 0.925674 0.752564
Si Si5 0.943211 0.182508 0.881133
Si Si6 0.839468 0.076677 0.438456
Si Si7 0.053622 0.807665 0.631402
Si Si8 0.841521 0.424166 0.788287
O O1 0.750000 0.302822 0.300061
O O2 0.873137 0.375452 0.372858
O O3 0.880937 0.248887 0.364155
O O4 0.866670 0.321193 0.134512
O O5 0.110512 0.754561 0.077269
O O6 0.119126 0.623262 0.103632
O O7 0.000000 0.677024 0.000000
O O8 0.250000 0.428707 0.512572
O O9 0.374835 0.500000 0.553158
O O10 0.371908 0.406911 0.363708
O O11 0.750000 0.921269 0.796911
O O12 0.612875 0.878018 0.849362
O O13 0.650827 0.904746 0.596300
O O14 0.628903 0.000000 0.773141
O O15 0.996956 0.203132 0.756582
O O16 0.000000 0.158777 0.000000
O O17 0.750000 0.090229 0.392593
O O18 0.900838 0.122047 0.357383
O O19 0.860820 0.000000 0.411917
O O20 0.000000 0.802599 0.500000
O O21 0.750000 0.412355 0.797599
O O22 0.862659 0.500000 0.824512
#
# Coordination Sequence:
#
# PCOD8214626 Si02
#       8
#     8   8   8   8   8   8   8   8
#     4  11  23  39  61  87 117 156 199 247 295 344
#     4  11  23  40  56  80 120 159 197 239 292 354
#     4   8  17  35  59  88 115 139 182 242 292 337
#     4   9  19  37  61  88 116 149 192 238 287 349
#     4  11  23  42  56  81 121 157 192 238 292 346
#     4   9  19  37  61  90 120 148 191 247 295 348
#     4  12  23  38  61  87 119 156 197 243 290 352
#     4   9  19  37  61  87 114 150 196 242 292 355
#
# _framework density 18.815498999999999
#
# number of rings (size 3 to 8) (size 9 to 14) (size 15 to 20)
#    0.000    2.000    3.750    2.250    1.750    2.750 
#    0.000    1.250    0.000    3.375    0.000    0.000 
#    0.000    0.000    0.000    0.000    0.000    0.000 
#
# Total GULP energy -793528.189050 kJ/mol
# GULP energy per Si atom -12398.877954 kJ/mol
# Density = 1.877267 g / cm^3
# Si number density = 18.815499 Si / 1000 Ang^3
#
#
#
# Elastic Constant Matrix: (Units=GPa)
#
#
# Indices 1 2 3 4 5 6 
#
# 1 53.3202 40.2545 26.3540 0.0000 0.0000 0.0000
# 2 40.2545 119.8399 48.4191 0.0000 0.0000 0.0000
# 3 26.3540 48.4191 79.2102 0.0000 0.0000 0.0000
# 4 0.0000 0.0000 0.0000 33.2637 0.0000 0.0000
# 5 0.0000 0.0000 0.0000 0.0000 28.8163 0.0000
# 6 0.0000 0.0000 0.0000 0.0000 0.0000 27.1333
#
#
#
# Elastic Compliance Matrix: (Units=1/GPa)
#
#
# Indices 1 2 3 4 5 6 
#
# 1 0.026252 -0.007024 -0.004441 0.000000 0.000000 0.000000
# 2 -0.007024 0.012961 -0.005585 0.000000 0.000000 0.000000
# 3 -0.004441 -0.005585 0.017516 0.000000 0.000000 0.000000
# 4 0.000000 0.000000 0.000000 0.030063 0.000000 0.000000
# 5 0.000000 0.000000 0.000000 0.000000 0.034703 0.000000
# 6 0.000000 0.000000 0.000000 0.000000 0.000000 0.036855
#
#
# Mechanical properties :
#
#
# Convention : Reuss Voigt Hill
#
# Bulk Modulus (GPa) = 44.19168 53.60283 48.89726
# Shear Modulus (GPa) = 25.00082 26.99884 25.99983
#
# Velocity S-wave (km/s) = 3.64914 3.79215 3.72133
# Velocity P-wave (km/s) = 6.42595 6.90828 6.67147
#
# Compressibility (1/GPa) = 0.02262869
#
# Stress axis : x y z
#
# Youngs Moduli (GPa) = 38.09174 77.15708 57.08927
#
# Poissons Ratio (x) = 0.54195 0.25352
# Poissons Ratio (y) = 0.26756 0.31887
# Poissons Ratio (z) = 0.16916 0.43096
#
# Static dielectric constant tensor:
#      x y z
#    x 3.350230 0.000000 0.000000 
#    y 0.000000 3.739640 0.000000 
#    z 0.000000 0.000000 3.542840 
# 
# 
# High freq. dielectric constant tensor:
#      x y z
#    x 1.724220 0.000000 0.000000 
#    y 0.000000 1.740780 0.000000 
#    z 0.000000 0.000000 1.728630 
# 
# From -- ./inp_files/9995.got.cif
#   From: 2010.03.12/outbox.cif.g09.slc.cpg/sg51_5_cif.got.tgz:9995.got - 2010.04.16 13:43:02.
