data_PCOD8214589
_publ_section_title
;
Structure prediction by ZEFSAII (Michael W. Deem and Ramdas Pophale) SiO2 
 PCOD8214589
Probable space group: P M M A
;
_chemical_formula_sum "Si O2"
_cell_formula_units_Z 48
_cell_length_a 28.732076
_cell_length_b 8.573740
_cell_length_c 9.803934
_cell_angle_alpha 90.000000
_cell_angle_beta 90.000000
_cell_angle_gamma 90.000000
_cell_volume 2415.114330
_symmetry_space_group_name_H-M "P M M A"
_symmetry_group_IT_number 51
_symmetry_cell_setting 'orthorhombic'
loop_
_space_group_symop_operation_xyz
x,y,z
1/2-x,-y,z
1/2+x,-y,-z
-x,y,-z
-x,-y,-z
1/2+x,y,-z
1/2-x,y,z
x,-y,z
loop_
_atom_site_type_symbol
_atom_site_label
_atom_site_fract_x
_atom_site_fract_y
_atom_site_fract_z
Si Si1 0.382338 0.183393 0.789521
Si Si2 0.695426 0.823464 0.706574
Si Si3 0.627161 0.320767 0.503325
Si Si4 0.301639 0.814589 0.988250
Si Si5 0.981316 0.677750 0.150747
Si Si6 0.963201 0.180252 0.613955
O O1 0.372159 0.215832 0.631673
O O2 0.339131 0.247587 0.879365
O O3 0.428063 0.270162 0.841024
O O4 0.389501 0.000000 0.810191
O O5 0.750000 0.818344 0.679791
O O6 0.672069 0.713302 0.594834
O O7 0.676574 0.000000 0.689480
O O8 0.684078 0.760674 0.859065
O O9 0.626975 0.500000 0.458773
O O10 0.582351 0.283922 0.595081
O O11 0.250000 0.749473 0.950797
O O12 0.299576 0.000000 0.986624
O O13 0.984881 0.500000 0.202126
O O14 0.014113 0.787327 0.240543
O O15 0.000000 0.696983 0.000000
O O16 0.000000 0.229472 0.500000
O O17 0.949221 0.000000 0.602222
#
# Coordination Sequence:
#
# PCOD8214589 Si02
#       6
#     8   8   8   8   8   8
#     4  11  22  38  61  90 119 156 205 249 293 350
#     4   9  19  39  65  91 119 154 199 249 297 353
#     4  12  25  39  59  88 124 162 197 244 306 362
#     4   8  17  36  62  90 117 148 192 246 298 344
#     4  11  25  42  60  88 125 160 194 240 302 362
#     4  11  23  41  65  89 115 155 206 250 291 348
#
# _framework density 19.874834
#
# number of rings (size 3 to 8) (size 9 to 14) (size 15 to 20)
#    0.000    1.667    1.667    4.000    2.333    3.000 
#    0.000    2.500    0.000    3.500    0.000    0.000 
#    0.000    0.000    0.000    0.000    0.000    0.000 
#
# Total GULP energy -595374.166644 kJ/mol
# GULP energy per Si atom -12403.628472 kJ/mol
# Density = 1.982960 g / cm^3
# Si number density = 19.874834 Si / 1000 Ang^3
#
#
#
# Elastic Constant Matrix: (Units=GPa)
#
#
# Indices 1 2 3 4 5 6 
#
# 1 100.9782 14.7192 66.0357 0.0000 0.0000 0.0000
# 2 14.7192 43.4003 23.0277 0.0000 0.0000 0.0000
# 3 66.0357 23.0277 107.9910 0.0000 0.0000 0.0000
# 4 0.0000 0.0000 0.0000 67.2590 0.0000 0.0000
# 5 0.0000 0.0000 0.0000 0.0000 40.2165 0.0000
# 6 0.0000 0.0000 0.0000 0.0000 0.0000 72.1091
#
#
#
# Elastic Compliance Matrix: (Units=1/GPa)
#
#
# Indices 1 2 3 4 5 6 
#
# 1 0.016505 -0.000274 -0.010034 0.000000 0.000000 0.000000
# 2 -0.000274 0.025985 -0.005374 0.000000 0.000000 0.000000
# 3 -0.010034 -0.005374 0.016542 0.000000 0.000000 0.000000
# 4 0.000000 0.000000 0.000000 0.014868 0.000000 0.000000
# 5 0.000000 0.000000 0.000000 0.000000 0.024865 0.000000
# 6 0.000000 0.000000 0.000000 0.000000 0.000000 0.013868
#
#
# Mechanical properties :
#
#
# Convention : Reuss Voigt Hill
#
# Bulk Modulus (GPa) = 36.14170 51.10386 43.62278
# Shear Modulus (GPa) = 32.63283 45.82272 39.22778
#
# Velocity S-wave (km/s) = 4.05645 4.80684 4.44750
# Velocity P-wave (km/s) = 6.33750 7.52172 6.95486
#
# Compressibility (1/GPa) = 0.02766887
#
# Stress axis : x y z
#
# Youngs Moduli (GPa) = 60.58727 38.48323 60.45260
#
# Poissons Ratio (x) = 0.01053 0.60661
# Poissons Ratio (y) = 0.01657 0.32486
# Poissons Ratio (z) = 0.60796 0.20680
#
# Static dielectric constant tensor:
#      x y z
#    x 3.787780 0.000000 0.000000 
#    y 0.000000 3.489890 0.000000 
#    z 0.000000 0.000000 3.680000 
# 
# 
# High freq. dielectric constant tensor:
#      x y z
#    x 1.784030 0.000000 0.000000 
#    y 0.000000 1.761080 0.000000 
#    z 0.000000 0.000000 1.781950 
# 
# From -- ./inp_files/12859.got.cif
#   From: 2010.03.12/outbox.cif.g09.slc.cpg/sg51_7_cif.got.tgz:12859.got - 2010.04.16 13:43:02.
