data_PCOD8214461
_publ_section_title
;
Structure prediction by ZEFSAII (Michael W. Deem and Ramdas Pophale) SiO2 
 PCOD8214461
Probable space group: P M M A
;
_chemical_formula_sum "Si O2"
_cell_formula_units_Z 40
_cell_length_a 19.552897
_cell_length_b 9.000639
_cell_length_c 12.806546
_cell_angle_alpha 90.000000
_cell_angle_beta 90.000000
_cell_angle_gamma 90.000000
_cell_volume 2253.805683
_symmetry_space_group_name_H-M "P M M A"
_symmetry_group_IT_number 51
_symmetry_cell_setting 'orthorhombic'
loop_
_space_group_symop_operation_xyz
x,y,z
1/2-x,-y,z
1/2+x,-y,-z
-x,y,-z
-x,-y,-z
1/2+x,y,-z
1/2-x,y,z
x,-y,z
loop_
_atom_site_type_symbol
_atom_site_label
_atom_site_fract_x
_atom_site_fract_y
_atom_site_fract_z
Si Si1 0.669676 0.330376 0.129554
Si Si2 0.924627 0.825582 0.290548
Si Si3 0.825623 0.324071 0.894241
Si Si4 0.418946 0.663467 0.504823
Si Si5 0.930391 0.323447 0.722852
O O1 0.750000 0.314402 0.149292
O O2 0.646260 0.500000 0.150378
O O3 0.630890 0.218787 0.205174
O O4 0.651320 0.282275 0.011308
O O5 0.896204 0.775552 0.404273
O O6 0.996229 0.750671 0.261576
O O7 0.934874 0.000000 0.291853
O O8 0.750000 0.258061 0.870688
O O9 0.821896 0.500000 0.883457
O O10 0.880200 0.259626 0.811992
O O11 0.500000 0.652290 0.500000
O O12 0.388123 0.500000 0.529617
O O13 0.396039 0.718198 0.389348
O O14 0.941021 0.500000 0.730705
#
# Coordination Sequence:
#
# PCOD8214461 Si02
#       5
#     8   8   8   8   8
#     4   9  18  34  54  72  93 124 161 199 240 287
#     4  11  21  31  47  71 100 131 163 199 236 281
#     4   8  15  30  53  77  96 119 156 200 243 285
#     4   8  15  29  48  70  96 126 160 196 237 283
#     4   9  17  31  52  75  99 125 157 200 243 286
#
# _framework density 17.74776
#
# number of rings (size 3 to 8) (size 9 to 14) (size 15 to 20)
#    0.000    3.000    0.000    4.200    0.000    4.800 
#    0.000    6.000    0.000    5.400    0.000    0.000 
#    0.000    0.000    0.000    0.000    0.000    0.000 
#
# Total GULP energy -495791.111349 kJ/mol
# GULP energy per Si atom -12394.777784 kJ/mol
# Density = 1.770737 g / cm^3
# Si number density = 17.747760 Si / 1000 Ang^3
#
#
#
# Elastic Constant Matrix: (Units=GPa)
#
#
# Indices 1 2 3 4 5 6 
#
# 1 59.7880 31.1842 63.3355 0.0000 0.0000 0.0000
# 2 31.1842 61.8872 46.2215 0.0000 0.0000 0.0000
# 3 63.3355 46.2215 147.4476 0.0000 0.0000 0.0000
# 4 0.0000 0.0000 0.0000 3.1381 0.0000 0.0000
# 5 0.0000 0.0000 0.0000 0.0000 8.3636 0.0000
# 6 0.0000 0.0000 0.0000 0.0000 0.0000 3.5130
#
#
#
# Elastic Compliance Matrix: (Units=1/GPa)
#
#
# Indices 1 2 3 4 5 6 
#
# 1 0.033474 -0.008002 -0.011870 0.000000 0.000000 0.000000
# 2 -0.008002 0.023011 -0.003776 0.000000 0.000000 0.000000
# 3 -0.011870 -0.003776 0.013065 0.000000 0.000000 0.000000
# 4 0.000000 0.000000 0.000000 0.318660 0.000000 0.000000
# 5 0.000000 0.000000 0.000000 0.000000 0.119566 0.000000
# 6 0.000000 0.000000 0.000000 0.000000 0.000000 0.284661
#
#
# Mechanical properties :
#
#
# Convention : Reuss Voigt Hill
#
# Bulk Modulus (GPa) = 44.93780 61.17837 53.05808
# Shear Modulus (GPa) = 5.90215 11.56171 8.73193
#
# Velocity S-wave (km/s) = 1.82559 2.55511 2.22052
# Velocity P-wave (km/s) = 5.46067 6.57652 6.04440
#
# Compressibility (1/GPa) = 0.02225298
#
# Stress axis : x y z
#
# Youngs Moduli (GPa) = 29.87420 43.45797 76.54244
#
# Poissons Ratio (x) = 0.34773 0.90857
# Poissons Ratio (y) = 0.23904 0.28905
# Poissons Ratio (z) = 0.35461 0.16411
#
# Static dielectric constant tensor:
#      x y z
#    x 3.209640 0.000000 0.000000 
#    y 0.000000 2.973090 0.000000 
#    z 0.000000 0.000000 3.817160 
# 
# 
# High freq. dielectric constant tensor:
#      x y z
#    x 1.660720 0.000000 0.000000 
#    y 0.000000 1.653260 0.000000 
#    z 0.000000 0.000000 1.703120 
# 
# From -- ./inp_files/17876.got.cif
#   From: 2010.03.12/outbox.cif.g09.slc.cpg/sg51_9_cif.got.tgz:17876.got - 2010.04.16 13:43:02.
