data_PCOD8214530
_publ_section_title
;
Structure prediction by ZEFSAII (Michael W. Deem and Ramdas Pophale) SiO2 
 PCOD8214530
Probable space group: P M M A
;
_chemical_formula_sum "Si O2"
_cell_formula_units_Z 48
_cell_length_a 15.334481
_cell_length_b 9.357128
_cell_length_c 18.968924
_cell_angle_alpha 90.000000
_cell_angle_beta 90.000000
_cell_angle_gamma 90.000000
_cell_volume 2721.788336
_symmetry_space_group_name_H-M "P M M A"
_symmetry_group_IT_number 51
_symmetry_cell_setting 'orthorhombic'
loop_
_space_group_symop_operation_xyz
x,y,z
1/2-x,-y,z
1/2+x,-y,-z
-x,y,-z
-x,-y,-z
1/2+x,y,-z
1/2-x,y,z
x,-y,z
loop_
_atom_site_type_symbol
_atom_site_label
_atom_site_fract_x
_atom_site_fract_y
_atom_site_fract_z
Si Si1 0.849213 0.664105 0.585733
Si Si2 0.750000 0.340929 0.210420
Si Si3 0.418281 0.167041 0.953679
Si Si4 0.000178 0.836108 0.654370
Si Si5 0.750000 0.661085 0.043056
Si Si6 0.587962 0.161552 0.206529
Si Si7 0.650117 0.664998 0.421738
O O1 0.750000 0.697071 0.607746
O O2 0.872573 0.500000 0.601043
O O3 0.863300 0.698452 0.503927
O O4 0.910943 0.761916 0.632600
O O5 0.750000 0.500000 0.242422
O O6 0.750000 0.341572 0.126699
O O7 0.664070 0.261494 0.237335
O O8 0.335713 0.255123 0.982718
O O9 0.440648 0.205695 0.872362
O O10 0.397534 0.000000 0.963064
O O11 0.500000 0.215406 0.000000
O O12 0.007204 0.823986 0.739574
O O13 0.084978 0.765391 0.620159
O O14 0.997304 0.000000 0.629831
O O15 0.750000 0.500000 0.012277
O O16 0.624302 0.000000 0.205226
O O17 0.750000 0.697877 0.399226
O O18 0.627635 0.500000 0.406371
#
# Coordination Sequence:
#
# PCOD8214530 Si02
#       7
#     8   4   8   8   4   8   8
#     4   9  19  37  57  72  91 127 173 214 247 284
#     4   9  17  29  47  71  97 129 166 195 232 297
#     4   9  17  32  55  75  95 131 177 210 236 285
#     4  11  22  32  48  75 106 133 159 199 256 304
#     4   9  17  29  47  75 105 129 154 195 254 301
#     4   9  19  33  47  70 105 134 159 201 253 295
#     4   9  19  35  53  74 100 131 167 205 243 287
#
# _framework density 17.635463000000001
#
# number of rings (size 3 to 8) (size 9 to 14) (size 15 to 20)
#    0.000    2.667    0.000    2.500    1.167    7.000 
#    0.000    1.667    1.833    0.000    0.000    0.000 
#    0.000    0.000    0.000    0.000    0.000    0.000 
#
# Total GULP energy -595156.769969 kJ/mol
# GULP energy per Si atom -12399.099374 kJ/mol
# Density = 1.759532 g / cm^3
# Si number density = 17.635463 Si / 1000 Ang^3
#
#
#
# Elastic Constant Matrix: (Units=GPa)
#
#
# Indices 1 2 3 4 5 6 
#
# 1 125.5904 69.7743 57.8106 0.0000 0.0000 0.0000
# 2 69.7743 101.1661 45.4196 0.0000 0.0000 0.0000
# 3 57.8106 45.4196 66.1201 0.0000 0.0000 0.0000
# 4 0.0000 0.0000 0.0000 17.0912 0.0000 0.0000
# 5 0.0000 0.0000 0.0000 0.0000 28.0727 0.0000
# 6 0.0000 0.0000 0.0000 0.0000 0.0000 31.7597
#
#
#
# Elastic Compliance Matrix: (Units=1/GPa)
#
#
# Indices 1 2 3 4 5 6 
#
# 1 0.016096 -0.006916 -0.009322 0.000000 0.000000 0.000000
# 2 -0.006916 0.017264 -0.005812 0.000000 0.000000 0.000000
# 3 -0.009322 -0.005812 0.027267 0.000000 0.000000 0.000000
# 4 0.000000 0.000000 0.000000 0.058510 0.000000 0.000000
# 5 0.000000 0.000000 0.000000 0.000000 0.035622 0.000000
# 6 0.000000 0.000000 0.000000 0.000000 0.000000 0.031486
#
#
# Mechanical properties :
#
#
# Convention : Reuss Voigt Hill
#
# Bulk Modulus (GPa) = 60.51016 70.98728 65.74872
# Shear Modulus (GPa) = 21.19944 23.37621 22.28782
#
# Velocity S-wave (km/s) = 3.47088 3.64472 3.55886
# Velocity P-wave (km/s) = 7.10273 7.61918 7.36549
#
# Compressibility (1/GPa) = 0.01652615
#
# Stress axis : x y z
#
# Youngs Moduli (GPa) = 62.12791 57.92325 36.67383
#
# Poissons Ratio (x) = 0.40060 0.34188
# Poissons Ratio (y) = 0.42967 0.21316
# Poissons Ratio (z) = 0.57917 0.33667
#
# Static dielectric constant tensor:
#      x y z
#    x 3.198310 0.000000 0.000000 
#    y 0.000000 3.357470 0.000000 
#    z 0.000000 0.000000 3.168450 
# 
# 
# High freq. dielectric constant tensor:
#      x y z
#    x 1.674330 0.000000 0.000000 
#    y 0.000000 1.685790 0.000000 
#    z 0.000000 0.000000 1.666050 
# 
# From -- ./inp_files/29660.got.cif
#   From: 2010.03.12/outbox.cif.g09.slc.cpg/sg51_15_cif.got.tgz:29660.got - 2010.04.16 13:43:02.
