data_PCOD8214918
_publ_section_title
;
Structure prediction by ZEFSAII (Michael W. Deem and Ramdas Pophale) SiO2 
 PCOD8214918
Probable space group: P N N A
;
_chemical_formula_sum "Si O2"
_cell_formula_units_Z 64
_cell_length_a 8.562593
_cell_length_b 25.600664
_cell_length_c 19.363991
_cell_angle_alpha 90.000000
_cell_angle_beta 90.000000
_cell_angle_gamma 90.000000
_cell_volume 4244.743024
_symmetry_space_group_name_H-M "P N N A"
_symmetry_group_IT_number 52
_symmetry_cell_setting 'orthorhombic'
loop_
_space_group_symop_operation_xyz
x,y,z
1/2-x,-y,z
x,1/2-y,1/2-z
1/2-x,1/2+y,1/2-z
-x,-y,-z
1/2+x,y,-z
-x,1/2+y,1/2+z
1/2+x,1/2-y,1/2+z
loop_
_atom_site_type_symbol
_atom_site_label
_atom_site_fract_x
_atom_site_fract_y
_atom_site_fract_z
Si Si1 0.755140 0.438457 0.416318
Si Si2 0.328502 0.293573 0.089620
Si Si3 0.032557 0.274635 0.027421
Si Si4 0.956554 0.882791 0.971161
Si Si5 0.393040 0.639658 0.671511
Si Si6 0.946115 0.701508 0.201016
Si Si7 0.661968 0.669416 0.582634
Si Si8 0.237582 0.264223 0.592530
O O1 0.750000 0.500000 0.412026
O O2 0.645182 0.418844 0.478240
O O3 0.934361 0.420640 0.425655
O O4 0.685109 0.416256 0.343755
O O5 0.397492 0.317566 0.160264
O O6 0.348632 0.230955 0.095879
O O7 0.147824 0.308970 0.076786
O O8 0.430892 0.311919 0.022895
O O9 0.921506 0.241682 0.078295
O O10 0.147176 0.237675 0.981182
O O11 0.839879 0.850827 0.920785
O O12 0.069432 0.842760 0.011790
O O13 0.382519 0.653615 0.752772
O O14 0.573779 0.641593 0.646939
O O15 0.290901 0.679617 0.625198
O O16 0.988930 0.750000 0.250000
O O17 0.817857 0.718193 0.144212
#
# Coordination Sequence:
#
# PCOD8214918 Si02
#       8
#     8   8   8   8   8   8   8   8
#     4  10  20  32  44  61  81 111 145 192 233 258
#     4  10  16  24  41  55  84 102 132 171 196 255
#     4   9  17  23  38  62  78 104 134 165 203 238
#     4   9  20  27  43  61  83 102 140 187 226 259
#     4  10  19  29  43  54  78 117 142 177 211 256
#     4   9  16  31  38  53  78 110 141 167 207 243
#     4  10  16  25  39  60  74 106 133 170 211 251
#     4   9  17  26  41  58  83 105 138 170 205 251
#
# _framework density 15.077472
#
# number of rings (size 3 to 8) (size 9 to 14) (size 15 to 20)
#    0.000    2.500    3.750    1.125   10.500    0.000 
#    0.000    3.125    0.000    0.000    0.000    0.000 
#    0.000    0.000    0.000   18.000    0.000    0.000 
#
# Total GULP energy -793125.692757 kJ/mol
# GULP energy per Si atom -12392.588949 kJ/mol
# Density = 1.504316 g / cm^3
# Si number density = 15.077472 Si / 1000 Ang^3
#
#
#
# Elastic Constant Matrix: (Units=GPa)
#
#
# Indices 1 2 3 4 5 6 
#
# 1 101.3324 12.1194 35.1391 0.0000 0.0000 0.0000
# 2 12.1194 37.3102 19.5723 0.0000 0.0000 0.0000
# 3 35.1391 19.5723 70.3844 0.0000 0.0000 0.0000
# 4 0.0000 0.0000 0.0000 12.3819 0.0000 0.0000
# 5 0.0000 0.0000 0.0000 0.0000 13.2217 0.0000
# 6 0.0000 0.0000 0.0000 0.0000 0.0000 12.7005
#
#
#
# Elastic Compliance Matrix: (Units=1/GPa)
#
#
# Indices 1 2 3 4 5 6 
#
# 1 0.011959 -0.000881 -0.005726 0.000000 0.000000 0.000000
# 2 -0.000881 0.031445 -0.008304 0.000000 0.000000 0.000000
# 3 -0.005726 -0.008304 0.019375 0.000000 0.000000 0.000000
# 4 0.000000 0.000000 0.000000 0.080763 0.000000 0.000000
# 5 0.000000 0.000000 0.000000 0.000000 0.075633 0.000000
# 6 0.000000 0.000000 0.000000 0.000000 0.000000 0.078737
#
#
# Mechanical properties :
#
#
# Convention : Reuss Voigt Hill
#
# Bulk Modulus (GPa) = 30.34200 38.07652 34.20926
# Shear Modulus (GPa) = 14.76143 17.14057 15.95100
#
# Velocity S-wave (km/s) = 3.13235 3.37535 3.25612
# Velocity P-wave (km/s) = 5.76628 6.36392 6.07245
#
# Compressibility (1/GPa) = 0.03295762
#
# Stress axis : x y z
#
# Youngs Moduli (GPa) = 83.61635 31.80178 51.61187
#
# Poissons Ratio (x) = 0.02802 0.29551
# Poissons Ratio (y) = 0.07368 0.42859
# Poissons Ratio (z) = 0.47876 0.26409
#
# Static dielectric constant tensor:
#      x y z
#    x 3.334240 0.000000 0.000000 
#    y 0.000000 2.450880 0.000000 
#    z 0.000000 0.000000 2.987990 
# 
# 
# High freq. dielectric constant tensor:
#      x y z
#    x 1.595800 0.000000 0.000000 
#    y 0.000000 1.509190 0.000000 
#    z 0.000000 0.000000 1.558930 
# 
# From -- ./inp_files/36273.got.cif
#   From: 2010.06.25/outbox.cif.g09.slc.cpg/sg52_19_cif.got.tgz:36273.got - 2010.06.26 19:32:48.
