data_PCOD8214011
_publ_section_title
;
Structure prediction by ZEFSAII (Michael W. Deem and Ramdas Pophale) SiO2 
 PCOD8214011
Probable space group: P M M A
;
_chemical_formula_sum "Si O2"
_cell_formula_units_Z 48
_cell_length_a 17.718824
_cell_length_b 8.634660
_cell_length_c 15.157801
_cell_angle_alpha 90.000000
_cell_angle_beta 90.000000
_cell_angle_gamma 90.000000
_cell_volume 2319.083238
_symmetry_space_group_name_H-M "P M M A"
_symmetry_group_IT_number 51
_symmetry_cell_setting 'orthorhombic'
loop_
_space_group_symop_operation_xyz
x,y,z
1/2-x,-y,z
1/2+x,-y,-z
-x,y,-z
-x,-y,-z
1/2+x,y,-z
1/2-x,y,z
x,-y,z
loop_
_atom_site_type_symbol
_atom_site_label
_atom_site_fract_x
_atom_site_fract_y
_atom_site_fract_z
Si Si1 0.166138 0.317020 0.847501
Si Si2 0.072133 0.319870 0.682113
Si Si3 0.662902 0.678350 0.493101
Si Si4 0.837087 0.319881 0.824058
Si Si5 0.914530 0.819008 0.988183
Si Si6 0.910871 0.820583 0.658195
O O1 0.250000 0.248096 0.833154
O O2 0.169688 0.500000 0.841678
O O3 0.110447 0.255383 0.771460
O O4 0.137930 0.269700 0.943433
O O5 0.049301 0.500000 0.690188
O O6 0.131553 0.293156 0.604341
O O7 0.998454 0.219551 0.665428
O O8 0.750000 0.727596 0.493852
O O9 0.652540 0.500000 0.521221
O O10 0.616531 0.784820 0.559766
O O11 0.750000 0.276225 0.837914
O O12 0.851524 0.500000 0.842026
O O13 0.888078 0.220045 0.889811
O O14 0.860834 0.279927 0.724912
O O15 0.907491 0.000000 0.006216
O O16 0.000000 0.761430 0.000000
O O17 0.898913 0.000000 0.679542
#
# Coordination Sequence:
#
# PCOD8214011 Si02
#       6
#     8   8   8   8   8   8
#     4  10  21  38  61  89 118 150 193 242 290 343
#     4  10  21  39  63  88 117 155 197 242 290 340
#     4  10  21  39  63  89 117 153 199 246 291 343
#     4  11  24  42  64  88 114 150 198 247 293 344
#     4  11  24  40  59  87 122 157 193 235 287 348
#     4  12  25  39  58  87 122 157 194 239 293 352
#
# _framework density 20.697835000000001
#
# number of rings (size 3 to 8) (size 9 to 14) (size 15 to 20)
#    0.000    1.333    0.000    5.500    0.000   15.333 
#    0.000    0.000    0.000    3.000    0.000    0.000 
#    0.000    0.000    0.000    0.000    0.000    0.000 
#
# Total GULP energy -595561.025093 kJ/mol
# GULP energy per Si atom -12407.521356 kJ/mol
# Density = 2.065073 g / cm^3
# Si number density = 20.697835 Si / 1000 Ang^3
#
#
#
# Elastic Constant Matrix: (Units=GPa)
#
#
# Indices 1 2 3 4 5 6 
#
# 1 109.5454 42.6619 11.2079 0.0000 0.0000 0.0000
# 2 42.6619 31.6243 14.3382 0.0000 0.0000 0.0000
# 3 11.2079 14.3382 82.0859 0.0000 0.0000 0.0000
# 4 0.0000 0.0000 0.0000 5.0638 0.0000 0.0000
# 5 0.0000 0.0000 0.0000 0.0000 41.9833 0.0000
# 6 0.0000 0.0000 0.0000 0.0000 0.0000 10.6513
#
#
#
# Elastic Compliance Matrix: (Units=1/GPa)
#
#
# Indices 1 2 3 4 5 6 
#
# 1 0.019563 -0.027345 0.002105 0.000000 0.000000 0.000000
# 2 -0.027345 0.072564 -0.008941 0.000000 0.000000 0.000000
# 3 0.002105 -0.008941 0.013457 0.000000 0.000000 0.000000
# 4 0.000000 0.000000 0.000000 0.197479 0.000000 0.000000
# 5 0.000000 0.000000 0.000000 0.000000 0.023819 0.000000
# 6 0.000000 0.000000 0.000000 0.000000 0.000000 0.093885
#
#
# Mechanical properties :
#
#
# Convention : Reuss Voigt Hill
#
# Bulk Modulus (GPa) = 26.86612 39.96349 33.41481
# Shear Modulus (GPa) = 9.96937 21.87620 15.92279
#
# Velocity S-wave (km/s) = 2.19706 3.25458 2.77663
# Velocity P-wave (km/s) = 4.40959 5.78558 5.14380
#
# Compressibility (1/GPa) = 0.03722161
#
# Stress axis : x y z
#
# Youngs Moduli (GPa) = 51.11805 13.78092 74.31240
#
# Poissons Ratio (x) = 0.37684 -0.15645
# Poissons Ratio (y) = 1.39782 0.66445
# Poissons Ratio (z) = -0.10762 0.12322
#
# Static dielectric constant tensor:
#      x y z
#    x 3.916340 0.000000 0.000000 
#    y 0.000000 3.577980 0.000000 
#    z 0.000000 0.000000 3.792080 
# 
# 
# High freq. dielectric constant tensor:
#      x y z
#    x 1.827210 0.000000 0.000000 
#    y 0.000000 1.796990 0.000000 
#    z 0.000000 0.000000 1.823670 
# 
# From -- ./inp_files/24701.got.cif
#   From: 2010.03.12/outbox.cif.g09.slc.cpg/sg51_13_cif.got.tgz:24701.got - 2010.04.16 13:43:02.
