data_PCOD8214705
_publ_section_title
;
Structure prediction by ZEFSAII (Michael W. Deem and Ramdas Pophale) SiO2 
 PCOD8214705
Probable space group: P M M A
;
_chemical_formula_sum "Si O2"
_cell_formula_units_Z 64
_cell_length_a 18.295057
_cell_length_b 9.667596
_cell_length_c 20.777415
_cell_angle_alpha 90.000000
_cell_angle_beta 90.000000
_cell_angle_gamma 90.000000
_cell_volume 3674.885182
_symmetry_space_group_name_H-M "P M M A"
_symmetry_group_IT_number 51
_symmetry_cell_setting 'orthorhombic'
loop_
_space_group_symop_operation_xyz
x,y,z
1/2-x,-y,z
1/2+x,-y,-z
-x,y,-z
-x,-y,-z
1/2+x,y,-z
1/2-x,y,z
x,-y,z
loop_
_atom_site_type_symbol
_atom_site_label
_atom_site_fract_x
_atom_site_fract_y
_atom_site_fract_z
Si Si1 0.163047 0.654551 0.996005
Si Si2 0.582299 0.664290 0.499741
Si Si3 0.664210 0.340272 0.626833
Si Si4 0.336997 0.156790 0.253412
Si Si5 0.663003 0.844850 0.115689
Si Si6 0.836867 0.155243 0.257752
Si Si7 0.335744 0.660250 0.626181
Si Si8 0.836960 0.344220 0.861215
O O1 0.250000 0.659156 0.992585
O O2 0.134740 0.500000 0.983024
O O3 0.128232 0.750327 0.940404
O O4 0.137741 0.703026 0.067261
O O5 0.500000 0.722568 0.500000
O O6 0.583318 0.500000 0.498198
O O7 0.623561 0.715561 0.563485
O O8 0.623908 0.720119 0.436708
O O9 0.750000 0.324676 0.614574
O O10 0.644455 0.500000 0.642584
O O11 0.636715 0.243606 0.684814
O O12 0.250000 0.153540 0.251016
O O13 0.368622 0.234840 0.190306
O O14 0.368040 0.000000 0.255972
O O15 0.750000 0.838923 0.112556
O O16 0.636828 0.795121 0.186717
O O17 0.635446 0.000000 0.103297
O O18 0.750000 0.156431 0.259373
O O19 0.867409 0.258274 0.312056
O O20 0.865485 0.000000 0.271487
O O21 0.250000 0.685017 0.616162
O O22 0.353655 0.500000 0.637706
O O23 0.750000 0.345778 0.857265
O O24 0.865375 0.500000 0.846242
#
# Coordination Sequence:
#
# PCOD8214705 Si02
#       8
#     8   8   8   8   8   8   8   8
#     4   8  13  19  27  41  63  93 128 163 197 233
#     4   9  17  29  45  64  84 105 130 162 200 241
#     4   9  16  27  44  62  79 103 134 165 198 238
#     4   9  16  24  35  53  75  98 128 167 204 235
#     4   8  13  20  29  42  63  93 128 162 194 231
#     4   8  14  24  36  51  73 101 132 165 201 239
#     4   9  16  26  42  63  82 101 131 169 202 234
#     4   8  13  21  31  44  66  97 131 164 198 237
#
# _framework density 17.415509
#
# number of rings (size 3 to 8) (size 9 to 14) (size 15 to 20)
#    0.000    3.500    0.000    2.250    0.000    4.000 
#    0.000    5.625    0.000    4.500    0.000    0.000 
#    0.000    0.000    0.000    1.125    0.000   24.750 
#
# Total GULP energy -793119.966295 kJ/mol
# GULP energy per Si atom -12392.499473 kJ/mol
# Density = 1.737587 g / cm^3
# Si number density = 17.415509 Si / 1000 Ang^3
#
#
#
# Elastic Constant Matrix: (Units=GPa)
#
#
# Indices 1 2 3 4 5 6 
#
# 1 21.3585 17.2225 29.2493 0.0000 0.0000 0.0000
# 2 17.2225 98.5523 98.0402 0.0000 0.0000 0.0000
# 3 29.2493 98.0402 200.5729 0.0000 0.0000 0.0000
# 4 0.0000 0.0000 0.0000 20.8896 0.0000 0.0000
# 5 0.0000 0.0000 0.0000 0.0000 0.8330 0.0000
# 6 0.0000 0.0000 0.0000 0.0000 0.0000 4.4321
#
#
#
# Elastic Compliance Matrix: (Units=1/GPa)
#
#
# Indices 1 2 3 4 5 6 
#
# 1 0.059087 -0.003414 -0.006948 0.000000 0.000000 0.000000
# 2 -0.003414 0.019948 -0.009253 0.000000 0.000000 0.000000
# 3 -0.006948 -0.009253 0.010522 0.000000 0.000000 0.000000
# 4 0.000000 0.000000 0.000000 0.047871 0.000000 0.000000
# 5 0.000000 0.000000 0.000000 0.000000 1.200510 0.000000
# 6 0.000000 0.000000 0.000000 0.000000 0.000000 0.225628
#
#
# Mechanical properties :
#
#
# Convention : Reuss Voigt Hill
#
# Bulk Modulus (GPa) = 19.86972 67.72306 43.79639
# Shear Modulus (GPa) = 3.08724 16.96238 10.02481
#
# Velocity S-wave (km/s) = 1.33287 3.12425 2.40182
# Velocity P-wave (km/s) = 3.71520 7.21011 5.73535
#
# Compressibility (1/GPa) = 0.05032785
#
# Stress axis : x y z
#
# Youngs Moduli (GPa) = 16.92409 50.12956 95.04151
#
# Poissons Ratio (x) = 0.17115 0.66033
# Poissons Ratio (y) = 0.05778 0.87941
# Poissons Ratio (z) = 0.11759 0.46384
#
# Static dielectric constant tensor:
#      x y z
#    x 2.585820 0.000000 0.000000 
#    y 0.000000 3.306500 0.000000 
#    z 0.000000 0.000000 3.674180 
# 
# 
# High freq. dielectric constant tensor:
#      x y z
#    x 1.596290 0.000000 0.000000 
#    y 0.000000 1.658070 0.000000 
#    z 0.000000 0.000000 1.692100 
# 
# From -- ./inp_files/34158.got.cif
#   From: 2010.03.12/outbox.cif.g09.slc.cpg/sg51_18_cif.got.tgz:34158.got - 2010.04.16 13:43:02.
