data_PCOD8214673
_publ_section_title
;
Structure prediction by ZEFSAII (Michael W. Deem and Ramdas Pophale) SiO2 
 PCOD8214673
Probable space group: P M M A
;
_chemical_formula_sum "Si O2"
_cell_formula_units_Z 56
_cell_length_a 28.613598
_cell_length_b 9.001580
_cell_length_c 13.581970
_cell_angle_alpha 90.000000
_cell_angle_beta 90.000000
_cell_angle_gamma 90.000000
_cell_volume 3498.275301
_symmetry_space_group_name_H-M "P M M A"
_symmetry_group_IT_number 51
_symmetry_cell_setting 'orthorhombic'
loop_
_space_group_symop_operation_xyz
x,y,z
1/2-x,-y,z
1/2+x,-y,-z
-x,y,-z
-x,-y,-z
1/2+x,y,-z
1/2-x,y,z
x,-y,z
loop_
_atom_site_type_symbol
_atom_site_label
_atom_site_fract_x
_atom_site_fract_y
_atom_site_fract_z
Si Si1 0.983772 0.821885 0.394568
Si Si2 0.802812 0.826821 0.997112
Si Si3 0.199186 0.822407 0.779017
Si Si4 0.963073 0.173584 0.796969
Si Si5 0.944690 0.834969 0.091698
Si Si6 0.608338 0.674658 0.923326
Si Si7 0.393761 0.166183 0.701467
O O1 0.019248 0.767919 0.309552
O O2 0.000000 0.759794 0.500000
O O3 0.931420 0.756877 0.371861
O O4 0.981535 0.000000 0.392436
O O5 0.750000 0.798144 0.958816
O O6 0.807485 0.767905 0.108998
O O7 0.815420 0.000000 0.991671
O O8 0.839239 0.738569 0.929469
O O9 0.250000 0.769345 0.739098
O O10 0.157560 0.755711 0.709658
O O11 0.196615 0.000000 0.779681
O O12 0.916159 0.261280 0.825076
O O13 0.001862 0.205899 0.881512
O O14 0.951914 0.000000 0.790629
O O15 0.914907 0.836276 0.190267
O O16 0.942565 0.000000 0.043557
O O17 0.922718 0.717227 0.017714
O O18 0.611515 0.500000 0.914617
O O19 0.385748 0.000000 0.662451
#
# Coordination Sequence:
#
# PCOD8214673 Si02
#       7
#     8   8   8   8   8   8   8
#     4   8  14  25  42  64  84 103 138 186 231 265
#     4   9  17  30  47  62  80 113 153 183 207 249
#     4   8  12  19  35  58  80 104 136 169 201 246
#     4   9  18  30  45  62  82 113 150 184 215 259
#     4   9  16  28  43  58  81 115 152 180 206 249
#     4  12  22  28  39  61  91 120 144 179 218 252
#     4   8  12  20  37  59  82 106 134 174 216 258
#
# _framework density 16.007888000000001
#
# number of rings (size 3 to 8) (size 9 to 14) (size 15 to 20)
#    0.000    3.000    1.429    4.286    0.000    2.571 
#    0.000    0.000    0.000    0.429    0.000    1.000 
#    0.000    5.714    0.000    0.000    0.000    0.000 
#
# Total GULP energy -693810.953210 kJ/mol
# GULP energy per Si atom -12389.481307 kJ/mol
# Density = 1.597145 g / cm^3
# Si number density = 16.007888 Si / 1000 Ang^3
#
#
#
# Elastic Constant Matrix: (Units=GPa)
#
#
# Indices 1 2 3 4 5 6 
#
# 1 153.9698 36.9111 57.3631 0.0000 0.0000 0.0000
# 2 36.9111 47.4388 21.3957 0.0000 0.0000 0.0000
# 3 57.3631 21.3957 64.2029 0.0000 0.0000 0.0000
# 4 0.0000 0.0000 0.0000 1.9039 0.0000 0.0000
# 5 0.0000 0.0000 0.0000 0.0000 19.1808 0.0000
# 6 0.0000 0.0000 0.0000 0.0000 0.0000 9.4658
#
#
#
# Elastic Compliance Matrix: (Units=1/GPa)
#
#
# Indices 1 2 3 4 5 6 
#
# 1 0.010542 -0.004654 -0.007868 0.000000 0.000000 0.000000
# 2 -0.004654 0.026863 -0.004794 0.000000 0.000000 0.000000
# 3 -0.007868 -0.004794 0.024203 0.000000 0.000000 0.000000
# 4 0.000000 0.000000 0.000000 0.525235 0.000000 0.000000
# 5 0.000000 0.000000 0.000000 0.000000 0.052135 0.000000
# 6 0.000000 0.000000 0.000000 0.000000 0.000000 0.105643
#
#
# Mechanical properties :
#
#
# Convention : Reuss Voigt Hill
#
# Bulk Modulus (GPa) = 37.06972 55.21679 46.14326
# Shear Modulus (GPa) = 6.34321 16.10623 11.22472
#
# Velocity S-wave (km/s) = 1.99278 3.17542 2.65089
# Velocity P-wave (km/s) = 5.33875 6.92912 6.18527
#
# Compressibility (1/GPa) = 0.02697620
#
# Stress axis : x y z
#
# Youngs Moduli (GPa) = 94.86211 37.22595 41.31755
#
# Poissons Ratio (x) = 0.17324 0.32507
# Poissons Ratio (y) = 0.44146 0.19808
# Poissons Ratio (z) = 0.74635 0.17847
#
# Static dielectric constant tensor:
#      x y z
#    x 3.486470 0.000000 0.000000 
#    y 0.000000 2.546730 0.000000 
#    z 0.000000 0.000000 2.850420 
# 
# 
# High freq. dielectric constant tensor:
#      x y z
#    x 1.629870 0.000000 0.000000 
#    y 0.000000 1.563720 0.000000 
#    z 0.000000 0.000000 1.571190 
# 
# From -- ./inp_files/26522.got.cif
#   From: 2010.03.12/outbox.cif.g09.slc.cpg/sg51_14_cif.got.tgz:26522.got - 2010.04.16 13:43:02.
