data_PCOD8214509
_publ_section_title
;
Structure prediction by ZEFSAII (Michael W. Deem and Ramdas Pophale) SiO2 
 PCOD8214509
Probable space group: P M M A
;
_chemical_formula_sum "Si O2"
_cell_formula_units_Z 48
_cell_length_a 10.386619
_cell_length_b 8.631180
_cell_length_c 28.068828
_cell_angle_alpha 90.000000
_cell_angle_beta 90.000000
_cell_angle_gamma 90.000000
_cell_volume 2516.336135
_symmetry_space_group_name_H-M "P M M A"
_symmetry_group_IT_number 51
_symmetry_cell_setting 'orthorhombic'
loop_
_space_group_symop_operation_xyz
x,y,z
1/2-x,-y,z
1/2+x,-y,-z
-x,y,-z
-x,-y,-z
1/2+x,y,-z
1/2-x,y,z
x,-y,z
loop_
_atom_site_type_symbol
_atom_site_label
_atom_site_fract_x
_atom_site_fract_y
_atom_site_fract_z
Si Si1 0.497910 0.181563 0.234394
Si Si2 0.750000 0.316141 0.714738
Si Si3 0.606804 0.315474 0.964146
Si Si4 0.750000 0.315469 0.390407
Si Si5 0.250000 0.684304 0.393277
Si Si6 0.498658 0.684871 0.553837
Si Si7 0.750000 0.316237 0.281987
Si Si8 0.899722 0.678968 0.856913
O O1 0.376609 0.253276 0.260688
O O2 0.625659 0.256219 0.254959
O O3 0.487108 0.219269 0.178242
O O4 0.502245 0.000000 0.242588
O O5 0.750000 0.500000 0.718435
O O6 0.750000 0.256530 0.660654
O O7 0.750000 0.255269 0.978315
O O8 0.606803 0.500000 0.966141
O O9 0.572720 0.262438 0.910561
O O10 0.500000 0.245416 0.000000
O O11 0.750000 0.500000 0.390652
O O12 0.874769 0.251034 0.418018
O O13 0.750000 0.253651 0.336274
O O14 0.250000 0.500000 0.394888
O O15 0.375532 0.750092 0.419722
O O16 0.500000 0.748661 0.500000
O O17 0.497657 0.500000 0.553690
O O18 0.750000 0.500000 0.281492
O O19 0.750000 0.701889 0.844111
O O20 0.938660 0.500000 0.851089
#
# Coordination Sequence:
#
# PCOD8214509 Si02
#       8
#     8   4   8   4   4   8   4   8
#     4  12  24  38  56  82 113 145 186 236 287 334
#     4  11  21  36  59  82 109 145 188 232 273 329
#     4   8  14  26  46  74 107 140 178 226 271 314
#     4   9  17  29  46  69  98 137 177 210 259 326
#     4   9  17  27  42  69 100 133 173 216 261 312
#     4   9  15  24  40  66 103 138 164 202 264 327
#     4  11  23  40  59  78 109 151 190 230 279 337
#     4   9  17  32  55  80 109 148 190 227 272 331
#
# _framework density 19.075353
#
# number of rings (size 3 to 8) (size 9 to 14) (size 15 to 20)
#    0.000    2.333    0.833    4.500    0.000    4.667 
#    1.500    0.000    0.000    0.500    0.000    0.000 
#    0.000   46.667    0.000    0.000    0.000    0.000 
#
# Total GULP energy -595171.402511 kJ/mol
# GULP energy per Si atom -12399.404219 kJ/mol
# Density = 1.903194 g / cm^3
# Si number density = 19.075353 Si / 1000 Ang^3
#
#
#
# Elastic Constant Matrix: (Units=GPa)
#
#
# Indices 1 2 3 4 5 6 
#
# 1 178.8947 27.1204 102.5181 0.0000 0.0000 0.0000
# 2 27.1204 49.6537 28.1003 0.0000 0.0000 0.0000
# 3 102.5181 28.1003 171.9306 0.0000 0.0000 0.0000
# 4 0.0000 0.0000 0.0000 -1.7891 0.0000 0.0000
# 5 0.0000 0.0000 0.0000 0.0000 48.1049 0.0000
# 6 0.0000 0.0000 0.0000 0.0000 0.0000 12.7036
#
#
#
# Elastic Compliance Matrix: (Units=1/GPa)
#
#
# Indices 1 2 3 4 5 6 
#
# 1 0.008667 -0.001994 -0.004842 0.000000 0.000000 0.000000
# 2 -0.001994 0.022651 -0.002513 0.000000 0.000000 0.000000
# 3 -0.004842 -0.002513 0.009114 0.000000 0.000000 0.000000
# 4 0.000000 0.000000 0.000000 -0.558955 0.000000 0.000000
# 5 0.000000 0.000000 0.000000 0.000000 0.020788 0.000000
# 6 0.000000 0.000000 0.000000 0.000000 0.000000 0.078718
#
#
# Mechanical properties :
#
#
# Convention : Reuss Voigt Hill
#
# Bulk Modulus (GPa) = 46.01077 79.55074 62.78076
# Shear Modulus (GPa) = -12.72023 27.98657 7.63317
#
# Velocity S-wave (km/s) = -2.58513 3.83451 2.00257
# Velocity P-wave (km/s) = 3.90671 7.83572 6.19116
#
# Compressibility (1/GPa) = 0.02173404
#
# Stress axis : x y z
#
# Youngs Moduli (GPa) = 115.38149 44.14876 109.71799
#
# Poissons Ratio (x) = 0.08801 0.53126
# Poissons Ratio (y) = 0.23002 0.27576
# Poissons Ratio (z) = 0.55868 0.11096
#
# Static dielectric constant tensor:
#      x y z
#    x 3.500990 0.000000 0.000000 
#    y 0.000000 2.972410 0.000000 
#    z 0.000000 0.000000 3.822010 
# 
# 
# High freq. dielectric constant tensor:
#      x y z
#    x 1.747160 0.000000 0.000000 
#    y 0.000000 1.687200 0.000000 
#    z 0.000000 0.000000 1.759010 
# 
# From -- ./inp_files/37241.got.cif
#   From: 2010.03.12/outbox.cif.g09.slc.cpg/sg51_19_cif.got.tgz:37241.got - 2010.04.16 13:43:02.
