data_PCOD8214550
_publ_section_title
;
Structure prediction by ZEFSAII (Michael W. Deem and Ramdas Pophale) SiO2 
 PCOD8214550
Probable space group: P M M A
;
_chemical_formula_sum "Si O2"
_cell_formula_units_Z 48
_cell_length_a 8.936833
_cell_length_b 13.708223
_cell_length_c 24.091778
_cell_angle_alpha 90.000000
_cell_angle_beta 90.000000
_cell_angle_gamma 90.000000
_cell_volume 2951.437941
_symmetry_space_group_name_H-M "P M M A"
_symmetry_group_IT_number 51
_symmetry_cell_setting 'orthorhombic'
loop_
_space_group_symop_operation_xyz
x,y,z
1/2-x,-y,z
1/2+x,-y,-z
-x,y,-z
-x,-y,-z
1/2+x,y,-z
1/2-x,y,z
x,-y,z
loop_
_atom_site_type_symbol
_atom_site_label
_atom_site_fract_x
_atom_site_fract_y
_atom_site_fract_z
Si Si1 0.081548 0.116191 0.554410
Si Si2 0.924782 0.794009 0.776308
Si Si3 0.925609 0.886805 0.665411
Si Si4 0.927399 0.288442 0.056825
Si Si5 0.576210 0.389741 0.842067
Si Si6 0.926387 0.888720 0.888829
O O1 0.250000 0.155243 0.553951
O O2 0.000000 0.158901 0.500000
O O3 0.002067 0.154900 0.609983
O O4 0.074871 0.000000 0.553300
O O5 0.750000 0.810989 0.769709
O O6 0.995655 0.827379 0.717753
O O7 0.964103 0.681270 0.790415
O O8 0.981441 0.862358 0.826654
O O9 0.750000 0.870359 0.658196
O O10 0.963694 0.000000 0.675028
O O11 0.750000 0.288456 0.051801
O O12 0.977346 0.362362 0.104954
O O13 0.985493 0.178793 0.068007
O O14 0.000000 0.326895 0.000000
O O15 0.750000 0.375680 0.858409
O O16 0.540847 0.500000 0.823537
O O17 0.750000 0.868155 0.895001
O O18 0.967261 0.000000 0.902023
#
# Coordination Sequence:
#
# PCOD8214550 Si02
#       6
#     8   8   8   8   8   8
#     4   9  16  25  36  52  78 113 151 186 216 246
#     4   8  14  26  45  68  90 113 144 178 213 257
#     4   9  15  23  38  60  86 117 149 177 206 245
#     4  11  22  35  50  68  91 116 145 181 219 264
#     4   9  18  34  54  72  90 113 142 179 223 268
#     4   9  17  31  50  69  91 120 151 182 216 255
#
# _framework density 16.263258
#
# number of rings (size 3 to 8) (size 9 to 14) (size 15 to 20)
#    0.000    2.833    0.000    3.500    0.000    5.333 
#    0.000    3.333    0.000    4.000    0.000    0.000 
#    0.000    0.667    0.000    1.167    0.000    1.667 
#
# Total GULP energy -595049.755359 kJ/mol
# GULP energy per Si atom -12396.869903 kJ/mol
# Density = 1.622624 g / cm^3
# Si number density = 16.263258 Si / 1000 Ang^3
#
#
#
# Elastic Constant Matrix: (Units=GPa)
#
#
# Indices 1 2 3 4 5 6 
#
# 1 73.8417 27.3955 45.4193 0.0000 0.0000 0.0000
# 2 27.3955 76.0652 29.7466 0.0000 0.0000 0.0000
# 3 45.4193 29.7466 123.5815 0.0000 0.0000 0.0000
# 4 0.0000 0.0000 0.0000 14.3493 0.0000 0.0000
# 5 0.0000 0.0000 0.0000 0.0000 24.0495 0.0000
# 6 0.0000 0.0000 0.0000 0.0000 0.0000 14.7278
#
#
#
# Elastic Compliance Matrix: (Units=1/GPa)
#
#
# Indices 1 2 3 4 5 6 
#
# 1 0.018791 -0.004490 -0.005826 0.000000 0.000000 0.000000
# 2 -0.004490 0.015585 -0.002101 0.000000 0.000000 0.000000
# 3 -0.005826 -0.002101 0.010739 0.000000 0.000000 0.000000
# 4 0.000000 0.000000 0.000000 0.069690 0.000000 0.000000
# 5 0.000000 0.000000 0.000000 0.000000 0.041581 0.000000
# 6 0.000000 0.000000 0.000000 0.000000 0.000000 0.067899
#
#
# Mechanical properties :
#
#
# Convention : Reuss Voigt Hill
#
# Bulk Modulus (GPa) = 49.30453 53.17902 51.24178
# Shear Modulus (GPa) = 19.54046 22.02045 20.78046
#
# Velocity S-wave (km/s) = 3.47004 3.68367 3.57845
# Velocity P-wave (km/s) = 6.81449 7.13179 6.97494
#
# Compressibility (1/GPa) = 0.02028211
#
# Stress axis : x y z
#
# Youngs Moduli (GPa) = 53.21558 64.16263 93.12096
#
# Poissons Ratio (x) = 0.28807 0.54249
# Poissons Ratio (y) = 0.23892 0.19568
# Poissons Ratio (z) = 0.31002 0.13483
#
# Static dielectric constant tensor:
#      x y z
#    x 2.925640 0.000000 0.000000 
#    y 0.000000 2.904540 0.000000 
#    z 0.000000 0.000000 3.244970 
# 
# 
# High freq. dielectric constant tensor:
#      x y z
#    x 1.611190 0.000000 0.000000 
#    y 0.000000 1.590680 0.000000 
#    z 0.000000 0.000000 1.625630 
# 
# From -- ./inp_files/31596.got.cif
#   From: 2010.03.12/outbox.cif.g09.slc.cpg/sg51_16_cif.got.tgz:31596.got - 2010.04.16 13:43:02.
