data_PCOD8214732
_publ_section_title
;
Structure prediction by ZEFSAII (Michael W. Deem and Ramdas Pophale) SiO2 
 PCOD8214732
Probable space group: P M M A
;
_chemical_formula_sum "Si O2"
_cell_formula_units_Z 40
_cell_length_a 9.476849
_cell_length_b 10.026110
_cell_length_c 25.983876
_cell_angle_alpha 90.000000
_cell_angle_beta 90.000000
_cell_angle_gamma 90.000000
_cell_volume 2468.882157
_symmetry_space_group_name_H-M "P M M A"
_symmetry_group_IT_number 51
_symmetry_cell_setting 'orthorhombic'
loop_
_space_group_symop_operation_xyz
x,y,z
1/2-x,-y,z
1/2+x,-y,-z
-x,y,-z
-x,-y,-z
1/2+x,y,-z
1/2-x,y,z
x,-y,z
loop_
_atom_site_type_symbol
_atom_site_label
_atom_site_fract_x
_atom_site_fract_y
_atom_site_fract_z
Si Si1 0.590264 0.340956 0.048308
Si Si2 0.407392 0.658537 0.142454
Si Si3 0.417994 0.648733 0.256350
Si Si4 0.918609 0.851007 0.659008
Si Si5 0.093844 0.158564 0.454242
O O1 0.750000 0.285296 0.045150
O O2 0.592578 0.500000 0.048456
O O3 0.516208 0.285447 0.100108
O O4 0.500000 0.287914 0.000000
O O5 0.250000 0.716184 0.131782
O O6 0.399344 0.500000 0.139429
O O7 0.461745 0.699813 0.199364
O O8 0.250000 0.644828 0.259498
O O9 0.478091 0.500000 0.266838
O O10 0.481510 0.749628 0.298688
O O11 0.750000 0.851756 0.659731
O O12 0.969056 0.804359 0.602070
O O13 0.974712 0.000000 0.671386
O O14 0.250000 0.219373 0.460557
O O15 0.000000 0.220531 0.500000
O O16 0.100804 0.000000 0.458750
#
# Coordination Sequence:
#
# PCOD8214732 Si02
#       5
#     8   8   8   8   8
#     4   9  15  21  30  45  66  92 120 149 181 216
#     4   8  13  21  32  46  65  89 117 147 177 212
#     4   8  13  21  34  51  70  94 123 151 179 215
#     4   8  13  21  34  53  74  93 117 152 187 215
#     4   8  13  21  34  52  72  93 118 149 184 220
#
# _framework density 16.201663
#
# number of rings (size 3 to 8) (size 9 to 14) (size 15 to 20)
#    0.000    3.800    0.000    3.000    0.000    2.400 
#    0.000    0.000    0.000    1.800    0.000    0.000 
#    0.000    0.800    0.000    1.400    0.000    2.000 
#
# Total GULP energy -495589.850823 kJ/mol
# GULP energy per Si atom -12389.746271 kJ/mol
# Density = 1.616479 g / cm^3
# Si number density = 16.201663 Si / 1000 Ang^3
#
#
#
# Elastic Constant Matrix: (Units=GPa)
#
#
# Indices 1 2 3 4 5 6 
#
# 1 66.2463 16.6240 60.2509 0.0000 0.0000 0.0000
# 2 16.6240 33.9828 46.8035 0.0000 0.0000 0.0000
# 3 60.2509 46.8035 178.2330 0.0000 0.0000 0.0000
# 4 0.0000 0.0000 0.0000 10.7962 0.0000 0.0000
# 5 0.0000 0.0000 0.0000 0.0000 24.3388 0.0000
# 6 0.0000 0.0000 0.0000 0.0000 0.0000 4.3231
#
#
#
# Elastic Compliance Matrix: (Units=1/GPa)
#
#
# Indices 1 2 3 4 5 6 
#
# 1 0.021811 -0.000807 -0.007161 0.000000 0.000000 0.000000
# 2 -0.000807 0.046129 -0.011841 0.000000 0.000000 0.000000
# 3 -0.007161 -0.011841 0.011141 0.000000 0.000000 0.000000
# 4 0.000000 0.000000 0.000000 0.092625 0.000000 0.000000
# 5 0.000000 0.000000 0.000000 0.000000 0.041087 0.000000
# 6 0.000000 0.000000 0.000000 0.000000 0.000000 0.231316
#
#
# Mechanical properties :
#
#
# Convention : Reuss Voigt Hill
#
# Bulk Modulus (GPa) = 25.33984 58.42431 41.88207
# Shear Modulus (GPa) = 10.06280 18.21055 14.13667
#
# Velocity S-wave (km/s) = 2.49489 3.35624 2.95709
# Velocity P-wave (km/s) = 4.89627 7.15249 6.12909
#
# Compressibility (1/GPa) = 0.03946356
#
# Stress axis : x y z
#
# Youngs Moduli (GPa) = 45.84905 21.67829 89.76031
#
# Poissons Ratio (x) = 0.01749 0.64279
# Poissons Ratio (y) = 0.03698 1.06282
# Poissons Ratio (z) = 0.32833 0.25669
#
# Static dielectric constant tensor:
#      x y z
#    x 2.925260 0.000000 0.000000 
#    y 0.000000 2.646580 0.000000 
#    z 0.000000 0.000000 3.524650 
# 
# 
# High freq. dielectric constant tensor:
#      x y z
#    x 1.583190 0.000000 0.000000 
#    y 0.000000 1.550260 0.000000 
#    z 0.000000 0.000000 1.643380 
# 
# From -- ./inp_files/35989.got.cif
#   From: 2010.03.12/outbox.cif.g09.slc.cpg/sg51_18_cif.got.tgz:35989.got - 2010.04.16 13:43:02.
