data_PCOD8214214
_publ_section_title
;
Structure prediction by ZEFSAII (Michael W. Deem and Ramdas Pophale) SiO2 
 PCOD8214214
Probable space group: P M M A
;
_chemical_formula_sum "Si O2"
_cell_formula_units_Z 44
_cell_length_a 9.447180
_cell_length_b 7.811416
_cell_length_c 30.399208
_cell_angle_alpha 90.000000
_cell_angle_beta 90.000000
_cell_angle_gamma 90.000000
_cell_volume 2243.335485
_symmetry_space_group_name_H-M "P M M A"
_symmetry_group_IT_number 51
_symmetry_cell_setting 'orthorhombic'
loop_
_space_group_symop_operation_xyz
x,y,z
1/2-x,-y,z
1/2+x,-y,-z
-x,y,-z
-x,-y,-z
1/2+x,y,-z
1/2-x,y,z
x,-y,z
loop_
_atom_site_type_symbol
_atom_site_label
_atom_site_fract_x
_atom_site_fract_y
_atom_site_fract_z
Si Si1 0.590586 0.795887 0.541406
Si Si2 0.406734 0.195498 0.620403
Si Si3 0.415732 0.000000 0.044789
Si Si4 0.418262 0.689664 0.713124
Si Si5 0.415316 0.303880 0.109112
Si Si6 0.092281 0.703685 0.807636
O O1 0.500000 0.729791 0.500000
O O2 0.750000 0.721562 0.538747
O O3 0.515080 0.721398 0.585472
O O4 0.597019 0.000000 0.542109
O O5 0.250000 0.283205 0.617616
O O6 0.468720 0.206323 0.670129
O O7 0.389241 0.000000 0.607088
O O8 0.458811 0.173342 0.070574
O O9 0.250000 0.000000 0.034341
O O10 0.500000 0.000000 0.000000
O O11 0.250000 0.684588 0.715547
O O12 0.481388 0.500000 0.707552
O O13 0.467276 0.771513 0.760136
O O14 0.250000 0.293771 0.118710
O O15 0.459894 0.500000 0.096697
O O16 0.491015 0.236795 0.153172
O O17 0.250000 0.775322 0.817185
O O18 0.097140 0.500000 0.804456
#
# Coordination Sequence:
#
# PCOD8214214 Si02
#       6
#     8   8   4   8   8   8
#     4   9  16  26  41  60  82 109 142 181 226 273
#     4   9  16  26  41  62  87 112 142 181 223 268
#     4  10  22  38  54  76 106 134 168 210 251 298
#     4   8  14  26  44  65  91 122 152 184 225 270
#     4   9  18  34  54  74 100 134 167 203 250 298
#     4   8  14  27  48  72  96 124 162 202 234 274
#
# _framework density 19.613651000000001
#
# number of rings (size 3 to 8) (size 9 to 14) (size 15 to 20)
#    0.000    3.273    0.000    1.636    0.000    3.273 
#    1.636    0.909    0.000    2.182    0.000    0.000 
#    0.000    0.000    0.000    0.000    0.000    0.000 
#
# Total GULP energy -545133.063639 kJ/mol
# GULP energy per Si atom -12389.387810 kJ/mol
# Density = 1.956901 g / cm^3
# Si number density = 19.613651 Si / 1000 Ang^3
#
#
#
# Elastic Constant Matrix: (Units=GPa)
#
#
# Indices 1 2 3 4 5 6 
#
# 1 87.7012 21.9184 84.7891 0.0000 0.0000 0.0000
# 2 21.9184 45.7278 38.9689 0.0000 0.0000 0.0000
# 3 84.7891 38.9689 207.4474 0.0000 0.0000 0.0000
# 4 0.0000 0.0000 0.0000 81.3193 0.0000 0.0000
# 5 0.0000 0.0000 0.0000 0.0000 36.3012 0.0000
# 6 0.0000 0.0000 0.0000 0.0000 0.0000 8.9670
#
#
#
# Elastic Compliance Matrix: (Units=1/GPa)
#
#
# Indices 1 2 3 4 5 6 
#
# 1 0.019190 -0.002993 -0.007281 0.000000 0.000000 0.000000
# 2 -0.002993 0.026503 -0.003755 0.000000 0.000000 0.000000
# 3 -0.007281 -0.003755 0.008502 0.000000 0.000000 0.000000
# 4 0.000000 0.000000 0.000000 0.012297 0.000000 0.000000
# 5 0.000000 0.000000 0.000000 0.000000 0.027547 0.000000
# 6 0.000000 0.000000 0.000000 0.000000 0.000000 0.111520
#
#
# Mechanical properties :
#
#
# Convention : Reuss Voigt Hill
#
# Bulk Modulus (GPa) = 38.26141 70.24769 54.25455
# Shear Modulus (GPa) = 20.63293 38.33082 29.48188
#
# Velocity S-wave (km/s) = 3.24692 4.42553 3.88123
# Velocity P-wave (km/s) = 5.79712 7.87447 6.91426
#
# Compressibility (1/GPa) = 0.02613600
#
# Stress axis : x y z
#
# Youngs Moduli (GPa) = 52.11128 37.73093 117.62108
#
# Poissons Ratio (x) = 0.11294 0.85641
# Poissons Ratio (y) = 0.15598 0.44170
# Poissons Ratio (z) = 0.37943 0.14169
#
# Static dielectric constant tensor:
#      x y z
#    x 3.514670 0.000000 0.000000 
#    y 0.000000 3.315180 0.000000 
#    z 0.000000 0.000000 3.849420 
# 
# 
# High freq. dielectric constant tensor:
#      x y z
#    x 1.733010 0.000000 0.000000 
#    y 0.000000 1.731660 0.000000 
#    z 0.000000 0.000000 1.774930 
# 
# From -- ./inp_files/36720.got.cif
#   From: 2010.03.12/outbox.cif.g09.slc.cpg/sg51_19_cif.got.tgz:36720.got - 2010.04.16 13:43:02.
