data_PCOD8214990
_publ_section_title
;
Structure prediction by ZEFSAII (Michael W. Deem and Ramdas Pophale) SiO2 
 PCOD8214990
Probable space group: P N N A
;
_chemical_formula_sum "Si O2"
_cell_formula_units_Z 40
_cell_length_a 5.282275
_cell_length_b 21.047199
_cell_length_c 19.517534
_cell_angle_alpha 90.000000
_cell_angle_beta 90.000000
_cell_angle_gamma 90.000000
_cell_volume 2169.902695
_symmetry_space_group_name_H-M "P N N A"
_symmetry_group_IT_number 52
_symmetry_cell_setting 'orthorhombic'
loop_
_space_group_symop_operation_xyz
x,y,z
1/2-x,-y,z
x,1/2-y,1/2-z
1/2-x,1/2+y,1/2-z
-x,-y,-z
1/2+x,y,-z
-x,1/2+y,1/2+z
1/2+x,1/2-y,1/2+z
loop_
_atom_site_type_symbol
_atom_site_label
_atom_site_fract_x
_atom_site_fract_y
_atom_site_fract_z
Si Si1 0.236440 0.198589 0.461983
Si Si2 0.756394 0.224341 0.827536
Si Si3 0.256273 0.183178 0.790217
Si Si4 0.272633 0.428998 0.815550
Si Si5 0.772897 0.429329 0.901966
O O1 0.483563 0.224635 0.501499
O O2 0.241411 0.219334 0.382643
O O3 0.236650 0.121745 0.462435
O O4 0.770953 0.250000 0.750000
O O5 0.511763 0.178741 0.835639
O O6 0.011945 0.183771 0.840120
O O7 0.272056 0.250000 0.750000
O O8 0.232416 0.122516 0.742603
O O9 0.250000 0.500000 0.784348
O O10 0.551672 0.419199 0.846264
O O11 0.051729 0.418485 0.870915
O O12 0.750000 0.500000 0.933918
#
# Coordination Sequence:
#
# PCOD8214990 Si02
#       5
#     8   8   8   8   8
#     4  12  24  37  53  77 110 142 182 229 267 309
#     4  10  20  34  54  75  99 134 176 217 267 319
#     4  10  17  29  51  74 101 134 173 213 265 317
#     4  10  19  32  52  80 110 139 180 228 264 304
#     4  10  20  34  50  70 104 151 190 215 249 301
#
# _framework density 18.434007999999999
#
# number of rings (size 3 to 8) (size 9 to 14) (size 15 to 20)
#    0.000    1.600    0.000    8.400    0.000    0.800 
#    0.000    0.000    0.000    0.000    0.000    0.000 
#    0.000   16.000    0.000    0.000    0.000    0.000 
#
# Total GULP energy -495782.430522 kJ/mol
# GULP energy per Si atom -12394.560763 kJ/mol
# Density = 1.839205 g / cm^3
# Si number density = 18.434008 Si / 1000 Ang^3
#
#
#
# Elastic Constant Matrix: (Units=GPa)
#
#
# Indices 1 2 3 4 5 6 
#
# 1 145.8401 13.6237 19.8433 0.0000 0.0000 0.0000
# 2 13.6237 57.8147 23.2669 0.0000 0.0000 0.0000
# 3 19.8433 23.2669 69.3218 0.0000 0.0000 0.0000
# 4 0.0000 0.0000 0.0000 27.7210 0.0000 0.0000
# 5 0.0000 0.0000 0.0000 0.0000 20.1444 0.0000
# 6 0.0000 0.0000 0.0000 0.0000 0.0000 21.1243
#
#
#
# Elastic Compliance Matrix: (Units=1/GPa)
#
#
# Indices 1 2 3 4 5 6 
#
# 1 0.007184 -0.001000 -0.001721 0.000000 0.000000 0.000000
# 2 -0.001000 0.020137 -0.006472 0.000000 0.000000 0.000000
# 3 -0.001721 -0.006472 0.017090 0.000000 0.000000 0.000000
# 4 0.000000 0.000000 0.000000 0.036074 0.000000 0.000000
# 5 0.000000 0.000000 0.000000 0.000000 0.049642 0.000000
# 6 0.000000 0.000000 0.000000 0.000000 0.000000 0.047339
#
#
# Mechanical properties :
#
#
# Convention : Reuss Voigt Hill
#
# Bulk Modulus (GPa) = 38.42490 42.93826 40.68158
# Shear Modulus (GPa) = 24.44651 28.21412 26.33032
#
# Velocity S-wave (km/s) = 3.64560 3.91647 3.78346
# Velocity P-wave (km/s) = 6.21373 6.61779 6.41894
#
# Compressibility (1/GPa) = 0.02602479
#
# Stress axis : x y z
#
# Youngs Moduli (GPa) = 139.19031 49.65959 58.51248
#
# Poissons Ratio (x) = 0.04968 0.10068
# Poissons Ratio (y) = 0.13926 0.37871
# Poissons Ratio (z) = 0.23951 0.32141
#
# Static dielectric constant tensor:
#      x y z
#    x 5.195390 0.000000 0.000000 
#    y 0.000000 3.298220 0.000000 
#    z 0.000000 0.000000 2.945420 
# 
# 
# High freq. dielectric constant tensor:
#      x y z
#    x 1.762690 0.000000 0.000000 
#    y 0.000000 1.686780 0.000000 
#    z 0.000000 0.000000 1.664790 
# 
# From -- ./inp_files/23611.got.cif
#   From: 2010.06.25/outbox.cif.g09.slc.cpg/sg52_12_cif.got.tgz:23611.got - 2010.06.26 19:32:48.
