data_PCOD8214259
_publ_section_title
;
Structure prediction by ZEFSAII (Michael W. Deem and Ramdas Pophale) SiO2 
 PCOD8214259
Probable space group: P M M A
;
_chemical_formula_sum "Si O2"
_cell_formula_units_Z 48
_cell_length_a 9.899148
_cell_length_b 29.744065
_cell_length_c 8.721976
_cell_angle_alpha 90.000000
_cell_angle_beta 90.000000
_cell_angle_gamma 90.000000
_cell_volume 2568.106477
_symmetry_space_group_name_H-M "P M M A"
_symmetry_group_IT_number 51
_symmetry_cell_setting 'orthorhombic'
loop_
_space_group_symop_operation_xyz
x,y,z
1/2-x,-y,z
1/2+x,-y,-z
-x,y,-z
-x,-y,-z
1/2+x,y,-z
1/2-x,y,z
x,-y,z
loop_
_atom_site_type_symbol
_atom_site_label
_atom_site_fract_x
_atom_site_fract_y
_atom_site_fract_z
Si Si1 0.596056 0.773107 0.358246
Si Si2 0.597169 0.047524 0.142480
Si Si3 0.906744 0.312721 0.147380
Si Si4 0.493481 0.599324 0.680402
Si Si5 0.407105 0.145216 0.850356
Si Si6 0.250000 0.554164 0.172517
Si Si7 0.750000 0.447879 0.174229
O O1 0.500000 0.762908 0.500000
O O2 0.750000 0.776665 0.417607
O O3 0.581400 0.733679 0.236341
O O4 0.548741 0.819183 0.277617
O O5 0.750000 0.048451 0.079745
O O6 0.571090 0.095314 0.227228
O O7 0.575414 0.000000 0.237984
O O8 0.500000 0.045824 0.000000
O O9 0.750000 0.323049 0.104709
O O10 0.967455 0.351725 0.251831
O O11 0.000000 0.308554 0.000000
O O12 0.500000 0.604863 0.500000
O O13 0.625097 0.575894 0.743406
O O14 0.377189 0.565646 0.727415
O O15 0.250000 0.153023 0.897073
O O16 0.500000 0.151256 0.000000
O O17 0.250000 0.500000 0.186420
O O18 0.250000 0.572317 0.997577
O O19 0.750000 0.500000 0.149845
#
# Coordination Sequence:
#
# PCOD8214259 Si02
#       7
#     8   8   8   8   8   4   4
#     4  10  22  39  57  81 113 146 187 232 281 336
#     4   8  13  22  39  66  99 135 175 223 278 331
#     4  11  24  42  64  89 116 148 188 232 282 345
#     4  12  25  41  63  92 125 156 193 241 291 342
#     4   9  17  30  50  76 107 141 183 232 281 339
#     4  11  25  43  67  93 121 163 203 239 286 337
#     4  11  23  43  65  89 123 159 201 243 282 339
#
# _framework density 18.690814
#
# number of rings (size 3 to 8) (size 9 to 14) (size 15 to 20)
#    0.000    1.833    0.833    3.500    1.167    4.667 
#    0.000    0.000    0.000    0.500    0.000    0.000 
#    0.000    0.000    0.000    0.000    0.000    0.000 
#
# Total GULP energy -594770.965275 kJ/mol
# GULP energy per Si atom -12391.061777 kJ/mol
# Density = 1.864827 g / cm^3
# Si number density = 18.690814 Si / 1000 Ang^3
#
#
#
# Elastic Constant Matrix: (Units=GPa)
#
#
# Indices 1 2 3 4 5 6 
#
# 1 121.5690 49.4444 60.3027 0.0000 0.0000 0.0000
# 2 49.4444 128.0397 48.6670 0.0000 0.0000 0.0000
# 3 60.3027 48.6670 105.8521 0.0000 0.0000 0.0000
# 4 0.0000 0.0000 0.0000 11.2016 0.0000 0.0000
# 5 0.0000 0.0000 0.0000 0.0000 33.3356 0.0000
# 6 0.0000 0.0000 0.0000 0.0000 0.0000 26.0999
#
#
#
# Elastic Compliance Matrix: (Units=1/GPa)
#
#
# Indices 1 2 3 4 5 6 
#
# 1 0.012084 -0.002484 -0.005742 0.000000 0.000000 0.000000
# 2 -0.002484 0.009975 -0.003171 0.000000 0.000000 0.000000
# 3 -0.005742 -0.003171 0.014176 0.000000 0.000000 0.000000
# 4 0.000000 0.000000 0.000000 0.089273 0.000000 0.000000
# 5 0.000000 0.000000 0.000000 0.000000 0.029998 0.000000
# 6 0.000000 0.000000 0.000000 0.000000 0.000000 0.038314
#
#
# Mechanical properties :
#
#
# Convention : Reuss Voigt Hill
#
# Bulk Modulus (GPa) = 74.39915 74.69879 74.54897
# Shear Modulus (GPa) = 22.61470 27.26387 24.93928
#
# Velocity S-wave (km/s) = 3.48219 3.82341 3.65678
# Velocity P-wave (km/s) = 7.48726 7.71644 7.60272
#
# Compressibility (1/GPa) = 0.01344101
#
# Stress axis : x y z
#
# Youngs Moduli (GPa) = 82.75076 100.25555 70.54013
#
# Poissons Ratio (x) = 0.24903 0.40507
# Poissons Ratio (y) = 0.20555 0.22367
# Poissons Ratio (z) = 0.47518 0.31789
#
# Static dielectric constant tensor:
#      x y z
#    x 3.573360 0.000000 0.000000 
#    y 0.000000 4.088400 0.000000 
#    z 0.000000 0.000000 3.185550 
# 
# 
# High freq. dielectric constant tensor:
#      x y z
#    x 1.740850 0.000000 0.000000 
#    y 0.000000 1.759190 0.000000 
#    z 0.000000 0.000000 1.691840 
# 
# From -- ./inp_files/6247.got.cif
#   From: 2010.03.12/outbox.cif.g09.slc.cpg/sg51_4_cif.got.tgz:6247.got - 2010.04.16 13:43:02.
