data_PCOD8214456
_publ_section_title
;
Structure prediction by ZEFSAII (Michael W. Deem and Ramdas Pophale) SiO2 
 PCOD8214456
Probable space group: P M M A
;
_chemical_formula_sum "Si O2"
_cell_formula_units_Z 48
_cell_length_a 13.955719
_cell_length_b 9.221371
_cell_length_c 20.868751
_cell_angle_alpha 90.000000
_cell_angle_beta 90.000000
_cell_angle_gamma 90.000000
_cell_volume 2685.617565
_symmetry_space_group_name_H-M "P M M A"
_symmetry_group_IT_number 51
_symmetry_cell_setting 'orthorhombic'
loop_
_space_group_symop_operation_xyz
x,y,z
1/2-x,-y,z
1/2+x,-y,-z
-x,y,-z
-x,-y,-z
1/2+x,y,-z
1/2-x,y,z
x,-y,z
loop_
_atom_site_type_symbol
_atom_site_label
_atom_site_fract_x
_atom_site_fract_y
_atom_site_fract_z
Si Si1 0.955744 0.327515 0.403510
Si Si2 0.032195 0.328607 0.850287
Si Si3 0.858359 0.672754 0.275639
Si Si4 0.141698 0.168087 0.104691
Si Si5 0.855952 0.327460 0.531684
Si Si6 0.637009 0.162561 0.041575
O O1 0.953530 0.500000 0.401283
O O2 0.915724 0.263707 0.336879
O O3 0.888157 0.272618 0.461366
O O4 0.065579 0.274625 0.415846
O O5 0.022517 0.500000 0.850525
O O6 0.089157 0.271867 0.788215
O O7 0.088044 0.280088 0.913544
O O8 0.926250 0.259999 0.848630
O O9 0.750000 0.733418 0.276203
O O10 0.856835 0.500000 0.277646
O O11 0.250000 0.224388 0.113819
O O12 0.135002 0.000000 0.123016
O O13 0.106739 0.192383 0.031673
O O14 0.750000 0.264646 0.547896
O O15 0.852755 0.500000 0.531185
O O16 0.750000 0.177781 0.048280
O O17 0.604376 0.000000 0.061500
#
# Coordination Sequence:
#
# PCOD8214456 Si02
#       6
#     8   8   8   8   8   8
#     4   8  13  21  33  49  71 105 147 183 218 262
#     4  11  21  30  44  69  97 122 150 186 228 274
#     4   9  17  28  39  53  81 120 152 176 213 271
#     4   9  19  36  54  68  85 115 154 192 231 276
#     4   8  12  18  31  51  71  94 136 192 231 252
#     4   9  18  33  52  71  90 116 152 191 230 273
#
# _framework density 17.872985
#
# number of rings (size 3 to 8) (size 9 to 14) (size 15 to 20)
#    0.000    3.000    0.000    4.000    0.000    6.000 
#    0.000    2.500    0.000    3.000    0.000    0.000 
#    0.000    0.000    0.000   12.000    0.000   66.667 
#
# Total GULP energy -594982.594518 kJ/mol
# GULP energy per Si atom -12395.470719 kJ/mol
# Density = 1.783231 g / cm^3
# Si number density = 17.872985 Si / 1000 Ang^3
#
#
#
# Elastic Constant Matrix: (Units=GPa)
#
#
# Indices 1 2 3 4 5 6 
#
# 1 142.6588 26.2198 84.2137 0.0000 0.0000 0.0000
# 2 26.2198 28.9782 27.9966 0.0000 0.0000 0.0000
# 3 84.2137 27.9966 98.7017 0.0000 0.0000 0.0000
# 4 0.0000 0.0000 0.0000 0.4882 0.0000 0.0000
# 5 0.0000 0.0000 0.0000 0.0000 31.2107 0.0000
# 6 0.0000 0.0000 0.0000 0.0000 0.0000 22.1918
#
#
#
# Elastic Compliance Matrix: (Units=1/GPa)
#
#
# Indices 1 2 3 4 5 6 
#
# 1 0.014175 -0.001572 -0.011648 0.000000 0.000000 0.000000
# 2 -0.001572 0.047709 -0.012192 0.000000 0.000000 0.000000
# 3 -0.011648 -0.012192 0.023528 0.000000 0.000000 0.000000
# 4 0.000000 0.000000 0.000000 2.048266 0.000000 0.000000
# 5 0.000000 0.000000 0.000000 0.000000 0.032040 0.000000
# 6 0.000000 0.000000 0.000000 0.000000 0.000000 0.045062
#
#
# Mechanical properties :
#
#
# Convention : Reuss Voigt Hill
#
# Bulk Modulus (GPa) = 28.91095 60.79986 44.85540
# Shear Modulus (GPa) = 2.19961 19.57206 10.88583
#
# Velocity S-wave (km/s) = 1.11057 3.31276 2.47060
# Velocity P-wave (km/s) = 4.22556 6.98027 5.76973
#
# Compressibility (1/GPa) = 0.03458897
#
# Stress axis : x y z
#
# Youngs Moduli (GPa) = 70.54779 20.96020 42.50225
#
# Poissons Ratio (x) = 0.03295 0.49508
# Poissons Ratio (y) = 0.11089 0.51817
# Poissons Ratio (z) = 0.82176 0.25554
#
# Static dielectric constant tensor:
#      x y z
#    x 3.683650 0.000000 0.000000 
#    y 0.000000 2.730080 0.000000 
#    z 0.000000 0.000000 3.355720 
# 
# 
# High freq. dielectric constant tensor:
#      x y z
#    x 1.712880 0.000000 0.000000 
#    y 0.000000 1.630380 0.000000 
#    z 0.000000 0.000000 1.677430 
# 
# From -- ./inp_files/33215.got.cif
#   From: 2010.03.12/outbox.cif.g09.slc.cpg/sg51_17_cif.got.tgz:33215.got - 2010.04.16 13:43:02.
