data_PCOD8214405
_publ_section_title
;
Structure prediction by ZEFSAII (Michael W. Deem and Ramdas Pophale) SiO2 
 PCOD8214405
Probable space group: P M M A
;
_chemical_formula_sum "Si O2"
_cell_formula_units_Z 44
_cell_length_a 8.848192
_cell_length_b 13.461667
_cell_length_c 18.825642
_cell_angle_alpha 90.000000
_cell_angle_beta 90.000000
_cell_angle_gamma 90.000000
_cell_volume 2242.348843
_symmetry_space_group_name_H-M "P M M A"
_symmetry_group_IT_number 51
_symmetry_cell_setting 'orthorhombic'
loop_
_space_group_symop_operation_xyz
x,y,z
1/2-x,-y,z
1/2+x,-y,-z
-x,y,-z
-x,-y,-z
1/2+x,y,-z
1/2-x,y,z
x,-y,z
loop_
_atom_site_type_symbol
_atom_site_label
_atom_site_fract_x
_atom_site_fract_y
_atom_site_fract_z
Si Si1 0.078762 0.888600 0.840455
Si Si2 0.927555 0.281061 0.923342
Si Si3 0.574713 0.387611 0.199274
Si Si4 0.073438 0.889824 0.675216
Si Si5 0.928957 0.500000 0.576831
Si Si6 0.571421 0.692499 0.664615
O O1 0.250000 0.848872 0.850303
O O2 0.033258 0.885636 0.758177
O O3 0.964914 0.823387 0.886376
O O4 0.065599 0.000000 0.869736
O O5 0.750000 0.294407 0.930235
O O6 0.995691 0.369958 0.876184
O O7 0.000000 0.287176 0.000000
O O8 0.750000 0.360807 0.193032
O O9 0.547499 0.500000 0.223050
O O10 0.500459 0.316771 0.257565
O O11 0.250000 0.873542 0.661849
O O12 0.984249 0.800165 0.634892
O O13 0.025673 0.000000 0.646323
O O14 0.750000 0.500000 0.570440
O O15 0.985084 0.399680 0.616374
O O16 0.000000 0.500000 0.500000
O O17 0.750000 0.691282 0.670973
#
# Coordination Sequence:
#
# PCOD8214405 Si02
#       6
#     8   8   8   8   4   8
#     4   9  18  34  55  79 110 145 187 240 291 345
#     4  12  25  39  56  77 107 147 191 244 299 355
#     4  11  23  39  60  84 110 146 192 237 289 355
#     4   9  18  33  56  87 121 157 199 245 291 347
#     4  10  24  42  62  94 133 164 197 238 286 342
#     4  11  21  36  60  92 126 157 194 244 293 345
#
# _framework density 19.622282999999999
#
# number of rings (size 3 to 8) (size 9 to 14) (size 15 to 20)
#    0.000    1.636    2.727    3.818    0.000    4.000 
#    0.000    1.818    0.000    0.545    0.000    0.000 
#    0.000    0.000    0.000    0.000    0.000    0.000 
#
# Total GULP energy -545543.344210 kJ/mol
# GULP energy per Si atom -12398.712368 kJ/mol
# Density = 1.957762 g / cm^3
# Si number density = 19.622283 Si / 1000 Ang^3
#
#
#
# Elastic Constant Matrix: (Units=GPa)
#
#
# Indices 1 2 3 4 5 6 
#
# 1 96.2011 53.7961 24.9776 0.0000 0.0000 0.0000
# 2 53.7961 156.6334 37.6314 0.0000 0.0000 0.0000
# 3 24.9776 37.6314 54.2723 0.0000 0.0000 0.0000
# 4 0.0000 0.0000 0.0000 18.9017 0.0000 0.0000
# 5 0.0000 0.0000 0.0000 0.0000 25.5017 0.0000
# 6 0.0000 0.0000 0.0000 0.0000 0.0000 35.8104
#
#
#
# Elastic Compliance Matrix: (Units=1/GPa)
#
#
# Indices 1 2 3 4 5 6 
#
# 1 0.013420 -0.003750 -0.003576 0.000000 0.000000 0.000000
# 2 -0.003750 0.008708 -0.004312 0.000000 0.000000 0.000000
# 3 -0.003576 -0.004312 0.023062 0.000000 0.000000 0.000000
# 4 0.000000 0.000000 0.000000 0.052905 0.000000 0.000000
# 5 0.000000 0.000000 0.000000 0.000000 0.039213 0.000000
# 6 0.000000 0.000000 0.000000 0.000000 0.000000 0.027925
#
#
# Mechanical properties :
#
#
# Convention : Reuss Voigt Hill
#
# Bulk Modulus (GPa) = 45.63476 59.99078 52.81277
# Shear Modulus (GPa) = 25.53425 28.75620 27.14522
#
# Velocity S-wave (km/s) = 3.61125 3.83232 3.72343
# Velocity P-wave (km/s) = 6.37928 7.08671 6.74228
#
# Compressibility (1/GPa) = 0.02191312
#
# Stress axis : x y z
#
# Youngs Moduli (GPa) = 74.51289 114.83218 43.36224
#
# Poissons Ratio (x) = 0.43063 0.15507
# Poissons Ratio (y) = 0.27943 0.18699
# Poissons Ratio (z) = 0.26647 0.49519
#
# Static dielectric constant tensor:
#      x y z
#    x 3.489290 0.000000 0.000000 
#    y 0.000000 4.041130 0.000000 
#    z 0.000000 0.000000 3.255470 
# 
# 
# High freq. dielectric constant tensor:
#      x y z
#    x 1.761890 0.000000 0.000000 
#    y 0.000000 1.789800 0.000000 
#    z 0.000000 0.000000 1.726050 
# 
# From -- ./inp_files/27319.got.cif
#   From: 2010.03.12/outbox.cif.g09.slc.cpg/sg51_14_cif.got.tgz:27319.got - 2010.04.16 13:43:02.
