data_PCOD8214280
_publ_section_title
;
Structure prediction by ZEFSAII (Michael W. Deem and Ramdas Pophale) SiO2 
 PCOD8214280
Probable space group: P M M A
;
_chemical_formula_sum "Si O2"
_cell_formula_units_Z 48
_cell_length_a 9.476549
_cell_length_b 16.628954
_cell_length_c 14.014944
_cell_angle_alpha 90.000000
_cell_angle_beta 90.000000
_cell_angle_gamma 90.000000
_cell_volume 2208.546315
_symmetry_space_group_name_H-M "P M M A"
_symmetry_group_IT_number 51
_symmetry_cell_setting 'orthorhombic'
loop_
_space_group_symop_operation_xyz
x,y,z
1/2-x,-y,z
1/2+x,-y,-z
-x,y,-z
-x,-y,-z
1/2+x,y,-z
1/2-x,y,z
x,-y,z
loop_
_atom_site_type_symbol
_atom_site_label
_atom_site_fract_x
_atom_site_fract_y
_atom_site_fract_z
Si Si1 0.496252 0.812850 0.709491
Si Si2 0.250000 0.372749 0.522224
Si Si3 0.250000 0.805580 0.436661
Si Si4 0.750000 0.093562 0.368737
Si Si5 0.946713 0.359624 0.314649
Si Si6 0.250000 0.413616 0.324724
Si Si7 0.416827 0.749041 0.089391
Si Si8 0.095407 0.589682 0.882201
O O1 0.615347 0.822811 0.629275
O O2 0.388037 0.886127 0.695257
O O3 0.402503 0.733322 0.691094
O O4 0.556425 0.804521 0.817523
O O5 0.250000 0.285292 0.473576
O O6 0.109658 0.390617 0.584173
O O7 0.250000 0.435689 0.436763
O O8 0.250000 0.862972 0.528552
O O9 0.750000 0.000000 0.390547
O O10 0.878289 0.411875 0.231540
O O11 0.115223 0.360930 0.299096
O O12 0.250000 0.500000 0.270652
O O13 0.250000 0.744172 0.069655
O O14 0.478279 0.657202 0.094886
O O15 0.500000 0.789706 0.000000
O O16 0.250000 0.608787 0.928493
O O17 0.043972 0.500000 0.913613
#
# Coordination Sequence:
#
# PCOD8214280 Si02
#       8
#     8   4   4   4   8   4   8   8
#     4  11  23  43  71 101 140 184 229 278 340 422
#     4  12  22  36  58  84 121 179 233 284 327 407
#     4  12  22  42  67 104 143 185 231 274 338 423
#     4  12  28  44  73 115 149 183 222 276 343 412
#     4  11  21  38  57  83 122 177 234 275 334 404
#     4  12  26  34  48  81 121 167 230 298 338 368
#     4  11  25  44  72 107 133 177 243 297 349 414
#     4  10  22  39  60  89 134 181 228 294 363 411
#
# _framework density 21.733753
#
# number of rings (size 3 to 8) (size 9 to 14) (size 15 to 20)
#    0.000    0.833    5.000    2.000    8.167    4.000 
#    0.000    0.000    0.000    0.500    0.000    0.000 
#    0.000    0.000    0.000    0.000    0.000    0.000 
#
# Total GULP energy -594669.298538 kJ/mol
# GULP energy per Si atom -12388.943720 kJ/mol
# Density = 2.168429 g / cm^3
# Si number density = 21.733753 Si / 1000 Ang^3
#
#
#
# Elastic Constant Matrix: (Units=GPa)
#
#
# Indices 1 2 3 4 5 6 
#
# 1 162.7965 32.5563 48.4622 0.0000 0.0000 0.0000
# 2 32.5563 87.9737 24.3014 0.0000 0.0000 0.0000
# 3 48.4622 24.3014 124.5786 0.0000 0.0000 0.0000
# 4 0.0000 0.0000 0.0000 -45.4452 0.0000 0.0000
# 5 0.0000 0.0000 0.0000 0.0000 39.3502 0.0000
# 6 0.0000 0.0000 0.0000 0.0000 0.0000 23.6079
#
#
#
# Elastic Compliance Matrix: (Units=1/GPa)
#
#
# Indices 1 2 3 4 5 6 
#
# 1 0.007271 -0.002018 -0.002435 0.000000 0.000000 0.000000
# 2 -0.002018 0.012575 -0.001668 0.000000 0.000000 0.000000
# 3 -0.002435 -0.001668 0.009300 0.000000 0.000000 0.000000
# 4 0.000000 0.000000 0.000000 -0.022005 0.000000 0.000000
# 5 0.000000 0.000000 0.000000 0.000000 0.025413 0.000000
# 6 0.000000 0.000000 0.000000 0.000000 0.000000 0.042359
#
#
# Mechanical properties :
#
#
# Convention : Reuss Voigt Hill
#
# Bulk Modulus (GPa) = 59.15912 65.10982 62.13447
# Shear Modulus (GPa) = 53.88595 21.50448 37.69522
#
# Velocity S-wave (km/s) = 4.98473 3.14897 4.16914
# Velocity P-wave (km/s) = 7.77232 6.57604 7.19907
#
# Compressibility (1/GPa) = 0.01690357
#
# Stress axis : x y z
#
# Youngs Moduli (GPa) = 137.53165 79.52524 107.53190
#
# Poissons Ratio (x) = 0.16050 0.26182
# Poissons Ratio (y) = 0.27757 0.17934
# Poissons Ratio (z) = 0.33486 0.13263
#
# Static dielectric constant tensor:
#      x y z
#    x 3.998560 0.000000 0.000000 
#    y 0.000000 3.419800 0.000000 
#    z 0.000000 0.000000 4.470150 
# 
# 
# High freq. dielectric constant tensor:
#      x y z
#    x 1.873000 0.000000 0.000000 
#    y 0.000000 1.798680 0.000000 
#    z 0.000000 0.000000 1.868210 
# 
# From -- ./inp_files/21263.got.cif
#   From: 2010.03.12/outbox.cif.g09.slc.cpg/sg51_11_cif.got.tgz:21263.got - 2010.04.16 13:43:02.
