data_PCOD8214222
_publ_section_title
;
Structure prediction by ZEFSAII (Michael W. Deem and Ramdas Pophale) SiO2 
 PCOD8214222
Probable space group: P M M A
;
_chemical_formula_sum "Si O2"
_cell_formula_units_Z 56
_cell_length_a 9.388123
_cell_length_b 14.882154
_cell_length_c 19.945582
_cell_angle_alpha 90.000000
_cell_angle_beta 90.000000
_cell_angle_gamma 90.000000
_cell_volume 2786.706807
_symmetry_space_group_name_H-M "P M M A"
_symmetry_group_IT_number 51
_symmetry_cell_setting 'orthorhombic'
loop_
_space_group_symop_operation_xyz
x,y,z
1/2-x,-y,z
1/2+x,-y,-z
-x,y,-z
-x,-y,-z
1/2+x,y,-z
1/2-x,y,z
x,-y,z
loop_
_atom_site_type_symbol
_atom_site_label
_atom_site_fract_x
_atom_site_fract_y
_atom_site_fract_z
Si Si1 0.083525 0.102410 0.166513
Si Si2 0.409805 0.893350 0.707605
Si Si3 0.087710 0.392837 0.435917
Si Si4 0.414136 0.603788 0.180859
Si Si5 0.410316 0.106957 0.560801
Si Si6 0.584620 0.743973 0.932213
Si Si7 0.411198 0.606672 0.690590
O O1 0.250000 0.109665 0.180552
O O2 0.038590 0.162918 0.103396
O O3 0.009675 0.142747 0.233083
O O4 0.036509 0.000000 0.151143
O O5 0.250000 0.857375 0.719737
O O6 0.465709 0.860562 0.634303
O O7 0.410390 0.000000 0.708540
O O8 0.250000 0.355914 0.437302
O O9 0.091163 0.500000 0.434905
O O10 0.000000 0.357604 0.500000
O O11 0.004123 0.355262 0.371013
O O12 0.250000 0.618885 0.202203
O O13 0.443832 0.500000 0.163815
O O14 0.453159 0.660377 0.115285
O O15 0.513819 0.638329 0.241004
O O16 0.500000 0.150582 0.500000
O O17 0.250000 0.140053 0.550772
O O18 0.419092 0.000000 0.557482
O O19 0.750000 0.745675 0.950312
O O20 0.500000 0.731954 0.000000
O O21 0.250000 0.645207 0.687386
O O22 0.407665 0.500000 0.686983
#
# Coordination Sequence:
#
# PCOD8214222 Si02
#       7
#     8   8   8   8   8   8   8
#     4   9  18  33  52  74 101 132 165 202 244 290
#     4   8  14  25  41  63  92 126 165 206 245 288
#     4   9  15  22  34  56  90 131 172 214 258 301
#     4   9  18  34  54  74  99 132 166 201 245 296
#     4   8  13  20  31  52  85 122 159 200 242 282
#     4  10  22  38  55  78 105 130 161 200 242 294
#     4   9  16  26  42  66  95 127 166 210 253 300
#
# _framework density 20.095405
#
# number of rings (size 3 to 8) (size 9 to 14) (size 15 to 20)
#    0.000    3.143    0.000    1.714    0.000    5.714 
#    0.000    2.857    0.000    0.000    0.000    1.000 
#    0.000    2.286    0.000    0.286    0.000    0.000 
#
# Total GULP energy -694170.614516 kJ/mol
# GULP energy per Si atom -12395.903831 kJ/mol
# Density = 2.004967 g / cm^3
# Si number density = 20.095405 Si / 1000 Ang^3
#
#
#
# Elastic Constant Matrix: (Units=GPa)
#
#
# Indices 1 2 3 4 5 6 
#
# 1 122.8106 28.1652 102.5469 0.0000 0.0000 0.0000
# 2 28.1652 49.9281 41.5103 0.0000 0.0000 0.0000
# 3 102.5469 41.5103 198.8268 0.0000 0.0000 0.0000
# 4 0.0000 0.0000 0.0000 -21.2052 0.0000 0.0000
# 5 0.0000 0.0000 0.0000 0.0000 48.0858 0.0000
# 6 0.0000 0.0000 0.0000 0.0000 0.0000 7.6303
#
#
#
# Elastic Compliance Matrix: (Units=1/GPa)
#
#
# Indices 1 2 3 4 5 6 
#
# 1 0.014532 -0.002379 -0.006998 0.000000 0.000000 0.000000
# 2 -0.002379 0.024625 -0.003914 0.000000 0.000000 0.000000
# 3 -0.006998 -0.003914 0.009456 0.000000 0.000000 0.000000
# 4 0.000000 0.000000 0.000000 -0.047158 0.000000 0.000000
# 5 0.000000 0.000000 0.000000 0.000000 0.020796 0.000000
# 6 0.000000 0.000000 0.000000 0.000000 0.000000 0.131056
#
#
# Mechanical properties :
#
#
# Convention : Reuss Voigt Hill
#
# Bulk Modulus (GPa) = 45.39266 79.55669 62.47467
# Shear Modulus (GPa) = 26.70465 20.19172 23.44819
#
# Velocity S-wave (km/s) = 3.64935 3.17329 3.41961
# Velocity P-wave (km/s) = 6.35568 7.28710 6.83727
#
# Compressibility (1/GPa) = 0.02202999
#
# Stress axis : x y z
#
# Youngs Moduli (GPa) = 68.81490 40.60893 105.75281
#
# Poissons Ratio (x) = 0.09662 0.74007
# Poissons Ratio (y) = 0.16373 0.41392
# Poissons Ratio (z) = 0.48158 0.15894
#
# Static dielectric constant tensor:
#      x y z
#    x 3.780080 0.000000 0.000000 
#    y 0.000000 3.355180 0.000000 
#    z 0.000000 0.000000 3.786650 
# 
# 
# High freq. dielectric constant tensor:
#      x y z
#    x 1.779680 0.000000 0.000000 
#    y 0.000000 1.759050 0.000000 
#    z 0.000000 0.000000 1.784520 
# 
# From -- ./inp_files/32014.got.cif
#   From: 2010.03.12/outbox.cif.g09.slc.cpg/sg51_17_cif.got.tgz:32014.got - 2010.04.16 13:43:02.
