data_PCOD8214270
_publ_section_title
;
Structure prediction by ZEFSAII (Michael W. Deem and Ramdas Pophale) SiO2 
 PCOD8214270
Probable space group: P M M A
;
_chemical_formula_sum "Si O2"
_cell_formula_units_Z 40
_cell_length_a 9.971736
_cell_length_b 15.484406
_cell_length_c 13.663376
_cell_angle_alpha 90.000000
_cell_angle_beta 90.000000
_cell_angle_gamma 90.000000
_cell_volume 2109.712820
_symmetry_space_group_name_H-M "P M M A"
_symmetry_group_IT_number 51
_symmetry_cell_setting 'orthorhombic'
loop_
_space_group_symop_operation_xyz
x,y,z
1/2-x,-y,z
1/2+x,-y,-z
-x,y,-z
-x,-y,-z
1/2+x,y,-z
1/2-x,y,z
x,-y,z
loop_
_atom_site_type_symbol
_atom_site_label
_atom_site_fract_x
_atom_site_fract_y
_atom_site_fract_z
Si Si1 0.250000 0.399189 0.357603
Si Si2 0.601762 0.000000 0.586737
Si Si3 0.593123 0.000000 0.905295
Si Si4 0.478811 0.322001 0.717346
Si Si5 0.401006 0.400727 0.919363
Si Si6 0.750000 0.396457 0.413576
Si Si7 0.903105 0.858370 0.746573
O O1 0.250000 0.500000 0.342312
O O2 0.377722 0.362180 0.302841
O O3 0.250000 0.375470 0.471796
O O4 0.500000 0.000000 0.500000
O O5 0.580397 0.084425 0.650888
O O6 0.750000 0.000000 0.541131
O O7 0.559707 0.914300 0.842450
O O8 0.750000 0.000000 0.935004
O O9 0.500000 0.000000 0.000000
O O10 0.415072 0.354200 0.817102
O O11 0.381272 0.350475 0.629697
O O12 0.492987 0.219356 0.730670
O O13 0.250000 0.389795 0.958615
O O14 0.439146 0.500000 0.902421
O O15 0.500000 0.359157 0.000000
O O16 0.750000 0.500000 0.392440
O O17 0.750000 0.824602 0.755717
#
# Coordination Sequence:
#
# PCOD8214270 Si02
#       7
#     4   4   4   8   8   4   8
#     4  11  24  38  61  88 117 166 217 258 312 381
#     4   9  19  39  62  84 116 155 191 237 296 357
#     4   9  19  41  68  90 122 159 191 241 304 369
#     4  12  22  40  62  88 125 163 207 261 309 362
#     4  10  22  39  59  84 115 155 201 248 302 360
#     4  11  24  42  59  86 125 166 213 270 320 357
#     4   9  20  40  60  87 122 156 198 241 296 366
#
# _framework density 18.959925999999999
#
# number of rings (size 3 to 8) (size 9 to 14) (size 15 to 20)
#    0.000    1.800    2.000    3.600    1.400    4.000 
#    3.600    3.000    0.000    0.000    0.000    0.000 
#    0.000    0.000    0.000    0.000    0.000    0.000 
#
# Total GULP energy -496017.177854 kJ/mol
# GULP energy per Si atom -12400.429446 kJ/mol
# Density = 1.891677 g / cm^3
# Si number density = 18.959926 Si / 1000 Ang^3
#
#
#
# Elastic Constant Matrix: (Units=GPa)
#
#
# Indices 1 2 3 4 5 6 
#
# 1 104.7534 38.4114 39.6484 0.0000 0.0000 0.0000
# 2 38.4114 96.6839 29.8616 0.0000 0.0000 0.0000
# 3 39.6484 29.8616 89.1443 0.0000 0.0000 0.0000
# 4 0.0000 0.0000 0.0000 39.9891 0.0000 0.0000
# 5 0.0000 0.0000 0.0000 0.0000 43.1222 0.0000
# 6 0.0000 0.0000 0.0000 0.0000 0.0000 18.9696
#
#
#
# Elastic Compliance Matrix: (Units=1/GPa)
#
#
# Indices 1 2 3 4 5 6 
#
# 1 0.012526 -0.003631 -0.004355 0.000000 0.000000 0.000000
# 2 -0.003631 0.012589 -0.002602 0.000000 0.000000 0.000000
# 3 -0.004355 -0.002602 0.014026 0.000000 0.000000 0.000000
# 4 0.000000 0.000000 0.000000 0.025007 0.000000 0.000000
# 5 0.000000 0.000000 0.000000 0.000000 0.023190 0.000000
# 6 0.000000 0.000000 0.000000 0.000000 0.000000 0.052716
#
#
# Mechanical properties :
#
#
# Convention : Reuss Voigt Hill
#
# Bulk Modulus (GPa) = 55.66302 56.26936 55.96619
# Shear Modulus (GPa) = 29.90088 32.59352 31.24720
#
# Velocity S-wave (km/s) = 3.97553 4.15067 4.06404
# Velocity P-wave (km/s) = 7.10599 7.26039 7.18360
#
# Compressibility (1/GPa) = 0.01796525
#
# Stress axis : x y z
#
# Youngs Moduli (GPa) = 79.83363 79.43195 71.29502
#
# Poissons Ratio (x) = 0.28846 0.31047
# Poissons Ratio (y) = 0.28991 0.18551
# Poissons Ratio (z) = 0.34765 0.20669
#
# Static dielectric constant tensor:
#      x y z
#    x 3.570850 0.000000 0.000000 
#    y 0.000000 3.520370 0.000000 
#    z 0.000000 0.000000 3.496440 
# 
# 
# High freq. dielectric constant tensor:
#      x y z
#    x 1.742740 0.000000 0.000000 
#    y 0.000000 1.735330 0.000000 
#    z 0.000000 0.000000 1.741430 
# 
# From -- ./inp_files/20631.got.cif
#   From: 2010.03.12/outbox.cif.g09.slc.cpg/sg51_11_cif.got.tgz:20631.got - 2010.04.16 13:43:02.
