data_PCOD8214120
_publ_section_title
;
Structure prediction by ZEFSAII (Michael W. Deem and Ramdas Pophale) SiO2 
 PCOD8214120
Probable space group: P M M A
;
_chemical_formula_sum "Si O2"
_cell_formula_units_Z 56
_cell_length_a 15.878258
_cell_length_b 8.870598
_cell_length_c 19.501842
_cell_angle_alpha 90.000000
_cell_angle_beta 90.000000
_cell_angle_gamma 90.000000
_cell_volume 2746.827496
_symmetry_space_group_name_H-M "P M M A"
_symmetry_group_IT_number 51
_symmetry_cell_setting 'orthorhombic'
loop_
_space_group_symop_operation_xyz
x,y,z
1/2-x,-y,z
1/2+x,-y,-z
-x,y,-z
-x,-y,-z
1/2+x,y,-z
1/2-x,y,z
x,-y,z
loop_
_atom_site_type_symbol
_atom_site_label
_atom_site_fract_x
_atom_site_fract_y
_atom_site_fract_z
Si Si1 0.495342 0.322041 0.921673
Si Si2 0.585243 0.678377 0.288547
Si Si3 0.342996 0.678780 0.570254
Si Si4 0.911619 0.823840 0.711805
Si Si5 0.655192 0.824779 0.161437
Si Si6 0.342961 0.325680 0.163585
Si Si7 0.350187 0.330743 0.420504
O O1 0.484101 0.500000 0.915050
O O2 0.413270 0.247800 0.888649
O O3 0.583094 0.268729 0.886868
O O4 0.500000 0.269173 0.000000
O O5 0.591958 0.500000 0.282817
O O6 0.600413 0.736340 0.366515
O O7 0.494140 0.733432 0.265192
O O8 0.652331 0.750148 0.236768
O O9 0.250000 0.749384 0.579080
O O10 0.335776 0.500000 0.572440
O O11 0.381778 0.723945 0.496005
O O12 0.841860 0.770817 0.766197
O O13 0.884751 0.785279 0.634732
O O14 0.928185 0.000000 0.717027
O O15 0.750000 0.798837 0.132539
O O16 0.634332 0.000000 0.168527
O O17 0.250000 0.302700 0.129660
O O18 0.356882 0.500000 0.182744
O O19 0.250000 0.332045 0.420591
O O20 0.384055 0.500000 0.404283
#
# Coordination Sequence:
#
# PCOD8214120 Si02
#       7
#     8   8   8   8   8   8   8
#     4  10  22  41  67  98 128 160 202 250 297 353
#     4  11  21  36  60  86 114 152 203 258 306 353
#     4   8  16  32  55  82 108 140 191 251 305 357
#     4  12  24  36  53  81 118 156 198 249 303 361
#     4  11  24  41  62  92 130 169 205 245 300 364
#     4  10  21  39  63  90 121 159 202 249 301 356
#     4   9  18  35  57  79 107 146 194 248 302 358
#
# _framework density 20.387155
#
# number of rings (size 3 to 8) (size 9 to 14) (size 15 to 20)
#    0.000    1.857    1.429    3.857    0.000    5.429 
#    0.000    5.714    0.000    1.714    0.000    0.000 
#    0.000    0.000    0.000    0.000    0.000    0.000 
#
# Total GULP energy -694312.576919 kJ/mol
# GULP energy per Si atom -12398.438874 kJ/mol
# Density = 2.034075 g / cm^3
# Si number density = 20.387155 Si / 1000 Ang^3
#
#
#
# Elastic Constant Matrix: (Units=GPa)
#
#
# Indices 1 2 3 4 5 6 
#
# 1 114.4979 33.7737 59.4577 0.0000 0.0000 0.0000
# 2 33.7737 59.8715 47.9205 0.0000 0.0000 0.0000
# 3 59.4577 47.9205 144.7560 0.0000 0.0000 0.0000
# 4 0.0000 0.0000 0.0000 10.5739 0.0000 0.0000
# 5 0.0000 0.0000 0.0000 0.0000 27.5305 0.0000
# 6 0.0000 0.0000 0.0000 0.0000 0.0000 21.0857
#
#
#
# Elastic Compliance Matrix: (Units=1/GPa)
#
#
# Indices 1 2 3 4 5 6 
#
# 1 0.011687 -0.003742 -0.003562 0.000000 0.000000 0.000000
# 2 -0.003742 0.023921 -0.006382 0.000000 0.000000 0.000000
# 3 -0.003562 -0.006382 0.010484 0.000000 0.000000 0.000000
# 4 0.000000 0.000000 0.000000 0.094572 0.000000 0.000000
# 5 0.000000 0.000000 0.000000 0.000000 0.036323 0.000000
# 6 0.000000 0.000000 0.000000 0.000000 0.000000 0.047426
#
#
# Mechanical properties :
#
#
# Convention : Reuss Voigt Hill
#
# Bulk Modulus (GPa) = 53.41598 66.82546 60.12072
# Shear Modulus (GPa) = 19.37794 23.70292 21.54043
#
# Velocity S-wave (km/s) = 3.08636 3.41345 3.25402
# Velocity P-wave (km/s) = 6.24167 6.95593 6.60846
#
# Compressibility (1/GPa) = 0.01872099
#
# Stress axis : x y z
#
# Youngs Moduli (GPa) = 85.56433 41.80350 95.38507
#
# Poissons Ratio (x) = 0.15643 0.33973
# Poissons Ratio (y) = 0.32019 0.60875
# Poissons Ratio (z) = 0.30475 0.26679
#
# Static dielectric constant tensor:
#      x y z
#    x 3.759080 0.000000 0.000000 
#    y 0.000000 3.432940 0.000000 
#    z 0.000000 0.000000 3.966330 
# 
# 
# High freq. dielectric constant tensor:
#      x y z
#    x 1.801530 0.000000 0.000000 
#    y 0.000000 1.770080 0.000000 
#    z 0.000000 0.000000 1.800210 
# 
# From -- ./inp_files/33488.got.cif
#   From: 2010.03.12/outbox.cif.g09.slc.cpg/sg51_17_cif.got.tgz:33488.got - 2010.04.16 13:43:02.
