data_PCOD8214713
_publ_section_title
;
Structure prediction by ZEFSAII (Michael W. Deem and Ramdas Pophale) SiO2 
 PCOD8214713
Probable space group: P M M A
;
_chemical_formula_sum "Si O2"
_cell_formula_units_Z 40
_cell_length_a 9.956907
_cell_length_b 9.654371
_cell_length_c 25.777010
_cell_angle_alpha 90.000000
_cell_angle_beta 90.000000
_cell_angle_gamma 90.000000
_cell_volume 2477.884019
_symmetry_space_group_name_H-M "P M M A"
_symmetry_group_IT_number 51
_symmetry_cell_setting 'orthorhombic'
loop_
_space_group_symop_operation_xyz
x,y,z
1/2-x,-y,z
1/2+x,-y,-z
-x,y,-z
-x,-y,-z
1/2+x,y,-z
1/2-x,y,z
x,-y,z
loop_
_atom_site_type_symbol
_atom_site_label
_atom_site_fract_x
_atom_site_fract_y
_atom_site_fract_z
Si Si1 0.594188 0.162162 0.752131
Si Si2 0.900339 0.835475 0.158141
Si Si3 0.399921 0.335081 0.456843
Si Si4 0.090541 0.653745 0.342574
Si Si5 0.599514 0.835203 0.042890
O O1 0.750000 0.195065 0.763416
O O2 0.508376 0.220471 0.800533
O O3 0.539822 0.239942 0.701036
O O4 0.570641 0.000000 0.743011
O O5 0.750000 0.783471 0.172508
O O6 0.940406 0.782188 0.100541
O O7 0.902345 0.000000 0.158150
O O8 0.500000 0.272151 0.500000
O O9 0.250000 0.275156 0.466442
O O10 0.394840 0.500000 0.460453
O O11 0.454890 0.293301 0.399622
O O12 0.250000 0.646174 0.342728
O O13 0.032115 0.500000 0.331027
O O14 0.750000 0.786322 0.029285
O O15 0.591109 0.000000 0.041658
O O16 0.500000 0.769887 0.000000
#
# Coordination Sequence:
#
# PCOD8214713 Si02
#       5
#     8   8   8   8   8
#     4   9  16  25  39  58  75  95 129 164 184 209
#     4   8  14  24  35  48  71 102 128 150 186 232
#     4   8  13  22  37  55  73  94 120 149 182 220
#     4   8  14  25  40  57  78 102 124 150 189 229
#     4   8  13  20  30  45  66  93 123 152 183 220
#
# _framework density 16.142806
#
# number of rings (size 3 to 8) (size 9 to 14) (size 15 to 20)
#    0.000    3.800    0.000    2.400    0.000    0.800 
#    0.000    5.000    0.000    2.400    0.000    0.000 
#    0.000    0.800    0.000    1.800    0.000    3.600 
#
# Total GULP energy -495609.351762 kJ/mol
# GULP energy per Si atom -12390.233794 kJ/mol
# Density = 1.610606 g / cm^3
# Si number density = 16.142806 Si / 1000 Ang^3
#
#
#
# Elastic Constant Matrix: (Units=GPa)
#
#
# Indices 1 2 3 4 5 6 
#
# 1 81.7622 18.7641 86.6791 0.0000 0.0000 0.0000
# 2 18.7641 19.8772 32.2049 0.0000 0.0000 0.0000
# 3 86.6791 32.2049 173.8917 0.0000 0.0000 0.0000
# 4 0.0000 0.0000 0.0000 6.6170 0.0000 0.0000
# 5 0.0000 0.0000 0.0000 0.0000 33.4767 0.0000
# 6 0.0000 0.0000 0.0000 0.0000 0.0000 6.3508
#
#
#
# Elastic Compliance Matrix: (Units=1/GPa)
#
#
# Indices 1 2 3 4 5 6 
#
# 1 0.026297 -0.005124 -0.012159 0.000000 0.000000 0.000000
# 2 -0.005124 0.072875 -0.010942 0.000000 0.000000 0.000000
# 3 -0.012159 -0.010942 0.013838 0.000000 0.000000 0.000000
# 4 0.000000 0.000000 0.000000 0.151127 0.000000 0.000000
# 5 0.000000 0.000000 0.000000 0.000000 0.029872 0.000000
# 6 0.000000 0.000000 0.000000 0.000000 0.000000 0.157460
#
#
# Mechanical properties :
#
#
# Convention : Reuss Voigt Hill
#
# Bulk Modulus (GPa) = 17.68079 61.20304 39.44192
# Shear Modulus (GPa) = 9.49178 18.48110 13.98644
#
# Velocity S-wave (km/s) = 2.42748 3.38723 2.94669
# Velocity P-wave (km/s) = 4.33974 7.30025 6.00529
#
# Compressibility (1/GPa) = 0.05655855
#
# Stress axis : x y z
#
# Youngs Moduli (GPa) = 38.02734 13.72222 72.26415
#
# Poissons Ratio (x) = 0.07031 0.87867
# Poissons Ratio (y) = 0.19486 0.79073
# Poissons Ratio (z) = 0.46238 0.15015
#
# Static dielectric constant tensor:
#      x y z
#    x 3.121100 0.000000 0.000000 
#    y 0.000000 2.555000 0.000000 
#    z 0.000000 0.000000 3.555290 
# 
# 
# High freq. dielectric constant tensor:
#      x y z
#    x 1.603600 0.000000 0.000000 
#    y 0.000000 1.551250 0.000000 
#    z 0.000000 0.000000 1.635160 
# 
# From -- ./inp_files/31376.got.cif
#   From: 2010.03.12/outbox.cif.g09.slc.cpg/sg51_16_cif.got.tgz:31376.got - 2010.04.16 13:43:02.
