data_PCOD8214516
_publ_section_title
;
Structure prediction by ZEFSAII (Michael W. Deem and Ramdas Pophale) SiO2 
 PCOD8214516
Probable space group: P M M A
;
_chemical_formula_sum "Si O2"
_cell_formula_units_Z 56
_cell_length_a 15.227186
_cell_length_b 17.982526
_cell_length_c 9.503101
_cell_angle_alpha 90.000000
_cell_angle_beta 90.000000
_cell_angle_gamma 90.000000
_cell_volume 2602.170173
_symmetry_space_group_name_H-M "P M M A"
_symmetry_group_IT_number 51
_symmetry_cell_setting 'orthorhombic'
loop_
_space_group_symop_operation_xyz
x,y,z
1/2-x,-y,z
1/2+x,-y,-z
-x,y,-z
-x,-y,-z
1/2+x,y,-z
1/2-x,y,z
x,-y,z
loop_
_atom_site_type_symbol
_atom_site_label
_atom_site_fract_x
_atom_site_fract_y
_atom_site_fract_z
Si Si1 0.350371 0.830320 0.333211
Si Si2 0.396862 0.580365 0.477233
Si Si3 0.614648 0.678737 0.274899
Si Si4 0.498932 0.087910 0.162639
Si Si5 0.349272 0.415537 0.987417
Si Si6 0.412393 0.323809 0.230352
Si Si7 0.152549 0.161110 0.661412
O O1 0.250000 0.858029 0.318390
O O2 0.412531 0.883878 0.242908
O O3 0.355552 0.748596 0.264798
O O4 0.378956 0.831360 0.498255
O O5 0.500000 0.573153 0.500000
O O6 0.352063 0.500000 0.501205
O O7 0.357701 0.643340 0.576965
O O8 0.376933 0.606490 0.319672
O O9 0.511942 0.696675 0.264352
O O10 0.661453 0.758051 0.265583
O O11 0.648220 0.616399 0.168729
O O12 0.585631 0.112342 0.247549
O O13 0.495759 0.000000 0.162834
O O14 0.500000 0.117447 0.000000
O O15 0.250000 0.417085 0.043292
O O16 0.388513 0.500000 0.990594
O O17 0.405452 0.354588 0.072554
O O18 0.250000 0.124691 0.668067
#
# Coordination Sequence:
#
# PCOD8214516 Si02
#       7
#     8   8   8   8   8   8   8
#     4  11  24  43  71 105 141 182 228 278 334 401
#     4   9  18  32  55  87 121 161 215 276 329 376
#     4  11  21  37  63  91 125 170 224 278 329 391
#     4  11  27  49  75 107 140 177 218 267 336 409
#     4  11  25  41  55  83 131 180 229 285 343 403
#     4  11  21  37  63  91 125 170 224 278 329 391
#     4  11  24  43  71 105 141 182 228 278 334 401
#
# _framework density 21.520499999999998
#
# number of rings (size 3 to 8) (size 9 to 14) (size 15 to 20)
#    0.000    1.286    2.857    2.571    2.000    4.571 
#    0.000    2.857    0.000    3.429    0.000    0.000 
#    0.000    0.000    0.000    0.000    0.000    0.000 
#
# Total GULP energy -694218.420954 kJ/mol
# GULP energy per Si atom -12396.757517 kJ/mol
# Density = 2.147152 g / cm^3
# Si number density = 21.520500 Si / 1000 Ang^3
#
#
#
# Elastic Constant Matrix: (Units=GPa)
#
#
# Indices 1 2 3 4 5 6 
#
# 1 101.5102 32.4192 41.4423 0.0000 0.0000 0.0000
# 2 32.4192 101.0035 40.4196 0.0000 0.0000 0.0000
# 3 41.4423 40.4196 115.7057 0.0000 0.0000 0.0000
# 4 0.0000 0.0000 0.0000 29.4973 0.0000 0.0000
# 5 0.0000 0.0000 0.0000 0.0000 26.9530 0.0000
# 6 0.0000 0.0000 0.0000 0.0000 0.0000 16.1067
#
#
#
# Elastic Compliance Matrix: (Units=1/GPa)
#
#
# Indices 1 2 3 4 5 6 
#
# 1 0.012054 -0.002489 -0.003448 0.000000 0.000000 0.000000
# 2 -0.002489 0.012024 -0.003309 0.000000 0.000000 0.000000
# 3 -0.003448 -0.003309 0.011033 0.000000 0.000000 0.000000
# 4 0.000000 0.000000 0.000000 0.033901 0.000000 0.000000
# 5 0.000000 0.000000 0.000000 0.000000 0.037102 0.000000
# 6 0.000000 0.000000 0.000000 0.000000 0.000000 0.062086
#
#
# Mechanical properties :
#
#
# Convention : Reuss Voigt Hill
#
# Bulk Modulus (GPa) = 60.17025 60.75352 60.46189
# Shear Modulus (GPa) = 26.01040 28.10728 27.05884
#
# Velocity S-wave (km/s) = 3.48031 3.61788 3.54976
# Velocity P-wave (km/s) = 6.64607 6.76342 6.70501
#
# Compressibility (1/GPa) = 0.01661951
#
# Stress axis : x y z
#
# Youngs Moduli (GPa) = 82.96165 83.16918 90.63453
#
# Poissons Ratio (x) = 0.20702 0.31248
# Poissons Ratio (y) = 0.20651 0.29988
# Poissons Ratio (z) = 0.28603 0.27518
#
# Static dielectric constant tensor:
#      x y z
#    x 3.867810 0.000000 0.000000 
#    y 0.000000 3.772000 0.000000 
#    z 0.000000 0.000000 4.008820 
# 
# 
# High freq. dielectric constant tensor:
#      x y z
#    x 1.843050 0.000000 0.000000 
#    y 0.000000 1.839360 0.000000 
#    z 0.000000 0.000000 1.852170 
# 
# From -- ./inp_files/8582.got.cif
#   From: 2010.03.12/outbox.cif.g09.slc.cpg/sg51_5_cif.got.tgz:8582.got - 2010.04.16 13:43:02.
