data_PCOD8214865
_publ_section_title
;
Structure prediction by ZEFSAII (Michael W. Deem and Ramdas Pophale) SiO2 
 PCOD8214865
Probable space group: P M M A
;
_chemical_formula_sum "Si O2"
_cell_formula_units_Z 40
_cell_length_a 9.173630
_cell_length_b 9.472515
_cell_length_c 25.942714
_cell_angle_alpha 90.000000
_cell_angle_beta 90.000000
_cell_angle_gamma 90.000000
_cell_volume 2254.353041
_symmetry_space_group_name_H-M "P M M A"
_symmetry_group_IT_number 51
_symmetry_cell_setting 'orthorhombic'
loop_
_space_group_symop_operation_xyz
x,y,z
1/2-x,-y,z
1/2+x,-y,-z
-x,y,-z
-x,-y,-z
1/2+x,y,-z
1/2-x,y,z
x,-y,z
loop_
_atom_site_type_symbol
_atom_site_label
_atom_site_fract_x
_atom_site_fract_y
_atom_site_fract_z
Si Si1 0.419303 0.336232 0.750400
Si Si2 0.419453 0.836478 0.849685
Si Si3 0.584990 0.668369 0.449950
Si Si4 0.585545 0.831843 0.950577
Si Si5 0.085394 0.668072 0.350524
O O1 0.250000 0.309630 0.738532
O O2 0.451388 0.500000 0.760927
O O3 0.472083 0.250208 0.800109
O O4 0.509356 0.278460 0.701703
O O5 0.250000 0.811182 0.861340
O O6 0.507867 0.778298 0.898673
O O7 0.453115 0.000000 0.839103
O O8 0.500000 0.725437 0.500000
O O9 0.750000 0.726388 0.450796
O O10 0.585554 0.500000 0.449613
O O11 0.503678 0.727640 0.399351
O O12 0.750000 0.773677 0.951775
O O13 0.583229 0.000000 0.952200
O O14 0.500000 0.770671 0.000000
O O15 0.250000 0.726441 0.352732
O O16 0.084148 0.500000 0.352036
#
# Coordination Sequence:
#
# PCOD8214865 Si02
#       5
#     8   8   8   8   8
#     4   9  17  29  44  61  83 113 145 174 207 249
#     4   9  17  29  45  65  88 112 139 173 211 249
#     4   9  15  22  33  50  74 104 137 173 213 255
#     4   9  16  26  42  64  88 112 138 170 209 251
#     4   9  16  25  37  54  77 106 140 175 210 250
#
# _framework density 17.743449999999999
#
# number of rings (size 3 to 8) (size 9 to 14) (size 15 to 20)
#    0.000    3.000    0.000    1.800    0.000    8.000 
#    0.000    0.000    0.000    0.600    0.000    0.000 
#    0.000    0.800    0.000    2.200    0.000    4.000 
#
# Total GULP energy -495978.557469 kJ/mol
# GULP energy per Si atom -12399.463937 kJ/mol
# Density = 1.770307 g / cm^3
# Si number density = 17.743450 Si / 1000 Ang^3
#
#
#
# Elastic Constant Matrix: (Units=GPa)
#
#
# Indices 1 2 3 4 5 6 
#
# 1 143.6686 19.8596 108.5964 0.0000 0.0000 0.0000
# 2 19.8596 17.0986 31.9977 0.0000 0.0000 0.0000
# 3 108.5964 31.9977 206.1557 0.0000 0.0000 0.0000
# 4 0.0000 0.0000 0.0000 1.0401 0.0000 0.0000
# 5 0.0000 0.0000 0.0000 0.0000 42.0638 0.0000
# 6 0.0000 0.0000 0.0000 0.0000 0.0000 8.9316
#
#
#
# Elastic Compliance Matrix: (Units=1/GPa)
#
#
# Indices 1 2 3 4 5 6 
#
# 1 0.011666 -0.002889 -0.005697 0.000000 0.000000 0.000000
# 2 -0.002889 0.083141 -0.011383 0.000000 0.000000 0.000000
# 3 -0.005697 -0.011383 0.009618 0.000000 0.000000 0.000000
# 4 0.000000 0.000000 0.000000 0.961438 0.000000 0.000000
# 5 0.000000 0.000000 0.000000 0.000000 0.023773 0.000000
# 6 0.000000 0.000000 0.000000 0.000000 0.000000 0.111962
#
#
# Mechanical properties :
#
#
# Convention : Reuss Voigt Hill
#
# Bulk Modulus (GPa) = 15.50662 76.42559 45.96610
# Shear Modulus (GPa) = 3.95873 24.17172 14.06523
#
# Velocity S-wave (km/s) = 1.49531 3.69493 2.81855
# Velocity P-wave (km/s) = 3.42631 7.83386 6.04603
#
# Compressibility (1/GPa) = 0.06448857
#
# Stress axis : x y z
#
# Youngs Moduli (GPa) = 85.71951 12.02776 103.96757
#
# Poissons Ratio (x) = 0.03475 0.59229
# Poissons Ratio (y) = 0.24762 1.18344
# Poissons Ratio (z) = 0.48834 0.13691
#
# Static dielectric constant tensor:
#      x y z
#    x 3.444570 0.000000 0.000000 
#    y 0.000000 2.619430 0.000000 
#    z 0.000000 0.000000 3.516690 
# 
# 
# High freq. dielectric constant tensor:
#      x y z
#    x 1.696320 0.000000 0.000000 
#    y 0.000000 1.606050 0.000000 
#    z 0.000000 0.000000 1.704650 
# 
# From -- ./inp_files/31360.got.cif
#   From: 2010.03.12/outbox.cif.g09.slc.cpg/sg51_16_cif.got.tgz:31360.got - 2010.04.16 13:43:02.
