data_PCOD8214563
_publ_section_title
;
Structure prediction by ZEFSAII (Michael W. Deem and Ramdas Pophale) SiO2 
 PCOD8214563
Probable space group: P M M A
;
_chemical_formula_sum "Si O2"
_cell_formula_units_Z 48
_cell_length_a 8.998203
_cell_length_b 24.499865
_cell_length_c 13.517408
_cell_angle_alpha 90.000000
_cell_angle_beta 90.000000
_cell_angle_gamma 90.000000
_cell_volume 2979.976919
_symmetry_space_group_name_H-M "P M M A"
_symmetry_group_IT_number 51
_symmetry_cell_setting 'orthorhombic'
loop_
_space_group_symop_operation_xyz
x,y,z
1/2-x,-y,z
1/2+x,-y,-z
-x,y,-z
-x,-y,-z
1/2+x,y,-z
1/2-x,y,z
x,-y,z
loop_
_atom_site_type_symbol
_atom_site_label
_atom_site_fract_x
_atom_site_fract_y
_atom_site_fract_z
Si Si1 0.075967 0.562365 0.198407
Si Si2 0.576645 0.280397 0.720768
Si Si3 0.076628 0.942387 0.395451
Si Si4 0.424789 0.175574 0.394093
Si Si5 0.573396 0.338450 0.101769
Si Si6 0.579881 0.614416 0.600641
O O1 0.250000 0.576724 0.185432
O O2 0.041211 0.500000 0.171474
O O3 0.027108 0.574282 0.311328
O O4 0.982004 0.600277 0.125227
O O5 0.750000 0.280768 0.751395
O O6 0.521166 0.221460 0.682778
O O7 0.478450 0.295771 0.815117
O O8 0.547703 0.323324 0.632574
O O9 0.250000 0.941589 0.416027
O O10 0.033570 0.884143 0.345322
O O11 0.000000 0.943957 0.500000
O O12 0.034863 0.000000 0.337970
O O13 0.500000 0.183806 0.500000
O O14 0.250000 0.182040 0.411519
O O15 0.750000 0.338077 0.093134
O O16 0.500000 0.318777 0.000000
O O17 0.500000 0.598806 0.500000
O O18 0.750000 0.604587 0.577749
#
# Coordination Sequence:
#
# PCOD8214563 Si02
#       6
#     8   8   8   8   8   8
#     4   9  19  36  53  69  92 119 146 177 212 252
#     4   9  18  32  46  63  89 117 148 184 221 261
#     4   8  13  21  33  52  81 118 157 190 219 252
#     4   9  16  25  40  62  90 124 157 190 223 255
#     4  11  22  36  54  72  89 110 137 173 220 269
#     4   9  17  28  43  63  88 118 147 177 212 248
#
# _framework density 16.107506999999998
#
# number of rings (size 3 to 8) (size 9 to 14) (size 15 to 20)
#    0.000    2.833    0.000    3.000    0.000    4.333 
#    0.000    0.000    0.000    0.000    0.000    0.000 
#    0.000    0.667    0.000    1.167    0.000    2.000 
#
# Total GULP energy -594703.548269 kJ/mol
# GULP energy per Si atom -12389.657256 kJ/mol
# Density = 1.607085 g / cm^3
# Si number density = 16.107507 Si / 1000 Ang^3
#
#
#
# Elastic Constant Matrix: (Units=GPa)
#
#
# Indices 1 2 3 4 5 6 
#
# 1 56.4493 29.3913 32.1117 0.0000 0.0000 0.0000
# 2 29.3913 130.3345 29.9361 0.0000 0.0000 0.0000
# 3 32.1117 29.9361 68.2385 0.0000 0.0000 0.0000
# 4 0.0000 0.0000 0.0000 5.2897 0.0000 0.0000
# 5 0.0000 0.0000 0.0000 0.0000 25.7852 0.0000
# 6 0.0000 0.0000 0.0000 0.0000 0.0000 15.7397
#
#
#
# Elastic Compliance Matrix: (Units=1/GPa)
#
#
# Indices 1 2 3 4 5 6 
#
# 1 0.025420 -0.003319 -0.010506 0.000000 0.000000 0.000000
# 2 -0.003319 0.008966 -0.002371 0.000000 0.000000 0.000000
# 3 -0.010506 -0.002371 0.020639 0.000000 0.000000 0.000000
# 4 0.000000 0.000000 0.000000 0.189045 0.000000 0.000000
# 5 0.000000 0.000000 0.000000 0.000000 0.038782 0.000000
# 6 0.000000 0.000000 0.000000 0.000000 0.000000 0.063534
#
#
# Mechanical properties :
#
#
# Convention : Reuss Voigt Hill
#
# Bulk Modulus (GPa) = 44.18670 48.65559 46.42115
# Shear Modulus (GPa) = 12.94261 20.26847 16.60554
#
# Velocity S-wave (km/s) = 2.83771 3.55114 3.21428
# Velocity P-wave (km/s) = 6.18294 6.86196 6.53128
#
# Compressibility (1/GPa) = 0.02263124
#
# Stress axis : x y z
#
# Youngs Moduli (GPa) = 39.33983 111.53587 48.45295
#
# Poissons Ratio (x) = 0.37021 0.50904
# Poissons Ratio (y) = 0.13058 0.11490
# Poissons Ratio (z) = 0.41330 0.26448
#
# Static dielectric constant tensor:
#      x y z
#    x 2.942370 0.000000 0.000000 
#    y 0.000000 3.621500 0.000000 
#    z 0.000000 0.000000 2.784140 
# 
# 
# High freq. dielectric constant tensor:
#      x y z
#    x 1.617250 0.000000 0.000000 
#    y 0.000000 1.628420 0.000000 
#    z 0.000000 0.000000 1.580300 
# 
# From -- ./inp_files/14412.got.cif
#   From: 2010.03.12/outbox.cif.g09.slc.cpg/sg51_8_cif.got.tgz:14412.got - 2010.04.16 13:43:02.
