data_PCOD8214385
_publ_section_title
;
Structure prediction by ZEFSAII (Michael W. Deem and Ramdas Pophale) SiO2 
 PCOD8214385
Probable space group: P M M A
;
_chemical_formula_sum "Si O2"
_cell_formula_units_Z 48
_cell_length_a 18.799749
_cell_length_b 9.012388
_cell_length_c 14.667079
_cell_angle_alpha 90.000000
_cell_angle_beta 90.000000
_cell_angle_gamma 90.000000
_cell_volume 2485.052469
_symmetry_space_group_name_H-M "P M M A"
_symmetry_group_IT_number 51
_symmetry_cell_setting 'orthorhombic'
loop_
_space_group_symop_operation_xyz
x,y,z
1/2-x,-y,z
1/2+x,-y,-z
-x,y,-z
-x,-y,-z
1/2+x,y,-z
1/2-x,y,z
x,-y,z
loop_
_atom_site_type_symbol
_atom_site_label
_atom_site_fract_x
_atom_site_fract_y
_atom_site_fract_z
Si Si1 0.550812 0.829488 0.865159
Si Si2 0.895190 0.829719 0.057013
Si Si3 0.556187 0.328806 0.678418
Si Si4 0.414498 0.824529 0.632667
Si Si5 0.831816 0.670447 0.527133
Si Si6 0.168787 0.331122 0.788556
O O1 0.470950 0.799675 0.896744
O O2 0.570679 0.727106 0.780332
O O3 0.560235 0.000000 0.835675
O O4 0.602657 0.790065 0.949697
O O5 0.838351 0.724203 0.107020
O O6 0.872444 0.000000 0.069608
O O7 0.533850 0.500000 0.681622
O O8 0.493716 0.241010 0.626551
O O9 0.628813 0.304376 0.622859
O O10 0.366828 0.772389 0.549075
O O11 0.379439 0.773836 0.726881
O O12 0.420182 0.000000 0.631962
O O13 0.750000 0.717160 0.540323
O O14 0.838299 0.500000 0.494750
O O15 0.250000 0.318154 0.756661
O O16 0.142150 0.500000 0.780309
#
# Coordination Sequence:
#
# PCOD8214385 Si02
#       6
#     8   8   8   8   8   8
#     4   9  18  34  57  85 115 147 186 235 283 330
#     4   9  18  34  56  82 114 151 189 231 283 339
#     4  11  22  37  61  90 116 150 193 237 287 342
#     4  12  24  38  59  87 116 149 192 241 289 343
#     4  10  23  43  62  82 114 153 191 235 288 345
#     4  11  23  37  55  83 119 155 193 240 292 346
#
# _framework density 19.315487999999998
#
# number of rings (size 3 to 8) (size 9 to 14) (size 15 to 20)
#    0.000    1.667    1.667    4.500    0.000    7.667 
#    0.000    2.500    0.000    3.000    0.000    0.000 
#    0.000    0.000    0.000    0.000    0.000    0.000 
#
# Total GULP energy -595344.670432 kJ/mol
# GULP energy per Si atom -12403.013967 kJ/mol
# Density = 1.927153 g / cm^3
# Si number density = 19.315488 Si / 1000 Ang^3
#
#
#
# Elastic Constant Matrix: (Units=GPa)
#
#
# Indices 1 2 3 4 5 6 
#
# 1 84.5998 53.9351 55.1494 0.0000 0.0000 0.0000
# 2 53.9351 129.8955 67.0787 0.0000 0.0000 0.0000
# 3 55.1494 67.0787 115.2710 0.0000 0.0000 0.0000
# 4 0.0000 0.0000 0.0000 38.7370 0.0000 0.0000
# 5 0.0000 0.0000 0.0000 0.0000 22.3853 0.0000
# 6 0.0000 0.0000 0.0000 0.0000 0.0000 16.5582
#
#
#
# Elastic Compliance Matrix: (Units=1/GPa)
#
#
# Indices 1 2 3 4 5 6 
#
# 1 0.018881 -0.004539 -0.006392 0.000000 0.000000 0.000000
# 2 -0.004539 0.012097 -0.004868 0.000000 0.000000 0.000000
# 3 -0.006392 -0.004868 0.014566 0.000000 0.000000 0.000000
# 4 0.000000 0.000000 0.000000 0.025815 0.000000 0.000000
# 5 0.000000 0.000000 0.000000 0.000000 0.044672 0.000000
# 6 0.000000 0.000000 0.000000 0.000000 0.000000 0.060393
#
#
# Mechanical properties :
#
#
# Convention : Reuss Voigt Hill
#
# Bulk Modulus (GPa) = 71.70317 75.78808 73.74563
# Shear Modulus (GPa) = 23.51056 25.77631 24.64343
#
# Velocity S-wave (km/s) = 3.49261 3.65703 3.57576
# Velocity P-wave (km/s) = 7.31212 7.56002 7.43710
#
# Compressibility (1/GPa) = 0.01394638
#
# Stress axis : x y z
#
# Youngs Moduli (GPa) = 52.96370 82.66554 68.65260
#
# Poissons Ratio (x) = 0.37521 0.43882
# Poissons Ratio (y) = 0.24039 0.33420
# Poissons Ratio (z) = 0.33854 0.40241
#
# Static dielectric constant tensor:
#      x y z
#    x 3.427160 0.000000 0.000000 
#    y 0.000000 3.514330 0.000000 
#    z 0.000000 0.000000 3.721700 
# 
# 
# High freq. dielectric constant tensor:
#      x y z
#    x 1.736570 0.000000 0.000000 
#    y 0.000000 1.753420 0.000000 
#    z 0.000000 0.000000 1.760190 
# 
# From -- ./inp_files/24772.got.cif
#   From: 2010.03.12/outbox.cif.g09.slc.cpg/sg51_13_cif.got.tgz:24772.got - 2010.04.16 13:43:02.
