data_PCOD8214568
_publ_section_title
;
Structure prediction by ZEFSAII (Michael W. Deem and Ramdas Pophale) SiO2 
 PCOD8214568
Probable space group: P M M A
;
_chemical_formula_sum "Si O2"
_cell_formula_units_Z 56
_cell_length_a 20.809834
_cell_length_b 8.690944
_cell_length_c 15.282608
_cell_angle_alpha 90.000000
_cell_angle_beta 90.000000
_cell_angle_gamma 90.000000
_cell_volume 2763.968193
_symmetry_space_group_name_H-M "P M M A"
_symmetry_group_IT_number 51
_symmetry_cell_setting 'orthorhombic'
loop_
_space_group_symop_operation_xyz
x,y,z
1/2-x,-y,z
1/2+x,-y,-z
-x,y,-z
-x,-y,-z
1/2+x,y,-z
1/2-x,y,z
x,-y,z
loop_
_atom_site_type_symbol
_atom_site_label
_atom_site_fract_x
_atom_site_fract_y
_atom_site_fract_z
Si Si1 0.822551 0.677415 0.026322
Si Si2 0.372020 0.823224 0.811261
Si Si3 0.001668 0.680935 0.221950
Si Si4 0.959519 0.317099 0.585029
Si Si5 0.442173 0.180055 0.064315
Si Si6 0.677656 0.330649 0.349233
Si Si7 0.819744 0.317449 0.546906
O O1 0.750000 0.708256 0.992547
O O2 0.841403 0.500000 0.012869
O O3 0.825544 0.719536 0.129176
O O4 0.872932 0.786196 0.977613
O O5 0.445217 0.774658 0.825818
O O6 0.358310 0.792718 0.709686
O O7 0.362016 0.000000 0.835761
O O8 0.989063 0.500000 0.219664
O O9 0.009914 0.736033 0.322837
O O10 0.059684 0.727228 0.157087
O O11 0.957257 0.500000 0.578170
O O12 0.885463 0.253633 0.590210
O O13 0.000000 0.254403 0.500000
O O14 0.448061 0.000000 0.083225
O O15 0.500000 0.235367 0.000000
O O16 0.750000 0.346283 0.316602
O O17 0.643990 0.500000 0.342737
O O18 0.674422 0.266668 0.446672
O O19 0.750000 0.254316 0.584180
O O20 0.817246 0.500000 0.554274
#
# Coordination Sequence:
#
# PCOD8214568 Si02
#       7
#     8   8   8   8   8   8   8
#     4  11  24  41  63  90 118 151 194 245 297 350
#     4  12  23  34  51  79 115 153 190 233 293 359
#     4  11  22  36  59  86 113 152 198 246 296 348
#     4   9  17  30  51  82 116 149 191 242 296 346
#     4  11  23  41  64  89 118 157 198 239 291 354
#     4   9  17  30  50  76 106 144 189 234 285 346
#     4   8  14  27  49  76 106 141 184 238 293 342
#
# _framework density 20.260725000000001
#
# number of rings (size 3 to 8) (size 9 to 14) (size 15 to 20)
#    0.000    1.857    1.429    4.714    0.000    6.000 
#    0.000    0.714    0.000   10.286    0.000    0.000 
#    0.000    0.000    0.000    0.000    0.000    0.000 
#
# Total GULP energy -693937.513821 kJ/mol
# GULP energy per Si atom -12391.741318 kJ/mol
# Density = 2.021461 g / cm^3
# Si number density = 20.260725 Si / 1000 Ang^3
#
#
#
# Elastic Constant Matrix: (Units=GPa)
#
#
# Indices 1 2 3 4 5 6 
#
# 1 109.0319 20.4962 28.7629 0.0000 0.0000 0.0000
# 2 20.4962 48.7206 23.5805 0.0000 0.0000 0.0000
# 3 28.7629 23.5805 91.5190 0.0000 0.0000 0.0000
# 4 0.0000 0.0000 0.0000 11.8264 0.0000 0.0000
# 5 0.0000 0.0000 0.0000 0.0000 30.4657 0.0000
# 6 0.0000 0.0000 0.0000 0.0000 0.0000 18.1560
#
#
#
# Elastic Compliance Matrix: (Units=1/GPa)
#
#
# Indices 1 2 3 4 5 6 
#
# 1 0.010419 -0.003197 -0.002451 0.000000 0.000000 0.000000
# 2 -0.003197 0.024430 -0.005290 0.000000 0.000000 0.000000
# 3 -0.002451 -0.005290 0.013060 0.000000 0.000000 0.000000
# 4 0.000000 0.000000 0.000000 0.084556 0.000000 0.000000
# 5 0.000000 0.000000 0.000000 0.000000 0.032824 0.000000
# 6 0.000000 0.000000 0.000000 0.000000 0.000000 0.055078
#
#
# Mechanical properties :
#
#
# Convention : Reuss Voigt Hill
#
# Bulk Modulus (GPa) = 38.41131 43.88340 41.14735
# Shear Modulus (GPa) = 19.92656 23.85176 21.88916
#
# Velocity S-wave (km/s) = 3.13949 3.43482 3.29047
# Velocity P-wave (km/s) = 5.66935 6.11858 5.89824
#
# Compressibility (1/GPa) = 0.02603400
#
# Stress axis : x y z
#
# Youngs Moduli (GPa) = 95.97712 40.93259 76.57018
#
# Poissons Ratio (x) = 0.13086 0.18766
# Poissons Ratio (y) = 0.30684 0.40505
# Poissons Ratio (z) = 0.23522 0.21653
#
# Static dielectric constant tensor:
#      x y z
#    x 4.009660 0.000000 0.000000 
#    y 0.000000 3.222990 0.000000 
#    z 0.000000 0.000000 3.641080 
# 
# 
# High freq. dielectric constant tensor:
#      x y z
#    x 1.799560 0.000000 0.000000 
#    y 0.000000 1.753380 0.000000 
#    z 0.000000 0.000000 1.779490 
# 
# From -- ./inp_files/25684.got.cif
#   From: 2010.03.12/outbox.cif.g09.slc.cpg/sg51_13_cif.got.tgz:25684.got - 2010.04.16 13:43:02.
