data_PCOD8214768
_publ_section_title
;
Structure prediction by ZEFSAII (Michael W. Deem and Ramdas Pophale) SiO2 
 PCOD8214768
Probable space group: P M M A
;
_chemical_formula_sum "Si O2"
_cell_formula_units_Z 40
_cell_length_a 9.408731
_cell_length_b 13.940686
_cell_length_c 18.829762
_cell_angle_alpha 90.000000
_cell_angle_beta 90.000000
_cell_angle_gamma 90.000000
_cell_volume 2469.790001
_symmetry_space_group_name_H-M "P M M A"
_symmetry_group_IT_number 51
_symmetry_cell_setting 'orthorhombic'
loop_
_space_group_symop_operation_xyz
x,y,z
1/2-x,-y,z
1/2+x,-y,-z
-x,y,-z
-x,-y,-z
1/2+x,y,-z
1/2-x,y,z
x,-y,z
loop_
_atom_site_type_symbol
_atom_site_label
_atom_site_fract_x
_atom_site_fract_y
_atom_site_fract_z
Si Si1 0.917221 0.710105 0.430279
Si Si2 0.918641 0.605794 0.287977
Si Si3 0.415664 0.111257 0.930669
Si Si4 0.081322 0.105585 0.650592
Si Si5 0.919250 0.209879 0.210873
O O1 0.750000 0.702935 0.444819
O O2 0.964405 0.640427 0.366297
O O3 0.963408 0.818983 0.410201
O O4 0.000000 0.676750 0.500000
O O5 0.750000 0.602077 0.285323
O O6 0.983321 0.500000 0.272847
O O7 0.972173 0.681461 0.228142
O O8 0.250000 0.130451 0.944038
O O9 0.476262 0.173966 0.865093
O O10 0.444380 0.000000 0.913424
O O11 0.500000 0.145072 0.000000
O O12 0.250000 0.102241 0.655063
O O13 0.022686 0.139938 0.727198
O O14 0.018844 0.000000 0.632891
O O15 0.750000 0.205700 0.210635
#
# Coordination Sequence:
#
# PCOD8214768 Si02
#       5
#     8   8   8   8   8
#     4   9  17  27  39  57  79 101 126 157 194 234
#     4   8  14  25  41  60  78  96 125 166 202 226
#     4   9  16  25  39  61  86 108 129 154 186 225
#     4   8  13  22  37  56  76  99 129 163 193 220
#     4   8  13  22  38  58  77  99 130 164 192 221
#
# _framework density 16.195709000000001
#
# number of rings (size 3 to 8) (size 9 to 14) (size 15 to 20)
#    0.000    3.600    0.000    3.000    0.000    3.200 
#    0.000    0.000    0.000    5.400    0.000    0.000 
#    0.000    0.000    0.000    0.000    0.000    0.000 
#
# Total GULP energy -495636.946451 kJ/mol
# GULP energy per Si atom -12390.923661 kJ/mol
# Density = 1.615885 g / cm^3
# Si number density = 16.195709 Si / 1000 Ang^3
#
#
#
# Elastic Constant Matrix: (Units=GPa)
#
#
# Indices 1 2 3 4 5 6 
#
# 1 16.4881 11.4716 25.1325 0.0000 0.0000 0.0000
# 2 11.4716 112.1501 47.6144 0.0000 0.0000 0.0000
# 3 25.1325 47.6144 119.3847 0.0000 0.0000 0.0000
# 4 0.0000 0.0000 0.0000 19.8318 0.0000 0.0000
# 5 0.0000 0.0000 0.0000 0.0000 22.4977 0.0000
# 6 0.0000 0.0000 0.0000 0.0000 0.0000 7.8288
#
#
#
# Elastic Compliance Matrix: (Units=1/GPa)
#
#
# Indices 1 2 3 4 5 6 
#
# 1 0.089487 -0.001391 -0.018284 0.000000 0.000000 0.000000
# 2 -0.001391 0.010756 -0.003997 0.000000 0.000000 0.000000
# 3 -0.018284 -0.003997 0.013819 0.000000 0.000000 0.000000
# 4 0.000000 0.000000 0.000000 0.050424 0.000000 0.000000
# 5 0.000000 0.000000 0.000000 0.000000 0.044449 0.000000
# 6 0.000000 0.000000 0.000000 0.000000 0.000000 0.127734
#
#
# Mechanical properties :
#
#
# Convention : Reuss Voigt Hill
#
# Bulk Modulus (GPa) = 14.98824 46.27332 30.63078
# Shear Modulus (GPa) = 12.30764 20.95195 16.62980
#
# Velocity S-wave (km/s) = 2.75968 3.60067 3.20785
# Velocity P-wave (km/s) = 4.40783 6.77641 5.71615
#
# Compressibility (1/GPa) = 0.06671898
#
# Stress axis : x y z
#
# Youngs Moduli (GPa) = 11.17482 92.97269 72.36185
#
# Poissons Ratio (x) = 0.12931 1.32305
# Poissons Ratio (y) = 0.01554 0.28923
# Poissons Ratio (z) = 0.20432 0.37161
#
# Static dielectric constant tensor:
#      x y z
#    x 2.466540 0.000000 0.000000 
#    y 0.000000 3.545640 0.000000 
#    z 0.000000 0.000000 3.098260 
# 
# 
# High freq. dielectric constant tensor:
#      x y z
#    x 1.558030 0.000000 0.000000 
#    y 0.000000 1.624460 0.000000 
#    z 0.000000 0.000000 1.617760 
# 
# From -- ./inp_files/15330.got.cif
#   From: 2010.03.12/outbox.cif.g09.slc.cpg/sg51_8_cif.got.tgz:15330.got - 2010.04.16 13:43:02.
