data_PCOD8214631
_publ_section_title
;
Structure prediction by ZEFSAII (Michael W. Deem and Ramdas Pophale) SiO2 
 PCOD8214631
Probable space group: P M M A
;
_chemical_formula_sum "Si O2"
_cell_formula_units_Z 48
_cell_length_a 17.713932
_cell_length_b 8.728444
_cell_length_c 15.763657
_cell_angle_alpha 90.000000
_cell_angle_beta 90.000000
_cell_angle_gamma 90.000000
_cell_volume 2437.298828
_symmetry_space_group_name_H-M "P M M A"
_symmetry_group_IT_number 51
_symmetry_cell_setting 'orthorhombic'
loop_
_space_group_symop_operation_xyz
x,y,z
1/2-x,-y,z
1/2+x,-y,-z
-x,y,-z
-x,-y,-z
1/2+x,y,-z
1/2-x,y,z
x,-y,z
loop_
_atom_site_type_symbol
_atom_site_label
_atom_site_fract_x
_atom_site_fract_y
_atom_site_fract_z
Si Si1 0.250000 0.178618 0.207223
Si Si2 0.750000 0.673967 0.615120
Si Si3 0.837446 0.819857 0.063462
Si Si4 0.048329 0.321203 0.813929
Si Si5 0.883974 0.825752 0.531926
Si Si6 0.033341 0.826083 0.637055
Si Si7 0.111091 0.319223 0.109060
O O1 0.250000 0.209859 0.306689
O O2 0.174851 0.247456 0.167682
O O3 0.250000 0.000000 0.188219
O O4 0.750000 0.500000 0.648329
O O5 0.821726 0.703016 0.556480
O O6 0.750000 0.768956 0.069791
O O7 0.880835 0.771865 0.148658
O O8 0.843554 0.000000 0.048644
O O9 0.878862 0.733952 0.987001
O O10 0.061407 0.500000 0.830074
O O11 0.045000 0.290253 0.713876
O O12 0.970675 0.265221 0.857792
O O13 0.903171 0.796608 0.433687
O O14 0.953601 0.795030 0.593667
O O15 0.855188 0.000000 0.543572
O O16 0.037863 0.000000 0.671195
O O17 0.118981 0.500000 0.114384
#
# Coordination Sequence:
#
# PCOD8214631 Si02
#       7
#     4   4   8   8   8   8   8
#     4  12  24  38  60  89 122 161 202 246 298 353
#     4  12  24  36  54  87 122 155 194 238 294 353
#     4  11  24  42  63  88 118 158 206 250 298 352
#     4  11  24  39  60  91 122 158 201 244 299 359
#     4   9  19  38  62  86 116 154 195 242 297 352
#     4   9  19  38  63  88 114 151 199 246 293 347
#     4  11  23  40  62  90 124 158 195 245 303 359
#
# _framework density 19.693933999999999
#
# number of rings (size 3 to 8) (size 9 to 14) (size 15 to 20)
#    0.000    1.500    0.833    5.500    0.000    9.667 
#    1.500    1.667    0.000    0.000    0.000    0.000 
#    0.000    0.000    0.000    0.000    0.000    0.000 
#
# Total GULP energy -595430.922427 kJ/mol
# GULP energy per Si atom -12404.810884 kJ/mol
# Density = 1.964911 g / cm^3
# Si number density = 19.693934 Si / 1000 Ang^3
#
#
#
# Elastic Constant Matrix: (Units=GPa)
#
#
# Indices 1 2 3 4 5 6 
#
# 1 81.8773 32.2521 51.0933 0.0000 0.0000 0.0000
# 2 32.2521 70.4646 31.4799 0.0000 0.0000 0.0000
# 3 51.0933 31.4799 108.7282 0.0000 0.0000 0.0000
# 4 0.0000 0.0000 0.0000 33.2450 0.0000 0.0000
# 5 0.0000 0.0000 0.0000 0.0000 23.6376 0.0000
# 6 0.0000 0.0000 0.0000 0.0000 0.0000 24.8171
#
#
#
# Elastic Compliance Matrix: (Units=1/GPa)
#
#
# Indices 1 2 3 4 5 6 
#
# 1 0.018904 -0.005380 -0.007326 0.000000 0.000000 0.000000
# 2 -0.005380 0.017831 -0.002635 0.000000 0.000000 0.000000
# 3 -0.007326 -0.002635 0.013402 0.000000 0.000000 0.000000
# 4 0.000000 0.000000 0.000000 0.030080 0.000000 0.000000
# 5 0.000000 0.000000 0.000000 0.000000 0.042306 0.000000
# 6 0.000000 0.000000 0.000000 0.000000 0.000000 0.040295
#
#
# Mechanical properties :
#
#
# Convention : Reuss Voigt Hill
#
# Bulk Modulus (GPa) = 51.39438 54.52452 52.95945
# Shear Modulus (GPa) = 25.00214 26.08959 25.54586
#
# Velocity S-wave (km/s) = 3.56692 3.64366 3.60550
# Velocity P-wave (km/s) = 6.56636 6.74150 6.65450
#
# Compressibility (1/GPa) = 0.01945738
#
# Stress axis : x y z
#
# Youngs Moduli (GPa) = 52.89911 56.08270 74.61308
#
# Poissons Ratio (x) = 0.30171 0.54659
# Poissons Ratio (y) = 0.28458 0.19657
# Poissons Ratio (z) = 0.38752 0.14775
#
# Static dielectric constant tensor:
#      x y z
#    x 3.667150 0.000000 0.000000 
#    y 0.000000 3.531260 0.000000 
#    z 0.000000 0.000000 3.576430 
# 
# 
# High freq. dielectric constant tensor:
#      x y z
#    x 1.772040 0.000000 0.000000 
#    y 0.000000 1.769470 0.000000 
#    z 0.000000 0.000000 1.774030 
# 
# From -- ./inp_files/24950.got.cif
#   From: 2010.03.12/outbox.cif.g09.slc.cpg/sg51_13_cif.got.tgz:24950.got - 2010.04.16 13:43:02.
