data_PCOD8214229
_publ_section_title
;
Structure prediction by ZEFSAII (Michael W. Deem and Ramdas Pophale) SiO2 
 PCOD8214229
Probable space group: P M M A
;
_chemical_formula_sum "Si O2"
_cell_formula_units_Z 44
_cell_length_a 9.594095
_cell_length_b 8.184942
_cell_length_c 30.242734
_cell_angle_alpha 90.000000
_cell_angle_beta 90.000000
_cell_angle_gamma 90.000000
_cell_volume 2374.874533
_symmetry_space_group_name_H-M "P M M A"
_symmetry_group_IT_number 51
_symmetry_cell_setting 'orthorhombic'
loop_
_space_group_symop_operation_xyz
x,y,z
1/2-x,-y,z
1/2+x,-y,-z
-x,y,-z
-x,-y,-z
1/2+x,y,-z
1/2-x,y,z
x,-y,z
loop_
_atom_site_type_symbol
_atom_site_label
_atom_site_fract_x
_atom_site_fract_y
_atom_site_fract_z
Si Si1 0.905354 0.309721 0.538520
Si Si2 0.912200 0.500000 0.044095
Si Si3 0.406553 0.191281 0.188465
Si Si4 0.412064 0.188658 0.895674
Si Si5 0.592190 0.690064 0.719985
Si Si6 0.410302 0.812029 0.370291
O O1 0.750000 0.230516 0.536737
O O2 0.893669 0.500000 0.529581
O O3 0.974505 0.279101 0.586901
O O4 0.000000 0.229205 0.500000
O O5 0.750000 0.500000 0.032062
O O6 0.950026 0.670463 0.068942
O O7 0.000000 0.500000 0.000000
O O8 0.250000 0.262882 0.180889
O O9 0.502223 0.240438 0.147457
O O10 0.478192 0.262086 0.233265
O O11 0.399389 0.000000 0.193876
O O12 0.250000 0.197447 0.883528
O O13 0.449134 0.000000 0.911226
O O14 0.750000 0.758316 0.723202
O O15 0.587011 0.500000 0.712748
O O16 0.516349 0.767351 0.676646
O O17 0.250000 0.755986 0.365736
O O18 0.428498 0.000000 0.380144
#
# Coordination Sequence:
#
# PCOD8214229 Si02
#       6
#     8   4   8   8   8   8
#     4   9  17  29  45  64  85 111 144 183 228 278
#     4  10  22  38  56  80 106 136 174 214 253 296
#     4   9  17  29  47  73 101 128 162 203 244 286
#     4   9  19  36  55  75 104 140 172 205 249 300
#     4   9  16  25  40  65  95 124 153 191 238 283
#     4   9  16  26  41  61  87 118 150 186 229 278
#
# _framework density 18.527296
#
# number of rings (size 3 to 8) (size 9 to 14) (size 15 to 20)
#    0.000    2.909    0.000    1.091    1.273    5.818 
#    0.000    0.000    0.000    1.091    0.000    0.000 
#    0.000    0.000    0.000    0.000    0.000    0.000 
#
# Total GULP energy -545148.054879 kJ/mol
# GULP energy per Si atom -12389.728520 kJ/mol
# Density = 1.848513 g / cm^3
# Si number density = 18.527296 Si / 1000 Ang^3
#
#
#
# Elastic Constant Matrix: (Units=GPa)
#
#
# Indices 1 2 3 4 5 6 
#
# 1 40.7241 22.9367 57.4423 0.0000 0.0000 0.0000
# 2 22.9367 62.6770 60.2395 0.0000 0.0000 0.0000
# 3 57.4423 60.2395 180.5411 0.0000 0.0000 0.0000
# 4 0.0000 0.0000 0.0000 31.2344 0.0000 0.0000
# 5 0.0000 0.0000 0.0000 0.0000 23.6298 0.0000
# 6 0.0000 0.0000 0.0000 0.0000 0.0000 12.8378
#
#
#
# Elastic Compliance Matrix: (Units=1/GPa)
#
#
# Indices 1 2 3 4 5 6 
#
# 1 0.045220 -0.004004 -0.013051 0.000000 0.000000 0.000000
# 2 -0.004004 0.023841 -0.006681 0.000000 0.000000 0.000000
# 3 -0.013051 -0.006681 0.011921 0.000000 0.000000 0.000000
# 4 0.000000 0.000000 0.000000 0.032016 0.000000 0.000000
# 5 0.000000 0.000000 0.000000 0.000000 0.042319 0.000000
# 6 0.000000 0.000000 0.000000 0.000000 0.000000 0.077895
#
#
# Mechanical properties :
#
#
# Convention : Reuss Voigt Hill
#
# Bulk Modulus (GPa) = 29.84311 62.79768 46.32040
# Shear Modulus (GPa) = 17.13178 23.09533 20.11356
#
# Velocity S-wave (km/s) = 3.04415 3.53449 3.29845
# Velocity P-wave (km/s) = 5.33839 7.11513 6.28981
#
# Compressibility (1/GPa) = 0.03350857
#
# Stress axis : x y z
#
# Youngs Moduli (GPa) = 22.11400 41.94414 83.88861
#
# Poissons Ratio (x) = 0.16796 1.09487
# Poissons Ratio (y) = 0.08856 0.56044
# Poissons Ratio (z) = 0.28862 0.28022
#
# Static dielectric constant tensor:
#      x y z
#    x 3.485120 0.000000 0.000000 
#    y 0.000000 3.388490 0.000000 
#    z 0.000000 0.000000 3.625620 
# 
# 
# High freq. dielectric constant tensor:
#      x y z
#    x 1.658460 0.000000 0.000000 
#    y 0.000000 1.722010 0.000000 
#    z 0.000000 0.000000 1.732910 
# 
# From -- ./inp_files/36767.got.cif
#   From: 2010.03.12/outbox.cif.g09.slc.cpg/sg51_19_cif.got.tgz:36767.got - 2010.04.16 13:43:02.
