data_PCOD8214429
_publ_section_title
;
Structure prediction by ZEFSAII (Michael W. Deem and Ramdas Pophale) SiO2 
 PCOD8214429
Probable space group: P M M A
;
_chemical_formula_sum "Si O2"
_cell_formula_units_Z 48
_cell_length_a 8.904532
_cell_length_b 24.126656
_cell_length_c 13.677246
_cell_angle_alpha 90.000000
_cell_angle_beta 90.000000
_cell_angle_gamma 90.000000
_cell_volume 2938.372760
_symmetry_space_group_name_H-M "P M M A"
_symmetry_group_IT_number 51
_symmetry_cell_setting 'orthorhombic'
loop_
_space_group_symop_operation_xyz
x,y,z
1/2-x,-y,z
1/2+x,-y,-z
-x,y,-z
-x,-y,-z
1/2+x,y,-z
1/2-x,y,z
x,-y,z
loop_
_atom_site_type_symbol
_atom_site_label
_atom_site_fract_x
_atom_site_fract_y
_atom_site_fract_z
Si Si1 0.075250 0.117876 0.600924
Si Si2 0.075831 0.230564 0.704712
Si Si3 0.926081 0.168489 0.099814
Si Si4 0.572366 0.668305 0.606717
Si Si5 0.074145 0.439882 0.605324
Si Si6 0.929097 0.938660 0.205794
O O1 0.250000 0.108422 0.587912
O O2 0.040691 0.181358 0.628925
O O3 0.012327 0.077784 0.686215
O O4 0.000000 0.101171 0.500000
O O5 0.250000 0.247918 0.698164
O O6 0.033763 0.211455 0.814245
O O7 0.970753 0.281809 0.678032
O O8 0.750000 0.166031 0.083950
O O9 0.987456 0.106901 0.127980
O O10 0.000000 0.189313 0.000000
O O11 0.500000 0.677377 0.500000
O O12 0.750000 0.664827 0.595736
O O13 0.508522 0.611769 0.657980
O O14 0.250000 0.426637 0.595152
O O15 0.050075 0.500000 0.658509
O O16 0.000000 0.443822 0.500000
O O17 0.750000 0.936688 0.207544
O O18 0.988948 0.000000 0.177712
#
# Coordination Sequence:
#
# PCOD8214429 Si02
#       6
#     8   8   8   8   8   8
#     4   9  17  28  43  61  82 112 145 176 212 253
#     4   9  18  32  45  60  85 114 146 181 218 263
#     4   9  18  32  50  68  86 110 138 175 223 270
#     4  11  20  28  42  64  90 121 154 187 221 255
#     4   9  16  26  40  58  84 120 157 188 217 250
#     4   8  15  29  46  63  85 113 142 170 208 262
#
# _framework density 16.335573
#
# number of rings (size 3 to 8) (size 9 to 14) (size 15 to 20)
#    0.000    2.833    0.000    5.500    0.000    4.333 
#    0.000    2.500    0.000    1.000    0.000    0.000 
#    0.000    0.667    0.000    2.167    0.000    3.000 
#
# Total GULP energy -594829.790693 kJ/mol
# GULP energy per Si atom -12392.287306 kJ/mol
# Density = 1.629839 g / cm^3
# Si number density = 16.335573 Si / 1000 Ang^3
#
#
#
# Elastic Constant Matrix: (Units=GPa)
#
#
# Indices 1 2 3 4 5 6 
#
# 1 72.4076 46.8579 26.9472 0.0000 0.0000 0.0000
# 2 46.8579 109.8891 28.8055 0.0000 0.0000 0.0000
# 3 26.9472 28.8055 76.7552 0.0000 0.0000 0.0000
# 4 0.0000 0.0000 0.0000 11.0445 0.0000 0.0000
# 5 0.0000 0.0000 0.0000 0.0000 24.0622 0.0000
# 6 0.0000 0.0000 0.0000 0.0000 0.0000 20.5088
#
#
#
# Elastic Compliance Matrix: (Units=1/GPa)
#
#
# Indices 1 2 3 4 5 6 
#
# 1 0.020276 -0.007520 -0.004296 0.000000 0.000000 0.000000
# 2 -0.007520 0.012882 -0.002194 0.000000 0.000000 0.000000
# 3 -0.004296 -0.002194 0.015360 0.000000 0.000000 0.000000
# 4 0.000000 0.000000 0.000000 0.090543 0.000000 0.000000
# 5 0.000000 0.000000 0.000000 0.000000 0.041559 0.000000
# 6 0.000000 0.000000 0.000000 0.000000 0.000000 0.048759
#
#
# Mechanical properties :
#
#
# Convention : Reuss Voigt Hill
#
# Bulk Modulus (GPa) = 48.78738 51.58591 50.18665
# Shear Modulus (GPa) = 18.92271 21.55252 20.23761
#
# Velocity S-wave (km/s) = 3.40718 3.63624 3.52357
# Velocity P-wave (km/s) = 6.73863 7.01977 6.88063
#
# Compressibility (1/GPa) = 0.02049710
#
# Stress axis : x y z
#
# Youngs Moduli (GPa) = 49.31953 77.62903 65.10260
#
# Poissons Ratio (x) = 0.58374 0.27971
# Poissons Ratio (y) = 0.37087 0.14286
# Poissons Ratio (z) = 0.21190 0.17035
#
# Static dielectric constant tensor:
#      x y z
#    x 2.871650 0.000000 0.000000 
#    y 0.000000 3.592970 0.000000 
#    z 0.000000 0.000000 2.957950 
# 
# 
# High freq. dielectric constant tensor:
#      x y z
#    x 1.618010 0.000000 0.000000 
#    y 0.000000 1.634740 0.000000 
#    z 0.000000 0.000000 1.589550 
# 
# From -- ./inp_files/21991.got.cif
#   From: 2010.03.12/outbox.cif.g09.slc.cpg/sg51_11_cif.got.tgz:21991.got - 2010.04.16 13:43:02.
