data_PCOD8214285
_publ_section_title
;
Structure prediction by ZEFSAII (Michael W. Deem and Ramdas Pophale) SiO2 
 PCOD8214285
Probable space group: P M M A
;
_chemical_formula_sum "Si O2"
_cell_formula_units_Z 48
_cell_length_a 27.857183
_cell_length_b 8.668942
_cell_length_c 9.972469
_cell_angle_alpha 90.000000
_cell_angle_beta 90.000000
_cell_angle_gamma 90.000000
_cell_volume 2408.274512
_symmetry_space_group_name_H-M "P M M A"
_symmetry_group_IT_number 51
_symmetry_cell_setting 'orthorhombic'
loop_
_space_group_symop_operation_xyz
x,y,z
1/2-x,-y,z
1/2+x,-y,-z
-x,y,-z
-x,-y,-z
1/2+x,y,-z
1/2-x,y,z
x,-y,z
loop_
_atom_site_type_symbol
_atom_site_label
_atom_site_fract_x
_atom_site_fract_y
_atom_site_fract_z
Si Si1 0.250000 0.683149 0.409554
Si Si2 0.995948 0.318712 0.154055
Si Si3 0.156133 0.823015 0.033817
Si Si4 0.750000 0.678737 0.889470
Si Si5 0.910903 0.179897 0.722134
Si Si6 0.647308 0.318104 0.486328
Si Si7 0.601505 0.819448 0.231745
O O1 0.250000 0.500000 0.405533
O O2 0.250000 0.755313 0.259225
O O3 0.201723 0.740646 0.484977
O O4 0.986053 0.500000 0.156858
O O5 0.953573 0.232600 0.232935
O O6 0.043297 0.279815 0.237357
O O7 0.000000 0.259450 0.000000
O O8 0.204210 0.724801 0.023492
O O9 0.130773 0.783111 0.172838
O O10 0.171027 0.000000 0.024522
O O11 0.121059 0.776156 0.914446
O O12 0.750000 0.500000 0.866489
O O13 0.891512 0.231445 0.578335
O O14 0.924925 0.000000 0.721272
O O15 0.643054 0.500000 0.511148
O O16 0.633908 0.275652 0.335146
O O17 0.605084 0.000000 0.264663
#
# Coordination Sequence:
#
# PCOD8214285 Si02
#       7
#     4   8   8   4   8   8   8
#     4   9  20  38  61  88 122 162 201 249 308 365
#     4  11  23  39  64  95 125 161 206 257 314 370
#     4  10  22  39  61  90 125 160 201 252 306 363
#     4  11  21  36  63  94 122 158 207 257 308 363
#     4  11  22  39  64  93 123 163 207 250 306 369
#     4  11  23  42  64  92 129 164 207 259 312 366
#     4  11  24  43  63  90 127 166 207 252 310 373
#
# _framework density 19.931283000000001
#
# number of rings (size 3 to 8) (size 9 to 14) (size 15 to 20)
#    0.000    1.333    3.333    2.250    0.000    4.000 
#    0.000    6.667    0.000    0.000    0.000    0.000 
#    0.000    0.000    0.000    0.000    0.000    0.000 
#
# Total GULP energy -595445.293939 kJ/mol
# GULP energy per Si atom -12405.110290 kJ/mol
# Density = 1.988592 g / cm^3
# Si number density = 19.931283 Si / 1000 Ang^3
#
#
#
# Elastic Constant Matrix: (Units=GPa)
#
#
# Indices 1 2 3 4 5 6 
#
# 1 107.1365 33.1191 14.3259 0.0000 0.0000 0.0000
# 2 33.1191 44.4404 23.7073 0.0000 0.0000 0.0000
# 3 14.3259 23.7073 60.3787 0.0000 0.0000 0.0000
# 4 0.0000 0.0000 0.0000 32.0552 0.0000 0.0000
# 5 0.0000 0.0000 0.0000 0.0000 32.1783 0.0000
# 6 0.0000 0.0000 0.0000 0.0000 0.0000 29.8875
#
#
#
# Elastic Compliance Matrix: (Units=1/GPa)
#
#
# Indices 1 2 3 4 5 6 
#
# 1 0.012162 -0.009518 0.000852 0.000000 0.000000 0.000000
# 2 -0.009518 0.035913 -0.011843 0.000000 0.000000 0.000000
# 3 0.000852 -0.011843 0.021010 0.000000 0.000000 0.000000
# 4 0.000000 0.000000 0.000000 0.031196 0.000000 0.000000
# 5 0.000000 0.000000 0.000000 0.000000 0.031077 0.000000
# 6 0.000000 0.000000 0.000000 0.000000 0.000000 0.033459
#
#
# Mechanical properties :
#
#
# Convention : Reuss Voigt Hill
#
# Bulk Modulus (GPa) = 35.62932 39.36223 37.49578
# Shear Modulus (GPa) = 23.23511 28.21111 25.72311
#
# Velocity S-wave (km/s) = 3.41803 3.76629 3.59638
# Velocity P-wave (km/s) = 5.78724 6.22134 6.00821
#
# Compressibility (1/GPa) = 0.02806677
#
# Stress axis : x y z
#
# Youngs Moduli (GPa) = 82.22056 27.84500 47.59640
#
# Poissons Ratio (x) = 0.26504 -0.04053
# Poissons Ratio (y) = 0.78260 0.56367
# Poissons Ratio (z) = -0.07001 0.32976
#
# Static dielectric constant tensor:
#      x y z
#    x 3.666610 0.000000 0.000000 
#    y 0.000000 3.498320 0.000000 
#    z 0.000000 0.000000 3.582990 
# 
# 
# High freq. dielectric constant tensor:
#      x y z
#    x 1.789290 0.000000 0.000000 
#    y 0.000000 1.774860 0.000000 
#    z 0.000000 0.000000 1.774870 
# 
# From -- ./inp_files/12983.got.cif
#   From: 2010.03.12/outbox.cif.g09.slc.cpg/sg51_7_cif.got.tgz:12983.got - 2010.04.16 13:43:02.
