data_PCOD8214052
_publ_section_title
;
Structure prediction by ZEFSAII (Michael W. Deem and Ramdas Pophale) SiO2 
 PCOD8214052
Probable space group: P M M A
;
_chemical_formula_sum "Si O2"
_cell_formula_units_Z 64
_cell_length_a 8.682822
_cell_length_b 23.384658
_cell_length_c 15.307554
_cell_angle_alpha 90.000000
_cell_angle_beta 90.000000
_cell_angle_gamma 90.000000
_cell_volume 3108.119592
_symmetry_space_group_name_H-M "P M M A"
_symmetry_group_IT_number 51
_symmetry_cell_setting 'orthorhombic'
loop_
_space_group_symop_operation_xyz
x,y,z
1/2-x,-y,z
1/2+x,-y,-z
-x,y,-z
-x,-y,-z
1/2+x,y,-z
1/2-x,y,z
x,-y,z
loop_
_atom_site_type_symbol
_atom_site_label
_atom_site_fract_x
_atom_site_fract_y
_atom_site_fract_z
Si Si1 0.569748 0.245369 0.650177
Si Si2 0.068698 0.638965 0.588567
Si Si3 0.074437 0.743270 0.834132
Si Si4 0.426728 0.566671 0.259029
Si Si5 0.569410 0.379264 0.092785
Si Si6 0.927772 0.135082 0.091442
Si Si7 0.931416 0.126334 0.408686
Si Si8 0.427918 0.934097 0.248444
O O1 0.750000 0.242234 0.632899
O O2 0.500562 0.298134 0.597784
O O3 0.539311 0.251921 0.752842
O O4 0.493104 0.188623 0.613988
O O5 0.250000 0.643060 0.581144
O O6 0.000000 0.611296 0.500000
O O7 0.027144 0.600229 0.670762
O O8 0.250000 0.740349 0.798671
O O9 0.031728 0.686956 0.888209
O O10 0.051539 0.796983 0.897672
O O11 0.250000 0.586531 0.266793
O O12 0.444815 0.500000 0.277739
O O13 0.488659 0.580367 0.163179
O O14 0.750000 0.391575 0.093443
O O15 0.500000 0.396331 0.000000
O O16 0.750000 0.116886 0.094053
O O17 0.016465 0.103315 0.167850
O O18 0.000000 0.115874 0.000000
O O19 0.750000 0.129219 0.415904
O O20 0.000000 0.104467 0.500000
O O21 0.977281 0.081200 0.334688
O O22 0.250000 0.920155 0.266312
O O23 0.455351 0.000000 0.225213
#
# Coordination Sequence:
#
# PCOD8214052 Si02
#       8
#     8   8   8   8   8   8   8   8
#     4  12  23  38  65  97 132 170 208 256 317 378
#     4  12  25  43  67  96 131 168 212 260 316 381
#     4  10  21  38  62  95 130 168 207 256 315 380
#     4  11  25  45  67  93 126 166 216 268 320 379
#     4  11  23  40  65  95 131 169 213 261 317 381
#     4  11  23  40  65  95 131 169 213 261 317 381
#     4  12  25  43  67  96 131 168 212 260 316 381
#     4  11  25  45  67  93 126 166 216 268 320 379
#
# _framework density 20.591228000000001
#
# number of rings (size 3 to 8) (size 9 to 14) (size 15 to 20)
#    0.000    0.750    2.500    5.625    0.000    4.000 
#    0.000    0.000    0.000    0.000    0.000    0.000 
#    0.000    0.000    0.000    0.000    0.000    0.000 
#
# Total GULP energy -794107.610974 kJ/mol
# GULP energy per Si atom -12407.931421 kJ/mol
# Density = 2.054436 g / cm^3
# Si number density = 20.591228 Si / 1000 Ang^3
#
#
#
# Elastic Constant Matrix: (Units=GPa)
#
#
# Indices 1 2 3 4 5 6 
#
# 1 145.7598 27.7036 31.9856 0.0000 0.0000 0.0000
# 2 27.7036 55.4747 1.7915 0.0000 0.0000 0.0000
# 3 31.9856 1.7915 114.7246 0.0000 0.0000 0.0000
# 4 0.0000 0.0000 0.0000 294.3591 0.0000 0.0000
# 5 0.0000 0.0000 0.0000 0.0000 41.3433 0.0000
# 6 0.0000 0.0000 0.0000 0.0000 0.0000 68.2417
#
#
#
# Elastic Compliance Matrix: (Units=1/GPa)
#
#
# Indices 1 2 3 4 5 6 
#
# 1 0.008098 -0.003973 -0.002196 0.000000 0.000000 0.000000
# 2 -0.003973 0.019985 0.000796 0.000000 0.000000 0.000000
# 3 -0.002196 0.000796 0.009316 0.000000 0.000000 0.000000
# 4 0.000000 0.000000 0.000000 0.003397 0.000000 0.000000
# 5 0.000000 0.000000 0.000000 0.000000 0.024188 0.000000
# 6 0.000000 0.000000 0.000000 0.000000 0.000000 0.014654
#
#
# Mechanical properties :
#
#
# Convention : Reuss Voigt Hill
#
# Bulk Modulus (GPa) = 37.51992 48.76896 43.14444
# Shear Modulus (GPa) = 50.36920 97.75406 74.06163
#
# Velocity S-wave (km/s) = 4.95122 6.89759 6.00380
# Velocity P-wave (km/s) = 7.13772 9.33656 8.31018
#
# Compressibility (1/GPa) = 0.02665251
#
# Stress axis : x y z
#
# Youngs Moduli (GPa) = 123.49484 50.03858 107.33951
#
# Poissons Ratio (x) = 0.19880 0.23567
# Poissons Ratio (y) = 0.49064 -0.08540
# Poissons Ratio (z) = 0.27114 -0.03981
#
# Static dielectric constant tensor:
#      x y z
#    x 3.867880 0.000000 0.000000 
#    y 0.000000 3.728320 0.000000 
#    z 0.000000 0.000000 3.839350 
# 
# 
# High freq. dielectric constant tensor:
#      x y z
#    x 1.821960 0.000000 0.000000 
#    y 0.000000 1.803180 0.000000 
#    z 0.000000 0.000000 1.818670 
# 
# From -- ./inp_files/22245.got.cif
#   From: 2010.03.12/outbox.cif.g09.slc.cpg/sg51_12_cif.got.tgz:22245.got - 2010.04.16 13:43:02.
