data_PCOD8214452
_publ_section_title
;
Structure prediction by ZEFSAII (Michael W. Deem and Ramdas Pophale) SiO2 
 PCOD8214452
Probable space group: P M M A
;
_chemical_formula_sum "Si O2"
_cell_formula_units_Z 56
_cell_length_a 24.971821
_cell_length_b 9.222886
_cell_length_c 15.127994
_cell_angle_alpha 90.000000
_cell_angle_beta 90.000000
_cell_angle_gamma 90.000000
_cell_volume 3484.162462
_symmetry_space_group_name_H-M "P M M A"
_symmetry_group_IT_number 51
_symmetry_cell_setting 'orthorhombic'
loop_
_space_group_symop_operation_xyz
x,y,z
1/2-x,-y,z
1/2+x,-y,-z
-x,y,-z
-x,-y,-z
1/2+x,y,-z
1/2-x,y,z
x,-y,z
loop_
_atom_site_type_symbol
_atom_site_label
_atom_site_fract_x
_atom_site_fract_y
_atom_site_fract_z
Si Si1 0.609617 0.329647 0.598186
Si Si2 0.609643 0.172124 0.413755
Si Si3 0.492683 0.659425 0.604313
Si Si4 0.812750 0.667733 0.286326
Si Si5 0.313797 0.162161 0.075865
Si Si6 0.311484 0.669099 0.247524
Si Si7 0.686386 0.339370 0.088451
O O1 0.613806 0.500000 0.573879
O O2 0.619310 0.237115 0.510513
O O3 0.551222 0.295476 0.641671
O O4 0.654397 0.281818 0.668029
O O5 0.553282 0.225608 0.371221
O O6 0.657539 0.225035 0.352270
O O7 0.609094 0.000000 0.419375
O O8 0.500000 0.651949 0.500000
O O9 0.475771 0.500000 0.640161
O O10 0.750000 0.692434 0.300164
O O11 0.827536 0.500000 0.305285
O O12 0.830294 0.711393 0.186672
O O13 0.250000 0.164541 0.072559
O O14 0.333844 0.248851 0.161577
O O15 0.336366 0.000000 0.081761
O O16 0.337394 0.233065 0.986239
O O17 0.250000 0.710124 0.267374
O O18 0.318172 0.500000 0.228142
O O19 0.750000 0.343909 0.082736
O O20 0.663635 0.500000 0.069916
#
# Coordination Sequence:
#
# PCOD8214452 Si02
#       7
#     8   8   8   8   8   8   8
#     4   9  18  32  48  65  86 117 156 191 221 255
#     4  11  21  30  44  67  93 118 145 182 227 271
#     4   8  15  30  49  64  81 109 149 193 226 256
#     4   9  18  32  48  65  88 120 154 183 214 259
#     4   9  16  25  39  61  89 118 144 174 215 259
#     4   9  17  29  45  65  89 117 149 182 215 257
#     4   8  14  26  44  63  82 109 147 185 215 247
#
# _framework density 16.072728999999999
#
# number of rings (size 3 to 8) (size 9 to 14) (size 15 to 20)
#    0.000    3.000    0.000    3.429    0.000    6.286 
#    0.000    2.857    0.000    0.000    0.000    1.000 
#    0.000    8.000    0.000    0.000    0.000    0.000 
#
# Total GULP energy -694119.841428 kJ/mol
# GULP energy per Si atom -12394.997168 kJ/mol
# Density = 1.603615 g / cm^3
# Si number density = 16.072729 Si / 1000 Ang^3
#
#
#
# Elastic Constant Matrix: (Units=GPa)
#
#
# Indices 1 2 3 4 5 6 
#
# 1 62.3624 42.8261 47.4479 0.0000 0.0000 0.0000
# 2 42.8261 105.6422 68.1050 0.0000 0.0000 0.0000
# 3 47.4479 68.1050 102.6480 0.0000 0.0000 0.0000
# 4 0.0000 0.0000 0.0000 11.5287 0.0000 0.0000
# 5 0.0000 0.0000 0.0000 0.0000 0.6079 0.0000
# 6 0.0000 0.0000 0.0000 0.0000 0.0000 14.1190
#
#
#
# Elastic Compliance Matrix: (Units=1/GPa)
#
#
# Indices 1 2 3 4 5 6 
#
# 1 0.026109 -0.004900 -0.008818 0.000000 0.000000 0.000000
# 2 -0.004900 0.017460 -0.009320 0.000000 0.000000 0.000000
# 3 -0.008818 -0.009320 0.020001 0.000000 0.000000 0.000000
# 4 0.000000 0.000000 0.000000 0.086740 0.000000 0.000000
# 5 0.000000 0.000000 0.000000 0.000000 1.645107 0.000000
# 6 0.000000 0.000000 0.000000 0.000000 0.000000 0.070826
#
#
# Mechanical properties :
#
#
# Convention : Reuss Voigt Hill
#
# Bulk Modulus (GPa) = 57.15474 65.26782 61.21128
# Shear Modulus (GPa) = 2.60668 12.73603 7.67135
#
# Velocity S-wave (km/s) = 1.27488 2.81801 2.18707
# Velocity P-wave (km/s) = 6.14853 7.16130 6.67415
#
# Compressibility (1/GPa) = 0.01749636
#
# Stress axis : x y z
#
# Youngs Moduli (GPa) = 38.30104 57.27214 49.99626
#
# Poissons Ratio (x) = 0.28062 0.44085
# Poissons Ratio (y) = 0.18766 0.46596
# Poissons Ratio (z) = 0.33773 0.53377
#
# Static dielectric constant tensor:
#      x y z
#    x 3.043580 0.000000 0.000000 
#    y 0.000000 3.081150 0.000000 
#    z 0.000000 0.000000 3.024540 
# 
# 
# High freq. dielectric constant tensor:
#      x y z
#    x 1.585100 0.000000 0.000000 
#    y 0.000000 1.615420 0.000000 
#    z 0.000000 0.000000 1.606260 
# 
# From -- ./inp_files/26502.got.cif
#   From: 2010.03.12/outbox.cif.g09.slc.cpg/sg51_14_cif.got.tgz:26502.got - 2010.04.16 13:43:02.
