data_PCOD8214598
_publ_section_title
;
Structure prediction by ZEFSAII (Michael W. Deem and Ramdas Pophale) SiO2 
 PCOD8214598
Probable space group: P M M A
;
_chemical_formula_sum "Si O2"
_cell_formula_units_Z 32
_cell_length_a 13.734422
_cell_length_b 11.653374
_cell_length_c 9.935911
_cell_angle_alpha 90.000000
_cell_angle_beta 90.000000
_cell_angle_gamma 90.000000
_cell_volume 1590.265967
_symmetry_space_group_name_H-M "P M M A"
_symmetry_group_IT_number 51
_symmetry_cell_setting 'orthorhombic'
loop_
_space_group_symop_operation_xyz
x,y,z
1/2-x,-y,z
1/2+x,-y,-z
-x,y,-z
-x,-y,-z
1/2+x,y,-z
1/2-x,y,z
x,-y,z
loop_
_atom_site_type_symbol
_atom_site_label
_atom_site_fract_x
_atom_site_fract_y
_atom_site_fract_z
Si Si1 0.250000 0.634939 0.208269
Si Si2 0.362460 0.000000 0.762653
Si Si3 0.750000 0.363418 0.483044
Si Si4 0.633234 0.000000 0.933009
Si Si5 0.568217 0.771410 0.374803
Si Si6 0.061225 0.756059 0.131774
O O1 0.250000 0.500000 0.205395
O O2 0.250000 0.679468 0.362439
O O3 0.157245 0.679502 0.126956
O O4 0.388667 0.110132 0.677046
O O5 0.250000 0.000000 0.792293
O O6 0.409230 0.000000 0.913123
O O7 0.750000 0.500000 0.471917
O O8 0.846043 0.316247 0.410464
O O9 0.592021 0.889394 0.855337
O O10 0.750000 0.000000 0.926981
O O11 0.500000 0.798004 0.500000
O O12 0.502739 0.715681 0.258377
O O13 0.000000 0.729333 0.000000
#
# Coordination Sequence:
#
# PCOD8214598 Si02
#       6
#     4   4   4   4   8   8
#     4  11  26  48  69  96 134 179 228 283 334 391
#     4  11  22  39  67  99 141 173 212 273 335 397
#     4  11  26  48  69  96 134 177 230 283 336 393
#     4  11  22  40  69  98 139 183 206 262 348 406
#     4  12  24  42  69 103 131 176 224 273 334 399
#     4  12  24  43  71 101 138 175 221 272 339 404
#
# _framework density 20.122420999999999
#
# number of rings (size 3 to 8) (size 9 to 14) (size 15 to 20)
#    0.000    0.500    7.500    1.500    0.000    3.000 
#    0.000    3.750    0.000    0.000    0.000    0.000 
#    0.000    0.000    0.000    0.000    0.000    0.000 
#
# Total GULP energy -396969.857912 kJ/mol
# GULP energy per Si atom -12405.308060 kJ/mol
# Density = 2.007662 g / cm^3
# Si number density = 20.122421 Si / 1000 Ang^3
#
#
#
# Elastic Constant Matrix: (Units=GPa)
#
#
# Indices 1 2 3 4 5 6 
#
# 1 133.5739 47.2453 57.2512 0.0000 0.0000 0.0000
# 2 47.2453 89.6085 32.7390 0.0000 0.0000 0.0000
# 3 57.2512 32.7390 120.7154 0.0000 0.0000 0.0000
# 4 0.0000 0.0000 0.0000 29.5597 0.0000 0.0000
# 5 0.0000 0.0000 0.0000 0.0000 40.5814 0.0000
# 6 0.0000 0.0000 0.0000 0.0000 0.0000 -3.6477
#
#
#
# Elastic Compliance Matrix: (Units=1/GPa)
#
#
# Indices 1 2 3 4 5 6 
#
# 1 0.010643 -0.004182 -0.003913 0.000000 0.000000 0.000000
# 2 -0.004182 0.014030 -0.001822 0.000000 0.000000 0.000000
# 3 -0.003913 -0.001822 0.010634 0.000000 0.000000 0.000000
# 4 0.000000 0.000000 0.000000 0.033830 0.000000 0.000000
# 5 0.000000 0.000000 0.000000 0.000000 0.024642 0.000000
# 6 0.000000 0.000000 0.000000 0.000000 0.000000 -0.274143
#
#
# Mechanical properties :
#
#
# Convention : Reuss Voigt Hill
#
# Bulk Modulus (GPa) = 64.62821 68.70765 66.66793
# Shear Modulus (GPa) = -32.18069 27.07615 -2.55227
#
# Velocity S-wave (km/s) = -4.00340 3.67218 -1.12744
# Velocity P-wave (km/s) = 3.28902 7.22488 5.61322
#
# Compressibility (1/GPa) = 0.01547312
#
# Stress axis : x y z
#
# Youngs Moduli (GPa) = 93.95960 71.27596 94.03715
#
# Poissons Ratio (x) = 0.29804 0.36801
# Poissons Ratio (y) = 0.39290 0.17132
# Poissons Ratio (z) = 0.36771 0.12986
#
# Static dielectric constant tensor:
#      x y z
#    x 3.977920 0.000000 0.000000 
#    y 0.000000 3.488640 0.000000 
#    z 0.000000 0.000000 3.556710 
# 
# 
# High freq. dielectric constant tensor:
#      x y z
#    x 1.817000 0.000000 0.000000 
#    y 0.000000 1.774240 0.000000 
#    z 0.000000 0.000000 1.791350 
# 
# From -- ./inp_files/7626.got.cif
#   From: 2010.03.12/outbox.cif.g09.slc.cpg/sg51_4_cif.got.tgz:7626.got - 2010.04.16 13:43:02.
