data_PCOD8214889
_publ_section_title
;
Structure prediction by ZEFSAII (Michael W. Deem and Ramdas Pophale) SiO2 
 PCOD8214889
Probable space group: P M M A
;
_chemical_formula_sum "Si O2"
_cell_formula_units_Z 56
_cell_length_a 18.575964
_cell_length_b 9.262616
_cell_length_c 18.898771
_cell_angle_alpha 90.000000
_cell_angle_beta 90.000000
_cell_angle_gamma 90.000000
_cell_volume 3251.760740
_symmetry_space_group_name_H-M "P M M A"
_symmetry_group_IT_number 51
_symmetry_cell_setting 'orthorhombic'
loop_
_space_group_symop_operation_xyz
x,y,z
1/2-x,-y,z
1/2+x,-y,-z
-x,y,-z
-x,-y,-z
1/2+x,y,-z
1/2-x,y,z
x,-y,z
loop_
_atom_site_type_symbol
_atom_site_label
_atom_site_fract_x
_atom_site_fract_y
_atom_site_fract_z
Si Si1 0.905203 0.831086 0.393301
Si Si2 0.526470 0.337357 0.790384
Si Si3 0.827332 0.836388 0.134297
Si Si4 0.563916 0.830767 0.657709
Si Si5 0.831205 0.828732 0.536189
Si Si6 0.864916 0.338854 0.263423
Si Si7 0.978553 0.169782 0.077687
O O1 0.878250 0.775052 0.469480
O O2 0.856846 0.747804 0.336178
O O3 0.989464 0.795069 0.383048
O O4 0.890703 0.000000 0.383527
O O5 0.556182 0.500000 0.801376
O O6 0.573682 0.253829 0.731729
O O7 0.446674 0.340330 0.761054
O O8 0.527583 0.253062 0.865097
O O9 0.750000 0.823810 0.093514
O O10 0.818938 0.738994 0.203501
O O11 0.893987 0.788781 0.085256
O O12 0.841309 0.000000 0.159652
O O13 0.628809 0.777748 0.607521
O O14 0.568092 0.000000 0.675012
O O15 0.750000 0.764824 0.534333
O O16 0.828325 0.000000 0.534769
O O17 0.835076 0.500000 0.274446
O O18 0.992644 0.000000 0.087556
O O19 0.000000 0.223208 0.000000
#
# Coordination Sequence:
#
# PCOD8214889 Si02
#       7
#     8   8   8   8   8   8   8
#     4   9  16  27  44  65  88 115 148 185 226 272
#     4   9  17  29  46  68  91 115 145 180 218 262
#     4   9  17  29  45  65  90 120 150 178 213 260
#     4   9  16  28  47  66  85 113 150 189 226 266
#     4   9  17  28  43  64  87 112 148 194 237 272
#     4   9  17  28  42  63  90 117 146 180 217 260
#     4   9  17  30  49  72  95 118 146 181 219 259
#
# _framework density 17.221439
#
# number of rings (size 3 to 8) (size 9 to 14) (size 15 to 20)
#    0.000    3.000    0.000    1.286    0.000    6.286 
#    0.000    2.143    0.000    5.571    0.000    4.000 
#    0.000    0.000    0.000    0.000    0.000    0.000 
#
# Total GULP energy -694105.861754 kJ/mol
# GULP energy per Si atom -12394.747531 kJ/mol
# Density = 1.718224 g / cm^3
# Si number density = 17.221439 Si / 1000 Ang^3
#
#
#
# Elastic Constant Matrix: (Units=GPa)
#
#
# Indices 1 2 3 4 5 6 
#
# 1 71.8762 26.0170 52.9926 0.0000 0.0000 0.0000
# 2 26.0170 64.8338 52.2060 0.0000 0.0000 0.0000
# 3 52.9926 52.2060 148.9978 0.0000 0.0000 0.0000
# 4 0.0000 0.0000 0.0000 8.6826 0.0000 0.0000
# 5 0.0000 0.0000 0.0000 0.0000 15.3633 0.0000
# 6 0.0000 0.0000 0.0000 0.0000 0.0000 7.3971
#
#
#
# Elastic Compliance Matrix: (Units=1/GPa)
#
#
# Indices 1 2 3 4 5 6 
#
# 1 0.019291 -0.003088 -0.005779 0.000000 0.000000 0.000000
# 2 -0.003088 0.021980 -0.006603 0.000000 0.000000 0.000000
# 3 -0.005779 -0.006603 0.011081 0.000000 0.000000 0.000000
# 4 0.000000 0.000000 0.000000 0.115173 0.000000 0.000000
# 5 0.000000 0.000000 0.000000 0.000000 0.065090 0.000000
# 6 0.000000 0.000000 0.000000 0.000000 0.000000 0.135189
#
#
# Mechanical properties :
#
#
# Convention : Reuss Voigt Hill
#
# Bulk Modulus (GPa) = 46.70352 60.90434 53.80393
# Shear Modulus (GPa) = 12.31885 16.58807 14.45346
#
# Velocity S-wave (km/s) = 2.67745 3.10695 2.90016
# Velocity P-wave (km/s) = 6.06107 6.95076 6.52111
#
# Compressibility (1/GPa) = 0.02141166
#
# Stress axis : x y z
#
# Youngs Moduli (GPa) = 51.83647 45.49529 90.24747
#
# Poissons Ratio (x) = 0.14048 0.52157
# Poissons Ratio (y) = 0.16006 0.59593
# Poissons Ratio (z) = 0.29958 0.30042
#
# Static dielectric constant tensor:
#      x y z
#    x 3.131720 0.000000 0.000000 
#    y 0.000000 3.195840 0.000000 
#    z 0.000000 0.000000 3.202020 
# 
# 
# High freq. dielectric constant tensor:
#      x y z
#    x 1.642660 0.000000 0.000000 
#    y 0.000000 1.649100 0.000000 
#    z 0.000000 0.000000 1.653930 
# 
# From -- ./inp_files/30431.got.cif
#   From: 2010.03.12/outbox.cif.g09.slc.cpg/sg51_16_cif.got.tgz:30431.got - 2010.04.16 13:43:02.
