data_PCOD8214765
_publ_section_title
;
Structure prediction by ZEFSAII (Michael W. Deem and Ramdas Pophale) SiO2 
 PCOD8214765
Probable space group: P M M A
;
_chemical_formula_sum "Si O2"
_cell_formula_units_Z 48
_cell_length_a 9.709815
_cell_length_b 9.760832
_cell_length_c 30.997223
_cell_angle_alpha 90.000000
_cell_angle_beta 90.000000
_cell_angle_gamma 90.000000
_cell_volume 2937.788869
_symmetry_space_group_name_H-M "P M M A"
_symmetry_group_IT_number 51
_symmetry_cell_setting 'orthorhombic'
loop_
_space_group_symop_operation_xyz
x,y,z
1/2-x,-y,z
1/2+x,-y,-z
-x,y,-z
-x,-y,-z
1/2+x,y,-z
1/2-x,y,z
x,-y,z
loop_
_atom_site_type_symbol
_atom_site_label
_atom_site_fract_x
_atom_site_fract_y
_atom_site_fract_z
Si Si1 0.910455 0.840415 0.709399
Si Si2 0.090058 0.658636 0.959185
Si Si3 0.903386 0.162819 0.212669
Si Si4 0.096868 0.337028 0.462775
Si Si5 0.586136 0.347485 0.632063
Si Si6 0.413625 0.847553 0.881986
O O1 0.750000 0.811905 0.717691
O O2 0.967148 0.758528 0.667945
O O3 0.992183 0.783601 0.750922
O O4 0.939449 0.000000 0.701052
O O5 0.250000 0.690387 0.969030
O O6 0.067538 0.500000 0.948070
O O7 0.033012 0.744405 0.918595
O O8 0.000000 0.703864 0.000000
O O9 0.750000 0.222396 0.221516
O O10 0.959187 0.207863 0.165330
O O11 0.896547 0.000000 0.213164
O O12 0.250000 0.275841 0.469209
O O13 0.103204 0.500000 0.466295
O O14 0.036684 0.297854 0.415438
O O15 0.000000 0.273983 0.500000
O O16 0.750000 0.351975 0.631286
O O17 0.528980 0.500000 0.642497
O O18 0.250000 0.854461 0.882297
O O19 0.473728 0.000000 0.890899
#
# Coordination Sequence:
#
# PCOD8214765 Si02
#       6
#     8   8   8   8   8   8
#     4   9  16  26  42  62  80 101 133 167 193 225
#     4   9  17  29  44  61  82 108 135 162 194 233
#     4   8  14  26  43  60  79 105 133 160 195 237
#     4   8  13  22  37  55  73  96 127 159 190 227
#     4   8  14  25  40  57  79 106 131 156 193 239
#     4   8  14  26  44  62  79 103 135 165 193 231
#
# _framework density 16.338819000000001
#
# number of rings (size 3 to 8) (size 9 to 14) (size 15 to 20)
#    0.000    3.667    0.000    2.000    0.000    0.333 
#    0.000    2.500    0.000    4.000    0.000    0.000 
#    0.000    0.000    0.000    0.000    0.000    0.000 
#
# Total GULP energy -594831.589748 kJ/mol
# GULP energy per Si atom -12392.324786 kJ/mol
# Density = 1.630163 g / cm^3
# Si number density = 16.338819 Si / 1000 Ang^3
#
#
#
# Elastic Constant Matrix: (Units=GPa)
#
#
# Indices 1 2 3 4 5 6 
#
# 1 47.0170 23.7442 58.4805 0.0000 0.0000 0.0000
# 2 23.7442 47.4990 62.7637 0.0000 0.0000 0.0000
# 3 58.4805 62.7637 185.3280 0.0000 0.0000 0.0000
# 4 0.0000 0.0000 0.0000 27.8055 0.0000 0.0000
# 5 0.0000 0.0000 0.0000 0.0000 29.8558 0.0000
# 6 0.0000 0.0000 0.0000 0.0000 0.0000 10.3684
#
#
#
# Elastic Compliance Matrix: (Units=1/GPa)
#
#
# Indices 1 2 3 4 5 6 
#
# 1 0.035750 -0.005366 -0.009464 0.000000 0.000000 0.000000
# 2 -0.005366 0.038910 -0.011484 0.000000 0.000000 0.000000
# 3 -0.009464 -0.011484 0.012271 0.000000 0.000000 0.000000
# 4 0.000000 0.000000 0.000000 0.035964 0.000000 0.000000
# 5 0.000000 0.000000 0.000000 0.000000 0.033494 0.000000
# 6 0.000000 0.000000 0.000000 0.000000 0.000000 0.096447
#
#
# Mechanical properties :
#
#
# Convention : Reuss Voigt Hill
#
# Bulk Modulus (GPa) = 29.15124 63.31345 46.23234
# Shear Modulus (GPa) = 15.77786 22.59630 19.18708
#
# Velocity S-wave (km/s) = 3.11089 3.72288 3.43056
# Velocity P-wave (km/s) = 5.54833 7.57062 6.63695
#
# Compressibility (1/GPa) = 0.03430386
#
# Stress axis : x y z
#
# Youngs Moduli (GPa) = 27.97216 25.70006 81.49027
#
# Poissons Ratio (x) = 0.13791 0.77120
# Poissons Ratio (y) = 0.15010 0.93586
# Poissons Ratio (z) = 0.26472 0.29515
#
# Static dielectric constant tensor:
#      x y z
#    x 2.936560 0.000000 0.000000 
#    y 0.000000 2.900080 0.000000 
#    z 0.000000 0.000000 3.545940 
# 
# 
# High freq. dielectric constant tensor:
#      x y z
#    x 1.593410 0.000000 0.000000 
#    y 0.000000 1.591950 0.000000 
#    z 0.000000 0.000000 1.642890 
# 
# From -- ./inp_files/36150.got.cif
#   From: 2010.03.12/outbox.cif.g09.slc.cpg/sg51_19_cif.got.tgz:36150.got - 2010.04.16 13:43:02.
