data_PCOD8214909
_publ_section_title
;
Structure prediction by ZEFSAII (Michael W. Deem and Ramdas Pophale) SiO2 
 PCOD8214909
Probable space group: P N N A
;
_chemical_formula_sum "Si O2"
_cell_formula_units_Z 48
_cell_length_a 8.559668
_cell_length_b 13.423543
_cell_length_c 19.961751
_cell_angle_alpha 90.000000
_cell_angle_beta 90.000000
_cell_angle_gamma 90.000000
_cell_volume 2293.626578
_symmetry_space_group_name_H-M "P N N A"
_symmetry_group_IT_number 52
_symmetry_cell_setting 'orthorhombic'
loop_
_space_group_symop_operation_xyz
x,y,z
1/2-x,-y,z
x,1/2-y,1/2-z
1/2-x,1/2+y,1/2-z
-x,-y,-z
1/2+x,y,-z
-x,1/2+y,1/2+z
1/2+x,1/2-y,1/2+z
loop_
_atom_site_type_symbol
_atom_site_label
_atom_site_fract_x
_atom_site_fract_y
_atom_site_fract_z
Si Si1 0.522692 0.934913 0.346517
Si Si2 0.250384 0.795144 0.967496
Si Si3 0.190001 0.250000 0.750000
Si Si4 0.750000 0.000000 0.101221
Si Si5 0.870953 0.640631 0.129059
Si Si6 0.953144 0.392291 0.301885
Si Si7 0.082907 0.244379 0.094375
O O1 0.696007 0.893213 0.353470
O O2 0.480309 0.937564 0.267246
O O3 0.404210 0.860966 0.384705
O O4 0.514974 0.045090 0.380066
O O5 0.296097 0.906422 0.945203
O O6 0.368166 0.712745 0.934988
O O7 0.072634 0.774519 0.948846
O O8 0.270476 0.784279 0.047749
O O9 0.075287 0.301585 0.803828
O O10 0.299079 0.325391 0.708361
O O11 0.901495 0.019898 0.147884
O O12 0.083169 0.323237 0.338405
#
# Coordination Sequence:
#
# PCOD8214909 Si02
#       7
#     8   8   4   4   8   8   8
#     4   9  16  27  49  73  97 123 164 214 260 285
#     4  10  21  32  48  72 103 134 165 199 249 302
#     4  10  12  26  44  72 100 118 152 216 258 292
#     4  10  18  30  48  74 104 130 160 208 260 298
#     4   9  16  26  44  74 100 123 157 209 259 300
#     4  10  15  27  47  74  94 121 160 213 249 289
#     4  10  19  34  48  73 101 131 166 202 246 306
#
# _framework density 20.927557
#
# number of rings (size 3 to 8) (size 9 to 14) (size 15 to 20)
#    0.000    2.333    6.667    2.000    0.000    3.333 
#    0.000    0.000    0.000    0.000    4.333    2.333 
#    0.000    0.000    0.000    0.000    0.000    0.000 
#
# Total GULP energy -594911.444868 kJ/mol
# GULP energy per Si atom -12393.988435 kJ/mol
# Density = 2.087992 g / cm^3
# Si number density = 20.927557 Si / 1000 Ang^3
#
#
#
# Elastic Constant Matrix: (Units=GPa)
#
#
# Indices 1 2 3 4 5 6 
#
# 1 10.9330 0.4011 6.3647 0.0000 0.0000 0.0000
# 2 0.4011 111.0088 31.7001 0.0000 0.0000 0.0000
# 3 6.3647 31.7001 89.9592 0.0000 0.0000 0.0000
# 4 0.0000 0.0000 0.0000 32.9131 0.0000 0.0000
# 5 0.0000 0.0000 0.0000 0.0000 24.0435 0.0000
# 6 0.0000 0.0000 0.0000 0.0000 0.0000 3.4228
#
#
#
# Elastic Compliance Matrix: (Units=1/GPa)
#
#
# Indices 1 2 3 4 5 6 
#
# 1 0.095706 0.001765 -0.007393 0.000000 0.000000 0.000000
# 2 0.001765 0.010049 -0.003666 0.000000 0.000000 0.000000
# 3 -0.007393 -0.003666 0.012931 0.000000 0.000000 0.000000
# 4 0.000000 0.000000 0.000000 0.030383 0.000000 0.000000
# 5 0.000000 0.000000 0.000000 0.000000 0.041591 0.000000
# 6 0.000000 0.000000 0.000000 0.000000 0.000000 0.292157
#
#
# Mechanical properties :
#
#
# Convention : Reuss Voigt Hill
#
# Bulk Modulus (GPa) = 9.99021 32.09251 21.04136
# Shear Modulus (GPa) = 9.34979 23.63821 16.49400
#
# Velocity S-wave (km/s) = 2.11599 3.36449 2.81044
# Velocity P-wave (km/s) = 3.27932 5.51918 4.53957
#
# Compressibility (1/GPa) = 0.10009805
#
# Stress axis : x y z
#
# Youngs Moduli (GPa) = 10.44867 99.51465 77.33324
#
# Poissons Ratio (x) = -0.17569 0.57175
# Poissons Ratio (y) = -0.01845 0.28350
# Poissons Ratio (z) = 0.07725 0.36481
#
# Static dielectric constant tensor:
#      x y z
#    x 2.909970 0.000000 0.000000 
#    y 0.000000 4.233690 0.000000 
#    z 0.000000 0.000000 3.926690 
# 
# 
# High freq. dielectric constant tensor:
#      x y z
#    x 1.730710 0.000000 0.000000 
#    y 0.000000 1.833300 0.000000 
#    z 0.000000 0.000000 1.827000 
# 
# From -- ./inp_files/32319.got.cif
#   From: 2010.06.25/outbox.cif.g09.slc.cpg/sg52_17_cif.got.tgz:32319.got - 2010.06.26 19:32:48.
