data_PCOD8214256
_publ_section_title
;
Structure prediction by ZEFSAII (Michael W. Deem and Ramdas Pophale) SiO2 
 PCOD8214256
Probable space group: P M M A
;
_chemical_formula_sum "Si O2"
_cell_formula_units_Z 64
_cell_length_a 9.123261
_cell_length_b 14.336555
_cell_length_c 25.561410
_cell_angle_alpha 90.000000
_cell_angle_beta 90.000000
_cell_angle_gamma 90.000000
_cell_volume 3343.333585
_symmetry_space_group_name_H-M "P M M A"
_symmetry_group_IT_number 51
_symmetry_cell_setting 'orthorhombic'
loop_
_space_group_symop_operation_xyz
x,y,z
1/2-x,-y,z
1/2+x,-y,-z
-x,y,-z
-x,-y,-z
1/2+x,y,-z
1/2-x,y,z
x,-y,z
loop_
_atom_site_type_symbol
_atom_site_label
_atom_site_fract_x
_atom_site_fract_y
_atom_site_fract_z
Si Si1 0.579647 0.597882 0.554367
Si Si2 0.076235 0.777931 0.947777
Si Si3 0.424053 0.104998 0.848091
Si Si4 0.420724 0.199745 0.445463
Si Si5 0.580247 0.394655 0.783199
Si Si6 0.079871 0.892969 0.340952
Si Si7 0.418710 0.606075 0.095242
Si Si8 0.923792 0.218390 0.252269
O O1 0.500000 0.593019 0.500000
O O2 0.750000 0.599335 0.542161
O O3 0.541299 0.500000 0.585892
O O4 0.536934 0.697771 0.579674
O O5 0.250000 0.779509 0.954488
O O6 0.021901 0.843419 0.900438
O O7 0.024458 0.672080 0.938063
O O8 0.000000 0.817219 0.000000
O O9 0.250000 0.102423 0.846661
O O10 0.483798 0.160768 0.797784
O O11 0.488176 0.000000 0.847262
O O12 0.500000 0.177493 0.500000
O O13 0.250000 0.193438 0.458293
O O14 0.465421 0.125389 0.401250
O O15 0.750000 0.373128 0.772671
O O16 0.542389 0.500000 0.765384
O O17 0.542473 0.382216 0.844000
O O18 0.483041 0.323839 0.749603
O O19 0.250000 0.867160 0.332162
O O20 0.980303 0.830035 0.304340
O O21 0.048041 0.000000 0.327691
O O22 0.250000 0.633509 0.084816
O O23 0.448013 0.500000 0.077501
O O24 0.750000 0.221175 0.253217
#
# Coordination Sequence:
#
# PCOD8214256 Si02
#       8
#     8   8   8   8   8   8   8   8
#     4   8  13  23  42  68  96 127 165 208 254 307
#     4  11  22  36  54  78 109 145 184 230 280 331
#     4   9  19  36  56  78 105 138 178 226 281 334
#     4   9  18  33  53  77 107 143 184 228 276 333
#     4   9  18  34  58  86 116 149 182 220 271 332
#     4  10  22  39  56  78 111 149 188 234 287 340
#     4   9  18  34  56  81 110 144 181 222 268 324
#     4  11  21  36  60  87 113 143 182 231 281 331
#
# _framework density 19.142571
#
# number of rings (size 3 to 8) (size 9 to 14) (size 15 to 20)
#    0.000    2.500    1.250    1.875    0.000    2.500 
#    0.000    1.875    0.000    5.625    0.000    1.750 
#    0.000    0.000    0.000    0.000    0.000    0.000 
#
# Total GULP energy -793206.889028 kJ/mol
# GULP energy per Si atom -12393.857641 kJ/mol
# Density = 1.909900 g / cm^3
# Si number density = 19.142571 Si / 1000 Ang^3
#
#
#
# Elastic Constant Matrix: (Units=GPa)
#
#
# Indices 1 2 3 4 5 6 
#
# 1 58.4038 40.6095 41.7647 0.0000 0.0000 0.0000
# 2 40.6095 110.2427 48.9577 0.0000 0.0000 0.0000
# 3 41.7647 48.9577 102.3276 0.0000 0.0000 0.0000
# 4 0.0000 0.0000 0.0000 28.4639 0.0000 0.0000
# 5 0.0000 0.0000 0.0000 0.0000 26.9906 0.0000
# 6 0.0000 0.0000 0.0000 0.0000 0.0000 23.3013
#
#
#
# Elastic Compliance Matrix: (Units=1/GPa)
#
#
# Indices 1 2 3 4 5 6 
#
# 1 0.027430 -0.006517 -0.008077 0.000000 0.000000 0.000000
# 2 -0.006517 0.013067 -0.003592 0.000000 0.000000 0.000000
# 3 -0.008077 -0.003592 0.014788 0.000000 0.000000 0.000000
# 4 0.000000 0.000000 0.000000 0.035132 0.000000 0.000000
# 5 0.000000 0.000000 0.000000 0.000000 0.037050 0.000000
# 6 0.000000 0.000000 0.000000 0.000000 0.000000 0.042916
#
#
# Mechanical properties :
#
#
# Convention : Reuss Voigt Hill
#
# Bulk Modulus (GPa) = 52.87686 59.29309 56.08498
# Shear Modulus (GPa) = 23.46774 25.06063 24.26418
#
# Velocity S-wave (km/s) = 3.50515 3.62215 3.56413
# Velocity P-wave (km/s) = 6.63808 6.96671 6.80438
#
# Compressibility (1/GPa) = 0.01891186
#
# Stress axis : x y z
#
# Youngs Moduli (GPa) = 36.45672 76.53120 67.62387
#
# Poissons Ratio (x) = 0.49876 0.54622
# Poissons Ratio (y) = 0.23759 0.24288
# Poissons Ratio (z) = 0.29447 0.27487
#
# Static dielectric constant tensor:
#      x y z
#    x 3.293500 0.000000 0.000000 
#    y 0.000000 4.010430 0.000000 
#    z 0.000000 0.000000 3.285820 
# 
# 
# High freq. dielectric constant tensor:
#      x y z
#    x 1.727740 0.000000 0.000000 
#    y 0.000000 1.759810 0.000000 
#    z 0.000000 0.000000 1.724020 
# 
# From -- ./inp_files/34864.got.cif
#   From: 2010.03.12/outbox.cif.g09.slc.cpg/sg51_18_cif.got.tgz:34864.got - 2010.04.16 13:43:02.
