data_PCOD8214559
_publ_section_title
;
Structure prediction by ZEFSAII (Michael W. Deem and Ramdas Pophale) SiO2 
 PCOD8214559
Probable space group: P M M A
;
_chemical_formula_sum "Si O2"
_cell_formula_units_Z 56
_cell_length_a 14.553807
_cell_length_b 9.027588
_cell_length_c 21.422237
_cell_angle_alpha 90.000000
_cell_angle_beta 90.000000
_cell_angle_gamma 90.000000
_cell_volume 2814.577177
_symmetry_space_group_name_H-M "P M M A"
_symmetry_group_IT_number 51
_symmetry_cell_setting 'orthorhombic'
loop_
_space_group_symop_operation_xyz
x,y,z
1/2-x,-y,z
1/2+x,-y,-z
-x,y,-z
-x,-y,-z
1/2+x,y,-z
1/2-x,y,z
x,-y,z
loop_
_atom_site_type_symbol
_atom_site_label
_atom_site_fract_x
_atom_site_fract_y
_atom_site_fract_z
Si Si1 0.522533 0.324428 0.765231
Si Si2 0.355081 0.175153 0.708534
Si Si3 0.353002 0.676347 0.982787
Si Si4 0.976891 0.675211 0.905672
Si Si5 0.095785 0.667183 0.464544
Si Si6 0.148728 0.157647 0.574608
Si Si7 0.857707 0.174272 0.660536
O O1 0.527243 0.500000 0.755511
O O2 0.418987 0.268374 0.754496
O O3 0.546701 0.274366 0.835586
O O4 0.596852 0.248547 0.720485
O O5 0.250000 0.225940 0.720365
O O6 0.396054 0.218052 0.638935
O O7 0.367299 0.000000 0.719693
O O8 0.250000 0.743201 0.973825
O O9 0.346924 0.500000 0.982322
O O10 0.422402 0.733581 0.928407
O O11 0.395569 0.731914 0.048888
O O12 0.981580 0.500000 0.909476
O O13 0.122943 0.500000 0.447355
O O14 0.162692 0.730722 0.517223
O O15 0.095932 0.763675 0.402421
O O16 0.000000 0.680718 0.500000
O O17 0.250000 0.121052 0.599474
O O18 0.103180 0.000000 0.553008
O O19 0.750000 0.213275 0.659616
O O20 0.875314 0.000000 0.662859
#
# Coordination Sequence:
#
# PCOD8214559 Si02
#       7
#     8   8   8   8   8   8   8
#     4  11  22  35  54  82 116 148 180 228 286 334
#     4   9  19  36  56  78 108 149 193 232 274 333
#     4   8  13  25  46  70 102 143 179 212 256 316
#     4   8  16  28  43  72 109 141 176 216 264 324
#     4  11  23  36  53  80 108 132 166 220 285 340
#     4   9  18  33  52  72  94 125 168 214 260 315
#     4  11  25  43  60  78 105 148 199 240 275 327
#
# _framework density 19.896418000000001
#
# number of rings (size 3 to 8) (size 9 to 14) (size 15 to 20)
#    0.000    2.429    0.000    4.286    0.000    8.571 
#    0.000    4.286    0.000    0.000    0.000    8.000 
#    0.000   13.714    0.000    0.000    0.000    0.000 
#
# Total GULP energy -693808.682063 kJ/mol
# GULP energy per Si atom -12389.440751 kJ/mol
# Density = 1.985113 g / cm^3
# Si number density = 19.896418 Si / 1000 Ang^3
#
#
#
# Elastic Constant Matrix: (Units=GPa)
#
#
# Indices 1 2 3 4 5 6 
#
# 1 84.0675 30.1135 26.6547 0.0000 0.0000 0.0000
# 2 30.1135 74.2152 43.7766 0.0000 0.0000 0.0000
# 3 26.6547 43.7766 119.8478 0.0000 0.0000 0.0000
# 4 0.0000 0.0000 0.0000 4.8547 0.0000 0.0000
# 5 0.0000 0.0000 0.0000 0.0000 23.2074 0.0000
# 6 0.0000 0.0000 0.0000 0.0000 0.0000 21.8525
#
#
#
# Elastic Compliance Matrix: (Units=1/GPa)
#
#
# Indices 1 2 3 4 5 6 
#
# 1 0.014083 -0.004929 -0.001332 0.000000 0.000000 0.000000
# 2 -0.004929 0.018900 -0.005807 0.000000 0.000000 0.000000
# 3 -0.001332 -0.005807 0.010761 0.000000 0.000000 0.000000
# 4 0.000000 0.000000 0.000000 0.205986 0.000000 0.000000
# 5 0.000000 0.000000 0.000000 0.000000 0.043090 0.000000
# 6 0.000000 0.000000 0.000000 0.000000 0.000000 0.045761
#
#
# Mechanical properties :
#
#
# Convention : Reuss Voigt Hill
#
# Bulk Modulus (GPa) = 50.99864 53.24668 52.12266
# Shear Modulus (GPa) = 13.54085 21.82198 17.68141
#
# Velocity S-wave (km/s) = 2.61160 3.31536 2.98430
# Velocity P-wave (km/s) = 5.89760 6.44015 6.17483
#
# Compressibility (1/GPa) = 0.01960837
#
# Stress axis : x y z
#
# Youngs Moduli (GPa) = 71.00784 52.91093 92.92519
#
# Poissons Ratio (x) = 0.26078 0.12376
# Poissons Ratio (y) = 0.34998 0.53964
# Poissons Ratio (z) = 0.09457 0.30727
#
# Static dielectric constant tensor:
#      x y z
#    x 3.740780 0.000000 0.000000 
#    y 0.000000 3.327820 0.000000 
#    z 0.000000 0.000000 3.844800 
# 
# 
# High freq. dielectric constant tensor:
#      x y z
#    x 1.783900 0.000000 0.000000 
#    y 0.000000 1.742850 0.000000 
#    z 0.000000 0.000000 1.776430 
# 
# From -- ./inp_files/33468.got.cif
#   From: 2010.03.12/outbox.cif.g09.slc.cpg/sg51_17_cif.got.tgz:33468.got - 2010.04.16 13:43:02.
