data_PCOD8214591
_publ_section_title
;
Structure prediction by ZEFSAII (Michael W. Deem and Ramdas Pophale) SiO2 
 PCOD8214591
Probable space group: P M M A
;
_chemical_formula_sum "Si O2"
_cell_formula_units_Z 40
_cell_length_a 22.731805
_cell_length_b 8.444363
_cell_length_c 10.123126
_cell_angle_alpha 90.000000
_cell_angle_beta 90.000000
_cell_angle_gamma 90.000000
_cell_volume 1943.190857
_symmetry_space_group_name_H-M "P M M A"
_symmetry_group_IT_number 51
_symmetry_cell_setting 'orthorhombic'
loop_
_space_group_symop_operation_xyz
x,y,z
1/2-x,-y,z
1/2+x,-y,-z
-x,y,-z
-x,-y,-z
1/2+x,y,-z
1/2-x,y,z
x,-y,z
loop_
_atom_site_type_symbol
_atom_site_label
_atom_site_fract_x
_atom_site_fract_y
_atom_site_fract_z
Si Si1 0.317565 0.319225 0.476495
Si Si2 0.183665 0.811907 0.009571
Si Si3 0.868036 0.815266 0.267355
Si Si4 0.607193 0.816370 0.746624
Si Si5 0.510276 0.315914 0.349024
O O1 0.250000 0.290010 0.441689
O O2 0.336292 0.500000 0.448558
O O3 0.328924 0.280573 0.628755
O O4 0.356433 0.203518 0.387878
O O5 0.250000 0.742728 0.017533
O O6 0.152134 0.754306 0.876117
O O7 0.186116 0.000000 0.016628
O O8 0.145475 0.747126 0.132346
O O9 0.936877 0.783621 0.286780
O O10 0.854675 0.000000 0.283853
O O11 0.546953 0.718525 0.738807
O O12 0.591817 0.000000 0.766331
O O13 0.500000 0.260869 0.500000
O O14 0.526616 0.500000 0.343799
#
# Coordination Sequence:
#
# PCOD8214591 Si02
#       5
#     8   8   8   8   8
#     4  11  23  38  57  86 123 159 199 247 300 357
#     4   9  20  39  61  90 126 157 192 247 306 355
#     4  11  22  38  64  91 118 156 204 251 297 354
#     4  11  22  38  64  91 118 156 204 251 297 354
#     4  11  23  40  61  86 125 163 196 248 307 360
#
# _framework density 20.584700999999999
#
# number of rings (size 3 to 8) (size 9 to 14) (size 15 to 20)
#    0.000    1.400    2.000    3.600    0.000    4.800 
#    0.000    8.000    0.000    7.200    0.000    0.000 
#    0.000    0.000    0.000    0.000    0.000    0.000 
#
# Total GULP energy -496240.438456 kJ/mol
# GULP energy per Si atom -12406.010961 kJ/mol
# Density = 2.053785 g / cm^3
# Si number density = 20.584701 Si / 1000 Ang^3
#
#
#
# Elastic Constant Matrix: (Units=GPa)
#
#
# Indices 1 2 3 4 5 6 
#
# 1 105.3399 18.6435 36.6887 0.0000 0.0000 0.0000
# 2 18.6435 31.6628 5.5291 0.0000 0.0000 0.0000
# 3 36.6887 5.5291 111.8374 0.0000 0.0000 0.0000
# 4 0.0000 0.0000 0.0000 15.4570 0.0000 0.0000
# 5 0.0000 0.0000 0.0000 0.0000 44.4408 0.0000
# 6 0.0000 0.0000 0.0000 0.0000 0.0000 25.1650
#
#
#
# Elastic Compliance Matrix: (Units=1/GPa)
#
#
# Indices 1 2 3 4 5 6 
#
# 1 0.011865 -0.006362 -0.003578 0.000000 0.000000 0.000000
# 2 -0.006362 0.035269 0.000343 0.000000 0.000000 0.000000
# 3 -0.003578 0.000343 0.010098 0.000000 0.000000 0.000000
# 4 0.000000 0.000000 0.000000 0.064695 0.000000 0.000000
# 5 0.000000 0.000000 0.000000 0.000000 0.022502 0.000000
# 6 0.000000 0.000000 0.000000 0.000000 0.000000 0.039738
#
#
# Mechanical properties :
#
#
# Convention : Reuss Voigt Hill
#
# Bulk Modulus (GPa) = 26.28831 41.17366 33.73099
# Shear Modulus (GPa) = 23.14393 29.54447 26.34420
#
# Velocity S-wave (km/s) = 3.35674 3.79260 3.58130
# Velocity P-wave (km/s) = 5.27467 6.26290 5.78990
#
# Compressibility (1/GPa) = 0.03803972
#
# Stress axis : x y z
#
# Youngs Moduli (GPa) = 84.28071 28.35383 99.02636
#
# Poissons Ratio (x) = 0.18037 0.35431
# Poissons Ratio (y) = 0.53616 -0.03400
# Poissons Ratio (z) = 0.30155 -0.00973
#
# Static dielectric constant tensor:
#      x y z
#    x 3.851550 0.000000 0.000000 
#    y 0.000000 3.496570 0.000000 
#    z 0.000000 0.000000 3.807120 
# 
# 
# High freq. dielectric constant tensor:
#      x y z
#    x 1.820410 0.000000 0.000000 
#    y 0.000000 1.789530 0.000000 
#    z 0.000000 0.000000 1.806100 
# 
# From -- ./inp_files/11434.got.cif
#   From: 2010.03.12/outbox.cif.g09.slc.cpg/sg51_6_cif.got.tgz:11434.got - 2010.04.16 13:43:02.
