data_PCOD8214067
_publ_section_title
;
Structure prediction by ZEFSAII (Michael W. Deem and Ramdas Pophale) SiO2 
 PCOD8214067
Probable space group: P M M A
;
_chemical_formula_sum "Si O2"
_cell_formula_units_Z 36
_cell_length_a 8.721153
_cell_length_b 16.124617
_cell_length_c 13.507634
_cell_angle_alpha 90.000000
_cell_angle_beta 90.000000
_cell_angle_gamma 90.000000
_cell_volume 1899.514434
_symmetry_space_group_name_H-M "P M M A"
_symmetry_group_IT_number 51
_symmetry_cell_setting 'orthorhombic'
loop_
_space_group_symop_operation_xyz
x,y,z
1/2-x,-y,z
1/2+x,-y,-z
-x,y,-z
-x,-y,-z
1/2+x,y,-z
1/2-x,y,z
x,-y,z
loop_
_atom_site_type_symbol
_atom_site_label
_atom_site_fract_x
_atom_site_fract_y
_atom_site_fract_z
Si Si1 0.928056 0.751075 0.602545
Si Si2 0.568830 0.836784 0.803023
Si Si3 0.568832 0.322966 0.102458
Si Si4 0.428416 0.406644 0.282983
Si Si5 0.430999 0.000000 0.891003
O O1 0.750000 0.752333 0.584693
O O2 0.974480 0.814361 0.689780
O O3 0.981669 0.657766 0.632076
O O4 0.000000 0.780421 0.500000
O O5 0.750000 0.846698 0.817752
O O6 0.509595 0.764977 0.874887
O O7 0.484641 0.920985 0.829430
O O8 0.750000 0.311609 0.095599
O O9 0.527141 0.391061 0.184820
O O10 0.500000 0.356541 0.000000
O O11 0.250000 0.390846 0.256815
O O12 0.457498 0.500000 0.321117
O O13 0.250000 0.000000 0.901046
O O14 0.500000 0.000000 0.000000
#
# Coordination Sequence:
#
# PCOD8214067 Si02
#       5
#     8   8   8   8   4
#     4   9  19  35  57  81 107 141 179 222 272 321
#     4  10  21  39  58  80 111 145 181 222 267 315
#     4  11  21  34  53  77 106 142 182 223 270 324
#     4   9  19  36  54  75 106 142 181 226 273 321
#     4  12  24  38  59  88 117 146 179 218 264 314
#
# _framework density 18.952211999999999
#
# number of rings (size 3 to 8) (size 9 to 14) (size 15 to 20)
#    0.000    2.000    0.000    5.667    0.000    5.778 
#    0.000    0.556    0.000    0.000    0.000    0.000 
#    0.000    0.000    0.000    0.000    0.000    0.000 
#
# Total GULP energy -446449.411866 kJ/mol
# GULP energy per Si atom -12401.372552 kJ/mol
# Density = 1.890908 g / cm^3
# Si number density = 18.952212 Si / 1000 Ang^3
#
#
#
# Elastic Constant Matrix: (Units=GPa)
#
#
# Indices 1 2 3 4 5 6 
#
# 1 100.6072 41.5690 49.9920 0.0000 0.0000 0.0000
# 2 41.5690 108.2234 38.7358 0.0000 0.0000 0.0000
# 3 49.9920 38.7358 128.9460 0.0000 0.0000 0.0000
# 4 0.0000 0.0000 0.0000 14.7509 0.0000 0.0000
# 5 0.0000 0.0000 0.0000 0.0000 35.4154 0.0000
# 6 0.0000 0.0000 0.0000 0.0000 0.0000 29.6361
#
#
#
# Elastic Compliance Matrix: (Units=1/GPa)
#
#
# Indices 1 2 3 4 5 6 
#
# 1 0.013527 -0.003718 -0.004127 0.000000 0.000000 0.000000
# 2 -0.003718 0.011376 -0.001976 0.000000 0.000000 0.000000
# 3 -0.004127 -0.001976 0.009949 0.000000 0.000000 0.000000
# 4 0.000000 0.000000 0.000000 0.067792 0.000000 0.000000
# 5 0.000000 0.000000 0.000000 0.000000 0.028236 0.000000
# 6 0.000000 0.000000 0.000000 0.000000 0.000000 0.033743
#
#
# Mechanical properties :
#
#
# Convention : Reuss Voigt Hill
#
# Bulk Modulus (GPa) = 65.75272 66.48557 66.11915
# Shear Modulus (GPa) = 26.40822 29.79246 28.10034
#
# Velocity S-wave (km/s) = 3.73689 3.96912 3.85475
# Velocity P-wave (km/s) = 7.30674 7.49413 7.40103
#
# Compressibility (1/GPa) = 0.01520850
#
# Stress axis : x y z
#
# Youngs Moduli (GPa) = 73.92668 87.90794 100.51450
#
# Poissons Ratio (x) = 0.32688 0.41485
# Poissons Ratio (y) = 0.27489 0.19858
# Poissons Ratio (z) = 0.30512 0.17367
#
# Static dielectric constant tensor:
#      x y z
#    x 3.507560 0.000000 0.000000 
#    y 0.000000 3.497270 0.000000 
#    z 0.000000 0.000000 3.686560 
# 
# 
# High freq. dielectric constant tensor:
#      x y z
#    x 1.741720 0.000000 0.000000 
#    y 0.000000 1.731160 0.000000 
#    z 0.000000 0.000000 1.735410 
# 
# From -- ./inp_files/20302.got.cif
#   From: 2010.03.12/outbox.cif.g09.slc.cpg/sg51_11_cif.got.tgz:20302.got - 2010.04.16 13:43:02.
