data_PCOD8214020
_publ_section_title
;
Structure prediction by ZEFSAII (Michael W. Deem and Ramdas Pophale) SiO2 
 PCOD8214020
Probable space group: P M M A
;
_chemical_formula_sum "Si O2"
_cell_formula_units_Z 40
_cell_length_a 24.940134
_cell_length_b 8.652334
_cell_length_c 9.133367
_cell_angle_alpha 90.000000
_cell_angle_beta 90.000000
_cell_angle_gamma 90.000000
_cell_volume 1970.892639
_symmetry_space_group_name_H-M "P M M A"
_symmetry_group_IT_number 51
_symmetry_cell_setting 'orthorhombic'
loop_
_space_group_symop_operation_xyz
x,y,z
1/2-x,-y,z
1/2+x,-y,-z
-x,y,-z
-x,-y,-z
1/2+x,y,-z
1/2-x,y,z
x,-y,z
loop_
_atom_site_type_symbol
_atom_site_label
_atom_site_fract_x
_atom_site_fract_y
_atom_site_fract_z
Si Si1 0.688717 0.179268 0.849600
Si Si2 0.004960 0.320866 0.829825
Si Si3 0.599290 0.179283 0.345053
Si Si4 0.312338 0.321115 0.844776
Si Si5 0.898942 0.319874 0.656805
O O1 0.750000 0.218635 0.808590
O O2 0.652764 0.226615 0.711967
O O3 0.681462 0.000000 0.885961
O O4 0.669942 0.274495 0.991790
O O5 0.018439 0.500000 0.800311
O O6 0.052688 0.216747 0.769369
O O7 0.950071 0.271302 0.752264
O O8 0.000000 0.284485 0.000000
O O9 0.656323 0.221810 0.274849
O O10 0.589168 0.278287 0.489927
O O11 0.598664 0.000000 0.385984
O O12 0.250000 0.285180 0.820888
O O13 0.326339 0.500000 0.822297
O O14 0.886566 0.500000 0.671630
#
# Coordination Sequence:
#
# PCOD8214020 Si02
#       5
#     8   8   8   8   8
#     4  10  21  38  61  90 123 156 193 241 294 347
#     4  10  22  41  64  88 115 150 195 244 293 350
#     4  12  25  39  59  87 121 157 194 244 300 350
#     4  10  21  39  63  88 116 154 199 243 289 348
#     4  11  23  39  61  87 119 159 199 241 290 348
#
# _framework density 20.295373000000001
#
# number of rings (size 3 to 8) (size 9 to 14) (size 15 to 20)
#    0.000    1.400    0.000    5.400    0.000    9.200 
#    0.000    0.000    0.000    0.000    0.000    0.000 
#    0.000    0.000    0.000    0.000    0.000    0.000 
#
# Total GULP energy -496349.563561 kJ/mol
# GULP energy per Si atom -12408.739089 kJ/mol
# Density = 2.024918 g / cm^3
# Si number density = 20.295373 Si / 1000 Ang^3
#
#
#
# Elastic Constant Matrix: (Units=GPa)
#
#
# Indices 1 2 3 4 5 6 
#
# 1 101.1564 38.5331 53.0429 0.0000 0.0000 0.0000
# 2 38.5331 58.1503 16.0144 0.0000 0.0000 0.0000
# 3 53.0429 16.0144 110.8157 0.0000 0.0000 0.0000
# 4 0.0000 0.0000 0.0000 24.4492 0.0000 0.0000
# 5 0.0000 0.0000 0.0000 0.0000 29.8372 0.0000
# 6 0.0000 0.0000 0.0000 0.0000 0.0000 32.6486
#
#
#
# Elastic Compliance Matrix: (Units=1/GPa)
#
#
# Indices 1 2 3 4 5 6 
#
# 1 0.017035 -0.009417 -0.006793 0.000000 0.000000 0.000000
# 2 -0.009417 0.023116 0.001167 0.000000 0.000000 0.000000
# 3 -0.006793 0.001167 0.012107 0.000000 0.000000 0.000000
# 4 0.000000 0.000000 0.000000 0.040901 0.000000 0.000000
# 5 0.000000 0.000000 0.000000 0.000000 0.033515 0.000000
# 6 0.000000 0.000000 0.000000 0.000000 0.000000 0.030629
#
#
# Mechanical properties :
#
#
# Convention : Reuss Voigt Hill
#
# Bulk Modulus (GPa) = 45.10362 53.92257 49.51310
# Shear Modulus (GPa) = 25.66996 28.22248 26.94622
#
# Velocity S-wave (km/s) = 3.56029 3.73310 3.64772
# Velocity P-wave (km/s) = 6.25881 6.72369 6.49541
#
# Compressibility (1/GPa) = 0.02217117
#
# Stress axis : x y z
#
# Youngs Moduli (GPa) = 58.70243 43.26036 82.59784
#
# Poissons Ratio (x) = 0.40740 0.56109
# Poissons Ratio (y) = 0.55283 -0.09641
# Poissons Ratio (z) = 0.39877 -0.05049
#
# Static dielectric constant tensor:
#      x y z
#    x 3.729450 0.000000 0.000000 
#    y 0.000000 3.641690 0.000000 
#    z 0.000000 0.000000 3.630750 
# 
# 
# High freq. dielectric constant tensor:
#      x y z
#    x 1.803120 0.000000 0.000000 
#    y 0.000000 1.797820 0.000000 
#    z 0.000000 0.000000 1.797060 
# 
# From -- ./inp_files/11420.got.cif
#   From: 2010.03.12/outbox.cif.g09.slc.cpg/sg51_6_cif.got.tgz:11420.got - 2010.04.16 13:43:02.
