data_PCOD8214061
_publ_section_title
;
Structure prediction by ZEFSAII (Michael W. Deem and Ramdas Pophale) SiO2 
 PCOD8214061
Probable space group: P M M A
;
_chemical_formula_sum "Si O2"
_cell_formula_units_Z 64
_cell_length_a 14.994269
_cell_length_b 8.855340
_cell_length_c 23.893231
_cell_angle_alpha 90.000000
_cell_angle_beta 90.000000
_cell_angle_gamma 90.000000
_cell_volume 3172.527683
_symmetry_space_group_name_H-M "P M M A"
_symmetry_group_IT_number 51
_symmetry_cell_setting 'orthorhombic'
loop_
_space_group_symop_operation_xyz
x,y,z
1/2-x,-y,z
1/2+x,-y,-z
-x,y,-z
-x,-y,-z
1/2+x,y,-z
1/2-x,y,z
x,-y,z
loop_
_atom_site_type_symbol
_atom_site_label
_atom_site_fract_x
_atom_site_fract_y
_atom_site_fract_z
Si Si1 0.407258 0.671654 0.616396
Si Si2 0.143717 0.680579 0.996860
Si Si3 0.003756 0.180143 0.078813
Si Si4 0.150673 0.330674 0.285209
Si Si5 0.587240 0.176554 0.610158
Si Si6 0.348685 0.669935 0.736898
Si Si7 0.148762 0.832335 0.507829
Si Si8 0.508925 0.824956 0.792406
O O1 0.439838 0.500000 0.608471
O O2 0.489075 0.780856 0.630146
O O3 0.343303 0.688869 0.669681
O O4 0.357744 0.721994 0.560243
O O5 0.250000 0.725666 0.995554
O O6 0.134464 0.500000 0.997332
O O7 0.092956 0.750149 0.050725
O O8 0.089050 0.748227 0.944015
O O9 0.009791 0.225140 0.143376
O O10 0.001726 0.000000 0.068859
O O11 0.250000 0.326581 0.260216
O O12 0.116030 0.500000 0.294672
O O13 0.154046 0.251014 0.345709
O O14 0.087726 0.255656 0.239981
O O15 0.597746 0.235546 0.546215
O O16 0.604729 0.000000 0.611618
O O17 0.250000 0.701201 0.760441
O O18 0.380063 0.500000 0.751735
O O19 0.413660 0.787412 0.765951
O O20 0.250000 0.845525 0.488706
O O21 0.111456 0.000000 0.523485
O O22 0.526658 0.000000 0.785789
#
# Coordination Sequence:
#
# PCOD8214061 Si02
#       8
#     8   8   8   8   8   8   8   8
#     4  11  22  37  58  84 113 148 193 242 299 363
#     4  10  21  38  63  95 128 165 207 248 296 351
#     4  10  22  39  61  91 126 165 207 251 299 349
#     4  11  24  41  62  88 118 156 201 249 304 363
#     4  11  22  38  60  84 112 149 194 242 299 364
#     4  10  22  40  61  85 117 158 201 248 304 361
#     4  10  22  38  55  79 111 147 189 239 297 362
#     4  11  24  41  62  90 123 161 206 252 298 352
#
# _framework density 20.173188
#
# number of rings (size 3 to 8) (size 9 to 14) (size 15 to 20)
#    0.000    1.500    1.250    4.125    0.000    9.500 
#    0.000    5.000    0.000    0.000    0.000    0.000 
#    0.000    0.000    0.000    0.000    0.000    0.000 
#
# Total GULP energy -793505.939048 kJ/mol
# GULP energy per Si atom -12398.530298 kJ/mol
# Density = 2.012727 g / cm^3
# Si number density = 20.173188 Si / 1000 Ang^3
#
#
#
# Elastic Constant Matrix: (Units=GPa)
#
#
# Indices 1 2 3 4 5 6 
#
# 1 115.8966 42.4289 41.0562 0.0000 0.0000 0.0000
# 2 42.4289 95.7678 62.4802 0.0000 0.0000 0.0000
# 3 41.0562 62.4802 138.9989 0.0000 0.0000 0.0000
# 4 0.0000 0.0000 0.0000 5.2177 0.0000 0.0000
# 5 0.0000 0.0000 0.0000 0.0000 5.2740 0.0000
# 6 0.0000 0.0000 0.0000 0.0000 0.0000 17.0453
#
#
#
# Elastic Compliance Matrix: (Units=1/GPa)
#
#
# Indices 1 2 3 4 5 6 
#
# 1 0.010496 -0.003718 -0.001429 0.000000 0.000000 0.000000
# 2 -0.003718 0.016092 -0.006135 0.000000 0.000000 0.000000
# 3 -0.001429 -0.006135 0.010374 0.000000 0.000000 0.000000
# 4 0.000000 0.000000 0.000000 0.191656 0.000000 0.000000
# 5 0.000000 0.000000 0.000000 0.000000 0.189609 0.000000
# 6 0.000000 0.000000 0.000000 0.000000 0.000000 0.058667
#
#
# Mechanical properties :
#
#
# Convention : Reuss Voigt Hill
#
# Bulk Modulus (GPa) = 69.45506 71.39932 70.42719
# Shear Modulus (GPa) = 9.91559 19.15393 14.53476
#
# Velocity S-wave (km/s) = 2.21944 3.08470 2.68712
# Velocity P-wave (km/s) = 6.40874 6.93954 6.67941
#
# Compressibility (1/GPa) = 0.01439780
#
# Stress axis : x y z
#
# Youngs Moduli (GPa) = 95.27785 62.14414 96.39369
#
# Poissons Ratio (x) = 0.23103 0.13775
# Poissons Ratio (y) = 0.35421 0.59139
# Poissons Ratio (z) = 0.13615 0.38126
#
# Static dielectric constant tensor:
#      x y z
#    x 3.700190 0.000000 0.000000 
#    y 0.000000 3.776800 0.000000 
#    z 0.000000 0.000000 3.719440 
# 
# 
# High freq. dielectric constant tensor:
#      x y z
#    x 1.794620 0.000000 0.000000 
#    y 0.000000 1.793400 0.000000 
#    z 0.000000 0.000000 1.786990 
# 
# From -- ./inp_files/35851.got.cif
#   From: 2010.03.12/outbox.cif.g09.slc.cpg/sg51_18_cif.got.tgz:35851.got - 2010.04.16 13:43:02.
