data_PCOD8214611
_publ_section_title
;
Structure prediction by ZEFSAII (Michael W. Deem and Ramdas Pophale) SiO2 
 PCOD8214611
Probable space group: P M M A
;
_chemical_formula_sum "Si O2"
_cell_formula_units_Z 56
_cell_length_a 17.793877
_cell_length_b 14.198448
_cell_length_c 12.601373
_cell_angle_alpha 90.000000
_cell_angle_beta 90.000000
_cell_angle_gamma 90.000000
_cell_volume 3183.679392
_symmetry_space_group_name_H-M "P M M A"
_symmetry_group_IT_number 51
_symmetry_cell_setting 'orthorhombic'
loop_
_space_group_symop_operation_xyz
x,y,z
1/2-x,-y,z
1/2+x,-y,-z
-x,y,-z
-x,-y,-z
1/2+x,y,-z
1/2-x,y,z
x,-y,z
loop_
_atom_site_type_symbol
_atom_site_label
_atom_site_fract_x
_atom_site_fract_y
_atom_site_fract_z
Si Si1 0.836611 0.106107 0.630146
Si Si2 0.089599 0.285952 0.300117
Si Si3 0.586048 0.286074 0.310881
Si Si4 0.338148 0.391017 0.495126
Si Si5 0.336237 0.608825 0.116310
Si Si6 0.836446 0.391560 0.128353
Si Si7 0.663418 0.106930 0.382746
O O1 0.750000 0.119774 0.661282
O O2 0.887139 0.176408 0.698875
O O3 0.848386 0.128409 0.506481
O O4 0.862720 0.000000 0.655981
O O5 0.136127 0.342541 0.387397
O O6 0.108187 0.327373 0.184920
O O7 0.002395 0.294517 0.324559
O O8 0.623191 0.346321 0.403284
O O9 0.609913 0.325873 0.197155
O O10 0.611185 0.177157 0.316233
O O11 0.250000 0.375571 0.507994
O O12 0.360239 0.500000 0.489384
O O13 0.250000 0.631055 0.146074
O O14 0.353951 0.500000 0.139634
O O15 0.351560 0.632745 0.993958
O O16 0.750000 0.371792 0.158212
O O17 0.856071 0.500000 0.151782
O O18 0.750000 0.123377 0.351558
O O19 0.639430 0.000000 0.356087
#
# Coordination Sequence:
#
# PCOD8214611 Si02
#       7
#     8   8   8   8   8   8   8
#     4   9  18  34  56  78 102 138 182 221 257 308
#     4  12  23  33  51  81 113 141 169 213 273 325
#     4  12  23  33  51  81 113 141 169 213 273 325
#     4  11  23  37  52  71 102 145 185 218 254 305
#     4   9  19  37  59  79 101 138 187 227 258 304
#     4   9  19  37  59  79 101 138 187 227 258 304
#     4   9  18  34  56  78 102 138 182 221 257 308
#
# _framework density 17.589711999999999
#
# number of rings (size 3 to 8) (size 9 to 14) (size 15 to 20)
#    0.000    1.857    1.429    5.571    0.000    6.286 
#    0.000    2.857    0.000    0.857    0.000    6.000 
#    0.000    0.000    0.000    0.000    0.000    0.000 
#
# Total GULP energy -694596.754768 kJ/mol
# GULP energy per Si atom -12403.513478 kJ/mol
# Density = 1.754968 g / cm^3
# Si number density = 17.589712 Si / 1000 Ang^3
#
#
#
# Elastic Constant Matrix: (Units=GPa)
#
#
# Indices 1 2 3 4 5 6 
#
# 1 52.3808 42.6814 20.0437 0.0000 0.0000 0.0000
# 2 42.6814 108.1900 42.6170 0.0000 0.0000 0.0000
# 3 20.0437 42.6170 68.7774 0.0000 0.0000 0.0000
# 4 0.0000 0.0000 0.0000 23.2075 0.0000 0.0000
# 5 0.0000 0.0000 0.0000 0.0000 17.1607 0.0000
# 6 0.0000 0.0000 0.0000 0.0000 0.0000 6.6144
#
#
#
# Elastic Compliance Matrix: (Units=1/GPa)
#
#
# Indices 1 2 3 4 5 6 
#
# 1 0.028295 -0.010470 -0.001758 0.000000 0.000000 0.000000
# 2 -0.010470 0.016102 -0.006926 0.000000 0.000000 0.000000
# 3 -0.001758 -0.006926 0.019344 0.000000 0.000000 0.000000
# 4 0.000000 0.000000 0.000000 0.043089 0.000000 0.000000
# 5 0.000000 0.000000 0.000000 0.000000 0.058273 0.000000
# 6 0.000000 0.000000 0.000000 0.000000 0.000000 0.151184
#
#
# Mechanical properties :
#
#
# Convention : Reuss Voigt Hill
#
# Bulk Modulus (GPa) = 39.32082 48.89248 44.10665
# Shear Modulus (GPa) = 13.77136 17.66361 15.71749
#
# Velocity S-wave (km/s) = 2.80111 3.17235 2.99249
# Velocity P-wave (km/s) = 5.73276 6.42455 6.08849
#
# Compressibility (1/GPa) = 0.02543182
#
# Stress axis : x y z
#
# Youngs Moduli (GPa) = 35.34196 62.10575 51.69645
#
# Poissons Ratio (x) = 0.65024 0.09091
# Poissons Ratio (y) = 0.37002 0.35805
# Poissons Ratio (z) = 0.06215 0.43014
#
# Static dielectric constant tensor:
#      x y z
#    x 3.175260 0.000000 0.000000 
#    y 0.000000 3.393120 0.000000 
#    z 0.000000 0.000000 3.130410 
# 
# 
# High freq. dielectric constant tensor:
#      x y z
#    x 1.676880 0.000000 0.000000 
#    y 0.000000 1.685780 0.000000 
#    z 0.000000 0.000000 1.662640 
# 
# From -- ./inp_files/16626.got.cif
#   From: 2010.03.12/outbox.cif.g09.slc.cpg/sg51_9_cif.got.tgz:16626.got - 2010.04.16 13:43:02.
