data_PCOD8214795
_publ_section_title
;
Structure prediction by ZEFSAII (Michael W. Deem and Ramdas Pophale) SiO2 
 PCOD8214795
Probable space group: P M M A
;
_chemical_formula_sum "Si O2"
_cell_formula_units_Z 48
_cell_length_a 29.411370
_cell_length_b 9.973912
_cell_length_c 10.420854
_cell_angle_alpha 90.000000
_cell_angle_beta 90.000000
_cell_angle_gamma 90.000000
_cell_volume 3056.920174
_symmetry_space_group_name_H-M "P M M A"
_symmetry_group_IT_number 51
_symmetry_cell_setting 'orthorhombic'
loop_
_space_group_symop_operation_xyz
x,y,z
1/2-x,-y,z
1/2+x,-y,-z
-x,y,-z
-x,-y,-z
1/2+x,y,-z
1/2-x,y,z
x,-y,z
loop_
_atom_site_type_symbol
_atom_site_label
_atom_site_fract_x
_atom_site_fract_y
_atom_site_fract_z
Si Si1 0.300295 0.350759 0.015758
Si Si2 0.379847 0.844813 0.717131
Si Si3 0.472671 0.841693 0.119193
Si Si4 0.123469 0.153340 0.017709
Si Si5 0.300643 0.349011 0.711079
Si Si6 0.021373 0.840718 0.630603
O O1 0.250000 0.316011 0.068385
O O2 0.314535 0.500000 0.060113
O O3 0.335684 0.243935 0.071501
O O4 0.299932 0.342707 0.863402
O O5 0.387678 0.820562 0.868433
O O6 0.338436 0.755738 0.660516
O O7 0.425810 0.799400 0.644739
O O8 0.368200 0.000000 0.689908
O O9 0.491905 0.780630 0.251626
O O10 0.480828 0.000000 0.118695
O O11 0.500000 0.777577 0.000000
O O12 0.419759 0.807173 0.103513
O O13 0.137768 0.000000 0.038965
O O14 0.250000 0.310003 0.660008
O O15 0.313050 0.500000 0.665605
O O16 0.000000 0.780927 0.500000
O O17 0.017545 0.000000 0.630943
#
# Coordination Sequence:
#
# PCOD8214795 Si02
#       6
#     8   8   8   8   8   8
#     4   8  14  24  36  52  79 110 132 157 201 249
#     4   9  15  23  37  58  81 104 132 166 201 234
#     4   9  14  23  38  56  80 108 135 163 198 238
#     4   9  15  22  37  59  79 103 134 167 200 234
#     4   8  14  24  37  54  78 107 134 160 198 247
#     4   9  16  25  38  58  83 110 138 167 200 242
#
# _framework density 15.702078
#
# number of rings (size 3 to 8) (size 9 to 14) (size 15 to 20)
#    0.000    3.333    1.667    1.000    0.000    0.667 
#    0.000    3.333    0.000    2.000    0.000    1.167 
#    0.000    9.333    0.000    0.000    0.000    0.000 
#
# Total GULP energy -594849.498384 kJ/mol
# GULP energy per Si atom -12392.697883 kJ/mol
# Density = 1.566634 g / cm^3
# Si number density = 15.702078 Si / 1000 Ang^3
#
#
#
# Elastic Constant Matrix: (Units=GPa)
#
#
# Indices 1 2 3 4 5 6 
#
# 1 147.4108 71.4576 51.3018 0.0000 0.0000 0.0000
# 2 71.4576 64.0680 21.7669 0.0000 0.0000 0.0000
# 3 51.3018 21.7669 58.7164 0.0000 0.0000 0.0000
# 4 0.0000 0.0000 0.0000 4.6980 0.0000 0.0000
# 5 0.0000 0.0000 0.0000 0.0000 12.7400 0.0000
# 6 0.0000 0.0000 0.0000 0.0000 0.0000 8.4437
#
#
#
# Elastic Compliance Matrix: (Units=1/GPa)
#
#
# Indices 1 2 3 4 5 6 
#
# 1 0.018698 -0.017510 -0.009846 0.000000 0.000000 0.000000
# 2 -0.017510 0.034254 0.002600 0.000000 0.000000 0.000000
# 3 -0.009846 0.002600 0.024670 0.000000 0.000000 0.000000
# 4 0.000000 0.000000 0.000000 0.212859 0.000000 0.000000
# 5 0.000000 0.000000 0.000000 0.000000 0.078493 0.000000
# 6 0.000000 0.000000 0.000000 0.000000 0.000000 0.118432
#
#
# Mechanical properties :
#
#
# Convention : Reuss Voigt Hill
#
# Bulk Modulus (GPa) = 35.57307 62.13865 48.85586
# Shear Modulus (GPa) = 9.15269 13.55425 11.35347
#
# Velocity S-wave (km/s) = 2.41695 2.94124 2.69189
# Velocity P-wave (km/s) = 5.52205 7.15499 6.39089
#
# Compressibility (1/GPa) = 0.02811115
#
# Stress axis : x y z
#
# Youngs Moduli (GPa) = 53.48105 29.19338 40.53552
#
# Poissons Ratio (x) = 0.51117 0.39911
# Poissons Ratio (y) = 0.93644 -0.10540
# Poissons Ratio (z) = 0.52657 -0.07591
#
# Static dielectric constant tensor:
#      x y z
#    x 3.281800 0.000000 0.000000 
#    y 0.000000 2.816590 0.000000 
#    z 0.000000 0.000000 2.721820 
# 
# 
# High freq. dielectric constant tensor:
#      x y z
#    x 1.616540 0.000000 0.000000 
#    y 0.000000 1.568480 0.000000 
#    z 0.000000 0.000000 1.548780 
# 
# From -- ./inp_files/12291.got.cif
#   From: 2010.03.12/outbox.cif.g09.slc.cpg/sg51_7_cif.got.tgz:12291.got - 2010.04.16 13:43:02.
