data_PCOD8214194
_publ_section_title
;
Structure prediction by ZEFSAII (Michael W. Deem and Ramdas Pophale) SiO2 
 PCOD8214194
Probable space group: P M M A
;
_chemical_formula_sum "Si O2"
_cell_formula_units_Z 64
_cell_length_a 14.656787
_cell_length_b 17.804617
_cell_length_c 12.080800
_cell_angle_alpha 90.000000
_cell_angle_beta 90.000000
_cell_angle_gamma 90.000000
_cell_volume 3152.587193
_symmetry_space_group_name_H-M "P M M A"
_symmetry_group_IT_number 51
_symmetry_cell_setting 'orthorhombic'
loop_
_space_group_symop_operation_xyz
x,y,z
1/2-x,-y,z
1/2+x,-y,-z
-x,y,-z
-x,-y,-z
1/2+x,y,-z
1/2-x,y,z
x,-y,z
loop_
_atom_site_type_symbol
_atom_site_label
_atom_site_fract_x
_atom_site_fract_y
_atom_site_fract_z
Si Si1 0.648544 0.313583 0.329366
Si Si2 0.099941 0.301752 0.038822
Si Si3 0.605811 0.585683 0.525236
Si Si4 0.355270 0.582919 0.862825
Si Si5 0.647319 0.140938 0.001427
Si Si6 0.002377 0.807253 0.373677
Si Si7 0.000163 0.911288 0.170279
Si Si8 0.144349 0.306750 0.289280
O O1 0.750000 0.285847 0.295005
O O2 0.660222 0.363957 0.438346
O O3 0.601922 0.364214 0.232586
O O4 0.586745 0.241587 0.347990
O O5 0.101012 0.316263 0.168909
O O6 0.132573 0.378591 0.981934
O O7 0.160999 0.230943 0.003048
O O8 0.000000 0.279027 0.000000
O O9 0.500000 0.595763 0.500000
O O10 0.637959 0.500000 0.514854
O O11 0.629923 0.614447 0.647844
O O12 0.250000 0.572614 0.834887
O O13 0.401886 0.500000 0.863257
O O14 0.750000 0.106081 0.002755
O O15 0.592046 0.116315 0.110243
O O16 0.591490 0.114395 0.893493
O O17 0.000000 0.835918 0.500000
O O18 0.002946 0.878936 0.293861
O O19 0.093576 0.758641 0.356727
O O20 0.998598 0.000000 0.177326
O O21 0.250000 0.284674 0.279825
#
# Coordination Sequence:
#
# PCOD8214194 Si02
#       8
#     8   8   8   8   8   8   8   8
#     4  11  21  39  65  90 119 166 221 267 317 373
#     4  12  23  39  63  91 127 166 216 261 309 378
#     4  11  23  39  62  92 128 166 216 278 333 373
#     4  10  22  37  54  83 123 165 211 260 316 375
#     4  11  21  41  71 100 131 167 208 260 317 380
#     4  12  24  43  65  93 126 168 216 267 318 381
#     4  11  25  43  66 101 134 163 205 257 317 394
#     4  12  23  40  64  91 125 170 217 266 318 375
#
# _framework density 20.300787
#
# number of rings (size 3 to 8) (size 9 to 14) (size 15 to 20)
#    0.000    0.750    5.000    4.125    0.000    5.000 
#    0.000    0.000    0.000    0.000    0.000    3.500 
#    0.000    0.000    0.000    0.000    0.000    0.000 
#
# Total GULP energy -793769.967051 kJ/mol
# GULP energy per Si atom -12402.655735 kJ/mol
# Density = 2.025458 g / cm^3
# Si number density = 20.300787 Si / 1000 Ang^3
#
#
#
# Elastic Constant Matrix: (Units=GPa)
#
#
# Indices 1 2 3 4 5 6 
#
# 1 116.5407 19.2666 33.8814 0.0000 0.0000 0.0000
# 2 19.2666 100.4560 40.4353 0.0000 0.0000 0.0000
# 3 33.8814 40.4353 145.6650 0.0000 0.0000 0.0000
# 4 0.0000 0.0000 0.0000 26.6945 0.0000 0.0000
# 5 0.0000 0.0000 0.0000 0.0000 19.3974 0.0000
# 6 0.0000 0.0000 0.0000 0.0000 0.0000 4.6859
#
#
#
# Elastic Compliance Matrix: (Units=1/GPa)
#
#
# Indices 1 2 3 4 5 6 
#
# 1 0.009296 -0.001027 -0.001877 0.000000 0.000000 0.000000
# 2 -0.001027 0.011320 -0.002903 0.000000 0.000000 0.000000
# 3 -0.001877 -0.002903 0.008108 0.000000 0.000000 0.000000
# 4 0.000000 0.000000 0.000000 0.037461 0.000000 0.000000
# 5 0.000000 0.000000 0.000000 0.000000 0.051553 0.000000
# 6 0.000000 0.000000 0.000000 0.000000 0.000000 0.213405
#
#
# Mechanical properties :
#
#
# Convention : Reuss Voigt Hill
#
# Bulk Modulus (GPa) = 58.45089 61.09203 59.77146
# Shear Modulus (GPa) = 14.34877 28.09415 21.22146
#
# Velocity S-wave (km/s) = 2.66147 3.72411 3.23670
# Velocity P-wave (km/s) = 6.18866 6.97501 6.59357
#
# Compressibility (1/GPa) = 0.01710838
#
# Stress axis : x y z
#
# Youngs Moduli (GPa) = 107.57017 88.33662 123.34031
#
# Poissons Ratio (x) = 0.09075 0.23152
# Poissons Ratio (y) = 0.11051 0.35811
# Poissons Ratio (z) = 0.20192 0.25648
#
# Static dielectric constant tensor:
#      x y z
#    x 4.122920 0.000000 0.000000 
#    y 0.000000 3.595740 0.000000 
#    z 0.000000 0.000000 3.833570 
# 
# 
# High freq. dielectric constant tensor:
#      x y z
#    x 1.799190 0.000000 0.000000 
#    y 0.000000 1.776530 0.000000 
#    z 0.000000 0.000000 1.798830 
# 
# From -- ./inp_files/16854.got.cif
#   From: 2010.03.12/outbox.cif.g09.slc.cpg/sg51_9_cif.got.tgz:16854.got - 2010.04.16 13:43:02.
