data_PCOD8214499
_publ_section_title
;
Structure prediction by ZEFSAII (Michael W. Deem and Ramdas Pophale) SiO2 
 PCOD8214499
Probable space group: P M M A
;
_chemical_formula_sum "Si O2"
_cell_formula_units_Z 48
_cell_length_a 8.871463
_cell_length_b 14.161509
_cell_length_c 20.652780
_cell_angle_alpha 90.000000
_cell_angle_beta 90.000000
_cell_angle_gamma 90.000000
_cell_volume 2594.676970
_symmetry_space_group_name_H-M "P M M A"
_symmetry_group_IT_number 51
_symmetry_cell_setting 'orthorhombic'
loop_
_space_group_symop_operation_xyz
x,y,z
1/2-x,-y,z
1/2+x,-y,-z
-x,y,-z
-x,-y,-z
1/2+x,y,-z
1/2-x,y,z
x,-y,z
loop_
_atom_site_type_symbol
_atom_site_label
_atom_site_fract_x
_atom_site_fract_y
_atom_site_fract_z
Si Si1 0.927109 0.212358 0.805989
Si Si2 0.572518 0.787248 0.566127
Si Si3 0.923243 0.606847 0.385147
Si Si4 0.075144 0.110621 0.685641
Si Si5 0.427111 0.107229 0.065410
Si Si6 0.076703 0.606629 0.766338
O O1 0.750000 0.198672 0.794515
O O2 0.980260 0.170080 0.874334
O O3 0.016716 0.158973 0.750356
O O4 0.969854 0.322891 0.806113
O O5 0.500000 0.825905 0.500000
O O6 0.750000 0.796820 0.561586
O O7 0.528838 0.677574 0.575436
O O8 0.513949 0.851218 0.624213
O O9 0.750000 0.625196 0.404336
O O10 0.970469 0.500000 0.402752
O O11 0.946345 0.625805 0.309424
O O12 0.250000 0.135969 0.676716
O O13 0.046465 0.000000 0.691806
O O14 0.250000 0.111871 0.056766
O O15 0.482121 0.000000 0.077586
O O16 0.500000 0.148480 0.000000
O O17 0.250000 0.623812 0.785491
O O18 0.028387 0.500000 0.783822
#
# Coordination Sequence:
#
# PCOD8214499 Si02
#       6
#     8   8   8   8   8   8
#     4  11  21  34  57  88 118 147 181 229 280 327
#     4  12  25  40  59  81 109 145 183 229 281 335
#     4   9  18  35  58  82 111 144 180 226 276 328
#     4  11  24  41  60  82 109 143 185 230 275 329
#     4   9  19  35  54  80 116 153 188 226 271 324
#     4   9  18  33  55  82 113 148 184 225 272 325
#
# _framework density 18.499412
#
# number of rings (size 3 to 8) (size 9 to 14) (size 15 to 20)
#    0.000    1.833    1.667    4.000    0.000    4.667 
#    0.000    3.333    0.000    0.500    0.000    0.000 
#    0.000    0.000    0.000    0.000    0.000    0.000 
#
# Total GULP energy -595360.843250 kJ/mol
# GULP energy per Si atom -12403.350901 kJ/mol
# Density = 1.845731 g / cm^3
# Si number density = 18.499412 Si / 1000 Ang^3
#
#
#
# Elastic Constant Matrix: (Units=GPa)
#
#
# Indices 1 2 3 4 5 6 
#
# 1 94.0499 49.1265 50.4612 0.0000 0.0000 0.0000
# 2 49.1265 95.7766 56.0043 0.0000 0.0000 0.0000
# 3 50.4612 56.0043 123.1447 0.0000 0.0000 0.0000
# 4 0.0000 0.0000 0.0000 11.1379 0.0000 0.0000
# 5 0.0000 0.0000 0.0000 0.0000 32.2451 0.0000
# 6 0.0000 0.0000 0.0000 0.0000 0.0000 17.2606
#
#
#
# Elastic Compliance Matrix: (Units=1/GPa)
#
#
# Indices 1 2 3 4 5 6 
#
# 1 0.015717 -0.005852 -0.003779 0.000000 0.000000 0.000000
# 2 -0.005852 0.016402 -0.005062 0.000000 0.000000 0.000000
# 3 -0.003779 -0.005062 0.011971 0.000000 0.000000 0.000000
# 4 0.000000 0.000000 0.000000 0.089783 0.000000 0.000000
# 5 0.000000 0.000000 0.000000 0.000000 0.031012 0.000000
# 6 0.000000 0.000000 0.000000 0.000000 0.000000 0.057935
#
#
# Mechanical properties :
#
#
# Convention : Reuss Voigt Hill
#
# Bulk Modulus (GPa) = 68.00297 69.35058 68.67677
# Shear Modulus (GPa) = 19.44706 22.62066 21.03386
#
# Velocity S-wave (km/s) = 3.24578 3.50062 3.37560
# Velocity P-wave (km/s) = 7.13345 7.34224 7.23860
#
# Compressibility (1/GPa) = 0.01470524
#
# Stress axis : x y z
#
# Youngs Moduli (GPa) = 63.62552 60.96723 83.53550
#
# Poissons Ratio (x) = 0.35678 0.31568
# Poissons Ratio (y) = 0.37233 0.42282
# Poissons Ratio (z) = 0.24044 0.30859
#
# Static dielectric constant tensor:
#      x y z
#    x 3.370610 0.000000 0.000000 
#    y 0.000000 3.562310 0.000000 
#    z 0.000000 0.000000 3.382440 
# 
# 
# High freq. dielectric constant tensor:
#      x y z
#    x 1.719120 0.000000 0.000000 
#    y 0.000000 1.722790 0.000000 
#    z 0.000000 0.000000 1.706130 
# 
# From -- ./inp_files/27545.got.cif
#   From: 2010.03.12/outbox.cif.g09.slc.cpg/sg51_14_cif.got.tgz:27545.got - 2010.04.16 13:43:02.
