data_PCOD8214018
_publ_section_title
;
Structure prediction by ZEFSAII (Michael W. Deem and Ramdas Pophale) SiO2 
 PCOD8214018
Probable space group: P M M A
;
_chemical_formula_sum "Si O2"
_cell_formula_units_Z 52
_cell_length_a 8.774985
_cell_length_b 15.778551
_cell_length_c 18.420816
_cell_angle_alpha 90.000000
_cell_angle_beta 90.000000
_cell_angle_gamma 90.000000
_cell_volume 2550.482601
_symmetry_space_group_name_H-M "P M M A"
_symmetry_group_IT_number 51
_symmetry_cell_setting 'orthorhombic'
loop_
_space_group_symop_operation_xyz
x,y,z
1/2-x,-y,z
1/2+x,-y,-z
-x,y,-z
-x,-y,-z
1/2+x,y,-z
1/2-x,y,z
x,-y,z
loop_
_atom_site_type_symbol
_atom_site_label
_atom_site_fract_x
_atom_site_fract_y
_atom_site_fract_z
Si Si1 0.929366 0.096971 0.815855
Si Si2 0.072926 0.597423 0.176864
Si Si3 0.571781 0.500000 0.577646
Si Si4 0.571433 0.754053 0.921621
Si Si5 0.928898 0.358214 0.327327
Si Si6 0.929113 0.775142 0.576677
Si Si7 0.420559 0.900914 0.664330
O O1 0.750000 0.105522 0.802930
O O2 0.987006 0.164597 0.875777
O O3 0.010582 0.124362 0.742022
O O4 0.971555 0.000000 0.839214
O O5 0.250000 0.607941 0.198248
O O6 0.039511 0.500000 0.152438
O O7 0.026468 0.663467 0.113993
O O8 0.970230 0.621825 0.244999
O O9 0.750000 0.500000 0.568479
O O10 0.500000 0.500000 0.500000
O O11 0.521379 0.581945 0.619874
O O12 0.750000 0.760360 0.930655
O O13 0.500000 0.758849 0.000000
O O14 0.750000 0.370413 0.338060
O O15 0.986656 0.267177 0.353733
O O16 0.750000 0.757374 0.575018
O O17 0.000000 0.745971 0.500000
O O18 0.972338 0.871532 0.596600
O O19 0.250000 0.862380 0.658034
O O20 0.414343 0.000000 0.656732
#
# Coordination Sequence:
#
# PCOD8214018 Si02
#       7
#     8   8   4   8   8   8   8
#     4   9  18  35  59  86 118 157 200 244 296 361
#     4  10  21  39  62  86 116 156 201 248 302 364
#     4  12  24  40  60  86 121 158 195 240 294 352
#     4  10  22  38  57  85 119 156 198 246 301 360
#     4  12  24  40  62  90 119 151 197 248 299 357
#     4  12  25  41  60  84 118 160 203 249 304 361
#     4  10  21  38  61  90 121 154 198 251 303 357
#
# _framework density 20.388297000000001
#
# number of rings (size 3 to 8) (size 9 to 14) (size 15 to 20)
#    0.000    1.385    0.769    5.308    0.000    4.308 
#    0.000    0.000    0.000    0.000    0.000    0.000 
#    0.000    0.000    0.000    0.000    0.000    0.000 
#
# Total GULP energy -644745.210779 kJ/mol
# GULP energy per Si atom -12398.946361 kJ/mol
# Density = 2.034189 g / cm^3
# Si number density = 20.388297 Si / 1000 Ang^3
#
#
#
# Elastic Constant Matrix: (Units=GPa)
#
#
# Indices 1 2 3 4 5 6 
#
# 1 112.3349 35.1936 39.4540 0.0000 0.0000 0.0000
# 2 35.1936 100.0322 54.8528 0.0000 0.0000 0.0000
# 3 39.4540 54.8528 77.8437 0.0000 0.0000 0.0000
# 4 0.0000 0.0000 0.0000 54.6577 0.0000 0.0000
# 5 0.0000 0.0000 0.0000 0.0000 40.5023 0.0000
# 6 0.0000 0.0000 0.0000 0.0000 0.0000 26.2376
#
#
#
# Elastic Compliance Matrix: (Units=1/GPa)
#
#
# Indices 1 2 3 4 5 6 
#
# 1 0.010935 -0.001317 -0.004614 0.000000 0.000000 0.000000
# 2 -0.001317 0.016451 -0.010924 0.000000 0.000000 0.000000
# 3 -0.004614 -0.010924 0.022883 0.000000 0.000000 0.000000
# 4 0.000000 0.000000 0.000000 0.018296 0.000000 0.000000
# 5 0.000000 0.000000 0.000000 0.000000 0.024690 0.000000
# 6 0.000000 0.000000 0.000000 0.000000 0.000000 0.038113
#
#
# Mechanical properties :
#
#
# Convention : Reuss Voigt Hill
#
# Bulk Modulus (GPa) = 60.39690 61.02351 60.71020
# Shear Modulus (GPa) = 29.30865 34.99353 32.15109
#
# Velocity S-wave (km/s) = 3.79558 4.14738 3.97538
# Velocity P-wave (km/s) = 6.99258 7.27530 7.13534
#
# Compressibility (1/GPa) = 0.01655714
#
# Stress axis : x y z
#
# Youngs Moduli (GPa) = 91.44787 60.78823 43.70077
#
# Poissons Ratio (x) = 0.08006 0.20165
# Poissons Ratio (y) = 0.12043 0.47741
# Poissons Ratio (z) = 0.42197 0.66408
#
# Static dielectric constant tensor:
#      x y z
#    x 3.789840 0.000000 0.000000 
#    y 0.000000 3.196300 0.000000 
#    z 0.000000 0.000000 3.898040 
# 
# 
# High freq. dielectric constant tensor:
#      x y z
#    x 1.798840 0.000000 0.000000 
#    y 0.000000 1.816770 0.000000 
#    z 0.000000 0.000000 1.789570 
# 
# From -- ./inp_files/27924.got.cif
#   From: 2010.03.12/outbox.cif.g09.slc.cpg/sg51_14_cif.got.tgz:27924.got - 2010.04.16 13:43:02.
