data_PCOD8214927
_publ_section_title
;
Structure prediction by ZEFSAII (Michael W. Deem and Ramdas Pophale) SiO2 
 PCOD8214927
Probable space group: P N N A
;
_chemical_formula_sum "Si O2"
_cell_formula_units_Z 52
_cell_length_a 14.527661
_cell_length_b 11.578397
_cell_length_c 18.450847
_cell_angle_alpha 90.000000
_cell_angle_beta 90.000000
_cell_angle_gamma 90.000000
_cell_volume 3103.562111
_symmetry_space_group_name_H-M "P N N A"
_symmetry_group_IT_number 52
_symmetry_cell_setting 'orthorhombic'
loop_
_space_group_symop_operation_xyz
x,y,z
1/2-x,-y,z
x,1/2-y,1/2-z
1/2-x,1/2+y,1/2-z
-x,-y,-z
1/2+x,y,-z
-x,1/2+y,1/2+z
1/2+x,1/2-y,1/2+z
loop_
_atom_site_type_symbol
_atom_site_label
_atom_site_fract_x
_atom_site_fract_y
_atom_site_fract_z
Si Si1 0.962499 0.149280 0.697254
Si Si2 0.524060 0.684708 0.037534
Si Si3 0.642838 0.238351 0.870484
Si Si4 0.652529 0.439699 0.756624
Si Si5 0.919437 0.950840 0.415808
Si Si6 0.667975 0.790562 0.568657
Si Si7 0.750000 0.000000 0.492853
O O1 0.993031 0.250000 0.750000
O O2 0.885593 0.203111 0.644284
O O3 0.057447 0.109131 0.660120
O O4 0.923533 0.038810 0.739646
O O5 0.446481 0.761974 0.076806
O O6 0.566273 0.590044 0.093015
O O7 0.486804 0.606932 0.972874
O O8 0.604656 0.762430 0.997630
O O9 0.649803 0.359630 0.828017
O O10 0.631909 0.133008 0.815575
O O11 0.736040 0.222019 0.918568
O O12 0.750000 0.500000 0.750001
O O13 0.815416 0.923729 0.440749
O O14 0.688141 0.921892 0.544764
#
# Coordination Sequence:
#
# PCOD8214927 Si02
#       7
#     8   8   8   8   8   8   4
#     4  11  20  32  48  72 106 137 168 202 243 314
#     4   9  17  29  47  75 102 127 157 211 254 291
#     4  11  19  32  50  76 111 127 158 213 256 306
#     4  11  21  30  48  75 107 139 160 192 259 312
#     4   9  17  28  48  73 101 125 167 209 252 293
#     4  10  18  28  49  76 102 127 162 206 257 296
#     4  10  16  28  52  76 100 124 158 232 258 276
#
# _framework density 16.754942
#
# number of rings (size 3 to 8) (size 9 to 14) (size 15 to 20)
#    0.000    1.846    4.615    2.769    0.000    0.000 
#    0.000    0.000    0.000   12.000    0.000    0.000 
#    0.000    0.000    0.000    0.000    0.000    0.000 
#
# Total GULP energy -644373.753462 kJ/mol
# GULP energy per Si atom -12391.802951 kJ/mol
# Density = 1.671681 g / cm^3
# Si number density = 16.754942 Si / 1000 Ang^3
#
#
#
# Elastic Constant Matrix: (Units=GPa)
#
#
# Indices 1 2 3 4 5 6 
#
# 1 50.3968 0.6657 38.6071 0.0000 0.0000 0.0000
# 2 0.6657 45.4171 31.5753 0.0000 0.0000 0.0000
# 3 38.6071 31.5753 84.5861 0.0000 0.0000 0.0000
# 4 0.0000 0.0000 0.0000 15.6670 0.0000 0.0000
# 5 0.0000 0.0000 0.0000 0.0000 17.1717 0.0000
# 6 0.0000 0.0000 0.0000 0.0000 0.0000 13.8837
#
#
#
# Elastic Compliance Matrix: (Units=1/GPa)
#
#
# Indices 1 2 3 4 5 6 
#
# 1 0.036823 0.015051 -0.022425 0.000000 0.000000 0.000000
# 2 0.015051 0.035887 -0.020266 0.000000 0.000000 0.000000
# 3 -0.022425 -0.020266 0.029623 0.000000 0.000000 0.000000
# 4 0.000000 0.000000 0.000000 0.063828 0.000000 0.000000
# 5 0.000000 0.000000 0.000000 0.000000 0.058235 0.000000
# 6 0.000000 0.000000 0.000000 0.000000 0.000000 0.072027
#
#
# Mechanical properties :
#
#
# Convention : Reuss Voigt Hill
#
# Bulk Modulus (GPa) = 21.25301 35.78845 28.52073
# Shear Modulus (GPa) = 13.60962 16.64795 15.12879
#
# Velocity S-wave (km/s) = 2.85314 3.15558 3.00816
# Velocity P-wave (km/s) = 4.85448 5.88925 5.39672
#
# Compressibility (1/GPa) = 0.04705215
#
# Stress axis : x y z
#
# Youngs Moduli (GPa) = 27.15709 27.86533 33.75789
#
# Poissons Ratio (x) = -0.41940 0.75703
# Poissons Ratio (y) = -0.40874 0.68413
# Poissons Ratio (z) = 0.60900 0.56471
#
# Static dielectric constant tensor:
#      x y z
#    x 3.385840 0.000000 0.000000 
#    y 0.000000 2.802490 0.000000 
#    z 0.000000 0.000000 3.175890 
# 
# 
# High freq. dielectric constant tensor:
#      x y z
#    x 1.645100 0.000000 0.000000 
#    y 0.000000 1.604090 0.000000 
#    z 0.000000 0.000000 1.633660 
# 
# From -- ./inp_files/33207.got.cif
#   From: 2010.06.25/outbox.cif.g09.slc.cpg/sg52_17_cif.got.tgz:33207.got - 2010.06.26 19:32:48.
