data_PCOD8214321
_publ_section_title
;
Structure prediction by ZEFSAII (Michael W. Deem and Ramdas Pophale) SiO2 
 PCOD8214321
Probable space group: P M M A
;
_chemical_formula_sum "Si O2"
_cell_formula_units_Z 40
_cell_length_a 11.012401
_cell_length_b 8.682495
_cell_length_c 19.624908
_cell_angle_alpha 90.000000
_cell_angle_beta 90.000000
_cell_angle_gamma 90.000000
_cell_volume 1876.437867
_symmetry_space_group_name_H-M "P M M A"
_symmetry_group_IT_number 51
_symmetry_cell_setting 'orthorhombic'
loop_
_space_group_symop_operation_xyz
x,y,z
1/2-x,-y,z
1/2+x,-y,-z
-x,y,-z
-x,-y,-z
1/2+x,y,-z
1/2-x,y,z
x,-y,z
loop_
_atom_site_type_symbol
_atom_site_label
_atom_site_fract_x
_atom_site_fract_y
_atom_site_fract_z
Si Si1 0.012139 0.182341 0.422690
Si Si2 0.886506 0.318737 0.043507
Si Si3 0.510786 0.176521 0.173462
Si Si4 0.750000 0.824083 0.787793
Si Si5 0.110838 0.326804 0.696204
Si Si6 0.250000 0.319426 0.356570
O O1 0.135726 0.241199 0.390945
O O2 0.000000 0.240392 0.500000
O O3 0.902758 0.255508 0.379056
O O4 0.004611 0.000000 0.418492
O O5 0.750000 0.256091 0.023730
O O6 0.885917 0.500000 0.033412
O O7 0.911997 0.280772 0.122215
O O8 0.000000 0.246306 0.000000
O O9 0.366635 0.204816 0.163957
O O10 0.539312 0.220829 0.250909
O O11 0.546497 0.000000 0.160353
O O12 0.750000 0.709086 0.724174
O O13 0.750000 0.000000 0.759977
O O14 0.250000 0.328386 0.717250
O O15 0.056832 0.500000 0.697681
O O16 0.250000 0.500000 0.370908
#
# Coordination Sequence:
#
# PCOD8214321 Si02
#       6
#     8   8   8   4   8   4
#     4  11  25  43  63  88 122 165 210 259 317 383
#     4  10  23  43  66  95 131 170 212 263 319 379
#     4  11  23  40  65  94 127 167 211 260 316 379
#     4  10  22  40  62  92 128 165 208 265 320 378
#     4  11  24  41  62  91 124 160 207 263 318 377
#     4  12  24  40  66  94 124 161 206 263 324 380
#
# _framework density 21.316984999999999
#
# number of rings (size 3 to 8) (size 9 to 14) (size 15 to 20)
#    0.000    1.200    2.000    3.300    2.800    7.200 
#    0.000    0.000    0.000    0.000    0.000    0.000 
#    0.000    0.000    0.000    0.000    0.000    0.000 
#
# Total GULP energy -496048.927092 kJ/mol
# GULP energy per Si atom -12401.223177 kJ/mol
# Density = 2.126847 g / cm^3
# Si number density = 21.316985 Si / 1000 Ang^3
#
#
#
# Elastic Constant Matrix: (Units=GPa)
#
#
# Indices 1 2 3 4 5 6 
#
# 1 133.0457 25.8268 40.5658 0.0000 0.0000 0.0000
# 2 25.8268 42.9270 12.4838 0.0000 0.0000 0.0000
# 3 40.5658 12.4838 92.6806 0.0000 0.0000 0.0000
# 4 0.0000 0.0000 0.0000 32.3405 0.0000 0.0000
# 5 0.0000 0.0000 0.0000 0.0000 56.0181 0.0000
# 6 0.0000 0.0000 0.0000 0.0000 0.0000 302.1525
#
#
#
# Elastic Compliance Matrix: (Units=1/GPa)
#
#
# Indices 1 2 3 4 5 6 
#
# 1 0.009502 -0.004691 -0.003527 0.000000 0.000000 0.000000
# 2 -0.004691 0.026561 -0.001524 0.000000 0.000000 0.000000
# 3 -0.003527 -0.001524 0.012539 0.000000 0.000000 0.000000
# 4 0.000000 0.000000 0.000000 0.030921 0.000000 0.000000
# 5 0.000000 0.000000 0.000000 0.000000 0.017851 0.000000
# 6 0.000000 0.000000 0.000000 0.000000 0.000000 0.003310
#
#
# Mechanical properties :
#
#
# Convention : Reuss Voigt Hill
#
# Bulk Modulus (GPa) = 34.34453 47.37846 40.86150
# Shear Modulus (GPa) = 38.49838 90.75403 64.62620
#
# Velocity S-wave (km/s) = 4.25431 6.53192 5.51204
# Velocity P-wave (km/s) = 6.34654 8.89730 7.72789
#
# Compressibility (1/GPa) = 0.02911672
#
# Stress axis : x y z
#
# Youngs Moduli (GPa) = 105.23722 37.64895 79.75173
#
# Poissons Ratio (x) = 0.17662 0.28130
# Poissons Ratio (y) = 0.49370 0.12157
# Poissons Ratio (z) = 0.37120 0.05739
#
# Static dielectric constant tensor:
#      x y z
#    x 4.114330 0.000000 0.000000 
#    y 0.000000 3.802040 0.000000 
#    z 0.000000 0.000000 3.784540 
# 
# 
# High freq. dielectric constant tensor:
#      x y z
#    x 1.854570 0.000000 0.000000 
#    y 0.000000 1.833740 0.000000 
#    z 0.000000 0.000000 1.830250 
# 
# From -- ./inp_files/32838.got.cif
#   From: 2010.03.12/outbox.cif.g09.slc.cpg/sg51_17_cif.got.tgz:32838.got - 2010.04.16 13:43:02.
