data_PCOD8214959
_publ_section_title
;
Structure prediction by ZEFSAII (Michael W. Deem and Ramdas Pophale) SiO2 
 PCOD8214959
Probable space group: P N N A
;
_chemical_formula_sum "Si O2"
_cell_formula_units_Z 56
_cell_length_a 19.400981
_cell_length_b 11.762088
_cell_length_c 10.976929
_cell_angle_alpha 90.000000
_cell_angle_beta 90.000000
_cell_angle_gamma 90.000000
_cell_volume 2504.891793
_symmetry_space_group_name_H-M "P N N A"
_symmetry_group_IT_number 52
_symmetry_cell_setting 'orthorhombic'
loop_
_space_group_symop_operation_xyz
x,y,z
1/2-x,-y,z
x,1/2-y,1/2-z
1/2-x,1/2+y,1/2-z
-x,-y,-z
1/2+x,y,-z
-x,1/2+y,1/2+z
1/2+x,1/2-y,1/2+z
loop_
_atom_site_type_symbol
_atom_site_label
_atom_site_fract_x
_atom_site_fract_y
_atom_site_fract_z
Si Si1 0.250000 0.500000 0.709492
Si Si2 0.035808 0.524386 0.644576
Si Si3 0.899421 0.687687 0.878099
Si Si4 0.589596 0.750000 0.750000
Si Si5 0.648915 0.392922 0.482580
Si Si6 0.121084 0.509549 0.282064
Si Si7 0.038322 0.762023 0.507596
Si Si8 0.632668 0.633456 0.179607
O O1 0.294949 0.582365 0.621777
O O2 0.292190 0.421120 0.803025
O O3 0.072062 0.422568 0.567359
O O4 0.039804 0.635130 0.559837
O O5 0.078596 0.543197 0.766949
O O6 0.959250 0.493558 0.681968
O O7 0.914181 0.750000 0.750000
O O8 0.851305 0.761388 0.970513
O O9 0.865267 0.566835 0.839896
O O10 0.972678 0.668673 0.942627
O O11 0.640135 0.640488 0.743856
O O12 0.537424 0.757850 0.637248
O O13 0.665963 0.468444 0.602485
O O14 0.107906 0.833970 0.543626
O O15 0.628914 0.750000 0.250000
#
# Coordination Sequence:
#
# PCOD8214959 Si02
#       8
#     4   8   8   4   8   8   8   8
#     4  10  22  38  62  98 120 172 224 268 332 392
#     4  10  16  34  64  88 114 160 213 254 317 379
#     4  10  18  33  63  90 123 162 213 264 327 375
#     4  12  26  30  54  92 138 168 198 248 336 392
#     4  10  19  33  62  89 122 158 223 271 306 396
#     4  11  20  36  57  93 128 166 207 262 327 396
#     4  11  18  36  56  93 124 162 204 263 325 398
#     4   9  19  36  66  89 117 159 212 270 315 380
#
# _framework density 22.356255000000001
#
# number of rings (size 3 to 8) (size 9 to 14) (size 15 to 20)
#    0.000    1.714    5.714    1.714    0.000    0.571 
#    0.000    1.429   15.714    0.857    0.000    0.000 
#    0.000    0.000    0.000    0.000    0.000    0.000 
#
# Total GULP energy -693846.028932 kJ/mol
# GULP energy per Si atom -12390.107660 kJ/mol
# Density = 2.230537 g / cm^3
# Si number density = 22.356255 Si / 1000 Ang^3
#
#
#
# Elastic Constant Matrix: (Units=GPa)
#
#
# Indices 1 2 3 4 5 6 
#
# 1 66.6139 19.2406 23.3571 0.0000 0.0000 0.0000
# 2 19.2406 121.0616 36.8223 0.0000 0.0000 0.0000
# 3 23.3571 36.8223 93.7408 0.0000 0.0000 0.0000
# 4 0.0000 0.0000 0.0000 32.4827 0.0000 0.0000
# 5 0.0000 0.0000 0.0000 0.0000 16.4429 0.0000
# 6 0.0000 0.0000 0.0000 0.0000 0.0000 18.3351
#
#
#
# Elastic Compliance Matrix: (Units=1/GPa)
#
#
# Indices 1 2 3 4 5 6 
#
# 1 0.016710 -0.001578 -0.003544 0.000000 0.000000 0.000000
# 2 -0.001578 0.009530 -0.003350 0.000000 0.000000 0.000000
# 3 -0.003544 -0.003350 0.012867 0.000000 0.000000 0.000000
# 4 0.000000 0.000000 0.000000 0.030786 0.000000 0.000000
# 5 0.000000 0.000000 0.000000 0.000000 0.060816 0.000000
# 6 0.000000 0.000000 0.000000 0.000000 0.000000 0.054540
#
#
# Mechanical properties :
#
#
# Convention : Reuss Voigt Hill
#
# Bulk Modulus (GPa) = 45.12035 48.91734 47.01884
# Shear Modulus (GPa) = 23.85712 26.91857 25.38785
#
# Velocity S-wave (km/s) = 3.27025 3.47374 3.37353
# Velocity P-wave (km/s) = 5.87244 6.16583 6.02093
#
# Compressibility (1/GPa) = 0.02216295
#
# Stress axis : x y z
#
# Youngs Moduli (GPa) = 59.84358 104.93089 77.71957
#
# Poissons Ratio (x) = 0.16557 0.27542
# Poissons Ratio (y) = 0.09443 0.26039
# Poissons Ratio (z) = 0.21208 0.35156
#
# Static dielectric constant tensor:
#      x y z
#    x 3.777840 0.000000 0.000000 
#    y 0.000000 4.583550 0.000000 
#    z 0.000000 0.000000 4.223980 
# 
# 
# High freq. dielectric constant tensor:
#      x y z
#    x 1.834260 0.000000 0.000000 
#    y 0.000000 1.878910 0.000000 
#    z 0.000000 0.000000 1.879530 
# 
# From -- ./inp_files/21718.got.cif
#   From: 2010.06.25/outbox.cif.g09.slc.cpg/sg52_11_cif.got.tgz:21718.got - 2010.06.26 19:32:48.
