data_PCOD8214367
_publ_section_title
;
Structure prediction by ZEFSAII (Michael W. Deem and Ramdas Pophale) SiO2 
 PCOD8214367
Probable space group: P M M A
;
_chemical_formula_sum "Si O2"
_cell_formula_units_Z 36
_cell_length_a 8.748468
_cell_length_b 23.710181
_cell_length_c 9.058218
_cell_angle_alpha 90.000000
_cell_angle_beta 90.000000
_cell_angle_gamma 90.000000
_cell_volume 1878.925867
_symmetry_space_group_name_H-M "P M M A"
_symmetry_group_IT_number 51
_symmetry_cell_setting 'orthorhombic'
loop_
_space_group_symop_operation_xyz
x,y,z
1/2-x,-y,z
1/2+x,-y,-z
-x,y,-z
-x,-y,-z
1/2+x,y,-z
1/2-x,y,z
x,-y,z
loop_
_atom_site_type_symbol
_atom_site_label
_atom_site_fract_x
_atom_site_fract_y
_atom_site_fract_z
Si Si1 0.930265 0.318654 0.339001
Si Si2 0.431432 0.788860 0.839410
Si Si3 0.929559 0.000000 0.840142
Si Si4 0.568282 0.890773 0.660350
Si Si5 0.429841 0.440518 0.659984
O O1 0.750000 0.314748 0.359786
O O2 0.986236 0.271557 0.224008
O O3 0.980317 0.380238 0.269583
O O4 0.000000 0.307973 0.500000
O O5 0.250000 0.794078 0.847842
O O6 0.496830 0.835461 0.730932
O O7 0.500000 0.797715 0.000000
O O8 0.984974 0.055399 0.754422
O O9 0.750000 0.000000 0.857400
O O10 0.000000 0.000000 0.000000
O O11 0.500000 0.899257 0.500000
O O12 0.750000 0.884793 0.652453
O O13 0.500000 0.442353 0.500000
O O14 0.250000 0.439842 0.642081
O O15 0.478509 0.500000 0.743171
#
# Coordination Sequence:
#
# PCOD8214367 Si02
#       5
#     8   8   4   8   8
#     4   9  18  31  49  74 102 132 169 213 261 313
#     4  11  23  38  55  77 106 141 180 222 269 320
#     4  10  23  40  60  86 116 148 181 218 261 310
#     4  11  23  40  61  86 113 143 180 221 265 312
#     4   8  13  23  41  66  95 126 161 204 254 306
#
# _framework density 19.159883000000001
#
# number of rings (size 3 to 8) (size 9 to 14) (size 15 to 20)
#    0.000    2.222    0.000    3.000    0.000    7.111 
#    0.000    0.000    0.000    0.667    0.000    0.000 
#    0.000    0.000    0.000    0.000    0.000    0.222 
#
# Total GULP energy -446016.801519 kJ/mol
# GULP energy per Si atom -12389.355598 kJ/mol
# Density = 1.911627 g / cm^3
# Si number density = 19.159883 Si / 1000 Ang^3
#
#
#
# Elastic Constant Matrix: (Units=GPa)
#
#
# Indices 1 2 3 4 5 6 
#
# 1 44.3798 42.5689 30.6296 0.0000 0.0000 0.0000
# 2 42.5689 187.9650 65.3607 0.0000 0.0000 0.0000
# 3 30.6296 65.3607 113.8466 0.0000 0.0000 0.0000
# 4 0.0000 0.0000 0.0000 4.7799 0.0000 0.0000
# 5 0.0000 0.0000 0.0000 0.0000 29.2656 0.0000
# 6 0.0000 0.0000 0.0000 0.0000 0.0000 21.7925
#
#
#
# Elastic Compliance Matrix: (Units=1/GPa)
#
#
# Indices 1 2 3 4 5 6 
#
# 1 0.031260 -0.005191 -0.005430 0.000000 0.000000 0.000000
# 2 -0.005191 0.007509 -0.002914 0.000000 0.000000 0.000000
# 3 -0.005430 -0.002914 0.011918 0.000000 0.000000 0.000000
# 4 0.000000 0.000000 0.000000 0.209207 0.000000 0.000000
# 5 0.000000 0.000000 0.000000 0.000000 0.034170 0.000000
# 6 0.000000 0.000000 0.000000 0.000000 0.000000 0.045887
#
#
# Mechanical properties :
#
#
# Convention : Reuss Voigt Hill
#
# Bulk Modulus (GPa) = 42.34484 69.25665 55.80074
# Shear Modulus (GPa) = 13.33707 25.00974 19.17341
#
# Velocity S-wave (km/s) = 2.64122 3.61684 3.16683
# Velocity P-wave (km/s) = 5.60804 7.32579 6.52370
#
# Compressibility (1/GPa) = 0.02361563
#
# Stress axis : x y z
#
# Youngs Moduli (GPa) = 31.98997 133.16829 83.90801
#
# Poissons Ratio (x) = 0.69133 0.45560
# Poissons Ratio (y) = 0.16607 0.24455
# Poissons Ratio (z) = 0.17370 0.38811
#
# Static dielectric constant tensor:
#      x y z
#    x 3.515000 0.000000 0.000000 
#    y 0.000000 4.531180 0.000000 
#    z 0.000000 0.000000 3.234180 
# 
# 
# High freq. dielectric constant tensor:
#      x y z
#    x 1.745260 0.000000 0.000000 
#    y 0.000000 1.783380 0.000000 
#    z 0.000000 0.000000 1.713260 
# 
# From -- ./inp_files/5264.got.cif
#   From: 2010.03.12/outbox.cif.g09.slc.cpg/sg51_3_cif.got.tgz:5264.got - 2010.04.16 13:43:02.
