data_PCOD8214645
_publ_section_title
;
Structure prediction by ZEFSAII (Michael W. Deem and Ramdas Pophale) SiO2 
 PCOD8214645
Probable space group: P M M A
;
_chemical_formula_sum "Si O2"
_cell_formula_units_Z 48
_cell_length_a 13.921368
_cell_length_b 8.941394
_cell_length_c 20.235207
_cell_angle_alpha 90.000000
_cell_angle_beta 90.000000
_cell_angle_gamma 90.000000
_cell_volume 2518.806455
_symmetry_space_group_name_H-M "P M M A"
_symmetry_group_IT_number 51
_symmetry_cell_setting 'orthorhombic'
loop_
_space_group_symop_operation_xyz
x,y,z
1/2-x,-y,z
1/2+x,-y,-z
-x,y,-z
-x,-y,-z
1/2+x,y,-z
1/2-x,y,z
x,-y,z
loop_
_atom_site_type_symbol
_atom_site_label
_atom_site_fract_x
_atom_site_fract_y
_atom_site_fract_z
Si Si1 0.458402 0.824941 0.653318
Si Si2 0.144039 0.177225 0.029024
Si Si3 0.859998 0.324054 0.225143
Si Si4 0.138826 0.330836 0.537080
Si Si5 0.858121 0.325798 0.615869
Si Si6 0.458508 0.177069 0.897094
O O1 0.389454 0.745455 0.705335
O O2 0.421346 0.785076 0.580305
O O3 0.568193 0.768277 0.660665
O O4 0.454939 0.000000 0.665737
O O5 0.250000 0.244051 0.044567
O O6 0.067831 0.226303 0.085021
O O7 0.147353 0.000000 0.027328
O O8 0.110149 0.231273 0.956702
O O9 0.750000 0.280075 0.209799
O O10 0.873508 0.500000 0.229673
O O11 0.928917 0.260800 0.168822
O O12 0.250000 0.314514 0.554982
O O13 0.104043 0.500000 0.552475
O O14 0.120629 0.292624 0.460842
O O15 0.750000 0.275026 0.633848
O O16 0.871420 0.500000 0.631220
O O17 0.450917 0.000000 0.885742
#
# Coordination Sequence:
#
# PCOD8214645 Si02
#       6
#     8   8   8   8   8   8
#     4  12  24  35  52  79 108 138 174 219 268 315
#     4   8  14  27  51  83 115 143 171 207 255 311
#     4  11  24  40  56  74 101 139 179 219 266 319
#     4   9  18  34  56  80 106 138 175 214 260 316
#     4   9  19  37  59  79 102 137 177 215 260 316
#     4   9  17  31  54  82 109 140 177 215 257 305
#
# _framework density 19.056643999999999
#
# number of rings (size 3 to 8) (size 9 to 14) (size 15 to 20)
#    0.000    2.333    0.000    5.500    0.000    7.333 
#    0.000    4.167    0.000    4.500    0.000    0.000 
#    0.000    0.000    0.000    0.000    0.000    0.000 
#
# Total GULP energy -595182.879262 kJ/mol
# GULP energy per Si atom -12399.643318 kJ/mol
# Density = 1.901327 g / cm^3
# Si number density = 19.056644 Si / 1000 Ang^3
#
#
#
# Elastic Constant Matrix: (Units=GPa)
#
#
# Indices 1 2 3 4 5 6 
#
# 1 130.4882 45.9023 43.0641 0.0000 0.0000 0.0000
# 2 45.9023 67.1694 29.0262 0.0000 0.0000 0.0000
# 3 43.0641 29.0262 40.8344 0.0000 0.0000 0.0000
# 4 0.0000 0.0000 0.0000 35.8402 0.0000 0.0000
# 5 0.0000 0.0000 0.0000 0.0000 29.5796 0.0000
# 6 0.0000 0.0000 0.0000 0.0000 0.0000 23.1486
#
#
#
# Elastic Compliance Matrix: (Units=1/GPa)
#
#
# Indices 1 2 3 4 5 6 
#
# 1 0.012492 -0.004105 -0.010257 0.000000 0.000000 0.000000
# 2 -0.004105 0.022837 -0.011904 0.000000 0.000000 0.000000
# 3 -0.010257 -0.011904 0.043768 0.000000 0.000000 0.000000
# 4 0.000000 0.000000 0.000000 0.027902 0.000000 0.000000
# 5 0.000000 0.000000 0.000000 0.000000 0.033807 0.000000
# 6 0.000000 0.000000 0.000000 0.000000 0.000000 0.043199
#
#
# Mechanical properties :
#
#
# Convention : Reuss Voigt Hill
#
# Bulk Modulus (GPa) = 37.64254 52.71968 45.18111
# Shear Modulus (GPa) = 20.37551 25.74698 23.06124
#
# Velocity S-wave (km/s) = 3.27342 3.67969 3.48248
# Velocity P-wave (km/s) = 5.83806 6.76596 6.31906
#
# Compressibility (1/GPa) = 0.02656569
#
# Stress axis : x y z
#
# Youngs Moduli (GPa) = 80.04833 43.78828 22.84775
#
# Poissons Ratio (x) = 0.17974 0.23434
# Poissons Ratio (y) = 0.32858 0.27199
# Poissons Ratio (z) = 0.82104 0.52127
#
# Static dielectric constant tensor:
#      x y z
#    x 3.954330 0.000000 0.000000 
#    y 0.000000 3.179510 0.000000 
#    z 0.000000 0.000000 3.278790 
# 
# 
# High freq. dielectric constant tensor:
#      x y z
#    x 1.759920 0.000000 0.000000 
#    y 0.000000 1.714080 0.000000 
#    z 0.000000 0.000000 1.722420 
# 
# From -- ./inp_files/29447.got.cif
#   From: 2010.03.12/outbox.cif.g09.slc.cpg/sg51_15_cif.got.tgz:29447.got - 2010.04.16 13:43:02.
