data_PCOD8214578
_publ_section_title
;
Structure prediction by ZEFSAII (Michael W. Deem and Ramdas Pophale) SiO2 
 PCOD8214578
Probable space group: P M M A
;
_chemical_formula_sum "Si O2"
_cell_formula_units_Z 56
_cell_length_a 22.399840
_cell_length_b 8.446121
_cell_length_c 14.663485
_cell_angle_alpha 90.000000
_cell_angle_beta 90.000000
_cell_angle_gamma 90.000000
_cell_volume 2774.210521
_symmetry_space_group_name_H-M "P M M A"
_symmetry_group_IT_number 51
_symmetry_cell_setting 'orthorhombic'
loop_
_space_group_symop_operation_xyz
x,y,z
1/2-x,-y,z
1/2+x,-y,-z
-x,y,-z
-x,-y,-z
1/2+x,y,-z
1/2-x,y,z
x,-y,z
loop_
_atom_site_type_symbol
_atom_site_label
_atom_site_fract_x
_atom_site_fract_y
_atom_site_fract_z
Si Si1 0.180923 0.320794 0.435397
Si Si2 0.182847 0.683617 0.799811
Si Si3 0.551055 0.684029 0.891960
Si Si4 0.405186 0.182629 0.287985
Si Si5 0.990100 0.319324 0.394571
Si Si6 0.136457 0.183089 0.620078
Si Si7 0.574965 0.814792 0.085257
O O1 0.250000 0.315609 0.411232
O O2 0.158546 0.500000 0.453046
O O3 0.147972 0.250080 0.348496
O O4 0.168892 0.219106 0.525260
O O5 0.250000 0.709534 0.838126
O O6 0.169697 0.500000 0.782549
O O7 0.179475 0.774556 0.703592
O O8 0.136016 0.750367 0.872399
O O9 0.554286 0.500000 0.916501
O O10 0.593330 0.722441 0.806827
O O11 0.482558 0.730984 0.868948
O O12 0.575381 0.782933 0.977459
O O13 0.467723 0.201891 0.339497
O O14 0.393666 0.000000 0.267052
O O15 0.006718 0.500000 0.370133
O O16 0.922458 0.287372 0.367269
O O17 0.000000 0.282909 0.500000
O O18 0.118896 0.000000 0.622139
O O19 0.569991 0.000000 0.104858
#
# Coordination Sequence:
#
# PCOD8214578 Si02
#       7
#     8   8   8   8   8   8   8
#     4  11  24  42  61  82 114 158 204 246 292 353
#     4  11  24  42  63  88 122 165 209 250 299 364
#     4  11  22  40  66  93 124 160 200 242 298 366
#     4  12  24  39  61  90 123 155 197 249 301 351
#     4  11  22  37  59  85 119 159 200 244 297 356
#     4  12  24  38  60  89 122 158 201 251 303 356
#     4  11  22  40  65  95 127 155 195 250 306 358
#
# _framework density 20.185922000000001
#
# number of rings (size 3 to 8) (size 9 to 14) (size 15 to 20)
#    0.000    0.714    1.429    8.571    0.000    4.571 
#    0.000    0.714    0.000    4.286    0.000    0.000 
#    0.000    0.000    0.000    0.000    0.000    0.000 
#
# Total GULP energy -694795.713836 kJ/mol
# GULP energy per Si atom -12407.066319 kJ/mol
# Density = 2.013998 g / cm^3
# Si number density = 20.185922 Si / 1000 Ang^3
#
#
#
# Elastic Constant Matrix: (Units=GPa)
#
#
# Indices 1 2 3 4 5 6 
#
# 1 101.0073 26.4505 44.0948 0.0000 0.0000 0.0000
# 2 26.4505 89.4798 26.3829 0.0000 0.0000 0.0000
# 3 44.0948 26.3829 93.6371 0.0000 0.0000 0.0000
# 4 0.0000 0.0000 0.0000 31.6395 0.0000 0.0000
# 5 0.0000 0.0000 0.0000 0.0000 24.0887 0.0000
# 6 0.0000 0.0000 0.0000 0.0000 0.0000 29.3086
#
#
#
# Elastic Compliance Matrix: (Units=1/GPa)
#
#
# Indices 1 2 3 4 5 6 
#
# 1 0.012846 -0.002196 -0.005431 0.000000 0.000000 0.000000
# 2 -0.002196 0.012564 -0.002506 0.000000 0.000000 0.000000
# 3 -0.005431 -0.002506 0.013943 0.000000 0.000000 0.000000
# 4 0.000000 0.000000 0.000000 0.031606 0.000000 0.000000
# 5 0.000000 0.000000 0.000000 0.000000 0.041513 0.000000
# 6 0.000000 0.000000 0.000000 0.000000 0.000000 0.034120
#
#
# Mechanical properties :
#
#
# Convention : Reuss Voigt Hill
#
# Bulk Modulus (GPa) = 52.38965 53.10896 52.74931
# Shear Modulus (GPa) = 28.86514 29.48708 29.17611
#
# Velocity S-wave (km/s) = 3.78559 3.82615 3.80593
# Velocity P-wave (km/s) = 6.71695 6.77394 6.74551
#
# Compressibility (1/GPa) = 0.01908774
#
# Stress axis : x y z
#
# Youngs Moduli (GPa) = 77.84460 79.59438 71.72129
#
# Poissons Ratio (x) = 0.17480 0.38949
# Poissons Ratio (y) = 0.17096 0.17971
# Poissons Ratio (z) = 0.42274 0.19944
#
# Static dielectric constant tensor:
#      x y z
#    x 3.633030 0.000000 0.000000 
#    y 0.000000 3.811790 0.000000 
#    z 0.000000 0.000000 3.688650 
# 
# 
# High freq. dielectric constant tensor:
#      x y z
#    x 1.783230 0.000000 0.000000 
#    y 0.000000 1.805400 0.000000 
#    z 0.000000 0.000000 1.790410 
# 
# From -- ./inp_files/25742.got.cif
#   From: 2010.03.12/outbox.cif.g09.slc.cpg/sg51_13_cif.got.tgz:25742.got - 2010.04.16 13:43:02.
