data_PCOD8214493
_publ_section_title
;
Structure prediction by ZEFSAII (Michael W. Deem and Ramdas Pophale) SiO2 
 PCOD8214493
Probable space group: P M M A
;
_chemical_formula_sum "Si O2"
_cell_formula_units_Z 56
_cell_length_a 18.350347
_cell_length_b 8.825182
_cell_length_c 19.422418
_cell_angle_alpha 90.000000
_cell_angle_beta 90.000000
_cell_angle_gamma 90.000000
_cell_volume 3145.366436
_symmetry_space_group_name_H-M "P M M A"
_symmetry_group_IT_number 51
_symmetry_cell_setting 'orthorhombic'
loop_
_space_group_symop_operation_xyz
x,y,z
1/2-x,-y,z
1/2+x,-y,-z
-x,y,-z
-x,-y,-z
1/2+x,y,-z
1/2-x,y,z
x,-y,z
loop_
_atom_site_type_symbol
_atom_site_label
_atom_site_fract_x
_atom_site_fract_y
_atom_site_fract_z
Si Si1 0.327628 0.822012 0.361800
Si Si2 0.566804 0.164923 0.050006
Si Si3 0.665510 0.179816 0.928626
Si Si4 0.166004 0.173416 0.513958
Si Si5 0.467375 0.677156 0.151640
Si Si6 0.462743 0.676489 0.571761
Si Si7 0.529332 0.177530 0.705817
O O1 0.250000 0.754778 0.336931
O O2 0.348094 0.758606 0.437252
O O3 0.385592 0.782119 0.303868
O O4 0.320594 0.000000 0.373115
O O5 0.539076 0.284323 0.106335
O O6 0.585866 0.000000 0.083484
O O7 0.500000 0.138091 0.000000
O O8 0.636279 0.225111 0.005369
O O9 0.750000 0.236320 0.919456
O O10 0.609393 0.248344 0.872383
O O11 0.662042 0.000000 0.919355
O O12 0.250000 0.184902 0.534373
O O13 0.122274 0.281537 0.565817
O O14 0.138516 0.000000 0.520357
O O15 0.454397 0.500000 0.150282
O O16 0.493018 0.731500 0.226709
O O17 0.500000 0.729505 0.500000
O O18 0.475036 0.500000 0.585708
O O19 0.489711 0.769817 0.637084
O O20 0.515118 0.000000 0.716996
#
# Coordination Sequence:
#
# PCOD8214493 Si02
#       7
#     8   8   8   8   8   8   8
#     4   8  15  28  47  71  95 122 162 210 256 303
#     4   8  15  31  54  77 101 133 175 213 246 293
#     4   9  18  34  57  83 109 139 176 215 252 298
#     4   9  17  32  54  76  96 123 166 215 260 313
#     4  11  22  34  49  74 111 145 175 213 264 319
#     4  11  22  34  50  75 107 136 170 221 276 325
#     4  11  21  34  54  74  99 139 184 224 264 311
#
# _framework density 17.803968000000001
#
# number of rings (size 3 to 8) (size 9 to 14) (size 15 to 20)
#    0.000    2.429    1.429    3.857    0.000    4.286 
#    0.000    1.429    0.000    2.143    0.000    2.000 
#    0.000    0.000    0.000    0.000    0.000    0.000 
#
# Total GULP energy -693845.003693 kJ/mol
# GULP energy per Si atom -12390.089352 kJ/mol
# Density = 1.776345 g / cm^3
# Si number density = 17.803968 Si / 1000 Ang^3
#
#
#
# Elastic Constant Matrix: (Units=GPa)
#
#
# Indices 1 2 3 4 5 6 
#
# 1 52.3484 24.5409 35.7060 0.0000 0.0000 0.0000
# 2 24.5409 62.6111 35.0790 0.0000 0.0000 0.0000
# 3 35.7060 35.0790 97.1936 0.0000 0.0000 0.0000
# 4 0.0000 0.0000 0.0000 21.5415 0.0000 0.0000
# 5 0.0000 0.0000 0.0000 0.0000 -128.7929 0.0000
# 6 0.0000 0.0000 0.0000 0.0000 0.0000 17.1184
#
#
#
# Elastic Compliance Matrix: (Units=1/GPa)
#
#
# Indices 1 2 3 4 5 6 
#
# 1 0.027388 -0.006390 -0.007755 0.000000 0.000000 0.000000
# 2 -0.006390 0.021511 -0.005416 0.000000 0.000000 0.000000
# 3 -0.007755 -0.005416 0.015093 0.000000 0.000000 0.000000
# 4 0.000000 0.000000 0.000000 0.046422 0.000000 0.000000
# 5 0.000000 0.000000 0.000000 0.000000 -0.007764 0.000000
# 6 0.000000 0.000000 0.000000 0.000000 0.000000 0.058417
#
#
# Mechanical properties :
#
#
# Convention : Reuss Voigt Hill
#
# Bulk Modulus (GPa) = 40.21132 44.75611 42.48371
# Shear Modulus (GPa) = 23.98333 -10.23812 6.87260
#
# Velocity S-wave (km/s) = 3.67424 -2.40062 1.96686
# Velocity P-wave (km/s) = 6.37453 4.18436 5.39183
#
# Compressibility (1/GPa) = 0.02486862
#
# Stress axis : x y z
#
# Youngs Moduli (GPa) = 36.51209 46.48846 66.25758
#
# Poissons Ratio (x) = 0.29706 0.51385
# Poissons Ratio (y) = 0.23331 0.35886
# Poissons Ratio (z) = 0.28316 0.25179
#
# Static dielectric constant tensor:
#      x y z
#    x -1.361260 0.000000 0.000000 
#    y 0.000000 3.092260 0.000000 
#    z 0.000000 0.000000 3.201670 
# 
# 
# High freq. dielectric constant tensor:
#      x y z
#    x 1.681010 0.000000 0.000000 
#    y 0.000000 1.673630 0.000000 
#    z 0.000000 0.000000 1.671110 
# 
# From -- ./inp_files/33737.got.cif
#   From: 2010.03.12/outbox.cif.g09.slc.cpg/sg51_17_cif.got.tgz:33737.got - 2010.04.16 13:43:02.
