data_PCOD8214488
_publ_section_title
;
Structure prediction by ZEFSAII (Michael W. Deem and Ramdas Pophale) SiO2 
 PCOD8214488
Probable space group: P M M A
;
_chemical_formula_sum "Si O2"
_cell_formula_units_Z 32
_cell_length_a 20.738933
_cell_length_b 8.794603
_cell_length_c 9.365443
_cell_angle_alpha 90.000000
_cell_angle_beta 90.000000
_cell_angle_gamma 90.000000
_cell_volume 1708.169540
_symmetry_space_group_name_H-M "P M M A"
_symmetry_group_IT_number 51
_symmetry_cell_setting 'orthorhombic'
loop_
_space_group_symop_operation_xyz
x,y,z
1/2-x,-y,z
1/2+x,-y,-z
-x,y,-z
-x,-y,-z
1/2+x,y,-z
1/2-x,y,z
x,-y,z
loop_
_atom_site_type_symbol
_atom_site_label
_atom_site_fract_x
_atom_site_fract_y
_atom_site_fract_z
Si Si1 0.864357 0.678120 0.649944
Si Si2 0.250000 0.819441 0.174475
Si Si3 0.492846 0.167469 0.331279
Si Si4 0.366520 0.819799 0.658653
Si Si5 0.750000 0.819841 0.147457
O O1 0.852957 0.500000 0.656197
O O2 0.813710 0.759985 0.750367
O O3 0.936035 0.716466 0.709573
O O4 0.854144 0.734799 0.489425
O O5 0.250000 0.000000 0.179360
O O6 0.250000 0.755961 0.012726
O O7 0.500000 0.156870 0.500000
O O8 0.563102 0.221642 0.274337
O O9 0.475451 0.000000 0.270071
O O10 0.313564 0.761245 0.770619
O O11 0.361868 0.000000 0.628809
O O12 0.750000 0.000000 0.145064
#
# Coordination Sequence:
#
# PCOD8214488 Si02
#       5
#     8   4   8   8   4
#     4  11  21  33  52  79 107 136 171 208 252 307
#     4  11  22  37  54  72 100 137 174 213 258 304
#     4   8  15  29  51  78 105 133 167 210 256 299
#     4   9  17  33  57  82 105 131 170 216 258 303
#     4   9  19  35  56  78  98 129 174 219 258 298
#
# _framework density 18.733502999999999
#
# number of rings (size 3 to 8) (size 9 to 14) (size 15 to 20)
#    0.000    2.500    0.000    4.875    0.000    5.500 
#    0.000    3.750    0.000    7.500    0.000    0.000 
#    0.000    0.000    0.000    0.000    0.000    0.000 
#
# Total GULP energy -396677.842403 kJ/mol
# GULP energy per Si atom -12396.182575 kJ/mol
# Density = 1.869087 g / cm^3
# Si number density = 18.733503 Si / 1000 Ang^3
#
#
#
# Elastic Constant Matrix: (Units=GPa)
#
#
# Indices 1 2 3 4 5 6 
#
# 1 175.1479 47.6632 73.2547 0.0000 0.0000 0.0000
# 2 47.6632 82.0232 38.4384 0.0000 0.0000 0.0000
# 3 73.2547 38.4384 91.1881 0.0000 0.0000 0.0000
# 4 0.0000 0.0000 0.0000 1.1699 0.0000 0.0000
# 5 0.0000 0.0000 0.0000 0.0000 -5.8586 0.0000
# 6 0.0000 0.0000 0.0000 0.0000 0.0000 5.7061
#
#
#
# Elastic Compliance Matrix: (Units=1/GPa)
#
#
# Indices 1 2 3 4 5 6 
#
# 1 0.008927 -0.002276 -0.006212 0.000000 0.000000 0.000000
# 2 -0.002276 0.015773 -0.004820 0.000000 0.000000 0.000000
# 3 -0.006212 -0.004820 0.017988 0.000000 0.000000 0.000000
# 4 0.000000 0.000000 0.000000 0.854738 0.000000 0.000000
# 5 0.000000 0.000000 0.000000 0.000000 -0.170689 0.000000
# 6 0.000000 0.000000 0.000000 0.000000 0.000000 0.175250
#
#
# Mechanical properties :
#
#
# Convention : Reuss Voigt Hill
#
# Bulk Modulus (GPa) = 62.22042 74.11908 68.16975
# Shear Modulus (GPa) = 5.35353 12.80368 9.07861
#
# Velocity S-wave (km/s) = 1.69232 2.61715 2.20379
# Velocity P-wave (km/s) = 6.09132 6.98452 6.55315
#
# Compressibility (1/GPa) = 0.01607189
#
# Stress axis : x y z
#
# Youngs Moduli (GPa) = 112.01966 63.39808 55.59142
#
# Poissons Ratio (x) = 0.14432 0.34532
# Poissons Ratio (y) = 0.25500 0.26796
# Poissons Ratio (z) = 0.69585 0.30559
#
# Static dielectric constant tensor:
#      x y z
#    x 4.197170 0.000000 0.000000 
#    y 0.000000 3.231910 0.000000 
#    z 0.000000 0.000000 3.240750 
# 
# 
# High freq. dielectric constant tensor:
#      x y z
#    x 1.753300 0.000000 0.000000 
#    y 0.000000 1.706950 0.000000 
#    z 0.000000 0.000000 1.689620 
# 
# From -- ./inp_files/10321.got.cif
#   From: 2010.03.12/outbox.cif.g09.slc.cpg/sg51_6_cif.got.tgz:10321.got - 2010.04.16 13:43:02.
