data_PCOD8214636
_publ_section_title
;
Structure prediction by ZEFSAII (Michael W. Deem and Ramdas Pophale) SiO2 
 PCOD8214636
Probable space group: P M M A
;
_chemical_formula_sum "Si O2"
_cell_formula_units_Z 56
_cell_length_a 15.492810
_cell_length_b 19.149554
_cell_length_c 8.892449
_cell_angle_alpha 90.000000
_cell_angle_beta 90.000000
_cell_angle_gamma 90.000000
_cell_volume 2638.215341
_symmetry_space_group_name_H-M "P M M A"
_symmetry_group_IT_number 51
_symmetry_cell_setting 'orthorhombic'
loop_
_space_group_symop_operation_xyz
x,y,z
1/2-x,-y,z
1/2+x,-y,-z
-x,y,-z
-x,-y,-z
1/2+x,y,-z
1/2-x,y,z
x,-y,z
loop_
_atom_site_type_symbol
_atom_site_label
_atom_site_fract_x
_atom_site_fract_y
_atom_site_fract_z
Si Si1 0.152903 0.577029 0.612001
Si Si2 0.062590 0.288260 0.621140
Si Si3 0.348742 0.838969 0.789037
Si Si4 0.652284 0.166986 0.852816
Si Si5 0.440526 0.300543 0.125263
Si Si6 0.846948 0.422970 0.035603
Si Si7 0.993562 0.081198 0.674263
O O1 0.250000 0.574375 0.551232
O O2 0.110677 0.500000 0.576627
O O3 0.108999 0.645734 0.538191
O O4 0.151734 0.592944 0.788612
O O5 0.125187 0.233019 0.704077
O O6 0.000000 0.249377 0.500000
O O7 0.001068 0.325155 0.741107
O O8 0.250000 0.856059 0.741792
O O9 0.412974 0.900452 0.741413
O O10 0.356149 0.836837 0.968056
O O11 0.750000 0.148151 0.801073
O O12 0.632150 0.247527 0.813229
O O13 0.584231 0.119774 0.761787
O O14 0.500000 0.261042 0.000000
O O15 0.404258 0.370257 0.055658
O O16 0.750000 0.415965 0.975157
O O17 0.883209 0.500000 0.002551
O O18 0.000000 0.102101 0.500000
O O19 0.975468 0.000000 0.696878
#
# Coordination Sequence:
#
# PCOD8214636 Si02
#       7
#     8   8   8   8   8   8   8
#     4   9  18  35  58  82 113 160 215 269 326 389
#     4  12  24  38  57  88 129 165 214 270 328 393
#     4  11  23  42  68  96 127 169 218 266 317 373
#     4  11  23  41  68  98 129 167 216 269 316 366
#     4  12  20  35  60  87 122 161 210 268 322 383
#     4   9  18  33  55  85 117 155 211 272 327 385
#     4  11  25  46  69  99 139 173 206 252 310 381
#
# _framework density 21.226469000000002
#
# number of rings (size 3 to 8) (size 9 to 14) (size 15 to 20)
#    0.000    1.286    4.286    2.571    0.000    5.714 
#    0.000    5.000    0.000    1.714    0.000    0.000 
#    0.000    0.000    0.000    0.000    0.000    0.000 
#
# Total GULP energy -693867.175132 kJ/mol
# GULP energy per Si atom -12390.485270 kJ/mol
# Density = 2.117816 g / cm^3
# Si number density = 21.226469 Si / 1000 Ang^3
#
#
#
# Elastic Constant Matrix: (Units=GPa)
#
#
# Indices 1 2 3 4 5 6 
#
# 1 147.7823 52.9423 48.2268 0.0000 0.0000 0.0000
# 2 52.9423 108.5457 27.0524 0.0000 0.0000 0.0000
# 3 48.2268 27.0524 49.7153 0.0000 0.0000 0.0000
# 4 0.0000 0.0000 0.0000 21.5012 0.0000 0.0000
# 5 0.0000 0.0000 0.0000 0.0000 26.9083 0.0000
# 6 0.0000 0.0000 0.0000 0.0000 0.0000 15.3470
#
#
#
# Elastic Compliance Matrix: (Units=1/GPa)
#
#
# Indices 1 2 3 4 5 6 
#
# 1 0.010706 -0.003047 -0.008728 0.000000 0.000000 0.000000
# 2 -0.003047 0.011525 -0.003316 0.000000 0.000000 0.000000
# 3 -0.008728 -0.003316 0.030386 0.000000 0.000000 0.000000
# 4 0.000000 0.000000 0.000000 0.046509 0.000000 0.000000
# 5 0.000000 0.000000 0.000000 0.000000 0.037163 0.000000
# 6 0.000000 0.000000 0.000000 0.000000 0.000000 0.065159
#
#
# Mechanical properties :
#
#
# Convention : Reuss Voigt Hill
#
# Bulk Modulus (GPa) = 44.57136 62.49847 53.53491
# Shear Modulus (GPa) = 20.91100 24.60610 22.75855
#
# Velocity S-wave (km/s) = 3.14210 3.40842 3.27797
# Velocity P-wave (km/s) = 5.84870 6.70801 6.29304
#
# Compressibility (1/GPa) = 0.02243593
#
# Stress axis : x y z
#
# Youngs Moduli (GPa) = 93.40148 86.76700 32.91037
#
# Poissons Ratio (x) = 0.26436 0.28724
# Poissons Ratio (y) = 0.28457 0.10912
# Poissons Ratio (z) = 0.81521 0.28770
#
# Static dielectric constant tensor:
#      x y z
#    x 4.175790 0.000000 0.000000 
#    y 0.000000 3.754790 0.000000 
#    z 0.000000 0.000000 3.799000 
# 
# 
# High freq. dielectric constant tensor:
#      x y z
#    x 1.840150 0.000000 0.000000 
#    y 0.000000 1.830770 0.000000 
#    z 0.000000 0.000000 1.818160 
# 
# From -- ./inp_files/8479.got.cif
#   From: 2010.03.12/outbox.cif.g09.slc.cpg/sg51_5_cif.got.tgz:8479.got - 2010.04.16 13:43:02.
