data_PCOD8214998
_publ_section_title
;
Structure prediction by ZEFSAII (Michael W. Deem and Ramdas Pophale) SiO2 
 PCOD8214998
Probable space group: P N N A
;
_chemical_formula_sum "Si O2"
_cell_formula_units_Z 56
_cell_length_a 9.482700
_cell_length_b 24.322712
_cell_length_c 14.977552
_cell_angle_alpha 90.000000
_cell_angle_beta 90.000000
_cell_angle_gamma 90.000000
_cell_volume 3454.497198
_symmetry_space_group_name_H-M "P N N A"
_symmetry_group_IT_number 52
_symmetry_cell_setting 'orthorhombic'
loop_
_space_group_symop_operation_xyz
x,y,z
1/2-x,-y,z
x,1/2-y,1/2-z
1/2-x,1/2+y,1/2-z
-x,-y,-z
1/2+x,y,-z
-x,1/2+y,1/2+z
1/2+x,1/2-y,1/2+z
loop_
_atom_site_type_symbol
_atom_site_label
_atom_site_fract_x
_atom_site_fract_y
_atom_site_fract_z
Si Si1 0.894801 0.286670 0.017298
Si Si2 0.417416 0.662616 0.753388
Si Si3 0.029431 0.056560 0.547181
Si Si4 0.748054 0.939199 0.303914
Si Si5 0.016191 0.121735 0.374778
Si Si6 0.826082 0.367843 0.859746
Si Si7 0.133973 0.247530 0.896632
O O1 0.945686 0.319247 0.106563
O O2 0.782680 0.242202 0.053207
O O3 0.018322 0.251779 0.973480
O O4 0.824010 0.325948 0.943085
O O5 0.331259 0.605499 0.744545
O O6 0.582845 0.653727 0.775278
O O7 0.356982 0.697788 0.835911
O O8 0.400562 0.693589 0.660305
O O9 0.174069 0.053653 0.601696
O O10 0.057853 0.101964 0.473322
O O11 0.896956 0.074501 0.608852
O O12 0.000000 0.000000 0.500000
O O13 0.587668 0.919150 0.321206
O O14 0.750000 0.000000 0.257360
O O15 0.166305 0.124876 0.323225
#
# Coordination Sequence:
#
# PCOD8214998 Si02
#       7
#     8   8   8   8   8   8   8
#     4  10  17  30  51  72  88 126 165 210 242 284
#     4   9  20  35  47  68 101 139 159 194 263 305
#     4  10  18  27  39  63  96 133 174 195 223 268
#     4  11  20  31  44  68 100 138 169 197 235 298
#     4  11  18  27  44  67  98 124 168 204 226 274
#     4   9  19  29  44  66  99 129 164 205 238 283
#     4  10  18  33  55  69  98 128 165 209 255 296
#
# _framework density 16.210754000000001
#
# number of rings (size 3 to 8) (size 9 to 14) (size 15 to 20)
#    0.000    2.000    4.286    2.571    0.000    0.000 
#    0.000    1.429    3.143    0.000    0.000    1.000 
#    0.000    0.000    0.000    0.000    0.000    0.000 
#
# Total GULP energy -694169.976240 kJ/mol
# GULP energy per Si atom -12395.892433 kJ/mol
# Density = 1.617386 g / cm^3
# Si number density = 16.210754 Si / 1000 Ang^3
#
#
#
# Elastic Constant Matrix: (Units=GPa)
#
#
# Indices 1 2 3 4 5 6 
#
# 1 138.3661 51.0727 34.0536 0.0000 0.0000 0.0000
# 2 51.0727 94.6284 36.7653 0.0000 0.0000 0.0000
# 3 34.0536 36.7653 37.5693 0.0000 0.0000 0.0000
# 4 0.0000 0.0000 0.0000 21.6846 0.0000 0.0000
# 5 0.0000 0.0000 0.0000 0.0000 11.3956 0.0000
# 6 0.0000 0.0000 0.0000 0.0000 0.0000 21.1237
#
#
#
# Elastic Compliance Matrix: (Units=1/GPa)
#
#
# Indices 1 2 3 4 5 6 
#
# 1 0.009792 -0.002963 -0.005976 0.000000 0.000000 0.000000
# 2 -0.002963 0.017947 -0.014877 0.000000 0.000000 0.000000
# 3 -0.005976 -0.014877 0.046593 0.000000 0.000000 0.000000
# 4 0.000000 0.000000 0.000000 0.046116 0.000000 0.000000
# 5 0.000000 0.000000 0.000000 0.000000 0.087753 0.000000
# 6 0.000000 0.000000 0.000000 0.000000 0.000000 0.047340
#
#
# Mechanical properties :
#
#
# Convention : Reuss Voigt Hill
#
# Bulk Modulus (GPa) = 37.45375 57.14967 47.30171
# Shear Modulus (GPa) = 16.02194 20.75225 18.38710
#
# Velocity S-wave (km/s) = 3.14722 3.58180 3.37152
# Velocity P-wave (km/s) = 6.03001 7.24130 6.66324
#
# Compressibility (1/GPa) = 0.02669960
#
# Stress axis : x y z
#
# Youngs Moduli (GPa) = 102.12852 55.71979 21.46252
#
# Poissons Ratio (x) = 0.16510 0.12825
# Poissons Ratio (y) = 0.30261 0.31930
# Poissons Ratio (z) = 0.61029 0.82895
#
# Static dielectric constant tensor:
#      x y z
#    x 10.419040 0.000000 0.000000 
#    y 0.000000 3.111070 0.000000 
#    z 0.000000 0.000000 2.587440 
# 
# 
# High freq. dielectric constant tensor:
#      x y z
#    x 1.640530 0.000000 0.000000 
#    y 0.000000 1.608170 0.000000 
#    z 0.000000 0.000000 1.557640 
# 
# From -- ./inp_files/31615.got.cif
#   From: 2010.06.25/outbox.cif.g09.slc.cpg/sg52_16_cif.got.tgz:31615.got - 2010.06.26 19:32:48.
