data_PCOD8214217
_publ_section_title
;
Structure prediction by ZEFSAII (Michael W. Deem and Ramdas Pophale) SiO2 
 PCOD8214217
Probable space group: P M M A
;
_chemical_formula_sum "Si O2"
_cell_formula_units_Z 44
_cell_length_a 10.066102
_cell_length_b 7.750107
_cell_length_c 29.569124
_cell_angle_alpha 90.000000
_cell_angle_beta 90.000000
_cell_angle_gamma 90.000000
_cell_volume 2306.786939
_symmetry_space_group_name_H-M "P M M A"
_symmetry_group_IT_number 51
_symmetry_cell_setting 'orthorhombic'
loop_
_space_group_symop_operation_xyz
x,y,z
1/2-x,-y,z
1/2+x,-y,-z
-x,y,-z
-x,-y,-z
1/2+x,y,-z
1/2-x,y,z
x,-y,z
loop_
_atom_site_type_symbol
_atom_site_label
_atom_site_fract_x
_atom_site_fract_y
_atom_site_fract_z
Si Si1 0.597846 0.500000 0.458202
Si Si2 0.603382 0.203179 0.788274
Si Si3 0.101481 0.795562 0.311723
Si Si4 0.399815 0.295018 0.963247
Si Si5 0.402436 0.800242 0.611520
Si Si6 0.604963 0.298619 0.136308
O O1 0.750000 0.500000 0.475201
O O2 0.500000 0.500000 0.500000
O O3 0.569344 0.675260 0.430521
O O4 0.750000 0.273721 0.801287
O O5 0.563709 0.274516 0.738425
O O6 0.499980 0.260141 0.825384
O O7 0.607447 0.000000 0.785942
O O8 0.250000 0.731157 0.324957
O O9 0.994119 0.729307 0.347796
O O10 0.098923 0.000000 0.311204
O O11 0.250000 0.236075 0.975000
O O12 0.410510 0.500000 0.964873
O O13 0.438991 0.225837 0.912943
O O14 0.500000 0.212228 0.000000
O O15 0.250000 0.783597 0.627477
O O16 0.435118 0.000000 0.598359
O O17 0.750000 0.221071 0.149649
O O18 0.620516 0.500000 0.130660
#
# Coordination Sequence:
#
# PCOD8214217 Si02
#       6
#     4   8   8   8   8   8
#     4  10  22  38  54  78 110 138 172 216 255 300
#     4   9  18  32  49  70  97 128 162 200 242 291
#     4   8  15  30  51  73  97 126 163 204 242 286
#     4   8  14  25  41  61  85 113 148 191 238 287
#     4   9  18  34  55  77 103 136 172 211 256 303
#     4   9  18  31  45  66  96 124 154 196 242 292
#
# _framework density 19.074149999999999
#
# number of rings (size 3 to 8) (size 9 to 14) (size 15 to 20)
#    0.000    3.273    0.000    2.182    0.000    3.273 
#    1.636    3.636    0.000    0.545    0.000    0.000 
#    0.000    0.000    0.000    0.000    0.000    0.000 
#
# Total GULP energy -545166.671726 kJ/mol
# GULP energy per Si atom -12390.151630 kJ/mol
# Density = 1.903074 g / cm^3
# Si number density = 19.074150 Si / 1000 Ang^3
#
#
#
# Elastic Constant Matrix: (Units=GPa)
#
#
# Indices 1 2 3 4 5 6 
#
# 1 147.5457 27.4110 124.6269 0.0000 0.0000 0.0000
# 2 27.4110 40.2231 33.1100 0.0000 0.0000 0.0000
# 3 124.6269 33.1100 168.7003 0.0000 0.0000 0.0000
# 4 0.0000 0.0000 0.0000 23.4199 0.0000 0.0000
# 5 0.0000 0.0000 0.0000 0.0000 48.9991 0.0000
# 6 0.0000 0.0000 0.0000 0.0000 0.0000 17.3313
#
#
#
# Elastic Compliance Matrix: (Units=1/GPa)
#
#
# Indices 1 2 3 4 5 6 
#
# 1 0.018109 -0.001585 -0.013067 0.000000 0.000000 0.000000
# 2 -0.001585 0.029790 -0.004676 0.000000 0.000000 0.000000
# 3 -0.013067 -0.004676 0.016499 0.000000 0.000000 0.000000
# 4 0.000000 0.000000 0.000000 0.042699 0.000000 0.000000
# 5 0.000000 0.000000 0.000000 0.000000 0.020409 0.000000
# 6 0.000000 0.000000 0.000000 0.000000 0.000000 0.057699
#
#
# Mechanical properties :
#
#
# Convention : Reuss Voigt Hill
#
# Bulk Modulus (GPa) = 38.84620 80.75167 59.79893
# Shear Modulus (GPa) = 21.51071 29.37148 25.44110
#
# Velocity S-wave (km/s) = 3.36183 3.92836 3.65608
# Velocity P-wave (km/s) = 5.95645 7.93748 7.01722
#
# Compressibility (1/GPa) = 0.02574254
#
# Stress axis : x y z
#
# Youngs Moduli (GPa) = 55.21964 33.56778 60.61015
#
# Poissons Ratio (x) = 0.05319 0.79201
# Poissons Ratio (y) = 0.08751 0.28342
# Poissons Ratio (z) = 0.72157 0.15697
#
# Static dielectric constant tensor:
#      x y z
#    x 74.095710 0.000000 0.000000 
#    y 0.000000 3.291680 0.000000 
#    z 0.000000 0.000000 6.466110 
# 
# 
# High freq. dielectric constant tensor:
#      x y z
#    x 1.743860 0.000000 0.000000 
#    y 0.000000 1.719120 0.000000 
#    z 0.000000 0.000000 1.736520 
# 
# From -- ./inp_files/36804.got.cif
#   From: 2010.03.12/outbox.cif.g09.slc.cpg/sg51_19_cif.got.tgz:36804.got - 2010.04.16 13:43:02.
