data_PCOD8214720
_publ_section_title
;
Structure prediction by ZEFSAII (Michael W. Deem and Ramdas Pophale) SiO2 
 PCOD8214720
Probable space group: P M M A
;
_chemical_formula_sum "Si O2"
_cell_formula_units_Z 40
_cell_length_a 9.703013
_cell_length_b 10.033048
_cell_length_c 25.644314
_cell_angle_alpha 90.000000
_cell_angle_beta 90.000000
_cell_angle_gamma 90.000000
_cell_volume 2496.494360
_symmetry_space_group_name_H-M "P M M A"
_symmetry_group_IT_number 51
_symmetry_cell_setting 'orthorhombic'
loop_
_space_group_symop_operation_xyz
x,y,z
1/2-x,-y,z
1/2+x,-y,-z
-x,y,-z
-x,-y,-z
1/2+x,y,-z
1/2-x,y,z
x,-y,z
loop_
_atom_site_type_symbol
_atom_site_label
_atom_site_fract_x
_atom_site_fract_y
_atom_site_fract_z
Si Si1 0.410263 0.846647 0.550059
Si Si2 0.596998 0.841421 0.044960
Si Si3 0.914521 0.851321 0.159986
Si Si4 0.413582 0.351155 0.638697
Si Si5 0.913958 0.350677 0.245299
O O1 0.500000 0.809152 0.500000
O O2 0.250000 0.817179 0.537784
O O3 0.468348 0.756149 0.597144
O O4 0.431821 0.000000 0.566283
O O5 0.750000 0.782148 0.036753
O O6 0.538891 0.802717 0.102306
O O7 0.602930 0.000000 0.040931
O O8 0.500000 0.780141 0.000000
O O9 0.750000 0.852974 0.161472
O O10 0.977388 0.751870 0.203303
O O11 0.970752 0.000000 0.171743
O O12 0.250000 0.348870 0.639200
O O13 0.465180 0.500000 0.623594
O O14 0.467160 0.312897 0.696627
O O15 0.750000 0.342929 0.243935
O O16 0.962661 0.500000 0.230946
#
# Coordination Sequence:
#
# PCOD8214720 Si02
#       5
#     8   8   8   8   8
#     4   9  17  28  41  58  80 104 128 154 186 223
#     4   8  13  21  33  50  72  96 121 150 183 217
#     4   8  13  20  31  49  71  93 119 151 184 218
#     4   8  14  24  37  54  76 100 126 156 188 222
#     4   8  13  21  33  50  73  98 120 146 185 226
#
# _framework density 16.022468
#
# number of rings (size 3 to 8) (size 9 to 14) (size 15 to 20)
#    0.000    3.800    0.000    2.400    0.000    1.200 
#    0.000    4.000    0.000    0.600    0.000    1.400 
#    0.000    8.000    0.000    0.000    0.000    0.000 
#
# Total GULP energy -495624.363810 kJ/mol
# GULP energy per Si atom -12390.609095 kJ/mol
# Density = 1.598600 g / cm^3
# Si number density = 16.022468 Si / 1000 Ang^3
#
#
#
# Elastic Constant Matrix: (Units=GPa)
#
#
# Indices 1 2 3 4 5 6 
#
# 1 22.5446 19.6611 32.6653 0.0000 0.0000 0.0000
# 2 19.6611 88.6538 92.7373 0.0000 0.0000 0.0000
# 3 32.6653 92.7373 166.7152 0.0000 0.0000 0.0000
# 4 0.0000 0.0000 0.0000 18.0205 0.0000 0.0000
# 5 0.0000 0.0000 0.0000 0.0000 18.5608 0.0000
# 6 0.0000 0.0000 0.0000 0.0000 0.0000 6.9977
#
#
#
# Elastic Compliance Matrix: (Units=1/GPa)
#
#
# Indices 1 2 3 4 5 6 
#
# 1 0.062172 -0.002500 -0.010791 0.000000 0.000000 0.000000
# 2 -0.002500 0.027078 -0.014573 0.000000 0.000000 0.000000
# 3 -0.010791 -0.014573 0.016219 0.000000 0.000000 0.000000
# 4 0.000000 0.000000 0.000000 0.055492 0.000000 0.000000
# 5 0.000000 0.000000 0.000000 0.000000 0.053877 0.000000
# 6 0.000000 0.000000 0.000000 0.000000 0.000000 0.142905
#
#
# Mechanical properties :
#
#
# Convention : Reuss Voigt Hill
#
# Bulk Modulus (GPa) = 20.10398 63.11568 41.60983
# Shear Modulus (GPa) = 11.62651 17.57245 14.59948
#
# Velocity S-wave (km/s) = 2.69669 3.31530 3.02186
# Velocity P-wave (km/s) = 4.71919 7.35747 6.18074
#
# Compressibility (1/GPa) = 0.04974140
#
# Stress axis : x y z
#
# Youngs Moduli (GPa) = 16.08443 36.92987 61.65668
#
# Poissons Ratio (x) = 0.09233 0.66533
# Poissons Ratio (y) = 0.04021 0.89851
# Poissons Ratio (z) = 0.17356 0.53817
#
# Static dielectric constant tensor:
#      x y z
#    x 2.572220 0.000000 0.000000 
#    y 0.000000 3.094200 0.000000 
#    z 0.000000 0.000000 3.441140 
# 
# 
# High freq. dielectric constant tensor:
#      x y z
#    x 1.547550 0.000000 0.000000 
#    y 0.000000 1.598360 0.000000 
#    z 0.000000 0.000000 1.628250 
# 
# From -- ./inp_files/23070.got.cif
#   From: 2010.03.12/outbox.cif.g09.slc.cpg/sg51_12_cif.got.tgz:23070.got - 2010.04.16 13:43:02.
