data_PCOD8214183
_publ_section_title
;
Structure prediction by ZEFSAII (Michael W. Deem and Ramdas Pophale) SiO2 
 PCOD8214183
Probable space group: P M M A
;
_chemical_formula_sum "Si O2"
_cell_formula_units_Z 64
_cell_length_a 14.940521
_cell_length_b 9.408118
_cell_length_c 24.382204
_cell_angle_alpha 90.000000
_cell_angle_beta 90.000000
_cell_angle_gamma 90.000000
_cell_volume 3427.215858
_symmetry_space_group_name_H-M "P M M A"
_symmetry_group_IT_number 51
_symmetry_cell_setting 'orthorhombic'
loop_
_space_group_symop_operation_xyz
x,y,z
1/2-x,-y,z
1/2+x,-y,-z
-x,y,-z
-x,-y,-z
1/2+x,y,-z
1/2-x,y,z
x,-y,z
loop_
_atom_site_type_symbol
_atom_site_label
_atom_site_fract_x
_atom_site_fract_y
_atom_site_fract_z
Si Si1 0.852620 0.332586 0.132242
Si Si2 0.500360 0.167930 0.439230
Si Si3 0.852240 0.167068 0.356241
Si Si4 0.853270 0.165520 0.645955
Si Si5 0.643925 0.656801 0.253656
Si Si6 0.147357 0.164155 0.144780
Si Si7 0.007396 0.165152 0.937467
Si Si8 0.143894 0.339569 0.249243
O O1 0.750000 0.285476 0.123723
O O2 0.862869 0.500000 0.123373
O O3 0.886853 0.290719 0.193478
O O4 0.911785 0.251189 0.088577
O O5 0.500000 0.237251 0.500000
O O6 0.587618 0.223157 0.406515
O O7 0.409880 0.210996 0.407389
O O8 0.506753 0.000000 0.444739
O O9 0.750000 0.211675 0.368509
O O10 0.889842 0.236170 0.300351
O O11 0.862017 0.000000 0.348046
O O12 0.750000 0.199185 0.632738
O O13 0.890213 0.256093 0.697151
O O14 0.867249 0.000000 0.660294
O O15 0.750000 0.648489 0.253160
O O16 0.604545 0.500000 0.266030
O O17 0.250000 0.202627 0.129831
O O18 0.110443 0.259050 0.194911
O O19 0.086929 0.198450 0.092020
O O20 0.139710 0.000000 0.162633
O O21 0.031816 0.000000 0.933180
O O22 0.000000 0.215147 0.000000
O O23 0.250000 0.339792 0.249794
O O24 0.105509 0.500000 0.249465
#
# Coordination Sequence:
#
# PCOD8214183 Si02
#       8
#     8   8   8   8   8   8   8   8
#     4   9  19  36  56  78 105 137 171 208 253 304
#     4   9  18  31  46  67  94 123 160 202 236 274
#     4   9  17  29  47  71  96 121 152 194 241 284
#     4   9  17  30  49  71  95 125 158 193 239 293
#     4   8  15  30  51  73  98 127 158 193 238 294
#     4   9  18  34  54  74 101 136 169 205 251 302
#     4  10  22  37  53  77 105 135 175 216 253 297
#     4   9  17  30  50  76 102 126 157 200 249 299
#
# _framework density 18.674049
#
# number of rings (size 3 to 8) (size 9 to 14) (size 15 to 20)
#    0.000    3.000    0.000    1.125    0.000    5.000 
#    0.000    9.375    0.000    3.000    0.000    3.500 
#    0.000    0.000    0.000    0.000    0.000    0.000 
#
# Total GULP energy -793446.427017 kJ/mol
# GULP energy per Si atom -12397.600422 kJ/mol
# Density = 1.863155 g / cm^3
# Si number density = 18.674049 Si / 1000 Ang^3
#
#
#
# Elastic Constant Matrix: (Units=GPa)
#
#
# Indices 1 2 3 4 5 6 
#
# 1 95.3682 37.9610 75.1105 0.0000 0.0000 0.0000
# 2 37.9610 61.8024 65.0085 0.0000 0.0000 0.0000
# 3 75.1105 65.0085 189.6662 0.0000 0.0000 0.0000
# 4 0.0000 0.0000 0.0000 -32.4140 0.0000 0.0000
# 5 0.0000 0.0000 0.0000 0.0000 24.8478 0.0000
# 6 0.0000 0.0000 0.0000 0.0000 0.0000 15.9356
#
#
#
# Elastic Compliance Matrix: (Units=1/GPa)
#
#
# Indices 1 2 3 4 5 6 
#
# 1 0.016169 -0.004998 -0.004690 0.000000 0.000000 0.000000
# 2 -0.004998 0.026848 -0.007223 0.000000 0.000000 0.000000
# 3 -0.004690 -0.007223 0.009605 0.000000 0.000000 0.000000
# 4 0.000000 0.000000 0.000000 -0.030851 0.000000 0.000000
# 5 0.000000 0.000000 0.000000 0.000000 0.040245 0.000000
# 6 0.000000 0.000000 0.000000 0.000000 0.000000 0.062753
#
#
# Mechanical properties :
#
#
# Convention : Reuss Voigt Hill
#
# Bulk Modulus (GPa) = 53.19046 78.11077 65.65061
# Shear Modulus (GPa) = 30.32905 12.92434 21.62670
#
# Velocity S-wave (km/s) = 4.03442 2.63364 3.40680
# Velocity P-wave (km/s) = 7.08855 7.15314 7.12092
#
# Compressibility (1/GPa) = 0.01880037
#
# Stress axis : x y z
#
# Youngs Moduli (GPa) = 61.84694 37.24631 104.10806
#
# Poissons Ratio (x) = 0.18616 0.48827
# Poissons Ratio (y) = 0.30912 0.75197
# Poissons Ratio (z) = 0.29006 0.26903
#
# Static dielectric constant tensor:
#      x y z
#    x 3.372950 0.000000 0.000000 
#    y 0.000000 3.357500 0.000000 
#    z 0.000000 0.000000 3.627600 
# 
# 
# High freq. dielectric constant tensor:
#      x y z
#    x 1.724400 0.000000 0.000000 
#    y 0.000000 1.703360 0.000000 
#    z 0.000000 0.000000 1.722730 
# 
# From -- ./inp_files/35821.got.cif
#   From: 2010.03.12/outbox.cif.g09.slc.cpg/sg51_18_cif.got.tgz:35821.got - 2010.04.16 13:43:02.
