data_PCOD8214445
_publ_section_title
;
Structure prediction by ZEFSAII (Michael W. Deem and Ramdas Pophale) SiO2 
 PCOD8214445
Probable space group: P M M A
;
_chemical_formula_sum "Si O2"
_cell_formula_units_Z 40
_cell_length_a 18.153241
_cell_length_b 10.108949
_cell_length_c 11.046744
_cell_angle_alpha 90.000000
_cell_angle_beta 90.000000
_cell_angle_gamma 90.000000
_cell_volume 2027.190062
_symmetry_space_group_name_H-M "P M M A"
_symmetry_group_IT_number 51
_symmetry_cell_setting 'orthorhombic'
loop_
_space_group_symop_operation_xyz
x,y,z
1/2-x,-y,z
1/2+x,-y,-z
-x,y,-z
-x,-y,-z
1/2+x,y,-z
1/2-x,y,z
x,-y,z
loop_
_atom_site_type_symbol
_atom_site_label
_atom_site_fract_x
_atom_site_fract_y
_atom_site_fract_z
Si Si1 0.662117 0.000000 0.530107
Si Si2 0.946842 0.156291 0.173596
Si Si3 0.662840 0.500000 0.534855
Si Si4 0.105185 0.229471 0.075890
Si Si5 0.078820 0.247671 0.564555
Si Si6 0.329955 0.000000 0.208945
Si Si7 0.663499 0.500000 0.821954
O O1 0.631416 0.127446 0.464935
O O2 0.624666 0.000000 0.665301
O O3 0.750000 0.000000 0.518340
O O4 0.933006 0.244702 0.291503
O O5 0.029842 0.176431 0.131701
O O6 0.932194 0.000000 0.194641
O O7 0.894085 0.215914 0.069313
O O8 0.750000 0.500000 0.505842
O O9 0.623134 0.623938 0.475331
O O10 0.649467 0.500000 0.678790
O O11 0.123664 0.376593 0.116349
O O12 0.165196 0.130726 0.128851
O O13 0.000000 0.239138 0.500000
O O14 0.250000 0.000000 0.266641
O O15 0.750000 0.500000 0.852047
#
# Coordination Sequence:
#
# PCOD8214445 Si02
#       7
#     4   8   4   8   8   4   4
#     4  11  23  38  59  92 128 168 211 263 324 374
#     4  11  22  41  65  94 128 162 208 269 319 366
#     4  11  25  46  65  92 134 174 209 263 328 390
#     4  11  22  40  64  90 126 163 205 261 320 370
#     4  12  24  40  68  96 128 168 221 267 315 381
#     4  11  20  35  61  87 115 163 215 254 302 371
#     4  11  24  43  65  93 127 163 211 262 310 375
#
# _framework density 19.731746000000001
#
# number of rings (size 3 to 8) (size 9 to 14) (size 15 to 20)
#    0.000    0.800    3.000    6.000    0.000    6.400 
#    0.000    6.000    0.000    0.000    0.000    0.000 
#    0.000    0.000    0.000    0.000    0.000    0.000 
#
# Total GULP energy -495908.328923 kJ/mol
# GULP energy per Si atom -12397.708223 kJ/mol
# Density = 1.968684 g / cm^3
# Si number density = 19.731746 Si / 1000 Ang^3
#
#
#
# Elastic Constant Matrix: (Units=GPa)
#
#
# Indices 1 2 3 4 5 6 
#
# 1 86.9220 37.0949 37.1698 0.0000 0.0000 0.0000
# 2 37.0949 154.4162 43.4765 0.0000 0.0000 0.0000
# 3 37.1698 43.4765 157.9552 0.0000 0.0000 0.0000
# 4 0.0000 0.0000 0.0000 43.1295 0.0000 0.0000
# 5 0.0000 0.0000 0.0000 0.0000 30.7102 0.0000
# 6 0.0000 0.0000 0.0000 0.0000 0.0000 13.0780
#
#
#
# Elastic Compliance Matrix: (Units=1/GPa)
#
#
# Indices 1 2 3 4 5 6 
#
# 1 0.013678 -0.002580 -0.002509 0.000000 0.000000 0.000000
# 2 -0.002580 0.007506 -0.001459 0.000000 0.000000 0.000000
# 3 -0.002509 -0.001459 0.007323 0.000000 0.000000 0.000000
# 4 0.000000 0.000000 0.000000 0.023186 0.000000 0.000000
# 5 0.000000 0.000000 0.000000 0.000000 0.032562 0.000000
# 6 0.000000 0.000000 0.000000 0.000000 0.000000 0.076464
#
#
# Mechanical properties :
#
#
# Convention : Reuss Voigt Hill
#
# Bulk Modulus (GPa) = 64.88106 70.53064 67.70585
# Shear Modulus (GPa) = 27.94038 36.15370 32.04704
#
# Velocity S-wave (km/s) = 3.76708 4.28513 4.03443
# Velocity P-wave (km/s) = 7.20237 7.76566 7.48931
#
# Compressibility (1/GPa) = 0.01541282
#
# Stress axis : x y z
#
# Youngs Moduli (GPa) = 73.10902 133.21800 136.55832
#
# Poissons Ratio (x) = 0.34364 0.34259
# Poissons Ratio (y) = 0.18859 0.19925
# Poissons Ratio (z) = 0.18341 0.19438
#
# Static dielectric constant tensor:
#      x y z
#    x 3.662170 0.000000 0.000000 
#    y 0.000000 3.395220 0.000000 
#    z 0.000000 0.000000 3.941980 
# 
# 
# High freq. dielectric constant tensor:
#      x y z
#    x 1.771020 0.000000 0.000000 
#    y 0.000000 1.778550 0.000000 
#    z 0.000000 0.000000 1.784720 
# 
# From -- ./inp_files/18023.got.cif
#   From: 2010.03.12/outbox.cif.g09.slc.cpg/sg51_10_cif.got.tgz:18023.got - 2010.04.16 13:43:02.
