data_PCOD8214370
_publ_section_title
;
Structure prediction by ZEFSAII (Michael W. Deem and Ramdas Pophale) SiO2 
 PCOD8214370
Probable space group: P M M A
;
_chemical_formula_sum "Si O2"
_cell_formula_units_Z 44
_cell_length_a 8.718470
_cell_length_b 28.077214
_cell_length_c 9.024460
_cell_angle_alpha 90.000000
_cell_angle_beta 90.000000
_cell_angle_gamma 90.000000
_cell_volume 2209.100703
_symmetry_space_group_name_H-M "P M M A"
_symmetry_group_IT_number 51
_symmetry_cell_setting 'orthorhombic'
loop_
_space_group_symop_operation_xyz
x,y,z
1/2-x,-y,z
1/2+x,-y,-z
-x,y,-z
-x,-y,-z
1/2+x,y,-z
1/2-x,y,z
x,-y,z
loop_
_atom_site_type_symbol
_atom_site_label
_atom_site_fract_x
_atom_site_fract_y
_atom_site_fract_z
Si Si1 0.068910 0.142062 0.839698
Si Si2 0.567586 0.500000 0.162572
Si Si3 0.568066 0.412115 0.662419
Si Si4 0.929834 0.681203 0.839836
Si Si5 0.067720 0.772804 0.339496
Si Si6 0.930114 0.053121 0.345468
O O1 0.250000 0.149350 0.846507
O O2 0.022606 0.089053 0.785604
O O3 0.998332 0.178298 0.722780
O O4 0.000000 0.151510 0.000000
O O5 0.750000 0.500000 0.156196
O O6 0.509202 0.453547 0.244980
O O7 0.500000 0.500000 0.000000
O O8 0.500000 0.413073 0.500000
O O9 0.750000 0.419606 0.657670
O O10 0.520137 0.362319 0.735996
O O11 0.750000 0.682571 0.860060
O O12 0.988354 0.730066 0.766364
O O13 0.000000 0.674310 0.000000
O O14 0.250000 0.775860 0.349542
O O15 0.000000 0.762775 0.500000
O O16 0.750000 0.053059 0.367750
O O17 0.000000 0.070935 0.500000
O O18 0.990255 0.000000 0.304529
#
# Coordination Sequence:
#
# PCOD8214370 Si02
#       6
#     8   4   8   8   8   8
#     4  11  23  38  57  83 115 151 191 237 288 343
#     4  12  25  42  63  90 122 158 198 244 295 348
#     4  11  23  41  63  90 121 157 199 243 291 344
#     4  10  23  40  61  88 119 154 194 239 289 343
#     4  11  23  40  61  87 117 152 193 238 288 343
#     4   9  19  36  57  81 110 145 187 234 284 339
#
# _framework density 19.917608999999999
#
# number of rings (size 3 to 8) (size 9 to 14) (size 15 to 20)
#    0.000    1.455    0.000    4.909    0.000    9.091 
#    0.000    0.000    0.000    0.000    0.000    0.000 
#    0.000    0.000    0.000    0.000    0.000    0.000 
#
# Total GULP energy -545790.311361 kJ/mol
# GULP energy per Si atom -12404.325258 kJ/mol
# Density = 1.987228 g / cm^3
# Si number density = 19.917609 Si / 1000 Ang^3
#
#
#
# Elastic Constant Matrix: (Units=GPa)
#
#
# Indices 1 2 3 4 5 6 
#
# 1 85.0675 54.2648 52.4561 0.0000 0.0000 0.0000
# 2 54.2648 126.5381 58.5327 0.0000 0.0000 0.0000
# 3 52.4561 58.5327 152.4663 0.0000 0.0000 0.0000
# 4 0.0000 0.0000 0.0000 40.1695 0.0000 0.0000
# 5 0.0000 0.0000 0.0000 0.0000 41.5348 0.0000
# 6 0.0000 0.0000 0.0000 0.0000 0.0000 61.9772
#
#
#
# Elastic Compliance Matrix: (Units=1/GPa)
#
#
# Indices 1 2 3 4 5 6 
#
# 1 0.017912 -0.005874 -0.003908 0.000000 0.000000 0.000000
# 2 -0.005874 0.011535 -0.002408 0.000000 0.000000 0.000000
# 3 -0.003908 -0.002408 0.008828 0.000000 0.000000 0.000000
# 4 0.000000 0.000000 0.000000 0.024895 0.000000 0.000000
# 5 0.000000 0.000000 0.000000 0.000000 0.024076 0.000000
# 6 0.000000 0.000000 0.000000 0.000000 0.000000 0.016135
#
#
# Mechanical properties :
#
#
# Convention : Reuss Voigt Hill
#
# Bulk Modulus (GPa) = 71.95932 77.17545 74.56738
# Shear Modulus (GPa) = 37.76698 41.99085 39.87891
#
# Velocity S-wave (km/s) = 4.35922 4.59653 4.47944
# Velocity P-wave (km/s) = 7.84499 8.18549 8.01705
#
# Compressibility (1/GPa) = 0.01389674
#
# Stress axis : x y z
#
# Youngs Moduli (GPa) = 55.82885 86.68978 113.28189
#
# Poissons Ratio (x) = 0.50920 0.44266
# Poissons Ratio (y) = 0.32793 0.27274
# Poissons Ratio (z) = 0.21816 0.20872
#
# Static dielectric constant tensor:
#      x y z
#    x 3.694600 0.000000 0.000000 
#    y 0.000000 4.121250 0.000000 
#    z 0.000000 0.000000 3.717170 
# 
# 
# High freq. dielectric constant tensor:
#      x y z
#    x 1.782780 0.000000 0.000000 
#    y 0.000000 1.797040 0.000000 
#    z 0.000000 0.000000 1.788940 
# 
# From -- ./inp_files/5836.got.cif
#   From: 2010.03.12/outbox.cif.g09.slc.cpg/sg51_3_cif.got.tgz:5836.got - 2010.04.16 13:43:02.
