data_PCOD8214032
_publ_section_title
;
Structure prediction by ZEFSAII (Michael W. Deem and Ramdas Pophale) SiO2 
 PCOD8214032
Probable space group: P M M A
;
_chemical_formula_sum "Si O2"
_cell_formula_units_Z 48
_cell_length_a 29.753818
_cell_length_b 7.900113
_cell_length_c 10.258929
_cell_angle_alpha 90.000000
_cell_angle_beta 90.000000
_cell_angle_gamma 90.000000
_cell_volume 2411.448712
_symmetry_space_group_name_H-M "P M M A"
_symmetry_group_IT_number 51
_symmetry_cell_setting 'orthorhombic'
loop_
_space_group_symop_operation_xyz
x,y,z
1/2-x,-y,z
1/2+x,-y,-z
-x,y,-z
-x,-y,-z
1/2+x,y,-z
1/2-x,y,z
x,-y,z
loop_
_atom_site_type_symbol
_atom_site_label
_atom_site_fract_x
_atom_site_fract_y
_atom_site_fract_z
Si Si1 0.130446 0.307055 0.133810
Si Si2 0.200862 0.304932 0.646794
Si Si3 0.027459 0.689689 0.131272
Si Si4 0.867677 0.302455 0.567303
Si Si5 0.699801 0.806492 0.076439
Si Si6 0.930913 0.000000 0.504378
Si Si7 0.006563 0.000000 0.709622
O O1 0.133446 0.500000 0.090618
O O2 0.078921 0.244443 0.113545
O O3 0.146955 0.280515 0.282338
O O4 0.165063 0.209351 0.041984
O O5 0.250000 0.216629 0.641358
O O6 0.205945 0.500000 0.616223
O O7 0.170500 0.231808 0.530415
O O8 0.180400 0.280817 0.792012
O O9 0.028910 0.500000 0.196752
O O10 0.999991 0.827169 0.211733
O O11 0.000000 0.673787 0.000000
O O12 0.880816 0.500000 0.539997
O O13 0.908293 0.177145 0.541200
O O14 0.750000 0.733662 0.040847
O O15 0.704575 0.000000 0.112139
O O16 0.974975 0.000000 0.587817
O O17 0.942844 0.000000 0.349937
#
# Coordination Sequence:
#
# PCOD8214032 Si02
#       7
#     8   8   8   8   8   4   4
#     4  10  21  38  62  87 115 157 199 244 300 355
#     4   9  19  38  61  85 118 158 197 241 293 353
#     4  10  22  41  63  88 120 158 200 248 306 361
#     4  10  22  40  62  89 120 155 199 246 298 357
#     4  10  22  37  56  87 122 156 195 242 297 355
#     4  11  24  38  61  88 115 157 196 240 301 356
#     4  11  23  40  60  88 118 152 201 242 295 358
#
# _framework density 19.905045999999999
#
# number of rings (size 3 to 8) (size 9 to 14) (size 15 to 20)
#    0.000    2.000    1.667    0.750    3.500    3.667 
#    0.000    6.667    0.000    0.000    0.000    0.000 
#    0.000    0.000    0.000    0.000    0.000    0.000 
#
# Total GULP energy -594765.784092 kJ/mol
# GULP energy per Si atom -12390.953835 kJ/mol
# Density = 1.985974 g / cm^3
# Si number density = 19.905046 Si / 1000 Ang^3
#
#
#
# Elastic Constant Matrix: (Units=GPa)
#
#
# Indices 1 2 3 4 5 6 
#
# 1 48.6460 14.5154 49.2236 0.0000 0.0000 0.0000
# 2 14.5154 74.0457 26.5069 0.0000 0.0000 0.0000
# 3 49.2236 26.5069 115.2522 0.0000 0.0000 0.0000
# 4 0.0000 0.0000 0.0000 26.0784 0.0000 0.0000
# 5 0.0000 0.0000 0.0000 0.0000 41.7644 0.0000
# 6 0.0000 0.0000 0.0000 0.0000 0.0000 12.5717
#
#
#
# Elastic Compliance Matrix: (Units=1/GPa)
#
#
# Indices 1 2 3 4 5 6 
#
# 1 0.036400 -0.001711 -0.015153 0.000000 0.000000 0.000000
# 2 -0.001711 0.014797 -0.002672 0.000000 0.000000 0.000000
# 3 -0.015153 -0.002672 0.015763 0.000000 0.000000 0.000000
# 4 0.000000 0.000000 0.000000 0.038346 0.000000 0.000000
# 5 0.000000 0.000000 0.000000 0.000000 0.023944 0.000000
# 6 0.000000 0.000000 0.000000 0.000000 0.000000 0.079544
#
#
# Mechanical properties :
#
#
# Convention : Reuss Voigt Hill
#
# Bulk Modulus (GPa) = 35.85833 46.49286 41.17559
# Shear Modulus (GPa) = 19.44302 25.92944 22.68623
#
# Velocity S-wave (km/s) = 3.12875 3.61315 3.37964
# Velocity P-wave (km/s) = 5.57727 6.38862 5.99668
#
# Compressibility (1/GPa) = 0.02788753
#
# Stress axis : x y z
#
# Youngs Moduli (GPa) = 27.47270 67.57996 63.44035
#
# Poissons Ratio (x) = 0.11564 0.96129
# Poissons Ratio (y) = 0.04701 0.16954
# Poissons Ratio (z) = 0.41628 0.18060
#
# Static dielectric constant tensor:
#      x y z
#    x 4.220980 0.000000 0.000000 
#    y 0.000000 3.729470 0.000000 
#    z 0.000000 0.000000 3.857680 
# 
# 
# High freq. dielectric constant tensor:
#      x y z
#    x 1.769240 0.000000 0.000000 
#    y 0.000000 1.781420 0.000000 
#    z 0.000000 0.000000 1.777760 
# 
# From -- ./inp_files/12977.got.cif
#   From: 2010.03.12/outbox.cif.g09.slc.cpg/sg51_7_cif.got.tgz:12977.got - 2010.04.16 13:43:02.
