data_PCOD8214006
_publ_section_title
;
Structure prediction by ZEFSAII (Michael W. Deem and Ramdas Pophale) SiO2 
 PCOD8214006
Probable space group: P M M A
;
_chemical_formula_sum "Si O2"
_cell_formula_units_Z 40
_cell_length_a 8.734771
_cell_length_b 24.763223
_cell_length_c 9.197380
_cell_angle_alpha 90.000000
_cell_angle_beta 90.000000
_cell_angle_gamma 90.000000
_cell_volume 1989.403247
_symmetry_space_group_name_H-M "P M M A"
_symmetry_group_IT_number 51
_symmetry_cell_setting 'orthorhombic'
loop_
_space_group_symop_operation_xyz
x,y,z
1/2-x,-y,z
1/2+x,-y,-z
-x,y,-z
-x,-y,-z
1/2+x,y,-z
1/2-x,y,z
x,-y,z
loop_
_atom_site_type_symbol
_atom_site_label
_atom_site_fract_x
_atom_site_fract_y
_atom_site_fract_z
Si Si1 0.929423 0.937876 0.348786
Si Si2 0.428714 0.437145 0.347491
Si Si3 0.072494 0.850466 0.153201
Si Si4 0.428891 0.745777 0.343299
Si Si5 0.931250 0.651185 0.157108
O O1 0.750000 0.928924 0.358087
O O2 0.000000 0.917033 0.500000
O O3 0.995940 0.904307 0.215452
O O4 0.973772 0.000000 0.321186
O O5 0.500000 0.417742 0.500000
O O6 0.250000 0.423502 0.350075
O O7 0.460914 0.500000 0.321415
O O8 0.509220 0.406237 0.215422
O O9 0.250000 0.862154 0.132032
O O10 0.040511 0.800764 0.258519
O O11 0.000000 0.835302 0.000000
O O12 0.500000 0.754188 0.500000
O O13 0.250000 0.731573 0.353127
O O14 0.516206 0.697330 0.266301
O O15 0.750000 0.650128 0.145230
O O16 0.000000 0.663278 0.000000
#
# Coordination Sequence:
#
# PCOD8214006 Si02
#       5
#     8   8   8   8   8
#     4  10  21  38  61  88 119 156 198 244 293 348
#     4  10  21  39  63  90 121 158 200 245 293 347
#     4  11  24  40  61  88 120 157 196 243 296 351
#     4  11  24  42  64  90 119 154 197 242 292 350
#     4  12  25  41  62  88 121 158 197 244 297 352
#
# _framework density 20.106532000000001
#
# number of rings (size 3 to 8) (size 9 to 14) (size 15 to 20)
#    0.000    1.200    0.000    6.000    0.000    9.600 
#    0.000    0.000    0.000    0.000    0.000    0.000 
#    0.000    0.000    0.000    0.000    0.000    0.000 
#
# Total GULP energy -496323.346202 kJ/mol
# GULP energy per Si atom -12408.083655 kJ/mol
# Density = 2.006077 g / cm^3
# Si number density = 20.106532 Si / 1000 Ang^3
#
#
#
# Elastic Constant Matrix: (Units=GPa)
#
#
# Indices 1 2 3 4 5 6 
#
# 1 147.9002 61.3690 69.4864 0.0000 0.0000 0.0000
# 2 61.3690 86.3814 48.7228 0.0000 0.0000 0.0000
# 3 69.4864 48.7228 139.5395 0.0000 0.0000 0.0000
# 4 0.0000 0.0000 0.0000 12.5241 0.0000 0.0000
# 5 0.0000 0.0000 0.0000 0.0000 42.1730 0.0000
# 6 0.0000 0.0000 0.0000 0.0000 0.0000 23.5143
#
#
#
# Elastic Compliance Matrix: (Units=1/GPa)
#
#
# Indices 1 2 3 4 5 6 
#
# 1 0.010701 -0.005724 -0.003330 0.000000 0.000000 0.000000
# 2 -0.005724 0.017478 -0.003252 0.000000 0.000000 0.000000
# 3 -0.003330 -0.003252 0.009960 0.000000 0.000000 0.000000
# 4 0.000000 0.000000 0.000000 0.079846 0.000000 0.000000
# 5 0.000000 0.000000 0.000000 0.000000 0.023712 0.000000
# 6 0.000000 0.000000 0.000000 0.000000 0.000000 0.042527
#
#
# Mechanical properties :
#
#
# Convention : Reuss Voigt Hill
#
# Bulk Modulus (GPa) = 73.93131 81.44194 77.68663
# Shear Modulus (GPa) = 23.43612 28.59179 26.01396
#
# Velocity S-wave (km/s) = 3.41779 3.77505 3.60085
# Velocity P-wave (km/s) = 7.24049 7.71975 7.48396
#
# Compressibility (1/GPa) = 0.01352607
#
# Stress axis : x y z
#
# Youngs Moduli (GPa) = 93.44925 57.21609 100.39888
#
# Poissons Ratio (x) = 0.32751 0.33434
# Poissons Ratio (y) = 0.53492 0.32652
# Poissons Ratio (z) = 0.31119 0.18608
#
# Static dielectric constant tensor:
#      x y z
#    x 3.832530 0.000000 0.000000 
#    y 0.000000 3.751940 0.000000 
#    z 0.000000 0.000000 3.711730 
# 
# 
# High freq. dielectric constant tensor:
#      x y z
#    x 1.804150 0.000000 0.000000 
#    y 0.000000 1.796470 0.000000 
#    z 0.000000 0.000000 1.793230 
# 
# From -- ./inp_files/5201.got.cif
#   From: 2010.03.12/outbox.cif.g09.slc.cpg/sg51_3_cif.got.tgz:5201.got - 2010.04.16 13:43:02.
