data_PCOD8214412
_publ_section_title
;
Structure prediction by ZEFSAII (Michael W. Deem and Ramdas Pophale) SiO2 
 PCOD8214412
Probable space group: P M M A
;
_chemical_formula_sum "Si O2"
_cell_formula_units_Z 64
_cell_length_a 29.079208
_cell_length_b 14.228899
_cell_length_c 8.976827
_cell_angle_alpha 90.000000
_cell_angle_beta 90.000000
_cell_angle_gamma 90.000000
_cell_volume 3714.297844
_symmetry_space_group_name_H-M "P M M A"
_symmetry_group_IT_number 51
_symmetry_cell_setting 'orthorhombic'
loop_
_space_group_symop_operation_xyz
x,y,z
1/2-x,-y,z
1/2+x,-y,-z
-x,y,-z
-x,-y,-z
1/2+x,y,-z
1/2-x,y,z
x,-y,z
loop_
_atom_site_type_symbol
_atom_site_label
_atom_site_fract_x
_atom_site_fract_y
_atom_site_fract_z
Si Si1 0.377235 0.250000 0.947787
Si Si2 0.640969 0.607232 0.475796
Si Si3 0.565996 0.607210 0.226755
Si Si4 0.565996 0.892790 0.226755
Si Si5 0.494108 0.250000 0.324239
Si Si6 0.696393 0.750000 0.296898
Si Si7 0.359031 0.892768 0.524204
Si Si8 0.387166 0.250000 0.285406
O O1 0.406443 0.342678 0.906186
O O2 0.406443 0.157323 0.906186
O O3 0.328844 0.250000 0.861993
O O4 0.365657 0.250000 0.121466
O O5 0.655102 0.500000 0.505136
O O6 0.594877 0.616205 0.378599
O O7 0.682823 0.657506 0.390604
O O8 0.630805 0.656799 0.632357
O O9 0.557142 0.500000 0.180442
O O10 0.517375 0.656998 0.255115
O O11 0.517375 0.843002 0.255115
O O12 0.594877 0.883795 0.378599
O O13 0.557142 0.000000 0.180442
O O14 0.500000 0.250000 0.500000
O O15 0.441887 0.250000 0.273371
O O16 0.750000 0.750000 0.264705
O O17 0.682823 0.842494 0.390604
O O18 0.369195 0.843201 0.367643
O O19 0.344898 0.000000 0.494864
#
# Coordination Sequence:
#
# PCOD8214412 Si02
#       8
#     8   8   8   8   8   8   8   8
#     4   9  20  35  49  72 106 136 163 205 262 313
#     4   9  18  33  53  76 100 128 164 207 253 297
#     4   9  18  33  50  69  99 139 181 216 245 291
#     4   9  18  33  50  69  99 139 181 216 245 291
#     4  11  18  30  48  74 100 136 186 222 250 287
#     4   9  18  36  59  76  92 123 165 202 244 307
#     4   9  18  33  53  76 100 128 164 207 253 297
#     4  11  20  32  49  75 109 139 166 211 260 301
#
# _framework density 17.230713999999999
#
# number of rings (size 3 to 8) (size 9 to 14) (size 15 to 20)
#    0.000    2.500    2.500    1.500    0.000    5.000 
#    0.000    3.750    0.000    0.000    0.000    0.000 
#    0.000    0.000    0.000    0.000    0.000    0.000 
#
# Total GULP energy -793703.429274 kJ/mol
# GULP energy per Si atom -12401.616082 kJ/mol
# Density = 1.719150 g / cm^3
# Si number density = 17.230714 Si / 1000 Ang^3
#
#
#
# Elastic Constant Matrix: (Units=GPa)
#
#
# Indices 1 2 3 4 5 6 
#
# 1 110.2841 41.3304 36.2292 0.0000 0.0000 0.0000
# 2 41.3304 162.3816 50.0522 0.0000 0.0000 0.0000
# 3 36.2292 50.0522 121.6750 0.0000 0.0000 0.0000
# 4 0.0000 0.0000 0.0000 15.7575 0.0000 0.0000
# 5 0.0000 0.0000 0.0000 0.0000 13.3776 0.0000
# 6 0.0000 0.0000 0.0000 0.0000 0.0000 11.1825
#
#
#
# Elastic Compliance Matrix: (Units=1/GPa)
#
#
# Indices 1 2 3 4 5 6 
#
# 1 0.010574 -0.001971 -0.002338 0.000000 0.000000 0.000000
# 2 -0.001971 0.007420 -0.002465 0.000000 0.000000 0.000000
# 3 -0.002338 -0.002465 0.009929 0.000000 0.000000 0.000000
# 4 0.000000 0.000000 0.000000 0.063462 0.000000 0.000000
# 5 0.000000 0.000000 0.000000 0.000000 0.074752 0.000000
# 6 0.000000 0.000000 0.000000 0.000000 0.000000 0.089425
#
#
# Mechanical properties :
#
#
# Convention : Reuss Voigt Hill
#
# Bulk Modulus (GPa) = 69.56597 72.17380 70.86989
# Shear Modulus (GPa) = 18.25476 25.84546 22.05011
#
# Velocity S-wave (km/s) = 3.25842 3.87714 3.58117
# Velocity P-wave (km/s) = 7.39035 7.87532 7.63668
#
# Compressibility (1/GPa) = 0.01437485
#
# Stress axis : x y z
#
# Youngs Moduli (GPa) = 94.57126 134.77287 100.71634
#
# Poissons Ratio (x) = 0.26561 0.23545
# Poissons Ratio (y) = 0.18638 0.24831
# Poissons Ratio (z) = 0.22108 0.33227
#
# Static dielectric constant tensor:
#      x y z
#    x 2.969230 0.000000 0.000000 
#    y 0.000000 3.507180 0.000000 
#    z 0.000000 0.000000 3.030830 
# 
# 
# High freq. dielectric constant tensor:
#      x y z
#    x 1.643290 0.000000 0.000000 
#    y 0.000000 1.673570 0.000000 
#    z 0.000000 0.000000 1.652880 
# 
# From -- ./inp_files/13273.got.cif
#   From: 2010.03.12/outbox.cif.g09.slc.cpg/sg51_7_cif.got.tgz:13273.got - 2010.04.16 13:43:02.
