data_PCOD8214890
_publ_section_title
;
Structure prediction by ZEFSAII (Michael W. Deem and Ramdas Pophale) SiO2 
 PCOD8214890
Probable space group: P M M A
;
_chemical_formula_sum "Si O2"
_cell_formula_units_Z 56
_cell_length_a 9.423403
_cell_length_b 21.639137
_cell_length_c 17.945733
_cell_angle_alpha 90.000000
_cell_angle_beta 90.000000
_cell_angle_gamma 90.000000
_cell_volume 3659.391736
_symmetry_space_group_name_H-M "P M M A"
_symmetry_group_IT_number 51
_symmetry_cell_setting 'orthorhombic'
loop_
_space_group_symop_operation_xyz
x,y,z
1/2-x,-y,z
1/2+x,-y,-z
-x,y,-z
-x,-y,-z
1/2+x,y,-z
1/2-x,y,z
x,-y,z
loop_
_atom_site_type_symbol
_atom_site_label
_atom_site_fract_x
_atom_site_fract_y
_atom_site_fract_z
Si Si1 0.085761 0.750609 0.215886
Si Si2 0.415520 0.820021 0.676374
Si Si3 0.910609 0.293679 0.427038
Si Si4 0.585969 0.361662 0.284436
Si Si5 0.413534 0.430407 0.177066
Si Si6 0.085770 0.929885 0.572127
Si Si7 0.911379 0.319045 0.926962
O O1 0.250000 0.749995 0.240840
O O2 0.073853 0.741275 0.126634
O O3 0.008938 0.812322 0.247843
O O4 0.000610 0.694557 0.250717
O O5 0.250000 0.813187 0.697098
O O6 0.460867 0.767879 0.616471
O O7 0.451839 0.886910 0.642373
O O8 0.750000 0.284063 0.453116
O O9 0.924498 0.354387 0.373971
O O10 0.000000 0.305877 0.500000
O O11 0.750000 0.359674 0.258858
O O12 0.509700 0.422870 0.251882
O O13 0.250000 0.416755 0.198336
O O14 0.433205 0.500000 0.146776
O O15 0.464339 0.381975 0.113930
O O16 0.250000 0.923442 0.551052
O O17 0.000000 0.907566 0.500000
O O18 0.045434 0.000000 0.594143
O O19 0.750000 0.328484 0.951842
O O20 0.000000 0.305669 0.000000
#
# Coordination Sequence:
#
# PCOD8214890 Si02
#       7
#     8   8   8   8   8   8   8
#     4   9  17  29  44  62  83 109 140 172 208 249
#     4   9  17  28  41  60  85 112 145 181 213 247
#     4   9  17  26  38  58  81 103 131 171 213 251
#     4   9  17  29  43  61  83 105 134 172 211 250
#     4   9  18  32  47  63  84 110 140 170 199 238
#     4   9  17  28  41  59  87 122 156 188 220 253
#     4   9  18  30  44  64  89 113 135 163 201 246
#
# _framework density 15.303089999999999
#
# number of rings (size 3 to 8) (size 9 to 14) (size 15 to 20)
#    0.000    3.000    0.000    3.000    0.000    6.857 
#    0.000    0.000    0.000    0.429    0.000    0.000 
#    0.000    0.571    0.000    1.286    0.000    2.000 
#
# Total GULP energy -693953.381864 kJ/mol
# GULP energy per Si atom -12392.024676 kJ/mol
# Density = 1.526826 g / cm^3
# Si number density = 15.303090 Si / 1000 Ang^3
#
#
#
# Elastic Constant Matrix: (Units=GPa)
#
#
# Indices 1 2 3 4 5 6 
#
# 1 79.5256 31.6367 53.3041 0.0000 0.0000 0.0000
# 2 31.6367 58.7999 39.6662 0.0000 0.0000 0.0000
# 3 53.3041 39.6662 89.0118 0.0000 0.0000 0.0000
# 4 0.0000 0.0000 0.0000 18.6028 0.0000 0.0000
# 5 0.0000 0.0000 0.0000 0.0000 31.5283 0.0000
# 6 0.0000 0.0000 0.0000 0.0000 0.0000 19.7298
#
#
#
# Elastic Compliance Matrix: (Units=1/GPa)
#
#
# Indices 1 2 3 4 5 6 
#
# 1 0.021695 -0.004159 -0.011139 0.000000 0.000000 0.000000
# 2 -0.004159 0.025114 -0.008701 0.000000 0.000000 0.000000
# 3 -0.011139 -0.008701 0.021782 0.000000 0.000000 0.000000
# 4 0.000000 0.000000 0.000000 0.053755 0.000000 0.000000
# 5 0.000000 0.000000 0.000000 0.000000 0.031718 0.000000
# 6 0.000000 0.000000 0.000000 0.000000 0.000000 0.050685
#
#
# Mechanical properties :
#
#
# Convention : Reuss Voigt Hill
#
# Bulk Modulus (GPa) = 48.55701 52.95016 50.75359
# Shear Modulus (GPa) = 19.25961 20.82087 20.04024
#
# Velocity S-wave (km/s) = 3.55144 3.69259 3.62270
# Velocity P-wave (km/s) = 6.97252 7.27024 7.12294
#
# Compressibility (1/GPa) = 0.02059435
#
# Stress axis : x y z
#
# Youngs Moduli (GPa) = 46.09376 39.81818 45.90895
#
# Poissons Ratio (x) = 0.16559 0.51136
# Poissons Ratio (y) = 0.19169 0.39946
# Poissons Ratio (z) = 0.51342 0.34647
#
# Static dielectric constant tensor:
#      x y z
#    x 3.310560 0.000000 0.000000 
#    y 0.000000 3.050840 0.000000 
#    z 0.000000 0.000000 3.003640 
# 
# 
# High freq. dielectric constant tensor:
#      x y z
#    x 1.597220 0.000000 0.000000 
#    y 0.000000 1.557170 0.000000 
#    z 0.000000 0.000000 1.566480 
# 
# From -- ./inp_files/28189.got.cif
#   From: 2010.03.12/outbox.cif.g09.slc.cpg/sg51_15_cif.got.tgz:28189.got - 2010.04.16 13:43:02.
