data_PCOD8214206
_publ_section_title
;
Structure prediction by ZEFSAII (Michael W. Deem and Ramdas Pophale) SiO2 
 PCOD8214206
Probable space group: P M M A
;
_chemical_formula_sum "Si O2"
_cell_formula_units_Z 64
_cell_length_a 9.175168
_cell_length_b 23.827014
_cell_length_c 14.276057
_cell_angle_alpha 90.000000
_cell_angle_beta 90.000000
_cell_angle_gamma 90.000000
_cell_volume 3120.986703
_symmetry_space_group_name_H-M "P M M A"
_symmetry_group_IT_number 51
_symmetry_cell_setting 'orthorhombic'
loop_
_space_group_symop_operation_xyz
x,y,z
1/2-x,-y,z
1/2+x,-y,-z
-x,y,-z
-x,-y,-z
1/2+x,y,-z
1/2-x,y,z
x,-y,z
loop_
_atom_site_type_symbol
_atom_site_label
_atom_site_fract_x
_atom_site_fract_y
_atom_site_fract_z
Si Si1 0.419669 0.935282 0.747566
Si Si2 0.464098 0.744543 0.391574
Si Si3 0.417772 0.851373 0.903564
Si Si4 0.925098 0.356434 0.900641
Si Si5 0.091071 0.133155 0.405898
Si Si6 0.589252 0.621398 0.595406
Si Si7 0.080888 0.433703 0.765290
Si Si8 0.412011 0.739165 0.798587
O O1 0.250000 0.926678 0.723773
O O2 0.457615 0.907971 0.847757
O O3 0.511104 0.905221 0.668350
O O4 0.464149 0.000000 0.752647
O O5 0.500000 0.747804 0.500000
O O6 0.382921 0.802930 0.369004
O O7 0.377710 0.686406 0.378612
O O8 0.594758 0.741959 0.315174
O O9 0.250000 0.849140 0.929636
O O10 0.461534 0.798798 0.839228
O O11 0.500000 0.849673 0.000000
O O12 0.750000 0.360727 0.909120
O O13 0.992513 0.413142 0.856766
O O14 0.968788 0.305574 0.832372
O O15 0.000000 0.345469 0.000000
O O16 0.250000 0.106946 0.424654
O O17 0.000000 0.132178 0.500000
O O18 0.500000 0.614838 0.500000
O O19 0.750000 0.592995 0.587101
O O20 0.493275 0.591573 0.673620
O O21 0.250000 0.414144 0.770241
O O22 0.069202 0.500000 0.761617
O O23 0.250000 0.722509 0.833485
#
# Coordination Sequence:
#
# PCOD8214206 Si02
#       8
#     8   8   8   8   8   8   8   8
#     4  10  22  42  64  86 118 162 212 263 316 373
#     4  10  22  37  62  98 133 167 205 249 306 371
#     4  10  22  40  62  92 123 161 205 254 315 373
#     4  12  26  44  68  97 130 166 211 260 318 382
#     4  11  23  39  62  92 128 165 207 254 308 375
#     4  11  23  40  64  95 131 170 212 257 312 377
#     4  11  25  45  68  94 126 167 216 267 320 374
#     4  11  22  40  67  95 131 171 208 255 312 375
#
# _framework density 20.506335
#
# number of rings (size 3 to 8) (size 9 to 14) (size 15 to 20)
#    0.000    1.250    2.500    3.000    0.000    8.750 
#    0.000    0.000    0.000    0.000    0.000    0.000 
#    0.000    0.000    0.000    0.000    0.000    0.000 
#
# Total GULP energy -793126.976671 kJ/mol
# GULP energy per Si atom -12392.609010 kJ/mol
# Density = 2.045966 g / cm^3
# Si number density = 20.506335 Si / 1000 Ang^3
#
#
#
# Elastic Constant Matrix: (Units=GPa)
#
#
# Indices 1 2 3 4 5 6 
#
# 1 141.0197 51.6234 67.7776 0.0000 0.0000 0.0000
# 2 51.6234 118.2809 53.0227 0.0000 0.0000 0.0000
# 3 67.7776 53.0227 146.4004 0.0000 0.0000 0.0000
# 4 0.0000 0.0000 0.0000 22.3428 0.0000 0.0000
# 5 0.0000 0.0000 0.0000 0.0000 29.1339 0.0000
# 6 0.0000 0.0000 0.0000 0.0000 0.0000 8.2935
#
#
#
# Elastic Compliance Matrix: (Units=1/GPa)
#
#
# Indices 1 2 3 4 5 6 
#
# 1 0.009781 -0.002673 -0.003560 0.000000 0.000000 0.000000
# 2 -0.002673 0.010824 -0.002683 0.000000 0.000000 0.000000
# 3 -0.003560 -0.002683 0.009450 0.000000 0.000000 0.000000
# 4 0.000000 0.000000 0.000000 0.044757 0.000000 0.000000
# 5 0.000000 0.000000 0.000000 0.000000 0.034324 0.000000
# 6 0.000000 0.000000 0.000000 0.000000 0.000000 0.120576
#
#
# Mechanical properties :
#
#
# Convention : Reuss Voigt Hill
#
# Bulk Modulus (GPa) = 81.80918 83.39429 82.60174
# Shear Modulus (GPa) = 19.87145 27.50587 23.68866
#
# Velocity S-wave (km/s) = 3.11632 3.66640 3.40249
# Velocity P-wave (km/s) = 7.27529 7.66023 7.47024
#
# Compressibility (1/GPa) = 0.01222357
#
# Stress axis : x y z
#
# Youngs Moduli (GPa) = 102.24200 92.39094 105.81670
#
# Poissons Ratio (x) = 0.24695 0.37671
# Poissons Ratio (y) = 0.27328 0.28386
# Poissons Ratio (z) = 0.36398 0.24785
#
# Static dielectric constant tensor:
#      x y z
#    x 3.715230 0.000000 0.000000 
#    y 0.000000 3.989820 0.000000 
#    z 0.000000 0.000000 3.664910 
# 
# 
# High freq. dielectric constant tensor:
#      x y z
#    x 1.802220 0.000000 0.000000 
#    y 0.000000 1.803460 0.000000 
#    z 0.000000 0.000000 1.810390 
# 
# From -- ./inp_files/22392.got.cif
#   From: 2010.03.12/outbox.cif.g09.slc.cpg/sg51_12_cif.got.tgz:22392.got - 2010.04.16 13:43:02.
