data_PCOD8214047
_publ_section_title
;
Structure prediction by ZEFSAII (Michael W. Deem and Ramdas Pophale) SiO2 
 PCOD8214047
Probable space group: P M M A
;
_chemical_formula_sum "Si O2"
_cell_formula_units_Z 36
_cell_length_a 9.985670
_cell_length_b 21.508480
_cell_length_c 8.542543
_cell_angle_alpha 90.000000
_cell_angle_beta 90.000000
_cell_angle_gamma 90.000000
_cell_volume 1834.738200
_symmetry_space_group_name_H-M "P M M A"
_symmetry_group_IT_number 51
_symmetry_cell_setting 'orthorhombic'
loop_
_space_group_symop_operation_xyz
x,y,z
1/2-x,-y,z
1/2+x,-y,-z
-x,y,-z
-x,-y,-z
1/2+x,y,-z
1/2-x,y,z
x,-y,z
loop_
_atom_site_type_symbol
_atom_site_label
_atom_site_fract_x
_atom_site_fract_y
_atom_site_fract_z
Si Si1 0.095153 0.500000 0.352718
Si Si2 0.594146 0.737922 0.645257
Si Si3 0.750000 0.925159 0.325617
Si Si4 0.993654 0.138593 0.817426
Si Si5 0.098725 0.382152 0.143855
Si Si6 0.750000 0.927829 0.680904
O O1 0.250000 0.500000 0.406853
O O2 0.059877 0.439186 0.254092
O O3 0.000000 0.500000 0.500000
O O4 0.500000 0.721027 0.500000
O O5 0.750000 0.748945 0.596245
O O6 0.532266 0.798178 0.725702
O O7 0.583195 0.681658 0.764435
O O8 0.624974 0.895904 0.238965
O O9 0.750000 0.900400 0.504658
O O10 0.750000 0.000000 0.311885
O O11 0.876448 0.090932 0.782057
O O12 0.000000 0.154212 0.000000
O O13 0.250000 0.390002 0.081016
O O14 0.000000 0.381463 0.000000
O O15 0.750000 0.000000 0.658126
#
# Coordination Sequence:
#
# PCOD8214047 Si02
#       6
#     4   8   4   8   8   4
#     4  10  21  38  62  92 130 170 217 266 314 376
#     4  11  24  42  64  91 124 163 210 257 311 377
#     4  11  25  43  67  93 121 164 207 252 313 379
#     4  12  25  41  63  92 126 160 204 258 317 371
#     4  10  22  40  62  93 130 167 212 263 316 372
#     4  11  23  43  65  89 123 160 205 254 305 379
#
# _framework density 19.621327999999998
#
# number of rings (size 3 to 8) (size 9 to 14) (size 15 to 20)
#    0.000    1.111    1.111    5.000    1.556    6.222 
#    0.000    0.000    0.000    0.000    0.000    0.000 
#    0.000    0.000    0.000    0.000    0.000    0.000 
#
# Total GULP energy -446490.975506 kJ/mol
# GULP energy per Si atom -12402.527097 kJ/mol
# Density = 1.957667 g / cm^3
# Si number density = 19.621328 Si / 1000 Ang^3
#
#
#
# Elastic Constant Matrix: (Units=GPa)
#
#
# Indices 1 2 3 4 5 6 
#
# 1 165.8407 54.7140 79.1209 0.0000 0.0000 0.0000
# 2 54.7140 106.5020 27.2963 0.0000 0.0000 0.0000
# 3 79.1209 27.2963 111.8498 0.0000 0.0000 0.0000
# 4 0.0000 0.0000 0.0000 24.0827 0.0000 0.0000
# 5 0.0000 0.0000 0.0000 0.0000 47.9239 0.0000
# 6 0.0000 0.0000 0.0000 0.0000 0.0000 23.5747
#
#
#
# Elastic Compliance Matrix: (Units=1/GPa)
#
#
# Indices 1 2 3 4 5 6 
#
# 1 0.010276 -0.003644 -0.006380 0.000000 0.000000 0.000000
# 2 -0.003644 0.011308 -0.000182 0.000000 0.000000 0.000000
# 3 -0.006380 -0.000182 0.013498 0.000000 0.000000 0.000000
# 4 0.000000 0.000000 0.000000 0.041524 0.000000 0.000000
# 5 0.000000 0.000000 0.000000 0.000000 0.020866 0.000000
# 6 0.000000 0.000000 0.000000 0.000000 0.000000 0.042418
#
#
# Mechanical properties :
#
#
# Convention : Reuss Voigt Hill
#
# Bulk Modulus (GPa) = 68.16369 78.49499 73.32934
# Shear Modulus (GPa) = 30.26790 33.98700 32.12745
#
# Velocity S-wave (km/s) = 3.93186 4.16642 4.05084
# Velocity P-wave (km/s) = 7.44498 7.95218 7.70276
#
# Compressibility (1/GPa) = 0.01467057
#
# Stress axis : x y z
#
# Youngs Moduli (GPa) = 97.31656 88.43166 74.08592
#
# Poissons Ratio (x) = 0.32224 0.47264
# Poissons Ratio (y) = 0.35462 0.01349
# Poissons Ratio (z) = 0.62084 0.01610
#
# Static dielectric constant tensor:
#      x y z
#    x 3.810930 0.000000 0.000000 
#    y 0.000000 3.796190 0.000000 
#    z 0.000000 0.000000 3.636150 
# 
# 
# High freq. dielectric constant tensor:
#      x y z
#    x 1.780610 0.000000 0.000000 
#    y 0.000000 1.786720 0.000000 
#    z 0.000000 0.000000 1.769180 
# 
# From -- ./inp_files/5077.got.cif
#   From: 2010.03.12/outbox.cif.g09.slc.cpg/sg51_3_cif.got.tgz:5077.got - 2010.04.16 13:43:02.
