data_PCOD8214170
_publ_section_title
;
Structure prediction by ZEFSAII (Michael W. Deem and Ramdas Pophale) SiO2 
 PCOD8214170
Probable space group: P M M A
;
_chemical_formula_sum "Si O2"
_cell_formula_units_Z 64
_cell_length_a 13.777529
_cell_length_b 14.542342
_cell_length_c 18.747918
_cell_angle_alpha 90.000000
_cell_angle_beta 90.000000
_cell_angle_gamma 90.000000
_cell_volume 3756.286705
_symmetry_space_group_name_H-M "P M M A"
_symmetry_group_IT_number 51
_symmetry_cell_setting 'orthorhombic'
loop_
_space_group_symop_operation_xyz
x,y,z
1/2-x,-y,z
1/2+x,-y,-z
-x,y,-z
-x,-y,-z
1/2+x,y,-z
1/2-x,y,z
x,-y,z
loop_
_atom_site_type_symbol
_atom_site_label
_atom_site_fract_x
_atom_site_fract_y
_atom_site_fract_z
Si Si1 0.363101 0.604182 0.697532
Si Si2 0.863962 0.751233 0.652931
Si Si3 0.031212 0.108743 0.884194
Si Si4 0.016756 0.394964 0.421311
Si Si5 0.636656 0.105772 0.378022
Si Si6 0.538185 0.223215 0.256573
Si Si7 0.365068 0.898515 0.463384
Si Si8 0.644083 0.108928 0.977482
O O1 0.250000 0.625244 0.685954
O O2 0.378801 0.500000 0.726652
O O3 0.416296 0.617047 0.621655
O O4 0.410250 0.677014 0.753040
O O5 0.750000 0.753606 0.670444
O O6 0.893923 0.654833 0.617841
O O7 0.898377 0.829498 0.597818
O O8 0.923216 0.765574 0.726793
O O9 0.926196 0.140418 0.913702
O O10 0.056033 0.164447 0.813711
O O11 0.035298 0.000000 0.867764
O O12 0.108169 0.138842 0.944315
O O13 0.049864 0.500000 0.426657
O O14 0.000000 0.353603 0.500000
O O15 0.750000 0.128590 0.375576
O O16 0.584828 0.173210 0.323863
O O17 0.593035 0.125124 0.457611
O O18 0.618105 0.000000 0.356376
O O19 0.250000 0.897306 0.471302
O O20 0.400537 0.000000 0.439943
O O21 0.750000 0.152083 0.963728
O O22 0.646731 0.000000 0.976953
#
# Coordination Sequence:
#
# PCOD8214170 Si02
#       8
#     8   8   8   8   8   8   8   8
#     4   9  19  35  51  68  93 123 155 195 246 303
#     4  10  22  34  46  65  93 127 165 205 244 288
#     4   9  18  31  47  74 106 131 161 195 228 276
#     4   9  19  34  52  72  89 110 151 206 265 315
#     4   9  18  31  46  66  91 120 158 203 249 290
#     4  11  21  31  48  71  99 126 160 197 242 286
#     4   8  16  31  46  59  82 121 166 202 231 273
#     4   8  15  30  51  72  99 135 165 191 228 273
#
# _framework density 17.038103
#
# number of rings (size 3 to 8) (size 9 to 14) (size 15 to 20)
#    0.000    2.875    0.000    2.250    3.500    3.250 
#    0.000    3.750    0.000    0.000    0.000    1.750 
#    0.000    1.000    0.000    0.000    0.000    0.000 
#
# Total GULP energy -793338.384537 kJ/mol
# GULP energy per Si atom -12395.912258 kJ/mol
# Density = 1.699932 g / cm^3
# Si number density = 17.038103 Si / 1000 Ang^3
#
#
#
# Elastic Constant Matrix: (Units=GPa)
#
#
# Indices 1 2 3 4 5 6 
#
# 1 78.0123 32.8282 17.3593 0.0000 0.0000 0.0000
# 2 32.8282 75.9380 35.7382 0.0000 0.0000 0.0000
# 3 17.3593 35.7382 65.2520 0.0000 0.0000 0.0000
# 4 0.0000 0.0000 0.0000 15.2491 0.0000 0.0000
# 5 0.0000 0.0000 0.0000 0.0000 16.3623 0.0000
# 6 0.0000 0.0000 0.0000 0.0000 0.0000 17.0483
#
#
#
# Elastic Compliance Matrix: (Units=1/GPa)
#
#
# Indices 1 2 3 4 5 6 
#
# 1 0.015687 -0.006491 -0.000619 0.000000 0.000000 0.000000
# 2 -0.006491 0.020427 -0.009461 0.000000 0.000000 0.000000
# 3 -0.000619 -0.009461 0.020672 0.000000 0.000000 0.000000
# 4 0.000000 0.000000 0.000000 0.065578 0.000000 0.000000
# 5 0.000000 0.000000 0.000000 0.000000 0.061116 0.000000
# 6 0.000000 0.000000 0.000000 0.000000 0.000000 0.058657
#
#
# Mechanical properties :
#
#
# Convention : Reuss Voigt Hill
#
# Bulk Modulus (GPa) = 42.29113 43.45040 42.87077
# Shear Modulus (GPa) = 17.65791 18.61706 18.13748
#
# Velocity S-wave (km/s) = 3.22277 3.30914 3.26625
# Velocity P-wave (km/s) = 6.22284 6.33702 6.28019
#
# Compressibility (1/GPa) = 0.02364562
#
# Stress axis : x y z
#
# Youngs Moduli (GPa) = 63.74534 48.95443 48.37569
#
# Poissons Ratio (x) = 0.31774 0.02992
# Poissons Ratio (y) = 0.41375 0.45769
# Poissons Ratio (z) = 0.03943 0.46316
#
# Static dielectric constant tensor:
#      x y z
#    x 3.459280 0.000000 0.000000 
#    y 0.000000 3.237360 0.000000 
#    z 0.000000 0.000000 2.917110 
# 
# 
# High freq. dielectric constant tensor:
#      x y z
#    x 1.669030 0.000000 0.000000 
#    y 0.000000 1.643170 0.000000 
#    z 0.000000 0.000000 1.625350 
# 
# From -- ./inp_files/29988.got.cif
#   From: 2010.03.12/outbox.cif.g09.slc.cpg/sg51_15_cif.got.tgz:29988.got - 2010.04.16 13:43:02.
