data_PCOD8214778
_publ_section_title
;
Structure prediction by ZEFSAII (Michael W. Deem and Ramdas Pophale) SiO2 
 PCOD8214778
Probable space group: P M M A
;
_chemical_formula_sum "Si O2"
_cell_formula_units_Z 64
_cell_length_a 23.517226
_cell_length_b 9.608188
_cell_length_c 17.237228
_cell_angle_alpha 90.000000
_cell_angle_beta 90.000000
_cell_angle_gamma 90.000000
_cell_volume 3894.888334
_symmetry_space_group_name_H-M "P M M A"
_symmetry_group_IT_number 51
_symmetry_cell_setting 'orthorhombic'
loop_
_space_group_symop_operation_xyz
x,y,z
1/2-x,-y,z
1/2+x,-y,-z
-x,y,-z
-x,-y,-z
1/2+x,y,-z
1/2-x,y,z
x,-y,z
loop_
_atom_site_type_symbol
_atom_site_label
_atom_site_fract_x
_atom_site_fract_y
_atom_site_fract_z
Si Si1 0.312131 0.665369 0.723459
Si Si2 0.185187 0.162709 0.459583
Si Si3 0.811612 0.164146 0.718620
Si Si4 0.510047 0.162523 0.087495
Si Si5 0.616971 0.335416 0.421397
Si Si6 0.513736 0.345986 0.321442
Si Si7 0.407589 0.346519 0.828038
Si Si8 0.931542 0.835757 0.771110
O O1 0.250000 0.733094 0.728646
O O2 0.309896 0.500000 0.717614
O O3 0.342545 0.722201 0.646740
O O4 0.345281 0.706624 0.802355
O O5 0.250000 0.197381 0.486878
O O6 0.178350 0.206292 0.370200
O O7 0.136883 0.251851 0.503030
O O8 0.172427 0.000000 0.472048
O O9 0.750000 0.225691 0.747428
O O10 0.865592 0.215525 0.769996
O O11 0.807723 0.000000 0.724940
O O12 0.567860 0.237782 0.111276
O O13 0.458249 0.205551 0.145123
O O14 0.521504 0.000000 0.092393
O O15 0.500000 0.211670 0.000000
O O16 0.624325 0.500000 0.435965
O O17 0.551085 0.302441 0.397390
O O18 0.487005 0.500000 0.334960
O O19 0.556540 0.354417 0.250167
O O20 0.464304 0.236591 0.300859
O O21 0.405618 0.500000 0.866660
O O22 0.936428 0.000000 0.756562
#
# Coordination Sequence:
#
# PCOD8214778 Si02
#       8
#     8   8   8   8   8   8   8   8
#     4   8  13  22  38  59  81 107 140 174 201 227
#     4   9  17  28  41  58  81 107 136 179 228 254
#     4   8  15  29  47  64  81 103 138 182 215 242
#     4   9  17  28  43  65  90 108 124 159 209 250
#     4   9  16  26  41  60  83 113 146 176 208 248
#     4   8  15  27  41  60  87 113 136 170 211 241
#     4   8  14  25  41  60  81 107 139 167 191 229
#     4   9  16  28  48  67  80 105 142 169 201 255
#
# _framework density 16.431792999999999
#
# number of rings (size 3 to 8) (size 9 to 14) (size 15 to 20)
#    0.000    3.500    0.000    2.625    0.000    1.500 
#    0.000    3.125    0.000    6.750    0.000    1.750 
#    0.000    0.000    0.000    0.000    0.000    0.000 
#
# Total GULP energy -792860.927594 kJ/mol
# GULP energy per Si atom -12388.451994 kJ/mol
# Density = 1.639439 g / cm^3
# Si number density = 16.431793 Si / 1000 Ang^3
#
#
#
# Elastic Constant Matrix: (Units=GPa)
#
#
# Indices 1 2 3 4 5 6 
#
# 1 109.5119 25.2121 40.0033 0.0000 0.0000 0.0000
# 2 25.2121 28.7368 20.6804 0.0000 0.0000 0.0000
# 3 40.0033 20.6804 60.2470 0.0000 0.0000 0.0000
# 4 0.0000 0.0000 0.0000 15.2128 0.0000 0.0000
# 5 0.0000 0.0000 0.0000 0.0000 18.9330 0.0000
# 6 0.0000 0.0000 0.0000 0.0000 0.0000 19.6324
#
#
#
# Elastic Compliance Matrix: (Units=1/GPa)
#
#
# Indices 1 2 3 4 5 6 
#
# 1 0.013011 -0.006903 -0.006269 0.000000 0.000000 0.000000
# 2 -0.006903 0.049878 -0.012537 0.000000 0.000000 0.000000
# 3 -0.006269 -0.012537 0.025065 0.000000 0.000000 0.000000
# 4 0.000000 0.000000 0.000000 0.065734 0.000000 0.000000
# 5 0.000000 0.000000 0.000000 0.000000 0.052818 0.000000
# 6 0.000000 0.000000 0.000000 0.000000 0.000000 0.050936
#
#
# Mechanical properties :
#
#
# Convention : Reuss Voigt Hill
#
# Bulk Modulus (GPa) = 27.37237 41.14303 34.25770
# Shear Modulus (GPa) = 15.57441 18.26228 16.91835
#
# Velocity S-wave (km/s) = 3.08201 3.33738 3.21224
# Velocity P-wave (km/s) = 5.41843 6.32012 5.88656
#
# Compressibility (1/GPa) = 0.03653319
#
# Stress axis : x y z
#
# Youngs Moduli (GPa) = 76.85887 20.04906 39.89674
#
# Poissons Ratio (x) = 0.13840 0.25013
# Poissons Ratio (y) = 0.53058 0.50020
# Poissons Ratio (z) = 0.48186 0.25136
#
# Static dielectric constant tensor:
#      x y z
#    x 3.783170 0.000000 0.000000 
#    y 0.000000 2.893080 0.000000 
#    z 0.000000 0.000000 2.944150 
# 
# 
# High freq. dielectric constant tensor:
#      x y z
#    x 1.633320 0.000000 0.000000 
#    y 0.000000 1.606060 0.000000 
#    z 0.000000 0.000000 1.602820 
# 
# From -- ./inp_files/30935.got.cif
#   From: 2010.03.12/outbox.cif.g09.slc.cpg/sg51_16_cif.got.tgz:30935.got - 2010.04.16 13:43:02.
