data_PCOD8214825
_publ_section_title
;
Structure prediction by ZEFSAII (Michael W. Deem and Ramdas Pophale) SiO2 
 PCOD8214825
Probable space group: P M M A
;
_chemical_formula_sum "Si O2"
_cell_formula_units_Z 44
_cell_length_a 9.142987
_cell_length_b 12.763977
_cell_length_c 25.726534
_cell_angle_alpha 90.000000
_cell_angle_beta 90.000000
_cell_angle_gamma 90.000000
_cell_volume 3002.309049
_symmetry_space_group_name_H-M "P M M A"
_symmetry_group_IT_number 51
_symmetry_cell_setting 'orthorhombic'
loop_
_space_group_symop_operation_xyz
x,y,z
1/2-x,-y,z
1/2+x,-y,-z
-x,y,-z
-x,-y,-z
1/2+x,y,-z
1/2-x,y,z
x,-y,z
loop_
_atom_site_type_symbol
_atom_site_label
_atom_site_fract_x
_atom_site_fract_y
_atom_site_fract_z
Si Si1 0.578706 0.226993 0.054922
Si Si2 0.921094 0.621032 0.144808
Si Si3 0.084439 0.375045 0.651859
Si Si4 0.415614 0.375135 0.449409
Si Si5 0.917589 0.000000 0.052939
Si Si6 0.584996 0.624605 0.752386
O O1 0.750000 0.242237 0.044755
O O2 0.521636 0.313076 0.095587
O O3 0.545035 0.111227 0.080712
O O4 0.500000 0.243641 0.000000
O O5 0.750000 0.638833 0.155146
O O6 0.956532 0.500000 0.133340
O O7 0.006248 0.662826 0.195239
O O8 0.250000 0.332031 0.650882
O O9 0.085013 0.500000 0.652178
O O10 0.998865 0.332607 0.601452
O O11 0.003223 0.330892 0.702927
O O12 0.500000 0.332293 0.500000
O O13 0.250000 0.331934 0.449575
O O14 0.414481 0.500000 0.449531
O O15 0.750000 0.000000 0.037625
O O16 0.000000 0.000000 0.000000
O O17 0.750000 0.668600 0.751026
O O18 0.585296 0.500000 0.750193
#
# Coordination Sequence:
#
# PCOD8214825 Si02
#       6
#     8   8   8   8   4   8
#     4   9  17  28  42  58  75  95 118 145 177 213
#     4   9  17  28  39  52  72  96 119 144 177 216
#     4   9  15  22  32  44  58  79 107 139 176 215
#     4   9  15  21  28  39  56  77 103 138 179 219
#     4   8  14  26  42  58  74  92 116 144 173 206
#     4   9  16  25  36  49  64  84 112 144 175 208
#
# _framework density 14.655388
#
# number of rings (size 3 to 8) (size 9 to 14) (size 15 to 20)
#    0.000    3.091    0.000    1.636    0.000    7.636 
#    0.000    0.000    0.000    0.000    0.000    0.000 
#    0.000    0.000    0.000    0.000    0.000    0.000 
#
# Total GULP energy -545263.112772 kJ/mol
# GULP energy per Si atom -12392.343472 kJ/mol
# Density = 1.462203 g / cm^3
# Si number density = 14.655388 Si / 1000 Ang^3
#
#
#
# Elastic Constant Matrix: (Units=GPa)
#
#
# Indices 1 2 3 4 5 6 
#
# 1 100.1755 23.3376 67.1050 0.0000 0.0000 0.0000
# 2 23.3376 38.0226 39.2316 0.0000 0.0000 0.0000
# 3 67.1050 39.2316 139.5481 0.0000 0.0000 0.0000
# 4 0.0000 0.0000 0.0000 0.6568 0.0000 0.0000
# 5 0.0000 0.0000 0.0000 0.0000 30.4266 0.0000
# 6 0.0000 0.0000 0.0000 0.0000 0.0000 7.3976
#
#
#
# Elastic Compliance Matrix: (Units=1/GPa)
#
#
# Indices 1 2 3 4 5 6 
#
# 1 0.014889 -0.002467 -0.006466 0.000000 0.000000 0.000000
# 2 -0.002467 0.037455 -0.009344 0.000000 0.000000 0.000000
# 3 -0.006466 -0.009344 0.012902 0.000000 0.000000 0.000000
# 4 0.000000 0.000000 0.000000 1.522569 0.000000 0.000000
# 5 0.000000 0.000000 0.000000 0.000000 0.032866 0.000000
# 6 0.000000 0.000000 0.000000 0.000000 0.000000 0.135178
#
#
# Mechanical properties :
#
#
# Convention : Reuss Voigt Hill
#
# Bulk Modulus (GPa) = 34.85187 59.67717 47.26452
# Shear Modulus (GPa) = 2.77473 17.56766 10.17120
#
# Velocity S-wave (km/s) = 1.37747 3.46601 2.63729
# Velocity P-wave (km/s) = 5.13444 7.53832 6.44937
#
# Compressibility (1/GPa) = 0.02869286
#
# Stress axis : x y z
#
# Youngs Moduli (GPa) = 67.16557 26.69875 77.50646
#
# Poissons Ratio (x) = 0.06586 0.50116
# Poissons Ratio (y) = 0.16568 0.72419
# Poissons Ratio (z) = 0.43430 0.24946
#
# Static dielectric constant tensor:
#      x y z
#    x 2.997620 0.000000 0.000000 
#    y 0.000000 2.690880 0.000000 
#    z 0.000000 0.000000 2.915430 
# 
# 
# High freq. dielectric constant tensor:
#      x y z
#    x 1.575050 0.000000 0.000000 
#    y 0.000000 1.485670 0.000000 
#    z 0.000000 0.000000 1.561980 
# 
# From -- ./inp_files/36330.got.cif
#   From: 2010.03.12/outbox.cif.g09.slc.cpg/sg51_19_cif.got.tgz:36330.got - 2010.04.16 13:43:02.
