data_PCOD8214804
_publ_section_title
;
Structure prediction by ZEFSAII (Michael W. Deem and Ramdas Pophale) SiO2 
 PCOD8214804
Probable space group: P M M A
;
_chemical_formula_sum "Si O2"
_cell_formula_units_Z 52
_cell_length_a 24.982040
_cell_length_b 9.596982
_cell_length_c 12.738780
_cell_angle_alpha 90.000000
_cell_angle_beta 90.000000
_cell_angle_gamma 90.000000
_cell_volume 3054.150380
_symmetry_space_group_name_H-M "P M M A"
_symmetry_group_IT_number 51
_symmetry_cell_setting 'orthorhombic'
loop_
_space_group_symop_operation_xyz
x,y,z
1/2-x,-y,z
1/2+x,-y,-z
-x,y,-z
-x,-y,-z
1/2+x,y,-z
1/2-x,y,z
x,-y,z
loop_
_atom_site_type_symbol
_atom_site_label
_atom_site_fract_x
_atom_site_fract_y
_atom_site_fract_z
Si Si1 0.614086 0.836258 0.291088
Si Si2 0.493442 0.154695 0.278610
Si Si3 0.688200 0.838845 0.099673
Si Si4 0.612973 0.654851 0.487141
Si Si5 0.606228 0.663285 0.722976
Si Si6 0.688613 0.661252 0.901282
Si Si7 0.500000 0.749763 0.500000
O O1 0.554070 0.794256 0.252665
O O2 0.654299 0.790672 0.199809
O O3 0.634222 0.759564 0.397441
O O4 0.616437 0.000000 0.315408
O O5 0.447805 0.259582 0.236676
O O6 0.488096 0.147309 0.404077
O O7 0.483258 0.000000 0.232239
O O8 0.750000 0.808929 0.125628
O O9 0.677975 0.000000 0.073274
O O10 0.668737 0.750277 0.000217
O O11 0.636672 0.500000 0.467872
O O12 0.626133 0.707283 0.605918
O O13 0.548981 0.647045 0.476687
O O14 0.592847 0.500000 0.724263
O O15 0.653931 0.704161 0.800743
O O16 0.750000 0.695750 0.873576
O O17 0.680871 0.500000 0.930165
#
# Coordination Sequence:
#
# PCOD8214804 Si02
#       7
#     8   8   8   8   8   8   4
#     4   9  18  31  46  68  97 124 151 186 229 271
#     4   9  16  26  43  66  92 123 155 185 220 267
#     4   9  18  34  54  71  88 115 153 195 234 271
#     4   9  16  26  43  67  94 124 154 183 219 267
#     4   9  18  31  46  68  97 124 151 186 229 271
#     4   9  18  34  54  71  88 115 153 195 234 271
#     4   8  14  24  40  62  90 122 158 192 220 252
#
# _framework density 17.026011
#
# number of rings (size 3 to 8) (size 9 to 14) (size 15 to 20)
#    0.000    3.077    0.000    0.462    0.000    8.615 
#    0.000    1.538    0.000    5.538    0.000    0.000 
#    0.000    0.000    0.000    0.000    0.000    0.000 
#
# Total GULP energy -644459.306355 kJ/mol
# GULP energy per Si atom -12393.448199 kJ/mol
# Density = 1.698726 g / cm^3
# Si number density = 17.026011 Si / 1000 Ang^3
#
#
#
# Elastic Constant Matrix: (Units=GPa)
#
#
# Indices 1 2 3 4 5 6 
#
# 1 77.3660 39.6554 67.0513 0.0000 0.0000 0.0000
# 2 39.6554 62.3123 55.8437 0.0000 0.0000 0.0000
# 3 67.0513 55.8437 127.9449 0.0000 0.0000 0.0000
# 4 0.0000 0.0000 0.0000 27.3497 0.0000 0.0000
# 5 0.0000 0.0000 0.0000 0.0000 31.1488 0.0000
# 6 0.0000 0.0000 0.0000 0.0000 0.0000 20.5613
#
#
#
# Elastic Compliance Matrix: (Units=1/GPa)
#
#
# Indices 1 2 3 4 5 6 
#
# 1 0.025393 -0.006954 -0.010272 0.000000 0.000000 0.000000
# 2 -0.006954 0.028263 -0.008692 0.000000 0.000000 0.000000
# 3 -0.010272 -0.008692 0.016993 0.000000 0.000000 0.000000
# 4 0.000000 0.000000 0.000000 0.036564 0.000000 0.000000
# 5 0.000000 0.000000 0.000000 0.000000 0.032104 0.000000
# 6 0.000000 0.000000 0.000000 0.000000 0.000000 0.048635
#
#
# Mechanical properties :
#
#
# Convention : Reuss Voigt Hill
#
# Bulk Modulus (GPa) = 53.15492 65.85823 59.50657
# Shear Modulus (GPa) = 20.32048 22.81681 21.56864
#
# Velocity S-wave (km/s) = 3.45845 3.66473 3.56308
# Velocity P-wave (km/s) = 6.87280 7.52807 7.20789
#
# Compressibility (1/GPa) = 0.01881293
#
# Stress axis : x y z
#
# Youngs Moduli (GPa) = 39.38150 35.38197 58.84877
#
# Poissons Ratio (x) = 0.24605 0.60450
# Poissons Ratio (y) = 0.27386 0.51149
# Poissons Ratio (z) = 0.40453 0.30752
#
# Static dielectric constant tensor:
#      x y z
#    x 3.137520 0.000000 0.000000 
#    y 0.000000 3.108700 0.000000 
#    z 0.000000 0.000000 3.158570 
# 
# 
# High freq. dielectric constant tensor:
#      x y z
#    x 1.640390 0.000000 0.000000 
#    y 0.000000 1.652590 0.000000 
#    z 0.000000 0.000000 1.643010 
# 
# From -- ./inp_files/19058.got.cif
#   From: 2010.03.12/outbox.cif.g09.slc.cpg/sg51_10_cif.got.tgz:19058.got - 2010.04.16 13:43:02.
