data_PCOD8214244
_publ_section_title
;
Structure prediction by ZEFSAII (Michael W. Deem and Ramdas Pophale) SiO2 
 PCOD8214244
Probable space group: P M M A
;
_chemical_formula_sum "Si O2"
_cell_formula_units_Z 56
_cell_length_a 20.930311
_cell_length_b 9.058775
_cell_length_c 14.499395
_cell_angle_alpha 90.000000
_cell_angle_beta 90.000000
_cell_angle_gamma 90.000000
_cell_volume 2749.128472
_symmetry_space_group_name_H-M "P M M A"
_symmetry_group_IT_number 51
_symmetry_cell_setting 'orthorhombic'
loop_
_space_group_symop_operation_xyz
x,y,z
1/2-x,-y,z
1/2+x,-y,-z
-x,y,-z
-x,-y,-z
1/2+x,y,-z
1/2-x,y,z
x,-y,z
loop_
_atom_site_type_symbol
_atom_site_label
_atom_site_fract_x
_atom_site_fract_y
_atom_site_fract_z
Si Si1 0.426735 0.174259 0.606645
Si Si2 0.179633 0.329479 0.284526
Si Si3 0.321319 0.329156 0.730725
Si Si4 0.131508 0.825755 0.901479
Si Si5 0.069600 0.173416 0.395399
Si Si6 0.993329 0.661386 0.108564
Si Si7 0.631719 0.329258 0.907189
O O1 0.373490 0.259422 0.663686
O O2 0.498489 0.222033 0.638594
O O3 0.418877 0.222032 0.500585
O O4 0.416575 0.000000 0.620301
O O5 0.250000 0.285533 0.322288
O O6 0.164955 0.500000 0.303706
O O7 0.125034 0.238400 0.333449
O O8 0.181924 0.299739 0.174149
O O9 0.250000 0.310012 0.688523
O O10 0.337943 0.500000 0.745450
O O11 0.320179 0.248335 0.829824
O O12 0.060232 0.781566 0.866774
O O13 0.138778 0.000000 0.898887
O O14 0.147566 0.770153 0.004304
O O15 0.074012 0.000000 0.388405
O O16 0.974612 0.500000 0.150028
O O17 0.063543 0.712456 0.141235
O O18 0.000000 0.646700 0.000000
O O19 0.631141 0.500000 0.939963
#
# Coordination Sequence:
#
# PCOD8214244 Si02
#       7
#     8   8   8   8   8   8   8
#     4   9  20  41  66  92 120 151 189 240 296 353
#     4  10  22  38  57  86 122 160 202 244 288 341
#     4  11  25  42  60  85 118 158 201 243 293 354
#     4  11  22  35  55  84 117 153 196 246 298 351
#     4   9  20  40  65  92 122 153 189 235 296 358
#     4   8  15  30  51  75 105 143 191 241 287 339
#     4   9  19  36  55  78 114 160 204 245 290 341
#
# _framework density 20.370090999999999
#
# number of rings (size 3 to 8) (size 9 to 14) (size 15 to 20)
#    0.000    2.429    0.000    3.429    2.000    6.857 
#    0.000    5.714    0.000    0.000    0.000    0.000 
#    0.000    0.000    0.000    0.000    0.000    0.000 
#
# Total GULP energy -694110.765877 kJ/mol
# GULP energy per Si atom -12394.835105 kJ/mol
# Density = 2.032373 g / cm^3
# Si number density = 20.370091 Si / 1000 Ang^3
#
#
#
# Elastic Constant Matrix: (Units=GPa)
#
#
# Indices 1 2 3 4 5 6 
#
# 1 120.0770 43.0454 57.9426 0.0000 0.0000 0.0000
# 2 43.0454 90.5880 45.1639 0.0000 0.0000 0.0000
# 3 57.9426 45.1639 78.3491 0.0000 0.0000 0.0000
# 4 0.0000 0.0000 0.0000 37.4328 0.0000 0.0000
# 5 0.0000 0.0000 0.0000 0.0000 22.3795 0.0000
# 6 0.0000 0.0000 0.0000 0.0000 0.0000 29.1682
#
#
#
# Elastic Compliance Matrix: (Units=1/GPa)
#
#
# Indices 1 2 3 4 5 6 
#
# 1 0.013195 -0.001971 -0.008622 0.000000 0.000000 0.000000
# 2 -0.001971 0.015786 -0.007642 0.000000 0.000000 0.000000
# 3 -0.008622 -0.007642 0.023545 0.000000 0.000000 0.000000
# 4 0.000000 0.000000 0.000000 0.026715 0.000000 0.000000
# 5 0.000000 0.000000 0.000000 0.000000 0.044684 0.000000
# 6 0.000000 0.000000 0.000000 0.000000 0.000000 0.034284
#
#
# Mechanical properties :
#
#
# Convention : Reuss Voigt Hill
#
# Bulk Modulus (GPa) = 62.28407 64.59087 63.43747
# Shear Modulus (GPa) = 24.99632 27.32026 26.15829
#
# Velocity S-wave (km/s) = 3.50681 3.66621 3.58739
# Velocity P-wave (km/s) = 6.85854 7.04975 6.95480
#
# Compressibility (1/GPa) = 0.01605547
#
# Stress axis : x y z
#
# Youngs Moduli (GPa) = 75.78496 63.34895 42.47242
#
# Poissons Ratio (x) = 0.12489 0.36620
# Poissons Ratio (y) = 0.14941 0.32455
# Poissons Ratio (z) = 0.65342 0.48408
#
# Static dielectric constant tensor:
#      x y z
#    x 5.066970 0.000000 0.000000 
#    y 0.000000 3.496650 0.000000 
#    z 0.000000 0.000000 4.099330 
# 
# 
# High freq. dielectric constant tensor:
#      x y z
#    x 1.804590 0.000000 0.000000 
#    y 0.000000 1.782860 0.000000 
#    z 0.000000 0.000000 1.786390 
# 
# From -- ./inp_files/25761.got.cif
#   From: 2010.03.12/outbox.cif.g09.slc.cpg/sg51_13_cif.got.tgz:25761.got - 2010.04.16 13:43:02.
