data_PCOD8214951
_publ_section_title
;
Structure prediction by ZEFSAII (Michael W. Deem and Ramdas Pophale) SiO2 
 PCOD8214951
Probable space group: P N N A
;
_chemical_formula_sum "Si O2"
_cell_formula_units_Z 64
_cell_length_a 13.616738
_cell_length_b 14.260163
_cell_length_c 18.948737
_cell_angle_alpha 90.000000
_cell_angle_beta 90.000000
_cell_angle_gamma 90.000000
_cell_volume 3679.407074
_symmetry_space_group_name_H-M "P N N A"
_symmetry_group_IT_number 52
_symmetry_cell_setting 'orthorhombic'
loop_
_space_group_symop_operation_xyz
x,y,z
1/2-x,-y,z
x,1/2-y,1/2-z
1/2-x,1/2+y,1/2-z
-x,-y,-z
1/2+x,y,-z
-x,1/2+y,1/2+z
1/2+x,1/2-y,1/2+z
loop_
_atom_site_type_symbol
_atom_site_label
_atom_site_fract_x
_atom_site_fract_y
_atom_site_fract_z
Si Si1 0.549214 0.963751 0.751389
Si Si2 0.585713 0.160462 0.794767
Si Si3 0.270794 0.778725 0.828970
Si Si4 0.896147 0.549636 0.372824
Si Si5 0.447163 0.326038 0.438848
Si Si6 0.910140 0.156309 0.096520
Si Si7 0.286292 0.102668 0.154404
Si Si8 0.530085 0.304025 0.173948
O O1 0.462536 0.971297 0.806371
O O2 0.638323 0.899210 0.779727
O O3 0.504762 0.912088 0.682296
O O4 0.584496 0.070950 0.740805
O O5 0.558213 0.250000 0.750000
O O6 0.508456 0.152317 0.857654
O O7 0.694689 0.170002 0.827848
O O8 0.241077 0.750000 0.750000
O O9 0.308435 0.885803 0.841958
O O10 0.170588 0.770705 0.873392
O O11 0.356632 0.705742 0.852038
O O12 0.863592 0.449621 0.406435
O O13 0.961398 0.602932 0.431245
O O14 0.439403 0.301577 0.520873
O O15 0.341709 0.366578 0.416393
O O16 0.462767 0.237012 0.387808
O O17 0.250000 0.000000 0.136281
O O18 0.520397 0.250000 0.250000
#
# Coordination Sequence:
#
# PCOD8214951 Si02
#       8
#     8   8   8   8   8   8   8   8
#     4   9  16  33  55  81  97 127 185 231 263 303
#     4  10  22  35  51  75 110 141 171 223 286 331
#     4  10  18  31  51  74 100 139 188 234 257 316
#     4   9  17  32  52  74 102 142 182 216 267 326
#     4  10  20  31  51  76 108 148 177 221 268 336
#     4  11  22  32  45  75 119 148 167 212 288 350
#     4   9  18  30  50  77 105 132 174 219 260 322
#     4  10  16  32  59  76  96 130 190 238 246 300
#
# _framework density 17.394106000000001
#
# number of rings (size 3 to 8) (size 9 to 14) (size 15 to 20)
#    0.000    2.250    5.000    1.875    1.750    3.000 
#    0.000    0.000    0.000    0.750    0.000    1.750 
#    0.000    0.000    0.000    0.000    0.000    0.000 
#
# Total GULP energy -792902.134083 kJ/mol
# GULP energy per Si atom -12389.095845 kJ/mol
# Density = 1.735452 g / cm^3
# Si number density = 17.394106 Si / 1000 Ang^3
#
#
#
# Elastic Constant Matrix: (Units=GPa)
#
#
# Indices 1 2 3 4 5 6 
#
# 1 78.4485 24.5356 33.1620 0.0000 0.0000 0.0000
# 2 24.5356 61.9942 44.9972 0.0000 0.0000 0.0000
# 3 33.1620 44.9972 95.7354 0.0000 0.0000 0.0000
# 4 0.0000 0.0000 0.0000 20.5065 0.0000 0.0000
# 5 0.0000 0.0000 0.0000 0.0000 15.8874 0.0000
# 6 0.0000 0.0000 0.0000 0.0000 0.0000 24.3990
#
#
#
# Elastic Compliance Matrix: (Units=1/GPa)
#
#
# Indices 1 2 3 4 5 6 
#
# 1 0.015384 -0.003371 -0.003745 0.000000 0.000000 0.000000
# 2 -0.003371 0.025221 -0.010687 0.000000 0.000000 0.000000
# 3 -0.003745 -0.010687 0.016766 0.000000 0.000000 0.000000
# 4 0.000000 0.000000 0.000000 0.048765 0.000000 0.000000
# 5 0.000000 0.000000 0.000000 0.000000 0.062943 0.000000
# 6 0.000000 0.000000 0.000000 0.000000 0.000000 0.040985
#
#
# Mechanical properties :
#
#
# Convention : Reuss Voigt Hill
#
# Bulk Modulus (GPa) = 45.94153 49.06307 47.50230
# Shear Modulus (GPa) = 19.76868 21.05746 20.41307
#
# Velocity S-wave (km/s) = 3.37488 3.48316 3.42945
# Velocity P-wave (km/s) = 6.45414 6.66667 6.56126
#
# Compressibility (1/GPa) = 0.02176680
#
# Stress axis : x y z
#
# Youngs Moduli (GPa) = 65.00079 39.64879 59.64568
#
# Poissons Ratio (x) = 0.13364 0.22336
# Poissons Ratio (y) = 0.21909 0.63743
# Poissons Ratio (z) = 0.24341 0.42372
#
# Static dielectric constant tensor:
#      x y z
#    x 3.769420 0.000000 0.000000 
#    y 0.000000 3.306490 0.000000 
#    z 0.000000 0.000000 2.915440 
# 
# 
# High freq. dielectric constant tensor:
#      x y z
#    x 1.688480 0.000000 0.000000 
#    y 0.000000 1.645370 0.000000 
#    z 0.000000 0.000000 1.633720 
# 
# From -- ./inp_files/33345.got.cif
#   From: 2010.06.25/outbox.cif.g09.slc.cpg/sg52_17_cif.got.tgz:33345.got - 2010.06.26 19:32:48.
