data_PCOD8214512
_publ_section_title
;
Structure prediction by ZEFSAII (Michael W. Deem and Ramdas Pophale) SiO2 
 PCOD8214512
Probable space group: P M M A
;
_chemical_formula_sum "Si O2"
_cell_formula_units_Z 48
_cell_length_a 14.072973
_cell_length_b 8.697511
_cell_length_c 21.652700
_cell_angle_alpha 90.000000
_cell_angle_beta 90.000000
_cell_angle_gamma 90.000000
_cell_volume 2650.286961
_symmetry_space_group_name_H-M "P M M A"
_symmetry_group_IT_number 51
_symmetry_cell_setting 'orthorhombic'
loop_
_space_group_symop_operation_xyz
x,y,z
1/2-x,-y,z
1/2+x,-y,-z
-x,y,-z
-x,-y,-z
1/2+x,y,-z
1/2-x,y,z
x,-y,z
loop_
_atom_site_type_symbol
_atom_site_label
_atom_site_fract_x
_atom_site_fract_y
_atom_site_fract_z
Si Si1 0.951093 0.182013 0.407119
Si Si2 0.859663 0.319018 0.286986
Si Si3 0.143976 0.818454 0.465210
Si Si4 0.447093 0.318917 0.061782
Si Si5 0.750000 0.827300 0.105214
Si Si6 0.565695 0.182651 0.166584
Si Si7 0.250000 0.175295 0.039667
O O1 0.062195 0.232751 0.416298
O O2 0.904688 0.275768 0.352068
O O3 0.890124 0.230807 0.466839
O O4 0.943972 0.000000 0.394737
O O5 0.750000 0.259861 0.282251
O O6 0.863132 0.500000 0.277726
O O7 0.928458 0.239550 0.236782
O O8 0.250000 0.748818 0.450819
O O9 0.150718 0.000000 0.462937
O O10 0.458854 0.500000 0.062538
O O11 0.480361 0.250986 0.127064
O O12 0.338950 0.269805 0.062614
O O13 0.500000 0.251923 0.000000
O O14 0.842561 0.745689 0.132059
O O15 0.750000 0.000000 0.131111
O O16 0.750000 0.823065 0.033050
O O17 0.557644 0.000000 0.164790
O O18 0.250000 0.000000 0.064625
#
# Coordination Sequence:
#
# PCOD8214512 Si02
#       7
#     8   8   8   8   4   8   4
#     4   9  17  30  52  80 106 138 178 218 260 312
#     4  11  23  36  51  76 110 143 173 216 273 327
#     4   8  14  27  50  80 110 137 172 219 265 307
#     4  11  23  37  55  83 115 145 175 218 277 332
#     4   9  18  31  53  83 109 133 172 223 268 311
#     4  11  21  37  58  81 106 140 182 224 269 322
#     4  11  21  37  59  83 109 141 182 227 268 317
#
# _framework density 18.111246000000001
#
# number of rings (size 3 to 8) (size 9 to 14) (size 15 to 20)
#    0.000    2.000    2.500    3.250    0.000    2.333 
#    0.000    1.667    1.833    1.500    0.000    0.000 
#    0.000    0.000    0.000    0.000    0.000    0.000 
#
# Total GULP energy -594901.841704 kJ/mol
# GULP energy per Si atom -12393.788369 kJ/mol
# Density = 1.807002 g / cm^3
# Si number density = 18.111246 Si / 1000 Ang^3
#
#
#
# Elastic Constant Matrix: (Units=GPa)
#
#
# Indices 1 2 3 4 5 6 
#
# 1 127.6959 27.1327 45.4398 0.0000 0.0000 0.0000
# 2 27.1327 58.7789 31.7600 0.0000 0.0000 0.0000
# 3 45.4398 31.7600 89.7499 0.0000 0.0000 0.0000
# 4 0.0000 0.0000 0.0000 25.4678 0.0000 0.0000
# 5 0.0000 0.0000 0.0000 0.0000 35.8098 0.0000
# 6 0.0000 0.0000 0.0000 0.0000 0.0000 23.5928
#
#
#
# Elastic Compliance Matrix: (Units=1/GPa)
#
#
# Indices 1 2 3 4 5 6 
#
# 1 0.009792 -0.002277 -0.004152 0.000000 0.000000 0.000000
# 2 -0.002277 0.021564 -0.006478 0.000000 0.000000 0.000000
# 3 -0.004152 -0.006478 0.015537 0.000000 0.000000 0.000000
# 4 0.000000 0.000000 0.000000 0.039265 0.000000 0.000000
# 5 0.000000 0.000000 0.000000 0.000000 0.027925 0.000000
# 6 0.000000 0.000000 0.000000 0.000000 0.000000 0.042386
#
#
# Mechanical properties :
#
#
# Convention : Reuss Voigt Hill
#
# Bulk Modulus (GPa) = 47.44039 53.87664 50.65851
# Shear Modulus (GPa) = 26.41164 28.43357 27.42261
#
# Velocity S-wave (km/s) = 3.82291 3.96655 3.89539
# Velocity P-wave (km/s) = 6.76291 7.12672 6.94720
#
# Compressibility (1/GPa) = 0.02107909
#
# Stress axis : x y z
#
# Youngs Moduli (GPa) = 102.12028 46.37304 64.36338
#
# Poissons Ratio (x) = 0.10558 0.26725
# Poissons Ratio (y) = 0.23249 0.41697
# Poissons Ratio (z) = 0.42402 0.30042
#
# Static dielectric constant tensor:
#      x y z
#    x 3.662980 0.000000 0.000000 
#    y 0.000000 3.145480 0.000000 
#    z 0.000000 0.000000 3.257420 
# 
# 
# High freq. dielectric constant tensor:
#      x y z
#    x 1.706860 0.000000 0.000000 
#    y 0.000000 1.683420 0.000000 
#    z 0.000000 0.000000 1.691460 
# 
# From -- ./inp_files/29611.got.cif
#   From: 2010.03.12/outbox.cif.g09.slc.cpg/sg51_15_cif.got.tgz:29611.got - 2010.04.16 13:43:02.
