data_PCOD8214557
_publ_section_title
;
Structure prediction by ZEFSAII (Michael W. Deem and Ramdas Pophale) SiO2 
 PCOD8214557
Probable space group: P M M A
;
_chemical_formula_sum "Si O2"
_cell_formula_units_Z 48
_cell_length_a 13.921377
_cell_length_b 8.904892
_cell_length_c 20.443745
_cell_angle_alpha 90.000000
_cell_angle_beta 90.000000
_cell_angle_gamma 90.000000
_cell_volume 2534.377513
_symmetry_space_group_name_H-M "P M M A"
_symmetry_group_IT_number 51
_symmetry_cell_setting 'orthorhombic'
loop_
_space_group_symop_operation_xyz
x,y,z
1/2-x,-y,z
1/2+x,-y,-z
-x,y,-z
-x,-y,-z
1/2+x,y,-z
1/2-x,y,z
x,-y,z
loop_
_atom_site_type_symbol
_atom_site_label
_atom_site_fract_x
_atom_site_fract_y
_atom_site_fract_z
Si Si1 0.450849 0.176772 0.650226
Si Si2 0.144020 0.177752 0.029733
Si Si3 0.860801 0.324200 0.224194
Si Si4 0.105974 0.336843 0.524821
Si Si5 0.854054 0.324029 0.615067
Si Si6 0.457271 0.177857 0.898260
O O1 0.393361 0.242076 0.710637
O O2 0.391344 0.222336 0.585319
O O3 0.560946 0.234532 0.650597
O O4 0.453672 0.000000 0.655594
O O5 0.250000 0.245415 0.045158
O O6 0.067234 0.225930 0.085005
O O7 0.148226 0.000000 0.028217
O O8 0.109937 0.231154 0.958150
O O9 0.750000 0.284942 0.209718
O O10 0.876998 0.500000 0.233419
O O11 0.926292 0.266876 0.165380
O O12 0.147379 0.500000 0.547364
O O13 0.160829 0.273918 0.461001
O O14 0.000000 0.361433 0.500000
O O15 0.750000 0.292680 0.649226
O O16 0.880730 0.500000 0.618012
O O17 0.448789 0.000000 0.885935
#
# Coordination Sequence:
#
# PCOD8214557 Si02
#       6
#     8   8   8   8   8   8
#     4  11  22  35  53  78 107 137 173 220 268 313
#     4   8  14  27  51  83 115 143 170 204 252 308
#     4  11  24  40  56  73  98 136 178 219 267 321
#     4   8  15  30  51  74 101 134 171 209 253 307
#     4   9  18  34  56  79 105 140 177 212 257 315
#     4   9  17  31  54  82 109 139 175 214 254 299
#
# _framework density 18.939561000000001
#
# number of rings (size 3 to 8) (size 9 to 14) (size 15 to 20)
#    0.000    2.667    0.000    4.500    0.000    6.000 
#    0.000    4.167    0.000    4.500    0.000    0.000 
#    0.000    0.000    0.000    0.000    0.000    0.000 
#
# Total GULP energy -594806.629840 kJ/mol
# GULP energy per Si atom -12391.804788 kJ/mol
# Density = 1.889645 g / cm^3
# Si number density = 18.939561 Si / 1000 Ang^3
#
#
#
# Elastic Constant Matrix: (Units=GPa)
#
#
# Indices 1 2 3 4 5 6 
#
# 1 116.2309 35.9831 32.8867 0.0000 0.0000 0.0000
# 2 35.9831 85.1546 40.2909 0.0000 0.0000 0.0000
# 3 32.8867 40.2909 87.4725 0.0000 0.0000 0.0000
# 4 0.0000 0.0000 0.0000 35.8504 0.0000 0.0000
# 5 0.0000 0.0000 0.0000 0.0000 22.1229 0.0000
# 6 0.0000 0.0000 0.0000 0.0000 0.0000 19.7024
#
#
#
# Elastic Compliance Matrix: (Units=1/GPa)
#
#
# Indices 1 2 3 4 5 6 
#
# 1 0.010272 -0.003214 -0.002382 0.000000 0.000000 0.000000
# 2 -0.003214 0.016021 -0.006171 0.000000 0.000000 0.000000
# 3 -0.002382 -0.006171 0.015170 0.000000 0.000000 0.000000
# 4 0.000000 0.000000 0.000000 0.027894 0.000000 0.000000
# 5 0.000000 0.000000 0.000000 0.000000 0.045202 0.000000
# 6 0.000000 0.000000 0.000000 0.000000 0.000000 0.050755
#
#
# Mechanical properties :
#
#
# Convention : Reuss Voigt Hill
#
# Bulk Modulus (GPa) = 55.77195 56.35327 56.06261
# Shear Modulus (GPa) = 25.66401 27.51497 26.58949
#
# Velocity S-wave (km/s) = 3.68509 3.81567 3.75095
# Velocity P-wave (km/s) = 6.90056 7.01650 6.95877
#
# Compressibility (1/GPa) = 0.01793016
#
# Stress axis : x y z
#
# Youngs Moduli (GPa) = 97.34824 62.41673 65.91858
#
# Poissons Ratio (x) = 0.20059 0.15700
# Poissons Ratio (y) = 0.31286 0.40681
# Poissons Ratio (z) = 0.23186 0.38520
#
# Static dielectric constant tensor:
#      x y z
#    x 3.717920 0.000000 0.000000 
#    y 0.000000 3.201130 0.000000 
#    z 0.000000 0.000000 3.538360 
# 
# 
# High freq. dielectric constant tensor:
#      x y z
#    x 1.749330 0.000000 0.000000 
#    y 0.000000 1.709660 0.000000 
#    z 0.000000 0.000000 1.718350 
# 
# From -- ./inp_files/29458.got.cif
#   From: 2010.03.12/outbox.cif.g09.slc.cpg/sg51_15_cif.got.tgz:29458.got - 2010.04.16 13:43:02.
