data_PCOD8214435
_publ_section_title
;
Structure prediction by ZEFSAII (Michael W. Deem and Ramdas Pophale) SiO2 
 PCOD8214435
Probable space group: P M M A
;
_chemical_formula_sum "Si O2"
_cell_formula_units_Z 64
_cell_length_a 17.413616
_cell_length_b 14.449238
_cell_length_c 13.754913
_cell_angle_alpha 90.000000
_cell_angle_beta 90.000000
_cell_angle_gamma 90.000000
_cell_volume 3460.921555
_symmetry_space_group_name_H-M "P M M A"
_symmetry_group_IT_number 51
_symmetry_cell_setting 'orthorhombic'
loop_
_space_group_symop_operation_xyz
x,y,z
1/2-x,-y,z
1/2+x,-y,-z
-x,y,-z
-x,-y,-z
1/2+x,y,-z
1/2-x,y,z
x,-y,z
loop_
_atom_site_type_symbol
_atom_site_label
_atom_site_fract_x
_atom_site_fract_y
_atom_site_fract_z
Si Si1 0.440404 0.748653 0.420015
Si Si2 0.335759 0.105895 0.519031
Si Si3 0.558856 0.393126 0.862371
Si Si4 0.167111 0.608573 0.970684
Si Si5 0.662845 0.395390 0.676520
Si Si6 0.452928 0.257724 0.754013
Si Si7 0.838026 0.894253 0.252663
Si Si8 0.336636 0.604589 0.744952
O O1 0.500000 0.712705 0.500000
O O2 0.397329 0.839202 0.456759
O O3 0.380867 0.666181 0.402425
O O4 0.482817 0.778360 0.320185
O O5 0.250000 0.141044 0.494707
O O6 0.351679 0.117169 0.632949
O O7 0.344725 0.000000 0.488025
O O8 0.527381 0.500000 0.870805
O O9 0.596567 0.356223 0.962940
O O10 0.624454 0.388160 0.781542
O O11 0.490514 0.321486 0.838434
O O12 0.250000 0.651524 0.002588
O O13 0.172451 0.500000 0.986943
O O14 0.154291 0.630947 0.858152
O O15 0.750000 0.360375 0.686501
O O16 0.659698 0.500000 0.637375
O O17 0.401494 0.172967 0.798103
O O18 0.394563 0.324790 0.691995
O O19 0.750000 0.866095 0.225463
O O20 0.852878 0.000000 0.219733
O O21 0.250000 0.620795 0.708413
O O22 0.362219 0.500000 0.723810
#
# Coordination Sequence:
#
# PCOD8214435 Si02
#       8
#     8   8   8   8   8   8   8   8
#     4  11  21  32  46  68  94 125 157 195 236 280
#     4   9  18  34  55  74  90 112 148 196 247 295
#     4   9  17  28  46  72  99 126 155 190 236 284
#     4   8  14  27  48  72  97 126 160 196 233 277
#     4   9  18  32  47  62  87 126 168 203 228 260
#     4  11  20  30  45  69 101 128 152 188 240 286
#     4   9  18  33  52  70  88 116 156 198 237 282
#     4   9  18  32  49  70  98 130 162 195 232 278
#
# _framework density 18.492184000000002
#
# number of rings (size 3 to 8) (size 9 to 14) (size 15 to 20)
#    0.000    2.625    1.250    3.000    0.000    3.500 
#    0.000    1.875    0.000    1.500    0.000    1.750 
#    0.000    1.000    0.000    3.750    0.000    0.000 
#
# Total GULP energy -793160.563212 kJ/mol
# GULP energy per Si atom -12393.133800 kJ/mol
# Density = 1.845009 g / cm^3
# Si number density = 18.492184 Si / 1000 Ang^3
#
#
#
# Elastic Constant Matrix: (Units=GPa)
#
#
# Indices 1 2 3 4 5 6 
#
# 1 108.5229 50.0911 7.1990 0.0000 0.0000 0.0000
# 2 50.0911 78.8706 8.0722 0.0000 0.0000 0.0000
# 3 7.1990 8.0722 18.5423 0.0000 0.0000 0.0000
# 4 0.0000 0.0000 0.0000 11.6191 0.0000 0.0000
# 5 0.0000 0.0000 0.0000 0.0000 36.7214 0.0000
# 6 0.0000 0.0000 0.0000 0.0000 0.0000 36.6394
#
#
#
# Elastic Compliance Matrix: (Units=1/GPa)
#
#
# Indices 1 2 3 4 5 6 
#
# 1 0.013077 -0.008149 -0.001530 0.000000 0.000000 0.000000
# 2 -0.008149 0.018348 -0.004824 0.000000 0.000000 0.000000
# 3 -0.001530 -0.004824 0.056625 0.000000 0.000000 0.000000
# 4 0.000000 0.000000 0.000000 0.086065 0.000000 0.000000
# 5 0.000000 0.000000 0.000000 0.000000 0.027232 0.000000
# 6 0.000000 0.000000 0.000000 0.000000 0.000000 0.027293
#
#
# Mechanical properties :
#
#
# Convention : Reuss Voigt Hill
#
# Bulk Modulus (GPa) = 16.93615 37.40669 27.17142
# Shear Modulus (GPa) = 18.02923 26.36755 22.19839
#
# Velocity S-wave (km/s) = 3.12583 3.78017 3.46847
# Velocity P-wave (km/s) = 4.71234 6.27098 5.54668
#
# Compressibility (1/GPa) = 0.05904529
#
# Stress axis : x y z
#
# Youngs Moduli (GPa) = 76.46743 54.50133 17.66011
#
# Poissons Ratio (x) = 0.44413 0.02701
# Poissons Ratio (y) = 0.62313 0.08519
# Poissons Ratio (z) = 0.11697 0.26291
#
# Static dielectric constant tensor:
#      x y z
#    x 3.703230 0.000000 0.000000 
#    y 0.000000 3.310500 0.000000 
#    z 0.000000 0.000000 3.181850 
# 
# 
# High freq. dielectric constant tensor:
#      x y z
#    x 1.742840 0.000000 0.000000 
#    y 0.000000 1.693720 0.000000 
#    z 0.000000 0.000000 1.677580 
# 
# From -- ./inp_files/25340.got.cif
#   From: 2010.03.12/outbox.cif.g09.slc.cpg/sg51_13_cif.got.tgz:25340.got - 2010.04.16 13:43:02.
