data_PCOD8214124
_publ_section_title
;
Structure prediction by ZEFSAII (Michael W. Deem and Ramdas Pophale) SiO2 
 PCOD8214124
Probable space group: P M M A
;
_chemical_formula_sum "Si O2"
_cell_formula_units_Z 40
_cell_length_a 8.526514
_cell_length_b 25.592958
_cell_length_c 9.162201
_cell_angle_alpha 90.000000
_cell_angle_beta 90.000000
_cell_angle_gamma 90.000000
_cell_volume 1999.363726
_symmetry_space_group_name_H-M "P M M A"
_symmetry_group_IT_number 51
_symmetry_cell_setting 'orthorhombic'
loop_
_space_group_symop_operation_xyz
x,y,z
1/2-x,-y,z
1/2+x,-y,-z
-x,y,-z
-x,-y,-z
1/2+x,y,-z
1/2-x,y,z
x,-y,z
loop_
_atom_site_type_symbol
_atom_site_label
_atom_site_fract_x
_atom_site_fract_y
_atom_site_fract_z
Si Si1 0.434339 0.851236 0.341304
Si Si2 0.565433 0.059875 0.154482
Si Si3 0.433328 0.556590 0.660775
Si Si4 0.934659 0.338622 0.663269
Si Si5 0.434416 0.756791 0.840136
O O1 0.500000 0.838039 0.500000
O O2 0.250000 0.852027 0.351806
O O3 0.493658 0.907446 0.287081
O O4 0.487476 0.807578 0.228403
O O5 0.750000 0.067088 0.153491
O O6 0.514913 0.000000 0.179530
O O7 0.500000 0.080489 0.000000
O O8 0.500000 0.551105 0.500000
O O9 0.250000 0.570278 0.653785
O O10 0.460645 0.500000 0.740314
O O11 0.524113 0.604989 0.737933
O O12 0.750000 0.327894 0.667203
O O13 0.000000 0.338797 0.500000
O O14 0.025068 0.294037 0.748215
O O15 0.250000 0.765606 0.844551
O O16 0.500000 0.748098 0.000000
#
# Coordination Sequence:
#
# PCOD8214124 Si02
#       5
#     8   8   8   8   8
#     4  12  25  42  63  89 120 154 194 240 291 342
#     4  10  21  39  63  91 123 160 200 240 285 339
#     4   9  16  27  46  75 110 147 187 232 282 335
#     4  11  21  35  56  84 116 151 191 236 287 339
#     4  12  25  43  63  85 114 149 191 236 287 346
#
# _framework density 20.006364999999999
#
# number of rings (size 3 to 8) (size 9 to 14) (size 15 to 20)
#    0.000    1.200    0.000    9.000    0.000    2.800 
#    0.000    0.000    0.000    0.600    0.000    0.000 
#    0.000    0.000    0.000    0.000    0.000    0.000 
#
# Total GULP energy -496013.601554 kJ/mol
# GULP energy per Si atom -12400.340039 kJ/mol
# Density = 1.996083 g / cm^3
# Si number density = 20.006365 Si / 1000 Ang^3
#
#
#
# Elastic Constant Matrix: (Units=GPa)
#
#
# Indices 1 2 3 4 5 6 
#
# 1 74.5428 20.1778 8.9495 0.0000 0.0000 0.0000
# 2 20.1778 115.5356 27.6567 0.0000 0.0000 0.0000
# 3 8.9495 27.6567 56.6192 0.0000 0.0000 0.0000
# 4 0.0000 0.0000 0.0000 -1.7812 0.0000 0.0000
# 5 0.0000 0.0000 0.0000 0.0000 32.6974 0.0000
# 6 0.0000 0.0000 0.0000 0.0000 0.0000 22.0785
#
#
#
# Elastic Compliance Matrix: (Units=1/GPa)
#
#
# Indices 1 2 3 4 5 6 
#
# 1 0.014148 -0.002192 -0.001166 0.000000 0.000000 0.000000
# 2 -0.002192 0.010141 -0.004607 0.000000 0.000000 0.000000
# 3 -0.001166 -0.004607 0.020097 0.000000 0.000000 0.000000
# 4 0.000000 0.000000 0.000000 -0.561423 0.000000 0.000000
# 5 0.000000 0.000000 0.000000 0.000000 0.030583 0.000000
# 6 0.000000 0.000000 0.000000 0.000000 0.000000 0.045293
#
#
# Mechanical properties :
#
#
# Convention : Reuss Voigt Hill
#
# Bulk Modulus (GPa) = 35.14134 40.02952 37.58543
# Shear Modulus (GPa) = -12.02659 23.25986 5.61663
#
# Velocity S-wave (km/s) = -2.45447 3.41342 1.67735
# Velocity P-wave (km/s) = 3.09364 5.96549 4.75172
#
# Compressibility (1/GPa) = 0.02845651
#
# Stress axis : x y z
#
# Youngs Moduli (GPa) = 70.67941 98.60967 49.75985
#
# Poissons Ratio (x) = 0.21614 0.05800
# Poissons Ratio (y) = 0.15492 0.22925
# Poissons Ratio (z) = 0.08239 0.45430
#
# Static dielectric constant tensor:
#      x y z
#    x 3.846160 0.000000 0.000000 
#    y 0.000000 4.326490 0.000000 
#    z 0.000000 0.000000 3.380750 
# 
# 
# High freq. dielectric constant tensor:
#      x y z
#    x 1.802770 0.000000 0.000000 
#    y 0.000000 1.807720 0.000000 
#    z 0.000000 0.000000 1.748320 
# 
# From -- ./inp_files/5225.got.cif
#   From: 2010.03.12/outbox.cif.g09.slc.cpg/sg51_3_cif.got.tgz:5225.got - 2010.04.16 13:43:02.
