data_PCOD8214122
_publ_section_title
;
Structure prediction by ZEFSAII (Michael W. Deem and Ramdas Pophale) SiO2 
 PCOD8214122
Probable space group: P M M A
;
_chemical_formula_sum "Si O2"
_cell_formula_units_Z 40
_cell_length_a 16.505898
_cell_length_b 22.353994
_cell_length_c 4.982259
_cell_angle_alpha 90.000000
_cell_angle_beta 90.000000
_cell_angle_gamma 90.000000
_cell_volume 1838.317779
_symmetry_space_group_name_H-M "P M M A"
_symmetry_group_IT_number 51
_symmetry_cell_setting 'orthorhombic'
loop_
_space_group_symop_operation_xyz
x,y,z
1/2-x,-y,z
1/2+x,-y,-z
-x,y,-z
-x,-y,-z
1/2+x,y,-z
1/2-x,y,z
x,-y,z
loop_
_atom_site_type_symbol
_atom_site_label
_atom_site_fract_x
_atom_site_fract_y
_atom_site_fract_z
Si Si1 0.907775 0.238403 0.591041
Si Si2 0.343213 0.366830 0.402209
Si Si3 0.591684 0.568741 0.087257
Si Si4 0.342827 0.174588 0.902713
Si Si5 0.945402 0.933474 0.258162
O O1 0.881895 0.304050 0.687483
O O2 0.851765 0.221580 0.338731
O O3 0.000000 0.235680 0.500000
O O4 0.896263 0.193705 0.841392
O O5 0.250000 0.359338 0.484767
O O6 0.349168 0.411533 0.151463
O O7 0.393333 0.392182 0.650704
O O8 0.609362 0.500000 0.158123
O O9 0.500000 0.579386 0.000000
O O10 0.250000 0.171369 0.994418
O O11 0.369977 0.109832 0.794312
O O12 0.000000 0.907308 0.500000
O O13 0.912564 0.000000 0.333288
O O14 0.000000 0.937580 0.000000
#
# Coordination Sequence:
#
# PCOD8214122 Si02
#       5
#     8   8   8   8   8
#     4  12  25  43  65  89 123 168 212 254 311 381
#     4  12  25  42  64  93 127 160 204 261 318 372
#     4  11  24  43  66  92 124 164 208 252 306 378
#     4  12  24  40  63  94 128 161 207 264 319 369
#     4  10  21  39  63  90 123 165 210 251 299 365
#
# _framework density 21.759025000000001
#
# number of rings (size 3 to 8) (size 9 to 14) (size 15 to 20)
#    0.000    0.600    0.000    9.600    0.000    4.400 
#    0.000    0.000    0.000    6.000    0.000    0.000 
#    0.000    0.000    0.000    0.000    0.000    0.000 
#
# Total GULP energy -496334.337770 kJ/mol
# GULP energy per Si atom -12408.358444 kJ/mol
# Density = 2.170950 g / cm^3
# Si number density = 21.759025 Si / 1000 Ang^3
#
#
#
# Elastic Constant Matrix: (Units=GPa)
#
#
# Indices 1 2 3 4 5 6 
#
# 1 102.1051 59.8714 19.1372 0.0000 0.0000 0.0000
# 2 59.8714 112.5509 29.5902 0.0000 0.0000 0.0000
# 3 19.1372 29.5902 114.2228 0.0000 0.0000 0.0000
# 4 0.0000 0.0000 0.0000 42.0218 0.0000 0.0000
# 5 0.0000 0.0000 0.0000 0.0000 32.2217 0.0000
# 6 0.0000 0.0000 0.0000 0.0000 0.0000 28.7085
#
#
#
# Elastic Compliance Matrix: (Units=1/GPa)
#
#
# Indices 1 2 3 4 5 6 
#
# 1 0.014256 -0.007464 -0.000455 0.000000 0.000000 0.000000
# 2 -0.007464 0.013442 -0.002232 0.000000 0.000000 0.000000
# 3 -0.000455 -0.002232 0.009409 0.000000 0.000000 0.000000
# 4 0.000000 0.000000 0.000000 0.023797 0.000000 0.000000
# 5 0.000000 0.000000 0.000000 0.000000 0.031035 0.000000
# 6 0.000000 0.000000 0.000000 0.000000 0.000000 0.034833
#
#
# Mechanical properties :
#
#
# Convention : Reuss Voigt Hill
#
# Bulk Modulus (GPa) = 59.50235 60.67515 60.08875
# Shear Modulus (GPa) = 32.74947 35.27574 34.01260
#
# Velocity S-wave (km/s) = 3.88377 4.03078 3.95796
# Velocity P-wave (km/s) = 6.89325 7.04333 6.96870
#
# Compressibility (1/GPa) = 0.01680606
#
# Stress axis : x y z
#
# Youngs Moduli (GPa) = 70.14815 74.39431 106.27918
#
# Poissons Ratio (x) = 0.55525 0.04835
# Poissons Ratio (y) = 0.52356 0.23719
# Poissons Ratio (z) = 0.03191 0.16603
#
# Static dielectric constant tensor:
#      x y z
#    x 3.743540 0.000000 0.000000 
#    y 0.000000 4.260180 0.000000 
#    z 0.000000 0.000000 4.122380 
# 
# 
# High freq. dielectric constant tensor:
#      x y z
#    x 1.848840 0.000000 0.000000 
#    y 0.000000 1.869190 0.000000 
#    z 0.000000 0.000000 1.870710 
# 
# From -- ./inp_files/1416.got.cif
#   From: 2010.03.12/outbox.cif.g09.slc.cpg/sg51_1_cif.got.tgz:1416.got - 2010.04.16 13:43:02.
