data_PCOD8214602
_publ_section_title
;
Structure prediction by ZEFSAII (Michael W. Deem and Ramdas Pophale) SiO2 
 PCOD8214602
Probable space group: P M M A
;
_chemical_formula_sum "Si O2"
_cell_formula_units_Z 48
_cell_length_a 14.107490
_cell_length_b 11.244247
_cell_length_c 15.514138
_cell_angle_alpha 90.000000
_cell_angle_beta 90.000000
_cell_angle_gamma 90.000000
_cell_volume 2460.978267
_symmetry_space_group_name_H-M "P M M A"
_symmetry_group_IT_number 51
_symmetry_cell_setting 'orthorhombic'
loop_
_space_group_symop_operation_xyz
x,y,z
1/2-x,-y,z
1/2+x,-y,-z
-x,y,-z
-x,-y,-z
1/2+x,y,-z
1/2-x,y,z
x,-y,z
loop_
_atom_site_type_symbol
_atom_site_label
_atom_site_fract_x
_atom_site_fract_y
_atom_site_fract_z
Si Si1 0.468013 0.861965 0.123215
Si Si2 0.856713 0.500000 0.802528
Si Si3 0.039001 0.282577 0.282026
Si Si4 0.861757 0.635103 0.558460
Si Si5 0.144307 0.640075 0.635531
Si Si6 0.111309 0.500000 0.000550
Si Si7 0.643533 0.761144 0.032140
O O1 0.448363 0.835570 0.224229
O O2 0.575811 0.824217 0.101591
O O3 0.452752 0.000000 0.104570
O O4 0.395205 0.788187 0.063941
O O5 0.750000 0.500000 0.762338
O O6 0.915132 0.386798 0.772982
O O7 0.845939 0.500000 0.904470
O O8 0.090619 0.273087 0.374636
O O9 0.926892 0.301792 0.296457
O O10 0.750000 0.644902 0.566160
O O11 0.894878 0.500000 0.581756
O O12 0.892548 0.668121 0.461458
O O13 0.250000 0.692458 0.650420
O O14 0.146729 0.500000 0.648786
O O15 0.146126 0.381198 0.951905
O O16 0.000000 0.500000 0.000000
O O17 0.750000 0.811749 0.042295
#
# Coordination Sequence:
#
# PCOD8214602 Si02
#       7
#     8   4   8   8   8   4   8
#     4  11  26  42  56  81 112 148 204 246 272 323
#     4  12  22  32  52  87 121 143 174 225 291 356
#     4  12  20  33  56  80 113 152 183 225 287 335
#     4   9  17  30  52  83 116 146 178 219 278 350
#     4   9  18  32  51  82 118 147 180 222 274 346
#     4  12  20  38  60  92 120 144 171 223 295 362
#     4  11  22  41  66  85 112 149 185 231 289 343
#
# _framework density 19.504439000000001
#
# number of rings (size 3 to 8) (size 9 to 14) (size 15 to 20)
#    0.000    1.333    5.000    3.750    0.000    4.000 
#    0.000    0.000    0.000    2.000    0.000    2.333 
#    0.000    0.000    0.000    0.000    0.000    0.000 
#
# Total GULP energy -595135.906785 kJ/mol
# GULP energy per Si atom -12398.664725 kJ/mol
# Density = 1.946005 g / cm^3
# Si number density = 19.504439 Si / 1000 Ang^3
#
#
#
# Elastic Constant Matrix: (Units=GPa)
#
#
# Indices 1 2 3 4 5 6 
#
# 1 96.5889 16.8788 19.6335 0.0000 0.0000 0.0000
# 2 16.8788 77.0373 20.7296 0.0000 0.0000 0.0000
# 3 19.6335 20.7296 65.2629 0.0000 0.0000 0.0000
# 4 0.0000 0.0000 0.0000 18.2141 0.0000 0.0000
# 5 0.0000 0.0000 0.0000 0.0000 22.1021 0.0000
# 6 0.0000 0.0000 0.0000 0.0000 0.0000 5.2516
#
#
#
# Elastic Compliance Matrix: (Units=1/GPa)
#
#
# Indices 1 2 3 4 5 6 
#
# 1 0.011227 -0.001696 -0.002839 0.000000 0.000000 0.000000
# 2 -0.001696 0.014450 -0.004080 0.000000 0.000000 0.000000
# 3 -0.002839 -0.004080 0.017472 0.000000 0.000000 0.000000
# 4 0.000000 0.000000 0.000000 0.054903 0.000000 0.000000
# 5 0.000000 0.000000 0.000000 0.000000 0.045245 0.000000
# 6 0.000000 0.000000 0.000000 0.000000 0.000000 0.190420
#
#
# Mechanical properties :
#
#
# Convention : Reuss Voigt Hill
#
# Bulk Modulus (GPa) = 38.57927 39.26366 38.92146
# Shear Modulus (GPa) = 13.90494 21.22336 17.56415
#
# Velocity S-wave (km/s) = 2.67294 3.30226 3.00412
# Velocity P-wave (km/s) = 5.41745 5.89188 5.65964
#
# Compressibility (1/GPa) = 0.02592066
#
# Stress axis : x y z
#
# Youngs Moduli (GPa) = 89.07479 69.20395 57.23302
#
# Poissons Ratio (x) = 0.11736 0.16247
# Poissons Ratio (y) = 0.15106 0.23349
# Poissons Ratio (z) = 0.25286 0.28232
#
# Static dielectric constant tensor:
#      x y z
#    x 3.768190 0.000000 0.000000 
#    y 0.000000 3.233290 0.000000 
#    z 0.000000 0.000000 3.616670 
# 
# 
# High freq. dielectric constant tensor:
#      x y z
#    x 1.777240 0.000000 0.000000 
#    y 0.000000 1.703930 0.000000 
#    z 0.000000 0.000000 1.758990 
# 
# From -- ./inp_files/24063.got.cif
#   From: 2010.03.12/outbox.cif.g09.slc.cpg/sg51_13_cif.got.tgz:24063.got - 2010.04.16 13:43:02.
