data_PCOD8214969
_publ_section_title
;
Structure prediction by ZEFSAII (Michael W. Deem and Ramdas Pophale) SiO2 
 PCOD8214969
Probable space group: P N N A
;
_chemical_formula_sum "Si O2"
_cell_formula_units_Z 56
_cell_length_a 5.336249
_cell_length_b 24.833853
_cell_length_c 17.150614
_cell_angle_alpha 90.000000
_cell_angle_beta 90.000000
_cell_angle_gamma 90.000000
_cell_volume 2272.792906
_symmetry_space_group_name_H-M "P N N A"
_symmetry_group_IT_number 52
_symmetry_cell_setting 'orthorhombic'
loop_
_space_group_symop_operation_xyz
x,y,z
1/2-x,-y,z
x,1/2-y,1/2-z
1/2-x,1/2+y,1/2-z
-x,-y,-z
1/2+x,y,-z
-x,1/2+y,1/2+z
1/2+x,1/2-y,1/2+z
loop_
_atom_site_type_symbol
_atom_site_label
_atom_site_fract_x
_atom_site_fract_y
_atom_site_fract_z
Si Si1 0.946371 0.060438 0.529988
Si Si2 0.215811 0.207462 0.914944
Si Si3 0.708471 0.260347 0.660001
Si Si4 0.776994 0.437733 0.279999
Si Si5 0.280884 0.061272 0.292382
Si Si6 0.797566 0.688060 0.975880
Si Si7 0.742994 0.910736 0.041146
O O1 0.721625 0.088103 0.478535
O O2 0.832181 0.064459 0.616124
O O3 0.000000 0.000000 0.500000
O O4 0.450667 0.207471 0.855097
O O5 0.239202 0.153714 0.965394
O O6 0.954831 0.207625 0.868249
O O7 0.240222 0.256352 0.975771
O O8 0.741513 0.250000 0.750000
O O9 0.688472 0.202433 0.615440
O O10 0.750000 0.500000 0.256216
O O11 0.516395 0.410141 0.251282
O O12 0.805156 0.430226 0.371604
O O13 0.016625 0.411315 0.234407
O O14 0.250000 0.000000 0.264053
O O15 0.539809 0.655308 0.992274
O O16 0.507398 0.933559 0.991372
#
# Coordination Sequence:
#
# PCOD8214969 Si02
#       7
#     8   8   8   8   8   8   8
#     4  10  17  24  44  75 101 127 153 194 249 334
#     4  10  19  33  51  75 105 141 171 216 266 309
#     4  10  18  29  48  77 111 136 156 203 262 317
#     4  10  23  36  51  74 104 148 184 237 300 346
#     4  10  18  32  48  68 109 139 159 211 291 352
#     4   8  14  25  41  62  94 130 155 189 239 286
#     4  12  23  38  59  77 100 142 202 243 282 332
#
# _framework density 24.639291
#
# number of rings (size 3 to 8) (size 9 to 14) (size 15 to 20)
#    0.000    2.000    1.429    5.571    4.000    0.571 
#    0.000    0.000    0.000    0.000    0.000    0.000 
#    0.000   68.571    0.000    0.000    0.000    0.000 
#
# Total GULP energy -694017.888250 kJ/mol
# GULP energy per Si atom -12393.176576 kJ/mol
# Density = 2.458321 g / cm^3
# Si number density = 24.639291 Si / 1000 Ang^3
#
#
#
# Elastic Constant Matrix: (Units=GPa)
#
#
# Indices 1 2 3 4 5 6 
#
# 1 283.9735 19.6075 88.4385 0.0000 0.0000 0.0000
# 2 19.6075 34.8938 -1.4057 0.0000 0.0000 0.0000
# 3 88.4385 -1.4057 170.8517 0.0000 0.0000 0.0000
# 4 0.0000 0.0000 0.0000 -6.9819 0.0000 0.0000
# 5 0.0000 0.0000 0.0000 0.0000 51.6941 0.0000
# 6 0.0000 0.0000 0.0000 0.0000 0.0000 17.4283
#
#
#
# Elastic Compliance Matrix: (Units=1/GPa)
#
#
# Indices 1 2 3 4 5 6 
#
# 1 0.004418 -0.002576 -0.002308 0.000000 0.000000 0.000000
# 2 -0.002576 0.030169 0.001581 0.000000 0.000000 0.000000
# 3 -0.002308 0.001581 0.007061 0.000000 0.000000 0.000000
# 4 0.000000 0.000000 0.000000 -0.143227 0.000000 0.000000
# 5 0.000000 0.000000 0.000000 0.000000 0.019345 0.000000
# 6 0.000000 0.000000 0.000000 0.000000 0.000000 0.057378
#
#
# Mechanical properties :
#
#
# Convention : Reuss Voigt Hill
#
# Bulk Modulus (GPa) = 28.53580 78.11106 53.32343
# Shear Modulus (GPa) = -761.00828 37.96668 -361.52080
#
# Velocity S-wave (km/s) = -17.59347 3.92969 -12.12616
# Velocity P-wave (km/s) = 20.02749 7.23606 13.20492
#
# Compressibility (1/GPa) = 0.03504370
#
# Stress axis : x y z
#
# Youngs Moduli (GPa) = 226.34017 33.14616 141.62661
#
# Poissons Ratio (x) = 0.08537 0.32690
# Poissons Ratio (y) = 0.58297 -0.22398
# Poissons Ratio (z) = 0.52243 -0.05242
#
# Static dielectric constant tensor:
#      x y z
#    x 7.475540 0.000000 0.000000 
#    y 0.000000 4.187890 0.000000 
#    z 0.000000 0.000000 4.127710 
# 
# 
# High freq. dielectric constant tensor:
#      x y z
#    x 2.034230 0.000000 0.000000 
#    y 0.000000 1.959370 0.000000 
#    z 0.000000 0.000000 1.965980 
# 
# From -- ./inp_files/23769.got.cif
#   From: 2010.06.25/outbox.cif.g09.slc.cpg/sg52_12_cif.got.tgz:23769.got - 2010.06.26 19:32:48.
