data_PCOD8214048
_publ_section_title
;
Structure prediction by ZEFSAII (Michael W. Deem and Ramdas Pophale) SiO2 
 PCOD8214048
Probable space group: P M M A
;
_chemical_formula_sum "Si O2"
_cell_formula_units_Z 64
_cell_length_a 8.741288
_cell_length_b 23.597310
_cell_length_c 15.568307
_cell_angle_alpha 90.000000
_cell_angle_beta 90.000000
_cell_angle_gamma 90.000000
_cell_volume 3211.288428
_symmetry_space_group_name_H-M "P M M A"
_symmetry_group_IT_number 51
_symmetry_cell_setting 'orthorhombic'
loop_
_space_group_symop_operation_xyz
x,y,z
1/2-x,-y,z
1/2+x,-y,-z
-x,y,-z
-x,-y,-z
1/2+x,y,-z
1/2-x,y,z
x,-y,z
loop_
_atom_site_type_symbol
_atom_site_label
_atom_site_fract_x
_atom_site_fract_y
_atom_site_fract_z
Si Si1 0.431629 0.679180 0.088807
Si Si2 0.068967 0.133049 0.254603
Si Si3 0.069098 0.744694 0.753173
Si Si4 0.074623 0.437559 0.662447
Si Si5 0.927409 0.678053 0.413068
Si Si6 0.430067 0.561595 0.156595
Si Si7 0.069634 0.935851 0.087988
Si Si8 0.573438 0.066903 0.410257
O O1 0.250000 0.681058 0.085587
O O2 0.487033 0.720339 0.163361
O O3 0.494858 0.614716 0.102703
O O4 0.500000 0.702163 0.000000
O O5 0.250000 0.144289 0.254992
O O6 0.014936 0.101670 0.167928
O O7 0.976021 0.190753 0.259961
O O8 0.024352 0.094924 0.335205
O O9 0.250000 0.738059 0.764442
O O10 0.007932 0.710488 0.670116
O O11 0.250000 0.430602 0.692888
O O12 0.046865 0.500000 0.621403
O O13 0.033389 0.388998 0.593989
O O14 0.969298 0.428571 0.744517
O O15 0.750000 0.690059 0.420422
O O16 0.000000 0.702362 0.500000
O O17 0.250000 0.560562 0.147730
O O18 0.496930 0.500000 0.125439
O O19 0.250000 0.934567 0.079507
O O20 0.010060 0.000000 0.102568
O O21 0.000000 0.910605 0.000000
O O22 0.500000 0.086701 0.500000
O O23 0.750000 0.086535 0.406726
O O24 0.558711 0.000000 0.398993
#
# Coordination Sequence:
#
# PCOD8214048 Si02
#       8
#     8   8   8   8   8   8   8   8
#     4  11  23  39  61  86 114 151 194 241 296 357
#     4  11  23  39  61  88 120 159 201 245 296 352
#     4  11  24  43  61  82 115 153 200 252 296 344
#     4   9  17  32  55  82 112 145 182 227 285 349
#     4  10  22  38  58  83 111 147 189 236 291 347
#     4   9  18  33  55  84 115 146 183 231 288 351
#     4   9  19  36  59  88 121 154 188 229 279 336
#     4  10  21  38  62  93 127 162 200 244 296 352
#
# _framework density 19.929694999999999
#
# number of rings (size 3 to 8) (size 9 to 14) (size 15 to 20)
#    0.000    2.000    1.250    1.875    0.000    5.750 
#    0.000    3.750    0.000    0.000    0.000    0.000 
#    0.000    0.000    0.000    0.000    0.000    0.000 
#
# Total GULP energy -793571.464518 kJ/mol
# GULP energy per Si atom -12399.554133 kJ/mol
# Density = 1.988433 g / cm^3
# Si number density = 19.929695 Si / 1000 Ang^3
#
#
#
# Elastic Constant Matrix: (Units=GPa)
#
#
# Indices 1 2 3 4 5 6 
#
# 1 38.7261 21.1262 27.7419 0.0000 0.0000 0.0000
# 2 21.1262 77.4954 49.3176 0.0000 0.0000 0.0000
# 3 27.7419 49.3176 147.6367 0.0000 0.0000 0.0000
# 4 0.0000 0.0000 0.0000 4.0392 0.0000 0.0000
# 5 0.0000 0.0000 0.0000 0.0000 34.7635 0.0000
# 6 0.0000 0.0000 0.0000 0.0000 0.0000 27.9305
#
#
#
# Elastic Compliance Matrix: (Units=1/GPa)
#
#
# Indices 1 2 3 4 5 6 
#
# 1 0.032043 -0.006227 -0.003941 0.000000 0.000000 0.000000
# 2 -0.006227 0.017598 -0.004708 0.000000 0.000000 0.000000
# 3 -0.003941 -0.004708 0.009087 0.000000 0.000000 0.000000
# 4 0.000000 0.000000 0.000000 0.247572 0.000000 0.000000
# 5 0.000000 0.000000 0.000000 0.000000 0.028766 0.000000
# 6 0.000000 0.000000 0.000000 0.000000 0.000000 0.035803
#
#
# Mechanical properties :
#
#
# Convention : Reuss Voigt Hill
#
# Bulk Modulus (GPa) = 34.51336 51.13663 42.82500
# Shear Modulus (GPa) = 12.18682 24.39148 18.28915
#
# Velocity S-wave (km/s) = 2.47552 3.50219 3.03262
# Velocity P-wave (km/s) = 5.05233 6.48598 5.81352
#
# Compressibility (1/GPa) = 0.02897428
#
# Stress axis : x y z
#
# Youngs Moduli (GPa) = 31.20846 56.82451 110.05071
#
# Poissons Ratio (x) = 0.35386 0.43369
# Poissons Ratio (y) = 0.19434 0.51816
# Poissons Ratio (z) = 0.12299 0.26755
#
# Static dielectric constant tensor:
#      x y z
#    x 3.611870 0.000000 0.000000 
#    y 0.000000 3.839680 0.000000 
#    z 0.000000 0.000000 3.640370 
# 
# 
# High freq. dielectric constant tensor:
#      x y z
#    x 1.773490 0.000000 0.000000 
#    y 0.000000 1.780880 0.000000 
#    z 0.000000 0.000000 1.777370 
# 
# From -- ./inp_files/22332.got.cif
#   From: 2010.03.12/outbox.cif.g09.slc.cpg/sg51_12_cif.got.tgz:22332.got - 2010.04.16 13:43:02.
