data_PCOD8214483
_publ_section_title
;
Structure prediction by ZEFSAII (Michael W. Deem and Ramdas Pophale) SiO2 
 PCOD8214483
Probable space group: P M M A
;
_chemical_formula_sum "Si O2"
_cell_formula_units_Z 56
_cell_length_a 8.987631
_cell_length_b 14.702548
_cell_length_c 22.924518
_cell_angle_alpha 90.000000
_cell_angle_beta 90.000000
_cell_angle_gamma 90.000000
_cell_volume 3029.270480
_symmetry_space_group_name_H-M "P M M A"
_symmetry_group_IT_number 51
_symmetry_cell_setting 'orthorhombic'
loop_
_space_group_symop_operation_xyz
x,y,z
1/2-x,-y,z
1/2+x,-y,-z
-x,y,-z
-x,-y,-z
1/2+x,y,-z
1/2-x,y,z
x,-y,z
loop_
_atom_site_type_symbol
_atom_site_label
_atom_site_fract_x
_atom_site_fract_y
_atom_site_fract_z
Si Si1 0.074544 0.104130 0.440224
Si Si2 0.074813 0.787325 0.329568
Si Si3 0.572961 0.721083 0.940531
Si Si4 0.915240 0.651523 0.169401
Si Si5 0.412434 0.150328 0.777786
Si Si6 0.577982 0.599003 0.720364
Si Si7 0.076658 0.900314 0.900836
O O1 0.250000 0.113837 0.447337
O O2 0.011665 0.170778 0.389622
O O3 0.000000 0.136699 0.500000
O O4 0.030249 0.000000 0.425458
O O5 0.250000 0.791587 0.331766
O O6 0.018180 0.682553 0.320133
O O7 0.024446 0.852447 0.276507
O O8 0.750000 0.715017 0.943506
O O9 0.512870 0.655822 0.889355
O O10 0.526024 0.826560 0.932360
O O11 0.500000 0.684611 0.000000
O O12 0.750000 0.612846 0.155470
O O13 0.901776 0.749919 0.196393
O O14 0.995006 0.590034 0.217824
O O15 0.250000 0.118532 0.755314
O O16 0.466609 0.089375 0.832124
O O17 0.750000 0.618442 0.734087
O O18 0.556982 0.500000 0.688925
O O19 0.250000 0.870076 0.906427
O O20 0.050374 0.000000 0.929193
#
# Coordination Sequence:
#
# PCOD8214483 Si02
#       7
#     8   8   8   8   8   8   8
#     4   9  18  32  48  67  93 127 168 210 248 285
#     4   9  17  29  46  69  97 127 159 199 244 288
#     4  11  21  33  49  67  88 118 159 202 245 295
#     4   9  17  31  49  69  94 122 153 190 234 282
#     4   8  15  27  43  64  89 118 151 188 233 285
#     4   9  17  30  50  76 103 130 159 191 233 290
#     4   9  18  32  46  62  89 122 156 198 247 298
#
# _framework density 18.486298000000001
#
# number of rings (size 3 to 8) (size 9 to 14) (size 15 to 20)
#    0.000    2.857    0.000    2.571    0.000    5.429 
#    0.000    0.000    0.000    0.857    0.000    0.000 
#    0.000    0.000    0.000    0.000    0.000    0.000 
#
# Total GULP energy -693922.325212 kJ/mol
# GULP energy per Si atom -12391.470093 kJ/mol
# Density = 1.844422 g / cm^3
# Si number density = 18.486298 Si / 1000 Ang^3
#
#
#
# Elastic Constant Matrix: (Units=GPa)
#
#
# Indices 1 2 3 4 5 6 
#
# 1 70.0613 20.9815 40.7567 0.0000 0.0000 0.0000
# 2 20.9815 64.4659 36.6942 0.0000 0.0000 0.0000
# 3 40.7567 36.6942 122.5359 0.0000 0.0000 0.0000
# 4 0.0000 0.0000 0.0000 15.8453 0.0000 0.0000
# 5 0.0000 0.0000 0.0000 0.0000 30.2597 0.0000
# 6 0.0000 0.0000 0.0000 0.0000 0.0000 12.4240
#
#
#
# Elastic Compliance Matrix: (Units=1/GPa)
#
#
# Indices 1 2 3 4 5 6 
#
# 1 0.018160 -0.002980 -0.005148 0.000000 0.000000 0.000000
# 2 -0.002980 0.019189 -0.004755 0.000000 0.000000 0.000000
# 3 -0.005148 -0.004755 0.011297 0.000000 0.000000 0.000000
# 4 0.000000 0.000000 0.000000 0.063110 0.000000 0.000000
# 5 0.000000 0.000000 0.000000 0.000000 0.033047 0.000000
# 6 0.000000 0.000000 0.000000 0.000000 0.000000 0.080489
#
#
# Mechanical properties :
#
#
# Convention : Reuss Voigt Hill
#
# Bulk Modulus (GPa) = 43.70673 50.43642 47.07157
# Shear Modulus (GPa) = 19.32849 22.28118 20.80483
#
# Velocity S-wave (km/s) = 3.23702 3.47548 3.35837
# Velocity P-wave (km/s) = 6.13719 6.59148 6.36839
#
# Compressibility (1/GPa) = 0.02287977
#
# Stress axis : x y z
#
# Youngs Moduli (GPa) = 55.06476 52.11435 88.51934
#
# Poissons Ratio (x) = 0.15532 0.45568
# Poissons Ratio (y) = 0.16412 0.42089
# Poissons Ratio (z) = 0.28346 0.24779
#
# Static dielectric constant tensor:
#      x y z
#    x 3.455900 0.000000 0.000000 
#    y 0.000000 3.495480 0.000000 
#    z 0.000000 0.000000 3.476660 
# 
# 
# High freq. dielectric constant tensor:
#      x y z
#    x 1.710560 0.000000 0.000000 
#    y 0.000000 1.701480 0.000000 
#    z 0.000000 0.000000 1.698280 
# 
# From -- ./inp_files/32011.got.cif
#   From: 2010.03.12/outbox.cif.g09.slc.cpg/sg51_17_cif.got.tgz:32011.got - 2010.04.16 13:43:02.
