data_PCOD8214034
_publ_section_title
;
Structure prediction by ZEFSAII (Michael W. Deem and Ramdas Pophale) SiO2 
 PCOD8214034
Probable space group: P M M A
;
_chemical_formula_sum "Si O2"
_cell_formula_units_Z 40
_cell_length_a 10.160363
_cell_length_b 12.701202
_cell_length_c 15.612177
_cell_angle_alpha 90.000000
_cell_angle_beta 90.000000
_cell_angle_gamma 90.000000
_cell_volume 2014.733064
_symmetry_space_group_name_H-M "P M M A"
_symmetry_group_IT_number 51
_symmetry_cell_setting 'orthorhombic'
loop_
_space_group_symop_operation_xyz
x,y,z
1/2-x,-y,z
1/2+x,-y,-z
-x,y,-z
-x,-y,-z
1/2+x,y,-z
1/2-x,y,z
x,-y,z
loop_
_atom_site_type_symbol
_atom_site_label
_atom_site_fract_x
_atom_site_fract_y
_atom_site_fract_z
Si Si1 0.903925 0.789318 0.079700
Si Si2 0.405945 0.000000 0.630488
Si Si3 0.250000 0.619775 0.658240
Si Si4 0.250000 0.302985 0.470303
Si Si5 0.474366 0.373376 0.779750
Si Si6 0.250000 0.619530 0.285235
Si Si7 0.500000 0.167661 0.500000
Si Si8 0.595132 0.000000 0.177897
O O1 0.750000 0.797075 0.052097
O O2 0.923639 0.684259 0.135534
O O3 0.950392 0.894738 0.129043
O O4 0.000000 0.777182 0.000000
O O5 0.455720 0.102250 0.581869
O O6 0.465466 0.000000 0.726344
O O7 0.250000 0.000000 0.630942
O O8 0.250000 0.500000 0.684289
O O9 0.250000 0.629890 0.556749
O O10 0.118630 0.667018 0.701537
O O11 0.250000 0.377825 0.388174
O O12 0.379979 0.234638 0.465403
O O13 0.470208 0.500000 0.793172
O O14 0.619284 0.329794 0.755893
O O15 0.250000 0.500000 0.256931
O O16 0.750000 0.000000 0.187249
#
# Coordination Sequence:
#
# PCOD8214034 Si02
#       8
#     8   4   4   4   8   4   4   4
#     4  11  24  42  67  96 125 158 203 258 315 378
#     4  10  21  41  59  82 121 162 207 253 307 362
#     4  10  21  38  62  89 123 167 210 251 299 365
#     4  12  23  35  62  92 126 162 210 257 307 356
#     4  10  22  41  65  92 127 167 210 255 305 374
#     4  10  23  40  58  89 133 169 204 253 309 361
#     4  11  24  36  57  90 122 160 209 268 300 357
#     4   9  22  40  68  89 120 163 207 247 307 380
#
# _framework density 19.853748
#
# number of rings (size 3 to 8) (size 9 to 14) (size 15 to 20)
#    0.000    1.600    2.000    1.800    7.000    0.400 
#    0.000    4.000    2.200    0.000    0.000    0.000 
#    0.000    0.000    0.000    0.000    0.000    0.000 
#
# Total GULP energy -495915.011452 kJ/mol
# GULP energy per Si atom -12397.875286 kJ/mol
# Density = 1.980856 g / cm^3
# Si number density = 19.853748 Si / 1000 Ang^3
#
#
#
# Elastic Constant Matrix: (Units=GPa)
#
#
# Indices 1 2 3 4 5 6 
#
# 1 141.9362 27.5627 41.2230 0.0000 0.0000 0.0000
# 2 27.5627 58.8349 26.1677 0.0000 0.0000 0.0000
# 3 41.2230 26.1677 120.9118 0.0000 0.0000 0.0000
# 4 0.0000 0.0000 0.0000 24.3052 0.0000 0.0000
# 5 0.0000 0.0000 0.0000 0.0000 6.8747 0.0000
# 6 0.0000 0.0000 0.0000 0.0000 0.0000 17.1918
#
#
#
# Elastic Compliance Matrix: (Units=1/GPa)
#
#
# Indices 1 2 3 4 5 6 
#
# 1 0.008241 -0.002889 -0.002184 0.000000 0.000000 0.000000
# 2 -0.002889 0.019820 -0.003304 0.000000 0.000000 0.000000
# 3 -0.002184 -0.003304 0.009730 0.000000 0.000000 0.000000
# 4 0.000000 0.000000 0.000000 0.041144 0.000000 0.000000
# 5 0.000000 0.000000 0.000000 0.000000 0.145462 0.000000
# 6 0.000000 0.000000 0.000000 0.000000 0.000000 0.058167
#
#
# Mechanical properties :
#
#
# Convention : Reuss Voigt Hill
#
# Bulk Modulus (GPa) = 47.53899 56.84329 52.19114
# Shear Modulus (GPa) = 16.32220 24.78962 20.55591
#
# Velocity S-wave (km/s) = 2.87038 3.53740 3.22120
# Velocity P-wave (km/s) = 5.91456 6.73628 6.33875
#
# Compressibility (1/GPa) = 0.02103537
#
# Stress axis : x y z
#
# Youngs Moduli (GPa) = 121.34650 50.45439 102.77131
#
# Poissons Ratio (x) = 0.14577 0.22449
# Poissons Ratio (y) = 0.35058 0.33960
# Poissons Ratio (z) = 0.26506 0.16672
#
# Static dielectric constant tensor:
#      x y z
#    x 3.974170 0.000000 0.000000 
#    y 0.000000 3.571250 0.000000 
#    z 0.000000 0.000000 3.598790 
# 
# 
# High freq. dielectric constant tensor:
#      x y z
#    x 1.783530 0.000000 0.000000 
#    y 0.000000 1.771570 0.000000 
#    z 0.000000 0.000000 1.772670 
# 
# From -- ./inp_files/20647.got.cif
#   From: 2010.03.12/outbox.cif.g09.slc.cpg/sg51_11_cif.got.tgz:20647.got - 2010.04.16 13:43:02.
