data_PCOD8214279
_publ_section_title
;
Structure prediction by ZEFSAII (Michael W. Deem and Ramdas Pophale) SiO2 
 PCOD8214279
Probable space group: P M M A
;
_chemical_formula_sum "Si O2"
_cell_formula_units_Z 64
_cell_length_a 23.514146
_cell_length_b 8.819826
_cell_length_c 15.271211
_cell_angle_alpha 90.000000
_cell_angle_beta 90.000000
_cell_angle_gamma 90.000000
_cell_volume 3167.106777
_symmetry_space_group_name_H-M "P M M A"
_symmetry_group_IT_number 51
_symmetry_cell_setting 'orthorhombic'
loop_
_space_group_symop_operation_xyz
x,y,z
1/2-x,-y,z
1/2+x,-y,-z
-x,y,-z
-x,-y,-z
1/2+x,y,-z
1/2-x,y,z
x,-y,z
loop_
_atom_site_type_symbol
_atom_site_label
_atom_site_fract_x
_atom_site_fract_y
_atom_site_fract_z
Si Si1 0.386299 0.675247 0.413764
Si Si2 0.315294 0.324581 0.244162
Si Si3 0.498878 0.678094 0.846461
Si Si4 0.111804 0.178554 0.093581
Si Si5 0.617045 0.174670 0.410462
Si Si6 0.123717 0.321797 0.914799
Si Si7 0.994512 0.174122 0.661158
Si Si8 0.184224 0.173919 0.758728
O O1 0.404611 0.500000 0.415268
O O2 0.337806 0.705088 0.341915
O O3 0.361669 0.725345 0.507798
O O4 0.440780 0.779526 0.396335
O O5 0.250000 0.272225 0.240154
O O6 0.322055 0.500000 0.218241
O O7 0.351840 0.226584 0.177331
O O8 0.507792 0.500000 0.857471
O O9 0.547771 0.759916 0.901266
O O10 0.438622 0.732319 0.884202
O O11 0.502740 0.718754 0.744991
O O12 0.110384 0.000000 0.088930
O O13 0.140592 0.242890 0.005822
O O14 0.549801 0.196838 0.398205
O O15 0.649023 0.235278 0.324218
O O16 0.633048 0.000000 0.427708
O O17 0.126414 0.500000 0.928297
O O18 0.169674 0.273537 0.843031
O O19 0.988606 0.000000 0.692099
O O20 0.250000 0.192190 0.736302
O O21 0.167584 0.000000 0.778472
#
# Coordination Sequence:
#
# PCOD8214279 Si02
#       8
#     8   8   8   8   8   8   8   8
#     4  11  23  38  61  91 123 160 203 251 304 363
#     4  10  23  44  65  86 119 162 206 256 308 357
#     4  11  22  38  62  92 125 160 198 245 303 366
#     4  12  25  40  64  94 124 160 202 249 303 365
#     4  10  22  39  60  89 125 162 202 248 303 364
#     4  11  24  41  64  92 125 162 201 249 304 363
#     4  11  21  36  61  90 123 162 199 245 305 365
#     4  10  22  42  65  89 121 162 208 257 306 358
#
# _framework density 20.207718
#
# number of rings (size 3 to 8) (size 9 to 14) (size 15 to 20)
#    0.000    1.250    2.500    3.375    0.000    8.000 
#    0.000    0.000    0.000    0.000    0.000    0.000 
#    0.000    0.000    0.000    0.000    0.000    0.000 
#
# Total GULP energy -794064.301923 kJ/mol
# GULP energy per Si atom -12407.254718 kJ/mol
# Density = 2.016172 g / cm^3
# Si number density = 20.207718 Si / 1000 Ang^3
#
#
#
# Elastic Constant Matrix: (Units=GPa)
#
#
# Indices 1 2 3 4 5 6 
#
# 1 77.0432 30.6083 12.3316 0.0000 0.0000 0.0000
# 2 30.6083 78.5298 34.6357 0.0000 0.0000 0.0000
# 3 12.3316 34.6357 110.9532 0.0000 0.0000 0.0000
# 4 0.0000 0.0000 0.0000 38.9688 0.0000 0.0000
# 5 0.0000 0.0000 0.0000 0.0000 15.1457 0.0000
# 6 0.0000 0.0000 0.0000 0.0000 0.0000 24.8258
#
#
#
# Elastic Compliance Matrix: (Units=1/GPa)
#
#
# Indices 1 2 3 4 5 6 
#
# 1 0.015361 -0.006070 0.000188 0.000000 0.000000 0.000000
# 2 -0.006070 0.017166 -0.004684 0.000000 0.000000 0.000000
# 3 0.000188 -0.004684 0.010454 0.000000 0.000000 0.000000
# 4 0.000000 0.000000 0.000000 0.025662 0.000000 0.000000
# 5 0.000000 0.000000 0.000000 0.000000 0.066025 0.000000
# 6 0.000000 0.000000 0.000000 0.000000 0.000000 0.040281
#
#
# Mechanical properties :
#
#
# Convention : Reuss Voigt Hill
#
# Bulk Modulus (GPa) = 45.77000 46.85306 46.31153
# Shear Modulus (GPa) = 24.58645 28.38478 26.48561
#
# Velocity S-wave (km/s) = 3.49189 3.75193 3.62424
# Velocity P-wave (km/s) = 6.24153 6.48116 6.36247
#
# Compressibility (1/GPa) = 0.02184837
#
# Stress axis : x y z
#
# Youngs Moduli (GPa) = 65.09881 58.25552 95.65617
#
# Poissons Ratio (x) = 0.35361 -0.01794
# Poissons Ratio (y) = 0.39515 0.44804
# Poissons Ratio (z) = -0.01221 0.27286
#
# Static dielectric constant tensor:
#      x y z
#    x 3.660910 0.000000 0.000000 
#    y 0.000000 3.648710 0.000000 
#    z 0.000000 0.000000 3.736760 
# 
# 
# High freq. dielectric constant tensor:
#      x y z
#    x 1.783580 0.000000 0.000000 
#    y 0.000000 1.789710 0.000000 
#    z 0.000000 0.000000 1.802310 
# 
# From -- ./inp_files/26354.got.cif
#   From: 2010.03.12/outbox.cif.g09.slc.cpg/sg51_14_cif.got.tgz:26354.got - 2010.04.16 13:43:02.
