data_PCOD8214554
_publ_section_title
;
Structure prediction by ZEFSAII (Michael W. Deem and Ramdas Pophale) SiO2 
 PCOD8214554
Probable space group: P M M A
;
_chemical_formula_sum "Si O2"
_cell_formula_units_Z 48
_cell_length_a 9.108242
_cell_length_b 13.733358
_cell_length_c 23.882284
_cell_angle_alpha 90.000000
_cell_angle_beta 90.000000
_cell_angle_gamma 90.000000
_cell_volume 2987.357244
_symmetry_space_group_name_H-M "P M M A"
_symmetry_group_IT_number 51
_symmetry_cell_setting 'orthorhombic'
loop_
_space_group_symop_operation_xyz
x,y,z
1/2-x,-y,z
1/2+x,-y,-z
-x,y,-z
-x,-y,-z
1/2+x,y,-z
1/2-x,y,z
x,-y,z
loop_
_atom_site_type_symbol
_atom_site_label
_atom_site_fract_x
_atom_site_fract_y
_atom_site_fract_z
Si Si1 0.575246 0.784957 0.942740
Si Si2 0.582576 0.710081 0.227568
Si Si3 0.575427 0.390752 0.674732
Si Si4 0.088341 0.615607 0.447991
Si Si5 0.420469 0.611506 0.887634
Si Si6 0.081095 0.889397 0.844826
O O1 0.750000 0.786121 0.948466
O O2 0.520919 0.676150 0.928101
O O3 0.525084 0.861264 0.895643
O O4 0.500000 0.819304 0.000000
O O5 0.750000 0.697645 0.246576
O O6 0.481866 0.685778 0.280177
O O7 0.545572 0.637107 0.176739
O O8 0.548555 0.820683 0.208454
O O9 0.750000 0.389557 0.674365
O O10 0.519289 0.500000 0.689223
O O11 0.517938 0.359223 0.612813
O O12 0.250000 0.661196 0.451777
O O13 0.096517 0.500000 0.453771
O O14 0.000000 0.661646 0.500000
O O15 0.250000 0.633172 0.901031
O O16 0.461871 0.500000 0.898683
O O17 0.250000 0.873842 0.864198
O O18 0.050255 0.000000 0.826594
#
# Coordination Sequence:
#
# PCOD8214554 Si02
#       6
#     8   8   8   8   8   8
#     4  11  22  35  51  71  94 117 145 180 217 263
#     4   9  17  29  46  68  89 111 144 181 216 258
#     4   9  17  27  39  59  90 125 154 180 214 255
#     4   8  14  24  36  52  78 114 154 189 217 246
#     4   9  18  33  50  67  91 122 153 185 219 255
#     4   9  19  37  56  70  88 114 142 178 225 270
#
# _framework density 16.067713000000001
#
# number of rings (size 3 to 8) (size 9 to 14) (size 15 to 20)
#    0.000    2.833    0.000    4.000    0.000    5.667 
#    0.000    1.667    0.000    0.000    0.000    0.000 
#    0.000    0.667    0.000    1.500    0.000    2.333 
#
# Total GULP energy -595044.951614 kJ/mol
# GULP energy per Si atom -12396.769825 kJ/mol
# Density = 1.603114 g / cm^3
# Si number density = 16.067713 Si / 1000 Ang^3
#
#
#
# Elastic Constant Matrix: (Units=GPa)
#
#
# Indices 1 2 3 4 5 6 
#
# 1 72.8899 27.8494 47.9787 0.0000 0.0000 0.0000
# 2 27.8494 85.1256 35.6786 0.0000 0.0000 0.0000
# 3 47.9787 35.6786 108.6975 0.0000 0.0000 0.0000
# 4 0.0000 0.0000 0.0000 12.0000 0.0000 0.0000
# 5 0.0000 0.0000 0.0000 0.0000 30.0319 0.0000
# 6 0.0000 0.0000 0.0000 0.0000 0.0000 19.2689
#
#
#
# Elastic Compliance Matrix: (Units=1/GPa)
#
#
# Indices 1 2 3 4 5 6 
#
# 1 0.020114 -0.003315 -0.007790 0.000000 0.000000 0.000000
# 2 -0.003315 0.014168 -0.003187 0.000000 0.000000 0.000000
# 3 -0.007790 -0.003187 0.013684 0.000000 0.000000 0.000000
# 4 0.000000 0.000000 0.000000 0.083334 0.000000 0.000000
# 5 0.000000 0.000000 0.000000 0.000000 0.033298 0.000000
# 6 0.000000 0.000000 0.000000 0.000000 0.000000 0.051897
#
#
# Mechanical properties :
#
#
# Convention : Reuss Voigt Hill
#
# Bulk Modulus (GPa) = 51.59614 54.41404 53.00509
# Shear Modulus (GPa) = 19.87762 22.60723 21.24243
#
# Velocity S-wave (km/s) = 3.52108 3.75507 3.63995
# Velocity P-wave (km/s) = 6.97940 7.26221 7.12221
#
# Compressibility (1/GPa) = 0.01938129
#
# Stress axis : x y z
#
# Youngs Moduli (GPa) = 49.71761 70.58284 73.07612
#
# Poissons Ratio (x) = 0.23401 0.56925
# Poissons Ratio (y) = 0.16483 0.23289
# Poissons Ratio (z) = 0.38729 0.22495
#
# Static dielectric constant tensor:
#      x y z
#    x 3.037020 0.000000 0.000000 
#    y 0.000000 2.879050 0.000000 
#    z 0.000000 0.000000 3.084990 
# 
# 
# High freq. dielectric constant tensor:
#      x y z
#    x 1.614270 0.000000 0.000000 
#    y 0.000000 1.585180 0.000000 
#    z 0.000000 0.000000 1.613290 
# 
# From -- ./inp_files/31608.got.cif
#   From: 2010.03.12/outbox.cif.g09.slc.cpg/sg51_16_cif.got.tgz:31608.got - 2010.04.16 13:43:02.
