data_PCOD8214788
_publ_section_title
;
Structure prediction by ZEFSAII (Michael W. Deem and Ramdas Pophale) SiO2 
 PCOD8214788
Probable space group: P M M A
;
_chemical_formula_sum "Si O2"
_cell_formula_units_Z 56
_cell_length_a 9.775641
_cell_length_b 18.475479
_cell_length_c 18.598378
_cell_angle_alpha 90.000000
_cell_angle_beta 90.000000
_cell_angle_gamma 90.000000
_cell_volume 3359.046541
_symmetry_space_group_name_H-M "P M M A"
_symmetry_group_IT_number 51
_symmetry_cell_setting 'orthorhombic'
loop_
_space_group_symop_operation_xyz
x,y,z
1/2-x,-y,z
1/2+x,-y,-z
-x,y,-z
-x,-y,-z
1/2+x,y,-z
1/2-x,y,z
x,-y,z
loop_
_atom_site_type_symbol
_atom_site_label
_atom_site_fract_x
_atom_site_fract_y
_atom_site_fract_z
Si Si1 0.092764 0.299494 0.213266
Si Si2 0.911818 0.845369 0.712802
Si Si3 0.412832 0.079839 0.146434
Si Si4 0.909764 0.416491 0.278362
Si Si5 0.908419 0.084456 0.567177
Si Si6 0.900885 0.585722 0.439839
Si Si7 0.592435 0.780984 0.934753
O O1 0.250000 0.321328 0.226497
O O2 0.047006 0.237356 0.269840
O O3 0.072146 0.272234 0.132278
O O4 0.998053 0.369139 0.223684
O O5 0.750000 0.853403 0.713725
O O6 0.971828 0.897303 0.775404
O O7 0.966429 0.870460 0.635199
O O8 0.250000 0.080559 0.150676
O O9 0.458504 0.138233 0.086837
O O10 0.468823 0.000000 0.126115
O O11 0.750000 0.400561 0.266787
O O12 0.942440 0.500000 0.262262
O O13 0.953534 0.395960 0.359841
O O14 0.750000 0.102440 0.550587
O O15 0.000000 0.108579 0.500000
O O16 0.927045 0.000000 0.584584
O O17 0.750000 0.618737 0.452047
O O18 0.893227 0.500000 0.448924
O O19 0.000000 0.620348 0.500000
O O20 0.750000 0.781672 0.959367
O O21 0.500000 0.752506 0.000000
#
# Coordination Sequence:
#
# PCOD8214788 Si02
#       7
#     8   8   8   8   8   8   8
#     4   9  18  32  49  69  91 116 150 188 222 265
#     4   8  14  26  43  62  86 116 151 189 225 262
#     4   8  13  23  42  67  91 116 149 186 219 254
#     4   9  18  32  49  70  95 120 148 186 231 275
#     4   9  16  26  42  63  86 116 155 196 234 267
#     4   8  14  25  41  62  88 115 142 173 210 254
#     4   9  18  31  47  69  95 121 149 181 218 263
#
# _framework density 16.671396999999999
#
# number of rings (size 3 to 8) (size 9 to 14) (size 15 to 20)
#    0.000    3.429    0.000    3.000    0.000    3.429 
#    0.000    2.857    0.000    4.714    0.000    0.000 
#    0.000    0.000    0.000    0.000    0.000    0.000 
#
# Total GULP energy -694074.657919 kJ/mol
# GULP energy per Si atom -12394.190320 kJ/mol
# Density = 1.663345 g / cm^3
# Si number density = 16.671397 Si / 1000 Ang^3
#
#
#
# Elastic Constant Matrix: (Units=GPa)
#
#
# Indices 1 2 3 4 5 6 
#
# 1 59.5719 41.8567 51.7360 0.0000 0.0000 0.0000
# 2 41.8567 75.8045 43.3964 0.0000 0.0000 0.0000
# 3 51.7360 43.3964 102.7543 0.0000 0.0000 0.0000
# 4 0.0000 0.0000 0.0000 16.6305 0.0000 0.0000
# 5 0.0000 0.0000 0.0000 0.0000 29.5246 0.0000
# 6 0.0000 0.0000 0.0000 0.0000 0.0000 17.6833
#
#
#
# Elastic Compliance Matrix: (Units=1/GPa)
#
#
# Indices 1 2 3 4 5 6 
#
# 1 0.037652 -0.013106 -0.013422 0.000000 0.000000 0.000000
# 2 -0.013106 0.021960 -0.002676 0.000000 0.000000 0.000000
# 3 -0.013422 -0.002676 0.017620 0.000000 0.000000 0.000000
# 4 0.000000 0.000000 0.000000 0.060131 0.000000 0.000000
# 5 0.000000 0.000000 0.000000 0.000000 0.033870 0.000000
# 6 0.000000 0.000000 0.000000 0.000000 0.000000 0.056551
#
#
# Mechanical properties :
#
#
# Convention : Reuss Voigt Hill
#
# Bulk Modulus (GPa) = 53.12375 56.90100 55.01237
# Shear Modulus (GPa) = 17.09596 19.51045 18.30321
#
# Velocity S-wave (km/s) = 3.20576 3.42467 3.31702
# Velocity P-wave (km/s) = 6.75551 7.05994 6.90941
#
# Compressibility (1/GPa) = 0.01882397
#
# Stress axis : x y z
#
# Youngs Moduli (GPa) = 26.55904 45.53645 56.75357
#
# Poissons Ratio (x) = 0.59681 0.76176
# Poissons Ratio (y) = 0.34809 0.15186
# Poissons Ratio (z) = 0.35648 0.12184
#
# Static dielectric constant tensor:
#      x y z
#    x 2.907890 0.000000 0.000000 
#    y 0.000000 2.981520 0.000000 
#    z 0.000000 0.000000 3.144120 
# 
# 
# High freq. dielectric constant tensor:
#      x y z
#    x 1.612510 0.000000 0.000000 
#    y 0.000000 1.622700 0.000000 
#    z 0.000000 0.000000 1.638910 
# 
# From -- ./inp_files/28184.got.cif
#   From: 2010.03.12/outbox.cif.g09.slc.cpg/sg51_15_cif.got.tgz:28184.got - 2010.04.16 13:43:02.
