data_PCOD8214576
_publ_section_title
;
Structure prediction by ZEFSAII (Michael W. Deem and Ramdas Pophale) SiO2 
 PCOD8214576
Probable space group: P M M A
;
_chemical_formula_sum "Si O2"
_cell_formula_units_Z 48
_cell_length_a 19.033681
_cell_length_b 8.512487
_cell_length_c 15.070886
_cell_angle_alpha 90.000000
_cell_angle_beta 90.000000
_cell_angle_gamma 90.000000
_cell_volume 2441.844662
_symmetry_space_group_name_H-M "P M M A"
_symmetry_group_IT_number 51
_symmetry_cell_setting 'orthorhombic'
loop_
_space_group_symop_operation_xyz
x,y,z
1/2-x,-y,z
1/2+x,-y,-z
-x,y,-z
-x,-y,-z
1/2+x,y,-z
1/2-x,y,z
x,-y,z
loop_
_atom_site_type_symbol
_atom_site_label
_atom_site_fract_x
_atom_site_fract_y
_atom_site_fract_z
Si Si1 0.428128 0.682471 0.547410
Si Si2 0.328312 0.814976 0.876229
Si Si3 0.169093 0.817756 0.403867
Si Si4 0.169994 0.684139 0.061480
Si Si5 0.941390 0.184000 0.264288
Si Si6 0.408021 0.683643 0.237268
O O1 0.500000 0.735316 0.500000
O O2 0.430892 0.500000 0.573168
O O3 0.363253 0.714849 0.482697
O O4 0.417813 0.785027 0.635261
O O5 0.250000 0.742596 0.862276
O O6 0.379722 0.752500 0.799653
O O7 0.324061 0.000000 0.870866
O O8 0.358178 0.766105 0.972300
O O9 0.250000 0.769911 0.394108
O O10 0.130490 0.782862 0.312255
O O11 0.159574 0.000000 0.427356
O O12 0.250000 0.735275 0.081765
O O13 0.163892 0.500000 0.046966
O O14 0.121893 0.740223 0.142830
O O15 0.009657 0.283659 0.239808
O O16 0.956312 0.000000 0.250395
O O17 0.393401 0.500000 0.253810
#
# Coordination Sequence:
#
# PCOD8214576 Si02
#       6
#     8   8   8   8   8   8
#     4  11  23  40  62  87 116 154 196 239 291 350
#     4   9  20  39  60  83 113 150 193 241 291 345
#     4  11  24  40  61  90 120 153 195 241 290 347
#     4   9  19  36  58  83 113 152 194 238 289 342
#     4  11  23  38  60  87 117 153 194 243 295 350
#     4  11  22  37  58  86 120 156 195 239 289 348
#
# _framework density 19.657271999999999
#
# number of rings (size 3 to 8) (size 9 to 14) (size 15 to 20)
#    0.000    1.667    1.667    2.500    0.000    6.667 
#    0.000    6.667    0.000    0.000    0.000    0.000 
#    0.000    0.000    0.000    0.000    0.000    0.000 
#
# Total GULP energy -595451.115423 kJ/mol
# GULP energy per Si atom -12405.231571 kJ/mol
# Density = 1.961253 g / cm^3
# Si number density = 19.657272 Si / 1000 Ang^3
#
#
#
# Elastic Constant Matrix: (Units=GPa)
#
#
# Indices 1 2 3 4 5 6 
#
# 1 114.9702 16.4676 71.7724 0.0000 0.0000 0.0000
# 2 16.4676 27.8629 11.1262 0.0000 0.0000 0.0000
# 3 71.7724 11.1262 142.9457 0.0000 0.0000 0.0000
# 4 0.0000 0.0000 0.0000 33.9258 0.0000 0.0000
# 5 0.0000 0.0000 0.0000 0.0000 -10.8285 0.0000
# 6 0.0000 0.0000 0.0000 0.0000 0.0000 26.1136
#
#
#
# Elastic Compliance Matrix: (Units=1/GPa)
#
#
# Indices 1 2 3 4 5 6 
#
# 1 0.013414 -0.005407 -0.006314 0.000000 0.000000 0.000000
# 2 -0.005407 0.039221 -0.000338 0.000000 0.000000 0.000000
# 3 -0.006314 -0.000338 0.010192 0.000000 0.000000 0.000000
# 4 0.000000 0.000000 0.000000 0.029476 0.000000 0.000000
# 5 0.000000 0.000000 0.000000 0.000000 -0.092349 0.000000
# 6 0.000000 0.000000 0.000000 0.000000 0.000000 0.038294
#
#
# Mechanical properties :
#
#
# Convention : Reuss Voigt Hill
#
# Bulk Modulus (GPa) = 25.83385 53.83458 39.83422
# Shear Modulus (GPa) = 66.42810 22.26970 44.34890
#
# Velocity S-wave (km/s) = 5.81949 3.36951 4.75500
# Velocity P-wave (km/s) = 7.63715 6.52565 7.10317
#
# Compressibility (1/GPa) = 0.03870890
#
# Stress axis : x y z
#
# Youngs Moduli (GPa) = 74.54797 25.49685 98.11234
#
# Poissons Ratio (x) = 0.13785 0.61952
# Poissons Ratio (y) = 0.40305 0.03317
# Poissons Ratio (z) = 0.47072 0.00862
#
# Static dielectric constant tensor:
#      x y z
#    x 3.781690 0.000000 0.000000 
#    y 0.000000 3.479220 0.000000 
#    z 0.000000 0.000000 3.681830 
# 
# 
# High freq. dielectric constant tensor:
#      x y z
#    x 1.767010 0.000000 0.000000 
#    y 0.000000 1.764110 0.000000 
#    z 0.000000 0.000000 1.775730 
# 
# From -- ./inp_files/24823.got.cif
#   From: 2010.03.12/outbox.cif.g09.slc.cpg/sg51_13_cif.got.tgz:24823.got - 2010.04.16 13:43:02.
