data_PCOD8214320
_publ_section_title
;
Structure prediction by ZEFSAII (Michael W. Deem and Ramdas Pophale) SiO2 
 PCOD8214320
Probable space group: P M M A
;
_chemical_formula_sum "Si O2"
_cell_formula_units_Z 56
_cell_length_a 15.486985
_cell_length_b 8.885939
_cell_length_c 19.757708
_cell_angle_alpha 90.000000
_cell_angle_beta 90.000000
_cell_angle_gamma 90.000000
_cell_volume 2718.984726
_symmetry_space_group_name_H-M "P M M A"
_symmetry_group_IT_number 51
_symmetry_cell_setting 'orthorhombic'
loop_
_space_group_symop_operation_xyz
x,y,z
1/2-x,-y,z
1/2+x,-y,-z
-x,y,-z
-x,-y,-z
1/2+x,y,-z
1/2-x,y,z
x,-y,z
loop_
_atom_site_type_symbol
_atom_site_label
_atom_site_fract_x
_atom_site_fract_y
_atom_site_fract_z
Si Si1 0.880575 0.675097 0.270769
Si Si2 0.502019 0.668252 0.080056
Si Si3 0.750000 0.677429 0.503960
Si Si4 0.054566 0.825423 0.291158
Si Si5 0.750000 0.175384 0.363409
Si Si6 0.578784 0.174972 0.550882
Si Si7 0.842349 0.830453 0.140403
Si Si8 0.652388 0.675175 0.821990
O O1 0.875329 0.500000 0.284699
O O2 0.837771 0.756284 0.334379
O O3 0.830015 0.719673 0.203648
O O4 0.977601 0.729021 0.259463
O O5 0.524318 0.500000 0.106442
O O6 0.579023 0.782258 0.094140
O O7 0.413250 0.721734 0.116907
O O8 0.500000 0.668008 0.000000
O O9 0.750000 0.500000 0.486749
O O10 0.750000 0.787787 0.441177
O O11 0.837764 0.719204 0.542948
O O12 0.054702 0.796161 0.371265
O O13 0.136539 0.766739 0.248201
O O14 0.041245 0.000000 0.275860
O O15 0.750000 0.000000 0.349998
O O16 0.500000 0.221590 0.500000
O O17 0.602473 0.000000 0.538271
O O18 0.750000 0.821939 0.100887
O O19 0.859309 0.000000 0.166253
O O20 0.750000 0.712423 0.846189
O O21 0.642742 0.500000 0.804839
#
# Coordination Sequence:
#
# PCOD8214320 Si02
#       8
#     8   8   4   8   4   8   8   8
#     4  12  23  37  61  93 127 163 208 261 319 379
#     4  10  22  41  66  95 128 170 217 263 317 381
#     4  12  26  42  64  94 128 167 212 265 324 384
#     4  11  23  39  64  93 123 164 215 268 322 382
#     4  12  24  40  62  90 128 169 210 259 318 386
#     4  10  23  44  66  89 123 170 218 266 321 383
#     4  11  23  39  61  92 130 169 209 256 312 375
#     4  10  22  40  62  91 128 168 211 266 325 382
#
# _framework density 20.595922999999999
#
# number of rings (size 3 to 8) (size 9 to 14) (size 15 to 20)
#    0.000    1.143    2.143    4.286    1.000    4.571 
#    0.000    1.429    0.000    0.000    0.000    0.000 
#    0.000    0.000    0.000    0.000    0.000    0.000 
#
# Total GULP energy -694214.683789 kJ/mol
# GULP energy per Si atom -12396.690782 kJ/mol
# Density = 2.054905 g / cm^3
# Si number density = 20.595923 Si / 1000 Ang^3
#
#
#
# Elastic Constant Matrix: (Units=GPa)
#
#
# Indices 1 2 3 4 5 6 
#
# 1 151.6003 59.6340 43.0679 0.0000 0.0000 0.0000
# 2 59.6340 127.4872 33.1344 0.0000 0.0000 0.0000
# 3 43.0679 33.1344 90.7085 0.0000 0.0000 0.0000
# 4 0.0000 0.0000 0.0000 29.6362 0.0000 0.0000
# 5 0.0000 0.0000 0.0000 0.0000 3.6148 0.0000
# 6 0.0000 0.0000 0.0000 0.0000 0.0000 30.9526
#
#
#
# Elastic Compliance Matrix: (Units=1/GPa)
#
#
# Indices 1 2 3 4 5 6 
#
# 1 0.008738 -0.003325 -0.002934 0.000000 0.000000 0.000000
# 2 -0.003325 0.009932 -0.002049 0.000000 0.000000 0.000000
# 3 -0.002934 -0.002049 0.013166 0.000000 0.000000 0.000000
# 4 0.000000 0.000000 0.000000 0.033743 0.000000 0.000000
# 5 0.000000 0.000000 0.000000 0.000000 0.276641 0.000000
# 6 0.000000 0.000000 0.000000 0.000000 0.000000 0.032307
#
#
# Mechanical properties :
#
#
# Convention : Reuss Voigt Hill
#
# Bulk Modulus (GPa) = 65.70684 71.27430 68.49057
# Shear Modulus (GPa) = 12.61939 28.43802 20.52871
#
# Velocity S-wave (km/s) = 2.47799 3.71989 3.16054
# Velocity P-wave (km/s) = 6.33714 7.28912 6.82974
#
# Compressibility (1/GPa) = 0.01521912
#
# Stress axis : x y z
#
# Youngs Moduli (GPa) = 114.44775 100.68797 75.95278
#
# Poissons Ratio (x) = 0.33474 0.22286
# Poissons Ratio (y) = 0.38049 0.15566
# Poissons Ratio (z) = 0.33581 0.20635
#
# Static dielectric constant tensor:
#      x y z
#    x 3.527660 0.000000 0.000000 
#    y 0.000000 3.779440 0.000000 
#    z 0.000000 0.000000 3.617170 
# 
# 
# High freq. dielectric constant tensor:
#      x y z
#    x 1.818620 0.000000 0.000000 
#    y 0.000000 1.807430 0.000000 
#    z 0.000000 0.000000 1.797960 
# 
# From -- ./inp_files/33613.got.cif
#   From: 2010.03.12/outbox.cif.g09.slc.cpg/sg51_17_cif.got.tgz:33613.got - 2010.04.16 13:43:02.
