data_PCOD8214218
_publ_section_title
;
Structure prediction by ZEFSAII (Michael W. Deem and Ramdas Pophale) SiO2 
 PCOD8214218
Probable space group: P M M A
;
_chemical_formula_sum "Si O2"
_cell_formula_units_Z 64
_cell_length_a 22.980547
_cell_length_b 9.023796
_cell_length_c 15.749469
_cell_angle_alpha 90.000000
_cell_angle_beta 90.000000
_cell_angle_gamma 90.000000
_cell_volume 3265.995233
_symmetry_space_group_name_H-M "P M M A"
_symmetry_group_IT_number 51
_symmetry_cell_setting 'orthorhombic'
loop_
_space_group_symop_operation_xyz
x,y,z
1/2-x,-y,z
1/2+x,-y,-z
-x,y,-z
-x,-y,-z
1/2+x,y,-z
1/2-x,y,z
x,-y,z
loop_
_atom_site_type_symbol
_atom_site_label
_atom_site_fract_x
_atom_site_fract_y
_atom_site_fract_z
Si Si1 0.182733 0.324282 0.167688
Si Si2 0.420265 0.327920 0.718322
Si Si3 0.316163 0.835034 0.474140
Si Si4 0.998031 0.174841 0.598014
Si Si5 0.092341 0.170116 0.051503
Si Si6 0.385186 0.325899 0.336331
Si Si7 0.815462 0.831889 0.329989
Si Si8 0.533957 0.171219 0.122458
O O1 0.250000 0.266361 0.166255
O O2 0.182805 0.500000 0.163686
O O3 0.146426 0.265210 0.086768
O O4 0.150079 0.269296 0.253406
O O5 0.428353 0.500000 0.700932
O O6 0.442485 0.234039 0.637811
O O7 0.352823 0.281701 0.726445
O O8 0.453475 0.284591 0.803067
O O9 0.250000 0.838905 0.443505
O O10 0.348894 0.712219 0.420005
O O11 0.320111 0.787906 0.571548
O O12 0.343758 0.000000 0.460752
O O13 0.946926 0.245692 0.654733
O O14 0.000000 0.225236 0.500000
O O15 0.993236 0.000000 0.606184
O O16 0.032314 0.206609 0.098760
O O17 0.109580 0.000000 0.064403
O O18 0.079947 0.204585 0.952689
O O19 0.396159 0.500000 0.331600
O O20 0.750000 0.814928 0.297436
O O21 0.837073 0.000000 0.316015
O O22 0.540016 0.000000 0.150927
#
# Coordination Sequence:
#
# PCOD8214218 Si02
#       8
#     8   8   8   8   8   8   8   8
#     4  10  22  38  54  78 117 158 188 223 281 346
#     4  12  24  36  55  85 115 142 178 222 270 327
#     4   9  18  33  53  76 102 138 186 231 270 319
#     4  11  24  40  57  78 110 153 194 234 285 338
#     4   9  19  37  62  88 108 135 182 232 273 321
#     4  11  22  35  53  79 111 147 189 234 281 334
#     4   9  19  37  58  77 102 140 182 223 269 318
#     4   9  19  38  62  86 113 142 176 224 279 332
#
# _framework density 19.595863999999999
#
# number of rings (size 3 to 8) (size 9 to 14) (size 15 to 20)
#    0.000    2.000    0.000    5.250    0.000    9.750 
#    0.000    3.125    0.000    0.750    0.000    0.000 
#    0.000    0.000    0.000    0.000    0.000    0.000 
#
# Total GULP energy -793571.803575 kJ/mol
# GULP energy per Si atom -12399.559431 kJ/mol
# Density = 1.955126 g / cm^3
# Si number density = 19.595864 Si / 1000 Ang^3
#
#
#
# Elastic Constant Matrix: (Units=GPa)
#
#
# Indices 1 2 3 4 5 6 
#
# 1 100.8707 36.2024 33.6404 0.0000 0.0000 0.0000
# 2 36.2024 62.6235 32.6192 0.0000 0.0000 0.0000
# 3 33.6404 32.6192 69.6090 0.0000 0.0000 0.0000
# 4 0.0000 0.0000 0.0000 25.6824 0.0000 0.0000
# 5 0.0000 0.0000 0.0000 0.0000 33.1240 0.0000
# 6 0.0000 0.0000 0.0000 0.0000 0.0000 32.5712
#
#
#
# Elastic Compliance Matrix: (Units=1/GPa)
#
#
# Indices 1 2 3 4 5 6 
#
# 1 0.013195 -0.005697 -0.003707 0.000000 0.000000 0.000000
# 2 -0.005697 0.023584 -0.008299 0.000000 0.000000 0.000000
# 3 -0.003707 -0.008299 0.020046 0.000000 0.000000 0.000000
# 4 0.000000 0.000000 0.000000 0.038937 0.000000 0.000000
# 5 0.000000 0.000000 0.000000 0.000000 0.030190 0.000000
# 6 0.000000 0.000000 0.000000 0.000000 0.000000 0.030702
#
#
# Mechanical properties :
#
#
# Convention : Reuss Voigt Hill
#
# Bulk Modulus (GPa) = 46.68497 48.66970 47.67733
# Shear Modulus (GPa) = 25.10054 26.98493 26.04273
#
# Velocity S-wave (km/s) = 3.58286 3.71492 3.64949
# Velocity P-wave (km/s) = 6.40246 6.57963 6.49165
#
# Compressibility (1/GPa) = 0.02142017
#
# Stress axis : x y z
#
# Youngs Moduli (GPa) = 75.78873 42.40108 49.88458
#
# Poissons Ratio (x) = 0.24155 0.18493
# Poissons Ratio (y) = 0.43175 0.41397
# Poissons Ratio (z) = 0.28095 0.35187
#
# Static dielectric constant tensor:
#      x y z
#    x 3.779520 0.000000 0.000000 
#    y 0.000000 3.385540 0.000000 
#    z 0.000000 0.000000 3.493440 
# 
# 
# High freq. dielectric constant tensor:
#      x y z
#    x 1.772580 0.000000 0.000000 
#    y 0.000000 1.753460 0.000000 
#    z 0.000000 0.000000 1.754280 
# 
# From -- ./inp_files/26199.got.cif
#   From: 2010.03.12/outbox.cif.g09.slc.cpg/sg51_14_cif.got.tgz:26199.got - 2010.04.16 13:43:02.
