data_PCOD8214462
_publ_section_title
;
Structure prediction by ZEFSAII (Michael W. Deem and Ramdas Pophale) SiO2 
 PCOD8214462
Probable space group: P M M A
;
_chemical_formula_sum "Si O2"
_cell_formula_units_Z 40
_cell_length_a 25.348884
_cell_length_b 8.982194
_cell_length_c 9.919999
_cell_angle_alpha 90.000000
_cell_angle_beta 90.000000
_cell_angle_gamma 90.000000
_cell_volume 2258.670623
_symmetry_space_group_name_H-M "P M M A"
_symmetry_group_IT_number 51
_symmetry_cell_setting 'orthorhombic'
loop_
_space_group_symop_operation_xyz
x,y,z
1/2-x,-y,z
1/2+x,-y,-z
-x,y,-z
-x,-y,-z
1/2+x,y,-z
1/2-x,y,z
x,-y,z
loop_
_atom_site_type_symbol
_atom_site_label
_atom_site_fract_x
_atom_site_fract_y
_atom_site_fract_z
Si Si1 0.311732 0.670230 0.178338
Si Si2 0.107501 0.677069 0.661195
Si Si3 0.507696 0.335975 0.658783
Si Si4 0.389430 0.825186 0.374394
Si Si5 0.691625 0.323208 0.124976
O O1 0.250000 0.683606 0.209115
O O2 0.330523 0.500000 0.199959
O O3 0.341884 0.779290 0.278196
O O4 0.324031 0.724593 0.026246
O O5 0.111735 0.500000 0.642195
O O6 0.119994 0.750297 0.518395
O O7 0.149298 0.740588 0.769173
O O8 0.048873 0.719710 0.716496
O O9 0.500000 0.346347 0.500000
O O10 0.521829 0.500000 0.716360
O O11 0.555168 0.224610 0.694235
O O12 0.390377 0.000000 0.394160
O O13 0.750000 0.261433 0.161717
O O14 0.692776 0.500000 0.131463
#
# Coordination Sequence:
#
# PCOD8214462 Si02
#       5
#     8   8   8   8   8
#     4   9  18  34  54  72  93 125 162 198 238 285
#     4   9  17  31  52  76  99 124 159 203 245 286
#     4   8  15  29  48  69  95 127 162 199 239 283
#     4  11  21  31  47  72 101 131 162 197 237 284
#     4   8  15  30  53  77  96 118 155 201 245 287
#
# _framework density 17.709531999999999
#
# number of rings (size 3 to 8) (size 9 to 14) (size 15 to 20)
#    0.000    3.000    0.000    4.200    0.000    4.800 
#    0.000    4.000    0.000    7.200    0.000    0.000 
#    0.000    0.000    0.000    0.000    0.000    0.000 
#
# Total GULP energy -495790.390978 kJ/mol
# GULP energy per Si atom -12394.759774 kJ/mol
# Density = 1.766922 g / cm^3
# Si number density = 17.709532 Si / 1000 Ang^3
#
#
#
# Elastic Constant Matrix: (Units=GPa)
#
#
# Indices 1 2 3 4 5 6 
#
# 1 108.7598 37.8535 63.8235 0.0000 0.0000 0.0000
# 2 37.8535 57.0685 33.1629 0.0000 0.0000 0.0000
# 3 63.8235 33.1629 82.7194 0.0000 0.0000 0.0000
# 4 0.0000 0.0000 0.0000 0.8077 0.0000 0.0000
# 5 0.0000 0.0000 0.0000 0.0000 11.0841 0.0000
# 6 0.0000 0.0000 0.0000 0.0000 0.0000 8.3699
#
#
#
# Elastic Compliance Matrix: (Units=1/GPa)
#
#
# Indices 1 2 3 4 5 6 
#
# 1 0.017832 -0.004997 -0.011755 0.000000 0.000000 0.000000
# 2 -0.004997 0.024245 -0.005865 0.000000 0.000000 0.000000
# 3 -0.011755 -0.005865 0.023510 0.000000 0.000000 0.000000
# 4 0.000000 0.000000 0.000000 1.238016 0.000000 0.000000
# 5 0.000000 0.000000 0.000000 0.000000 0.090219 0.000000
# 6 0.000000 0.000000 0.000000 0.000000 0.000000 0.119476
#
#
# Mechanical properties :
#
#
# Convention : Reuss Voigt Hill
#
# Bulk Modulus (GPa) = 49.13096 57.58085 53.35590
# Shear Modulus (GPa) = 3.19424 11.63287 7.41355
#
# Velocity S-wave (km/s) = 1.34447 2.56573 2.04824
# Velocity P-wave (km/s) = 5.49664 6.43132 5.98226
#
# Compressibility (1/GPa) = 0.02035377
#
# Stress axis : x y z
#
# Youngs Moduli (GPa) = 56.07850 41.24519 42.53451
#
# Poissons Ratio (x) = 0.20610 0.50001
# Poissons Ratio (y) = 0.28022 0.24945
# Poissons Ratio (z) = 0.65922 0.24189
#
# Static dielectric constant tensor:
#      x y z
#    x 3.917470 0.000000 0.000000 
#    y 0.000000 2.961220 0.000000 
#    z 0.000000 0.000000 3.166190 
# 
# 
# High freq. dielectric constant tensor:
#      x y z
#    x 1.699090 0.000000 0.000000 
#    y 0.000000 1.651960 0.000000 
#    z 0.000000 0.000000 1.661540 
# 
# From -- ./inp_files/12099.got.cif
#   From: 2010.03.12/outbox.cif.g09.slc.cpg/sg51_7_cif.got.tgz:12099.got - 2010.04.16 13:43:02.
