data_PCOD8214010
_publ_section_title
;
Structure prediction by ZEFSAII (Michael W. Deem and Ramdas Pophale) SiO2 
 PCOD8214010
Probable space group: P M M A
;
_chemical_formula_sum "Si O2"
_cell_formula_units_Z 64
_cell_length_a 17.857568
_cell_length_b 8.948808
_cell_length_c 20.660340
_cell_angle_alpha 90.000000
_cell_angle_beta 90.000000
_cell_angle_gamma 90.000000
_cell_volume 3301.603886
_symmetry_space_group_name_H-M "P M M A"
_symmetry_group_IT_number 51
_symmetry_cell_setting 'orthorhombic'
loop_
_space_group_symop_operation_xyz
x,y,z
1/2-x,-y,z
1/2+x,-y,-z
-x,y,-z
-x,-y,-z
1/2+x,y,-z
1/2-x,y,z
x,-y,z
loop_
_atom_site_type_symbol
_atom_site_label
_atom_site_fract_x
_atom_site_fract_y
_atom_site_fract_z
Si Si1 0.834647 0.675859 0.695040
Si Si2 0.417670 0.177392 0.817593
Si Si3 0.838928 0.170216 0.936593
Si Si4 0.922655 0.322732 0.821982
Si Si5 0.160758 0.833328 0.433229
Si Si6 0.838852 0.665022 0.442919
Si Si7 0.663421 0.676069 0.298616
Si Si8 0.161295 0.331061 0.934630
O O1 0.750000 0.734280 0.707478
O O2 0.834654 0.500000 0.687098
O O3 0.886296 0.727430 0.754171
O O4 0.868540 0.743010 0.628998
O O5 0.499807 0.238812 0.830920
O O6 0.389521 0.229021 0.747600
O O7 0.362480 0.243724 0.870871
O O8 0.417527 0.000000 0.821750
O O9 0.750000 0.173682 0.935002
O O10 0.867459 0.271368 0.878258
O O11 0.868637 0.000000 0.931384
O O12 0.869681 0.242653 0.002956
O O13 0.934281 0.500000 0.825469
O O14 0.250000 0.826916 0.435648
O O15 0.127439 0.767536 0.500143
O O16 0.130212 0.000000 0.426668
O O17 0.750000 0.656962 0.448245
O O18 0.872622 0.500000 0.452548
O O19 0.859651 0.724954 0.371456
O O20 0.750000 0.714729 0.284638
O O21 0.649484 0.500000 0.288197
O O22 0.250000 0.336176 0.935887
O O23 0.128805 0.500000 0.934444
#
# Coordination Sequence:
#
# PCOD8214010 Si02
#       8
#     8   8   8   8   8   8   8   8
#     4   9  18  33  54  78 103 135 177 222 265 313
#     4  12  25  38  54  79 112 146 180 222 274 324
#     4  10  21  38  61  89 118 143 171 215 270 322
#     4  11  23  39  58  79 107 145 188 227 264 314
#     4   9  16  25  42  72 107 138 169 211 264 318
#     4   8  14  26  46  72 102 135 172 216 263 312
#     4   9  18  34  56  80 106 140 182 224 267 319
#     4  10  21  39  63  87 111 142 181 221 260 311
#
# _framework density 19.384518
#
# number of rings (size 3 to 8) (size 9 to 14) (size 15 to 20)
#    0.000    2.250    0.000    4.125    0.000    7.250 
#    0.000    5.000    0.000    0.750    0.000    5.250 
#    0.000    0.000    0.000    0.000    0.000    0.000 
#
# Total GULP energy -793611.654997 kJ/mol
# GULP energy per Si atom -12400.182109 kJ/mol
# Density = 1.934040 g / cm^3
# Si number density = 19.384518 Si / 1000 Ang^3
#
#
#
# Elastic Constant Matrix: (Units=GPa)
#
#
# Indices 1 2 3 4 5 6 
#
# 1 17.3254 19.6928 12.8755 0.0000 0.0000 0.0000
# 2 19.6928 91.4132 50.4105 0.0000 0.0000 0.0000
# 3 12.8755 50.4105 142.4273 0.0000 0.0000 0.0000
# 4 0.0000 0.0000 0.0000 18.1587 0.0000 0.0000
# 5 0.0000 0.0000 0.0000 0.0000 -3.2066 0.0000
# 6 0.0000 0.0000 0.0000 0.0000 0.0000 23.9901
#
#
#
# Elastic Compliance Matrix: (Units=1/GPa)
#
#
# Indices 1 2 3 4 5 6 
#
# 1 0.076643 -0.015768 -0.001348 0.000000 0.000000 0.000000
# 2 -0.015768 0.016836 -0.004534 0.000000 0.000000 0.000000
# 3 -0.001348 -0.004534 0.008748 0.000000 0.000000 0.000000
# 4 0.000000 0.000000 0.000000 0.055070 0.000000 0.000000
# 5 0.000000 0.000000 0.000000 0.000000 -0.311860 0.000000
# 6 0.000000 0.000000 0.000000 0.000000 0.000000 0.041684
#
#
# Mechanical properties :
#
#
# Convention : Reuss Voigt Hill
#
# Bulk Modulus (GPa) = 16.96975 46.34707 31.65841
# Shear Modulus (GPa) = -100.12159 19.00092 -40.56033
#
# Velocity S-wave (km/s) = -7.19461 3.13423 -4.57925
# Velocity P-wave (km/s) = 7.76165 6.08762 3.40472
#
# Compressibility (1/GPa) = 0.05892840
#
# Stress axis : x y z
#
# Youngs Moduli (GPa) = 13.04758 59.39600 114.31755
#
# Poissons Ratio (x) = 0.93653 0.15408
# Poissons Ratio (y) = 0.20573 0.51826
# Poissons Ratio (z) = 0.01759 0.26927
#
# Static dielectric constant tensor:
#      x y z
#    x 3.178660 0.000000 0.000000 
#    y 0.000000 3.682140 0.000000 
#    z 0.000000 0.000000 3.800080 
# 
# 
# High freq. dielectric constant tensor:
#      x y z
#    x 1.715730 0.000000 0.000000 
#    y 0.000000 1.758390 0.000000 
#    z 0.000000 0.000000 1.773980 
# 
# From -- ./inp_files/33802.got.cif
#   From: 2010.03.12/outbox.cif.g09.slc.cpg/sg51_17_cif.got.tgz:33802.got - 2010.04.16 13:43:02.
