data_PCOD8214651
_publ_section_title
;
Structure prediction by ZEFSAII (Michael W. Deem and Ramdas Pophale) SiO2 
 PCOD8214651
Probable space group: P M M A
;
_chemical_formula_sum "Si O2"
_cell_formula_units_Z 52
_cell_length_a 9.800086
_cell_length_b 10.576553
_cell_length_c 28.574238
_cell_angle_alpha 90.000000
_cell_angle_beta 90.000000
_cell_angle_gamma 90.000000
_cell_volume 2961.752029
_symmetry_space_group_name_H-M "P M M A"
_symmetry_group_IT_number 51
_symmetry_cell_setting 'orthorhombic'
loop_
_space_group_symop_operation_xyz
x,y,z
1/2-x,-y,z
1/2+x,-y,-z
-x,y,-z
-x,-y,-z
1/2+x,y,-z
1/2-x,y,z
x,-y,z
loop_
_atom_site_type_symbol
_atom_site_label
_atom_site_fract_x
_atom_site_fract_y
_atom_site_fract_z
Si Si1 0.590849 0.145863 0.130652
Si Si2 0.507606 0.255993 0.599127
Si Si3 0.588430 0.359584 0.203875
Si Si4 0.593930 0.851785 0.958578
Si Si5 0.250000 0.848459 0.546386
Si Si6 0.250000 0.137791 0.443350
Si Si7 0.094227 0.500000 0.455227
Si Si8 0.594262 0.646513 0.307787
O O1 0.750000 0.167346 0.116114
O O2 0.543521 0.244620 0.170440
O O3 0.488609 0.177307 0.088591
O O4 0.571754 0.000000 0.147479
O O5 0.375492 0.211266 0.572722
O O6 0.620923 0.151629 0.590051
O O7 0.565723 0.382605 0.577523
O O8 0.487530 0.270488 0.654732
O O9 0.750000 0.365128 0.207369
O O10 0.537161 0.500000 0.186759
O O11 0.530913 0.331690 0.255974
O O12 0.750000 0.795121 0.957544
O O13 0.607761 0.000000 0.967043
O O14 0.500000 0.792523 0.000000
O O15 0.250000 0.788557 0.493437
O O16 0.250000 0.000000 0.550627
O O17 0.250000 0.000000 0.464552
O O18 0.250000 0.500000 0.472047
O O19 0.000000 0.500000 0.500000
O O20 0.750000 0.692515 0.308969
O O21 0.584930 0.500000 0.321932
#
# Coordination Sequence:
#
# PCOD8214651 Si02
#       8
#     8   8   8   8   4   4   4   8
#     4   9  16  27  46  74 103 130 167 219 264 297
#     4  12  22  37  59  81 107 133 172 218 261 315
#     4   8  15  29  51  74 100 134 173 210 256 314
#     4   9  16  26  43  69 103 141 176 211 256 308
#     4  11  24  41  59  79 103 144 185 211 248 313
#     4  11  24  41  55  71 105 146 175 207 252 311
#     4  12  26  38  56  86 112 134 164 212 273 320
#     4   9  17  32  53  80 105 131 163 209 264 313
#
# _framework density 17.557175999999998
#
# number of rings (size 3 to 8) (size 9 to 14) (size 15 to 20)
#    0.000    2.154    2.308    3.231    1.077    3.077 
#    0.000    1.538    1.692    0.923    0.000    0.000 
#    0.000    0.000    0.000    0.000    0.000    0.000 
#
# Total GULP energy -644303.395735 kJ/mol
# GULP energy per Si atom -12390.449918 kJ/mol
# Density = 1.751722 g / cm^3
# Si number density = 17.557176 Si / 1000 Ang^3
#
#
#
# Elastic Constant Matrix: (Units=GPa)
#
#
# Indices 1 2 3 4 5 6 
#
# 1 115.2052 31.0454 57.3935 0.0000 0.0000 0.0000
# 2 31.0454 68.4545 51.8897 0.0000 0.0000 0.0000
# 3 57.3935 51.8897 136.1416 0.0000 0.0000 0.0000
# 4 0.0000 0.0000 0.0000 33.7719 0.0000 0.0000
# 5 0.0000 0.0000 0.0000 0.0000 16.3033 0.0000
# 6 0.0000 0.0000 0.0000 0.0000 0.0000 18.3002
#
#
#
# Elastic Compliance Matrix: (Units=1/GPa)
#
#
# Indices 1 2 3 4 5 6 
#
# 1 0.011200 -0.002110 -0.003918 0.000000 0.000000 0.000000
# 2 -0.002110 0.020941 -0.007092 0.000000 0.000000 0.000000
# 3 -0.003918 -0.007092 0.011700 0.000000 0.000000 0.000000
# 4 0.000000 0.000000 0.000000 0.029610 0.000000 0.000000
# 5 0.000000 0.000000 0.000000 0.000000 0.061337 0.000000
# 6 0.000000 0.000000 0.000000 0.000000 0.000000 0.054644
#
#
# Mechanical properties :
#
#
# Convention : Reuss Voigt Hill
#
# Bulk Modulus (GPa) = 56.81124 66.71761 61.76442
# Shear Modulus (GPa) = 22.56928 25.63992 24.10460
#
# Velocity S-wave (km/s) = 3.58924 3.82562 3.70931
# Velocity P-wave (km/s) = 7.04308 7.58924 7.32125
#
# Compressibility (1/GPa) = 0.01760215
#
# Stress axis : x y z
#
# Youngs Moduli (GPa) = 89.28221 47.75299 85.47053
#
# Poissons Ratio (x) = 0.10076 0.33484
# Poissons Ratio (y) = 0.18839 0.60616
# Poissons Ratio (z) = 0.34977 0.33867
#
# Static dielectric constant tensor:
#      x y z
#    x 3.129400 0.000000 0.000000 
#    y 0.000000 3.226370 0.000000 
#    z 0.000000 0.000000 3.334000 
# 
# 
# High freq. dielectric constant tensor:
#      x y z
#    x 1.667180 0.000000 0.000000 
#    y 0.000000 1.660830 0.000000 
#    z 0.000000 0.000000 1.676640 
# 
# From -- ./inp_files/36286.got.cif
#   From: 2010.03.12/outbox.cif.g09.slc.cpg/sg51_19_cif.got.tgz:36286.got - 2010.04.16 13:43:02.
