data_PCOD8214394
_publ_section_title
;
Structure prediction by ZEFSAII (Michael W. Deem and Ramdas Pophale) SiO2 
 PCOD8214394
Probable space group: P M M A
;
_chemical_formula_sum "Si O2"
_cell_formula_units_Z 40
_cell_length_a 8.924126
_cell_length_b 14.290962
_cell_length_c 15.582248
_cell_angle_alpha 90.000000
_cell_angle_beta 90.000000
_cell_angle_gamma 90.000000
_cell_volume 1987.271801
_symmetry_space_group_name_H-M "P M M A"
_symmetry_group_IT_number 51
_symmetry_cell_setting 'orthorhombic'
loop_
_space_group_symop_operation_xyz
x,y,z
1/2-x,-y,z
1/2+x,-y,-z
-x,y,-z
-x,-y,-z
1/2+x,y,-z
1/2-x,y,z
x,-y,z
loop_
_atom_site_type_symbol
_atom_site_label
_atom_site_fract_x
_atom_site_fract_y
_atom_site_fract_z
Si Si1 0.422815 0.890792 0.754215
Si Si2 0.927672 0.794828 0.912534
Si Si3 0.427735 0.398742 0.157722
Si Si4 0.923799 0.394186 0.647354
Si Si5 0.573854 0.783010 0.415007
O O1 0.250000 0.865534 0.772797
O O2 0.521693 0.859796 0.834647
O O3 0.481592 0.838908 0.668897
O O4 0.445373 0.000000 0.738886
O O5 0.750000 0.799699 0.919898
O O6 0.986781 0.688019 0.898625
O O7 0.000000 0.833242 0.000000
O O8 0.250000 0.400291 0.157600
O O9 0.487736 0.500000 0.122903
O O10 0.481900 0.384672 0.255057
O O11 0.750000 0.365402 0.639990
O O12 0.948671 0.500000 0.614490
O O13 0.022786 0.324955 0.590369
O O14 0.500000 0.828320 0.500000
O O15 0.750000 0.789495 0.425216
#
# Coordination Sequence:
#
# PCOD8214394 Si02
#       5
#     8   8   8   8   8
#     4  10  23  44  65  85 113 148 190 244 299 347
#     4  11  22  37  61  90 121 155 194 237 286 344
#     4   8  15  30  54  83 116 154 192 231 278 333
#     4   9  17  33  58  85 116 155 196 237 282 335
#     4  11  23  38  60  88 119 152 191 238 290 347
#
# _framework density 20.128097
#
# number of rings (size 3 to 8) (size 9 to 14) (size 15 to 20)
#    0.000    2.200    2.000    2.400    0.000    3.200 
#    0.000    0.000    0.000    1.800    0.000    0.000 
#    0.000    0.000    0.000    0.000    0.000    0.000 
#
# Total GULP energy -495969.484321 kJ/mol
# GULP energy per Si atom -12399.237108 kJ/mol
# Density = 2.008228 g / cm^3
# Si number density = 20.128097 Si / 1000 Ang^3
#
#
#
# Elastic Constant Matrix: (Units=GPa)
#
#
# Indices 1 2 3 4 5 6 
#
# 1 62.7527 32.0579 46.7435 0.0000 0.0000 0.0000
# 2 32.0579 91.8017 46.3307 0.0000 0.0000 0.0000
# 3 46.7435 46.3307 137.8596 0.0000 0.0000 0.0000
# 4 0.0000 0.0000 0.0000 11.1829 0.0000 0.0000
# 5 0.0000 0.0000 0.0000 0.0000 29.4557 0.0000
# 6 0.0000 0.0000 0.0000 0.0000 0.0000 25.7930
#
#
#
# Elastic Compliance Matrix: (Units=1/GPa)
#
#
# Indices 1 2 3 4 5 6 
#
# 1 0.023043 -0.004942 -0.006152 0.000000 0.000000 0.000000
# 2 -0.004942 0.014178 -0.003089 0.000000 0.000000 0.000000
# 3 -0.006152 -0.003089 0.010378 0.000000 0.000000 0.000000
# 4 0.000000 0.000000 0.000000 0.089422 0.000000 0.000000
# 5 0.000000 0.000000 0.000000 0.000000 0.033949 0.000000
# 6 0.000000 0.000000 0.000000 0.000000 0.000000 0.038770
#
#
# Mechanical properties :
#
#
# Convention : Reuss Voigt Hill
#
# Bulk Modulus (GPa) = 51.99620 60.29759 56.14690
# Shear Modulus (GPa) = 20.44843 24.43845 22.44344
#
# Velocity S-wave (km/s) = 3.19080 3.48824 3.34283
# Velocity P-wave (km/s) = 6.28201 6.80042 6.54635
#
# Compressibility (1/GPa) = 0.01923217
#
# Stress axis : x y z
#
# Youngs Moduli (GPa) = 43.39734 70.53271 96.35811
#
# Poissons Ratio (x) = 0.34856 0.59282
# Poissons Ratio (y) = 0.21446 0.29767
# Poissons Ratio (z) = 0.26699 0.21789
#
# Static dielectric constant tensor:
#      x y z
#    x 3.354170 0.000000 0.000000 
#    y 0.000000 3.862230 0.000000 
#    z 0.000000 0.000000 3.676380 
# 
# 
# High freq. dielectric constant tensor:
#      x y z
#    x 1.762460 0.000000 0.000000 
#    y 0.000000 1.785930 0.000000 
#    z 0.000000 0.000000 1.787120 
# 
# From -- ./inp_files/20477.got.cif
#   From: 2010.03.12/outbox.cif.g09.slc.cpg/sg51_11_cif.got.tgz:20477.got - 2010.04.16 13:43:02.
