data_PCOD8214809
_publ_section_title
;
Structure prediction by ZEFSAII (Michael W. Deem and Ramdas Pophale) SiO2 
 PCOD8214809
Probable space group: P M M A
;
_chemical_formula_sum "Si O2"
_cell_formula_units_Z 64
_cell_length_a 9.512221
_cell_length_b 18.338338
_cell_length_c 26.392781
_cell_angle_alpha 90.000000
_cell_angle_beta 90.000000
_cell_angle_gamma 90.000000
_cell_volume 4603.912479
_symmetry_space_group_name_H-M "P M M A"
_symmetry_group_IT_number 51
_symmetry_cell_setting 'orthorhombic'
loop_
_space_group_symop_operation_xyz
x,y,z
1/2-x,-y,z
1/2+x,-y,-z
-x,y,-z
-x,-y,-z
1/2+x,y,-z
1/2-x,y,z
x,-y,z
loop_
_atom_site_type_symbol
_atom_site_label
_atom_site_fract_x
_atom_site_fract_y
_atom_site_fract_z
Si Si1 0.082489 0.581347 0.850846
Si Si2 0.409803 0.086690 0.547027
Si Si3 0.094767 0.803481 0.893078
Si Si4 0.587626 0.915225 0.643245
Si Si5 0.906648 0.285835 0.210239
Si Si6 0.915742 0.663066 0.049597
Si Si7 0.586672 0.168819 0.744268
Si Si8 0.585611 0.082749 0.844613
O O1 0.250000 0.582810 0.851368
O O2 0.023074 0.500000 0.841647
O O3 0.032252 0.634041 0.804693
O O4 0.030129 0.610709 0.905215
O O5 0.500000 0.118051 0.500000
O O6 0.250000 0.117446 0.545718
O O7 0.487811 0.112092 0.598066
O O8 0.406303 0.000000 0.544033
O O9 0.250000 0.834553 0.904672
O O10 0.097782 0.759629 0.841050
O O11 0.048174 0.747330 0.936965
O O12 0.988606 0.871325 0.889222
O O13 0.750000 0.901615 0.628129
O O14 0.542874 0.869652 0.692290
O O15 0.563145 0.000000 0.655545
O O16 0.750000 0.291806 0.233520
O O17 0.005258 0.245640 0.251025
O O18 0.750000 0.653315 0.040263
O O19 0.000000 0.639486 0.000000
O O20 0.750000 0.187631 0.745614
O O21 0.545795 0.114056 0.789519
O O22 0.750000 0.087725 0.854711
O O23 0.531452 0.000000 0.846916
#
# Coordination Sequence:
#
# PCOD8214809 Si02
#       8
#     8   8   8   8   8   8   8   8
#     4   8  14  26  43  60  78 100 123 145 171 206
#     4   9  16  25  36  49  66  91 125 164 202 235
#     4   8  15  27  39  52  71  94 118 142 172 212
#     4   9  16  25  36  50  70  97 128 160 193 228
#     4   8  14  25  40  55  71  94 123 149 171 205
#     4   9  17  28  42  59  77  96 118 144 174 210
#     4   9  16  25  37  53  75 100 121 146 185 226
#     4   9  16  25  38  56  74  91 115 148 183 218
#
# _framework density 13.90122
#
# number of rings (size 3 to 8) (size 9 to 14) (size 15 to 20)
#    0.000    3.375    0.000    2.250    0.000    4.500 
#    0.000    1.875    0.000    3.750    0.000    0.000 
#    0.000    0.000    0.000    0.000    0.000    0.625 
#
# Total GULP energy -793227.421862 kJ/mol
# GULP energy per Si atom -12394.178467 kJ/mol
# Density = 1.386958 g / cm^3
# Si number density = 13.901220 Si / 1000 Ang^3
#
#
#
# Elastic Constant Matrix: (Units=GPa)
#
#
# Indices 1 2 3 4 5 6 
#
# 1 51.2178 36.3230 31.4963 0.0000 0.0000 0.0000
# 2 36.3230 92.1978 37.5135 0.0000 0.0000 0.0000
# 3 31.4963 37.5135 58.0813 0.0000 0.0000 0.0000
# 4 0.0000 0.0000 0.0000 12.1125 0.0000 0.0000
# 5 0.0000 0.0000 0.0000 0.0000 22.8541 0.0000
# 6 0.0000 0.0000 0.0000 0.0000 0.0000 13.7375
#
#
#
# Elastic Compliance Matrix: (Units=1/GPa)
#
#
# Indices 1 2 3 4 5 6 
#
# 1 0.032915 -0.007739 -0.012851 0.000000 0.000000 0.000000
# 2 -0.007739 0.016532 -0.006481 0.000000 0.000000 0.000000
# 3 -0.012851 -0.006481 0.028372 0.000000 0.000000 0.000000
# 4 0.000000 0.000000 0.000000 0.082559 0.000000 0.000000
# 5 0.000000 0.000000 0.000000 0.000000 0.043756 0.000000
# 6 0.000000 0.000000 0.000000 0.000000 0.000000 0.072793
#
#
# Mechanical properties :
#
#
# Convention : Reuss Voigt Hill
#
# Bulk Modulus (GPa) = 42.23380 45.79583 44.01482
# Shear Modulus (GPa) = 14.75087 16.15176 15.45131
#
# Velocity S-wave (km/s) = 3.26102 3.41236 3.33754
# Velocity P-wave (km/s) = 6.68029 6.96712 6.82522
#
# Compressibility (1/GPa) = 0.02367772
#
# Stress axis : x y z
#
# Youngs Moduli (GPa) = 30.38083 60.48811 35.24576
#
# Poissons Ratio (x) = 0.46811 0.45295
# Poissons Ratio (y) = 0.23511 0.22843
# Poissons Ratio (z) = 0.39043 0.39204
#
# Static dielectric constant tensor:
#      x y z
#    x 2.755800 0.000000 0.000000 
#    y 0.000000 2.796630 0.000000 
#    z 0.000000 0.000000 2.607570 
# 
# 
# High freq. dielectric constant tensor:
#      x y z
#    x 1.524990 0.000000 0.000000 
#    y 0.000000 1.503070 0.000000 
#    z 0.000000 0.000000 1.504640 
# 
# From -- ./inp_files/36424.got.cif
#   From: 2010.03.12/outbox.cif.g09.slc.cpg/sg51_19_cif.got.tgz:36424.got - 2010.04.16 13:43:02.
