data_PCOD8214824
_publ_section_title
;
Structure prediction by ZEFSAII (Michael W. Deem and Ramdas Pophale) SiO2 
 PCOD8214824
Probable space group: P M M A
;
_chemical_formula_sum "Si O2"
_cell_formula_units_Z 52
_cell_length_a 9.124772
_cell_length_b 12.766964
_cell_length_c 30.967672
_cell_angle_alpha 90.000000
_cell_angle_beta 90.000000
_cell_angle_gamma 90.000000
_cell_volume 3607.598634
_symmetry_space_group_name_H-M "P M M A"
_symmetry_group_IT_number 51
_symmetry_cell_setting 'orthorhombic'
loop_
_space_group_symop_operation_xyz
x,y,z
1/2-x,-y,z
1/2+x,-y,-z
-x,y,-z
-x,-y,-z
1/2+x,y,-z
1/2-x,y,z
x,-y,z
loop_
_atom_site_type_symbol
_atom_site_label
_atom_site_fract_x
_atom_site_fract_y
_atom_site_fract_z
Si Si1 0.418057 0.000000 0.044086
Si Si2 0.578284 0.773078 0.954292
Si Si3 0.084187 0.624930 0.289446
Si Si4 0.915871 0.375162 0.373685
Si Si5 0.578457 0.620928 0.879732
Si Si6 0.915277 0.624584 0.205809
Si Si7 0.415919 0.375146 0.457884
O O1 0.455857 0.888789 0.067101
O O2 0.250000 0.000000 0.031585
O O3 0.500000 0.000000 0.000000
O O4 0.750000 0.757948 0.962570
O O5 0.520842 0.686978 0.920554
O O6 0.500000 0.756361 0.000000
O O7 0.250000 0.667900 0.290276
O O8 0.084483 0.500000 0.289190
O O9 0.998692 0.667447 0.331349
O O10 0.003162 0.669129 0.246978
O O11 0.750000 0.331996 0.373931
O O12 0.914974 0.500000 0.373773
O O13 0.000503 0.332325 0.415692
O O14 0.750000 0.638297 0.871347
O O15 0.542165 0.500000 0.889218
O O16 0.494159 0.662908 0.837687
O O17 0.750000 0.668520 0.206887
O O18 0.915258 0.500000 0.207594
O O19 0.500000 0.332407 0.500000
O O20 0.250000 0.332036 0.457966
O O21 0.415014 0.500000 0.457872
#
# Coordination Sequence:
#
# PCOD8214824 Si02
#       7
#     4   8   8   8   8   8   8
#     4   8  14  26  42  58  74  92 116 144 172 200
#     4   9  17  28  42  58  75  95 118 144 172 202
#     4   9  15  22  32  44  57  74  96 123 155 190
#     4   9  15  21  28  38  51  66  87 117 151 188
#     4   9  17  28  39  52  72  96 118 139 167 205
#     4   9  16  25  36  49  64  83 107 133 160 192
#     4   9  15  21  27  34  45  62  84 111 147 192
#
# _framework density 14.414021
#
# number of rings (size 3 to 8) (size 9 to 14) (size 15 to 20)
#    0.000    3.077    0.000    1.846    0.000    8.308 
#    0.000    0.000    0.000    0.000    0.000    0.000 
#    0.000    0.000    0.000    0.000    0.000    0.000 
#
# Total GULP energy -644436.800021 kJ/mol
# GULP energy per Si atom -12393.015385 kJ/mol
# Density = 1.438121 g / cm^3
# Si number density = 14.414021 Si / 1000 Ang^3
#
#
#
# Elastic Constant Matrix: (Units=GPa)
#
#
# Indices 1 2 3 4 5 6 
#
# 1 108.7132 20.2250 70.1198 0.0000 0.0000 0.0000
# 2 20.2250 30.4229 33.4112 0.0000 0.0000 0.0000
# 3 70.1198 33.4112 142.5380 0.0000 0.0000 0.0000
# 4 0.0000 0.0000 0.0000 0.4774 0.0000 0.0000
# 5 0.0000 0.0000 0.0000 0.0000 30.9219 0.0000
# 6 0.0000 0.0000 0.0000 0.0000 0.0000 6.1300
#
#
#
# Elastic Compliance Matrix: (Units=1/GPa)
#
#
# Indices 1 2 3 4 5 6 
#
# 1 0.013590 -0.002279 -0.006151 0.000000 0.000000 0.000000
# 2 -0.002279 0.044647 -0.009344 0.000000 0.000000 0.000000
# 3 -0.006151 -0.009344 0.012232 0.000000 0.000000 0.000000
# 4 0.000000 0.000000 0.000000 2.094716 0.000000 0.000000
# 5 0.000000 0.000000 0.000000 0.000000 0.032340 0.000000
# 6 0.000000 0.000000 0.000000 0.000000 0.000000 0.163131
#
#
# Mechanical properties :
#
#
# Convention : Reuss Voigt Hill
#
# Bulk Modulus (GPa) = 28.63682 58.79845 43.71764
# Shear Modulus (GPa) = 2.07655 18.03374 10.05514
#
# Velocity S-wave (km/s) = 1.20157 3.54096 2.64407
# Velocity P-wave (km/s) = 4.67285 7.58940 6.30216
#
# Compressibility (1/GPa) = 0.03492008
#
# Stress axis : x y z
#
# Youngs Moduli (GPa) = 73.58324 22.39782 81.75297
#
# Poissons Ratio (x) = 0.05105 0.50288
# Poissons Ratio (y) = 0.16771 0.76391
# Poissons Ratio (z) = 0.45263 0.20929
#
# Static dielectric constant tensor:
#      x y z
#    x 2.983120 0.000000 0.000000 
#    y 0.000000 2.518990 0.000000 
#    z 0.000000 0.000000 2.920690 
# 
# 
# High freq. dielectric constant tensor:
#      x y z
#    x 1.567450 0.000000 0.000000 
#    y 0.000000 1.464210 0.000000 
#    z 0.000000 0.000000 1.556630 
# 
# From -- ./inp_files/37339.got.cif
#   From: 2010.03.12/outbox.cif.g09.slc.cpg/sg51_19_cif.got.tgz:37339.got - 2010.04.16 13:43:02.
