data_PCOD8214639
_publ_section_title
;
Structure prediction by ZEFSAII (Michael W. Deem and Ramdas Pophale) SiO2 
 PCOD8214639
Probable space group: P M M A
;
_chemical_formula_sum "Si O2"
_cell_formula_units_Z 48
_cell_length_a 9.695767
_cell_length_b 8.692564
_cell_length_c 28.525350
_cell_angle_alpha 90.000000
_cell_angle_beta 90.000000
_cell_angle_gamma 90.000000
_cell_volume 2404.147168
_symmetry_space_group_name_H-M "P M M A"
_symmetry_group_IT_number 51
_symmetry_cell_setting 'orthorhombic'
loop_
_space_group_symop_operation_xyz
x,y,z
1/2-x,-y,z
1/2+x,-y,-z
-x,y,-z
-x,-y,-z
1/2+x,y,-z
1/2-x,y,z
x,-y,z
loop_
_atom_site_type_symbol
_atom_site_label
_atom_site_fract_x
_atom_site_fract_y
_atom_site_fract_z
Si Si1 0.590237 0.320040 0.775420
Si Si2 0.250000 0.818128 0.426920
Si Si3 0.910434 0.820619 0.145192
Si Si4 0.750000 0.181856 0.465471
Si Si5 0.403254 0.823710 0.697211
Si Si6 0.098295 0.182049 0.960369
Si Si7 0.470204 0.680954 0.601113
O O1 0.750000 0.269079 0.779495
O O2 0.578138 0.500000 0.765468
O O3 0.510362 0.280351 0.822964
O O4 0.519866 0.231151 0.732748
O O5 0.250000 0.764767 0.480786
O O6 0.378069 0.749184 0.399389
O O7 0.250000 0.000000 0.422558
O O8 0.750000 0.778729 0.153823
O O9 0.953837 0.779726 0.091950
O O10 0.934511 0.000000 0.156255
O O11 0.613422 0.247057 0.441780
O O12 0.750000 0.000000 0.460500
O O13 0.250000 0.807458 0.720038
O O14 0.402137 0.722676 0.650442
O O15 0.433434 0.000000 0.683784
O O16 0.250000 0.252867 0.967994
O O17 0.105815 0.000000 0.966442
O O18 0.000000 0.255829 0.000000
O O19 0.471998 0.500000 0.594606
#
# Coordination Sequence:
#
# PCOD8214639 Si02
#       7
#     8   4   8   4   8   8   8
#     4  11  25  41  58  84 118 151 190 242 298 352
#     4  11  25  43  65  91 127 169 205 249 300 351
#     4   9  18  34  56  83 115 151 195 242 291 351
#     4  11  23  43  67  93 125 165 211 249 292 355
#     4  11  24  43  67  90 116 152 196 240 291 359
#     4   8  14  25  44  74 111 148 187 235 288 342
#     4  12  25  41  65  95 127 161 201 250 303 357
#
# _framework density 19.965499999999999
#
# number of rings (size 3 to 8) (size 9 to 14) (size 15 to 20)
#    0.000    1.667    0.833    5.000    1.167    8.667 
#    0.000    1.667    0.000    0.500    0.000    0.000 
#    0.000    0.000    0.000    0.000    0.000    0.000 
#
# Total GULP energy -595308.878976 kJ/mol
# GULP energy per Si atom -12402.268312 kJ/mol
# Density = 1.992006 g / cm^3
# Si number density = 19.965500 Si / 1000 Ang^3
#
#
#
# Elastic Constant Matrix: (Units=GPa)
#
#
# Indices 1 2 3 4 5 6 
#
# 1 123.5257 34.7911 41.0147 0.0000 0.0000 0.0000
# 2 34.7911 69.2296 26.7066 0.0000 0.0000 0.0000
# 3 41.0147 26.7066 96.6471 0.0000 0.0000 0.0000
# 4 0.0000 0.0000 0.0000 -2.9004 0.0000 0.0000
# 5 0.0000 0.0000 0.0000 0.0000 40.5925 0.0000
# 6 0.0000 0.0000 0.0000 0.0000 0.0000 35.8249
#
#
#
# Elastic Compliance Matrix: (Units=1/GPa)
#
#
# Indices 1 2 3 4 5 6 
#
# 1 0.010286 -0.003901 -0.003287 0.000000 0.000000 0.000000
# 2 -0.003901 0.017648 -0.003221 0.000000 0.000000 0.000000
# 3 -0.003287 -0.003221 0.012632 0.000000 0.000000 0.000000
# 4 0.000000 0.000000 0.000000 -0.344784 0.000000 0.000000
# 5 0.000000 0.000000 0.000000 0.000000 0.024635 0.000000
# 6 0.000000 0.000000 0.000000 0.000000 0.000000 0.027914
#
#
# Mechanical properties :
#
#
# Convention : Reuss Voigt Hill
#
# Bulk Modulus (GPa) = 50.64047 54.93635 52.78841
# Shear Modulus (GPa) = -22.29461 27.16274 2.43406
#
# Velocity S-wave (km/s) = -3.34527 3.69248 1.10534
# Velocity P-wave (km/s) = 3.24006 6.76421 5.30342
#
# Compressibility (1/GPa) = 0.01974705
#
# Stress axis : x y z
#
# Youngs Moduli (GPa) = 97.22352 56.66454 79.16436
#
# Poissons Ratio (x) = 0.22105 0.26021
# Poissons Ratio (y) = 0.37926 0.25500
# Poissons Ratio (z) = 0.31957 0.18252
#
# Static dielectric constant tensor:
#      x y z
#    x 3.894920 0.000000 0.000000 
#    y 0.000000 3.459140 0.000000 
#    z 0.000000 0.000000 3.719860 
# 
# 
# High freq. dielectric constant tensor:
#      x y z
#    x 1.789190 0.000000 0.000000 
#    y 0.000000 1.764870 0.000000 
#    z 0.000000 0.000000 1.786220 
# 
# From -- ./inp_files/37159.got.cif
#   From: 2010.03.12/outbox.cif.g09.slc.cpg/sg51_19_cif.got.tgz:37159.got - 2010.04.16 13:43:02.
