data_PCOD8214414
_publ_section_title
;
Structure prediction by ZEFSAII (Michael W. Deem and Ramdas Pophale) SiO2 
 PCOD8214414
Probable space group: P M M A
;
_chemical_formula_sum "Si O2"
_cell_formula_units_Z 24
_cell_length_a 19.356821
_cell_length_b 7.709342
_cell_length_c 9.072247
_cell_angle_alpha 90.000000
_cell_angle_beta 90.000000
_cell_angle_gamma 90.000000
_cell_volume 1353.836479
_symmetry_space_group_name_H-M "P M M A"
_symmetry_group_IT_number 51
_symmetry_cell_setting 'orthorhombic'
loop_
_space_group_symop_operation_xyz
x,y,z
1/2-x,-y,z
1/2+x,-y,-z
-x,y,-z
-x,-y,-z
1/2+x,y,-z
1/2-x,y,z
x,-y,z
loop_
_atom_site_type_symbol
_atom_site_label
_atom_site_fract_x
_atom_site_fract_y
_atom_site_fract_z
Si Si1 0.431034 0.194337 0.082040
Si Si2 0.903254 0.500000 0.373574
Si Si3 0.563579 0.500000 0.700952
Si Si4 0.173037 0.692667 0.853472
O O1 0.414230 0.326510 0.213084
O O2 0.441098 0.000000 0.146045
O O3 0.500000 0.260011 0.000000
O O4 0.368784 0.185817 0.964573
O O5 0.893958 0.500000 0.548721
O O6 0.866426 0.672610 0.304766
O O7 0.982545 0.500000 0.327288
O O8 0.250000 0.769398 0.828944
O O9 0.176811 0.500000 0.925358
#
# Coordination Sequence:
#
# PCOD8214414 Si02
#       4
#     8   4   4   8
#     4  11  20  33  56  82 107 139 177 223 270 311
#     4   9  18  31  55  78 105 146 176 210 276 318
#     4  11  18  34  54  79 114 132 173 229 267 316
#     4   9  17  34  55  76 103 141 182 213 257 318
#
# _framework density 17.727398999999998
#
# number of rings (size 3 to 8) (size 9 to 14) (size 15 to 20)
#    1.000    1.000    5.000    0.500    0.000    0.667 
#    0.000    8.333    0.000    0.000    0.000    0.000 
#    0.000    0.000    0.000    0.000    0.000    0.000 
#
# Total GULP energy -297420.795428 kJ/mol
# GULP energy per Si atom -12392.533143 kJ/mol
# Density = 1.768705 g / cm^3
# Si number density = 17.727399 Si / 1000 Ang^3
#
#
#
# Elastic Constant Matrix: (Units=GPa)
#
#
# Indices 1 2 3 4 5 6 
#
# 1 109.1609 7.0038 49.8785 0.0000 0.0000 0.0000
# 2 7.0038 77.0918 47.3044 0.0000 0.0000 0.0000
# 3 49.8785 47.3044 135.7154 0.0000 0.0000 0.0000
# 4 0.0000 0.0000 0.0000 6.9526 0.0000 0.0000
# 5 0.0000 0.0000 0.0000 0.0000 23.9067 0.0000
# 6 0.0000 0.0000 0.0000 0.0000 0.0000 8.7591
#
#
#
# Elastic Compliance Matrix: (Units=1/GPa)
#
#
# Indices 1 2 3 4 5 6 
#
# 1 0.011230 0.001924 -0.004798 0.000000 0.000000 0.000000
# 2 0.001924 0.016830 -0.006573 0.000000 0.000000 0.000000
# 3 -0.004798 -0.006573 0.011423 0.000000 0.000000 0.000000
# 4 0.000000 0.000000 0.000000 0.143831 0.000000 0.000000
# 5 0.000000 0.000000 0.000000 0.000000 0.041829 0.000000
# 6 0.000000 0.000000 0.000000 0.000000 0.000000 0.114167
#
#
# Mechanical properties :
#
#
# Convention : Reuss Voigt Hill
#
# Bulk Modulus (GPa) = 48.57183 58.92681 53.74932
# Shear Modulus (GPa) = 13.69613 22.44245 18.06929
#
# Velocity S-wave (km/s) = 2.78258 3.56192 3.19609
# Velocity P-wave (km/s) = 6.14674 7.08724 6.63368
#
# Compressibility (1/GPa) = 0.02058807
#
# Stress axis : x y z
#
# Youngs Moduli (GPa) = 89.05102 59.41698 87.54468
#
# Poissons Ratio (x) = -0.11430 0.42000
# Poissons Ratio (y) = -0.17130 0.57545
# Poissons Ratio (z) = 0.42723 0.39056
#
# Static dielectric constant tensor:
#      x y z
#    x 3.278120 0.000000 0.000000 
#    y 0.000000 2.968650 0.000000 
#    z 0.000000 0.000000 3.144610 
# 
# 
# High freq. dielectric constant tensor:
#      x y z
#    x 1.686870 0.000000 0.000000 
#    y 0.000000 1.664160 0.000000 
#    z 0.000000 0.000000 1.661620 
# 
# From -- ./inp_files/8913.got.cif
#   From: 2010.03.12/outbox.cif.g09.slc.cpg/sg51_5_cif.got.tgz:8913.got - 2010.04.16 13:43:02.
