data_PCOD8214111
_publ_section_title
;
Structure prediction by ZEFSAII (Michael W. Deem and Ramdas Pophale) SiO2 
 PCOD8214111
Probable space group: P M M A
;
_chemical_formula_sum "Si O2"
_cell_formula_units_Z 48
_cell_length_a 9.531971
_cell_length_b 28.379961
_cell_length_c 9.146534
_cell_angle_alpha 90.000000
_cell_angle_beta 90.000000
_cell_angle_gamma 90.000000
_cell_volume 2474.292620
_symmetry_space_group_name_H-M "P M M A"
_symmetry_group_IT_number 51
_symmetry_cell_setting 'orthorhombic'
loop_
_space_group_symop_operation_xyz
x,y,z
1/2-x,-y,z
1/2+x,-y,-z
-x,y,-z
-x,-y,-z
1/2+x,y,-z
1/2-x,y,z
x,-y,z
loop_
_atom_site_type_symbol
_atom_site_label
_atom_site_fract_x
_atom_site_fract_y
_atom_site_fract_z
Si Si1 0.415011 0.797116 0.146494
Si Si2 0.590788 0.053091 0.134046
Si Si3 0.088491 0.312341 0.142999
Si Si4 0.504687 0.603673 0.673916
Si Si5 0.415787 0.135844 0.646685
Si Si6 0.250000 0.554988 0.165471
Si Si7 0.750000 0.443388 0.168363
O O1 0.250000 0.812644 0.133895
O O2 0.424641 0.742194 0.184372
O O3 0.499873 0.822842 0.273389
O O4 0.500000 0.809300 0.000000
O O5 0.750000 0.054008 0.079528
O O6 0.568428 0.086450 0.271266
O O7 0.544469 0.000000 0.177745
O O8 0.500000 0.072754 0.000000
O O9 0.250000 0.326497 0.114545
O O10 0.026346 0.342025 0.277849
O O11 0.000000 0.324982 0.000000
O O12 0.500000 0.602066 0.500000
O O13 0.622018 0.570964 0.739258
O O14 0.373267 0.579773 0.744104
O O15 0.500000 0.127489 0.500000
O O16 0.250000 0.148932 0.625232
O O17 0.250000 0.500000 0.149288
O O18 0.250000 0.574794 0.999498
O O19 0.750000 0.500000 0.179517
#
# Coordination Sequence:
#
# PCOD8214111 Si02
#       7
#     8   8   8   8   8   4   4
#     4  10  21  39  63  90 119 155 200 251 301 361
#     4   9  19  36  58  84 115 153 200 253 306 364
#     4  10  22  41  65  91 119 156 200 244 294 361
#     4  12  25  40  61  93 126 157 195 248 308 359
#     4  11  23  38  57  85 121 162 205 252 310 368
#     4  11  23  43  67  87 117 159 205 249 292 361
#     4  11  25  43  65  91 119 161 207 245 296 359
#
# _framework density 19.399483
#
# number of rings (size 3 to 8) (size 9 to 14) (size 15 to 20)
#    0.000    1.500    0.833    4.000    1.167    7.667 
#    0.000    0.000    0.000    0.000    0.000    0.000 
#    0.000    0.000    0.000    0.000    0.000    0.000 
#
# Total GULP energy -595012.592214 kJ/mol
# GULP energy per Si atom -12396.095671 kJ/mol
# Density = 1.935533 g / cm^3
# Si number density = 19.399483 Si / 1000 Ang^3
#
#
#
# Elastic Constant Matrix: (Units=GPa)
#
#
# Indices 1 2 3 4 5 6 
#
# 1 174.4746 58.9715 91.3136 0.0000 0.0000 0.0000
# 2 58.9715 83.5795 62.0845 0.0000 0.0000 0.0000
# 3 91.3136 62.0845 174.8050 0.0000 0.0000 0.0000
# 4 0.0000 0.0000 0.0000 25.6560 0.0000 0.0000
# 5 0.0000 0.0000 0.0000 0.0000 41.3486 0.0000
# 6 0.0000 0.0000 0.0000 0.0000 0.0000 33.5581
#
#
#
# Elastic Compliance Matrix: (Units=1/GPa)
#
#
# Indices 1 2 3 4 5 6 
#
# 1 0.008671 -0.003740 -0.003201 0.000000 0.000000 0.000000
# 2 -0.003740 0.017866 -0.004391 0.000000 0.000000 0.000000
# 3 -0.003201 -0.004391 0.008953 0.000000 0.000000 0.000000
# 4 0.000000 0.000000 0.000000 0.038977 0.000000 0.000000
# 5 0.000000 0.000000 0.000000 0.000000 0.024185 0.000000
# 6 0.000000 0.000000 0.000000 0.000000 0.000000 0.029799
#
#
# Mechanical properties :
#
#
# Convention : Reuss Voigt Hill
#
# Bulk Modulus (GPa) = 77.98079 95.28869 86.63474
# Shear Modulus (GPa) = 32.17706 34.81187 33.49446
#
# Velocity S-wave (km/s) = 4.07708 4.24072 4.15970
# Velocity P-wave (km/s) = 7.90241 8.55594 8.23566
#
# Compressibility (1/GPa) = 0.01282367
#
# Stress axis : x y z
#
# Youngs Moduli (GPa) = 115.32683 55.97318 111.70008
#
# Poissons Ratio (x) = 0.20935 0.35757
# Poissons Ratio (y) = 0.43134 0.49053
# Poissons Ratio (z) = 0.36918 0.24581
#
# Static dielectric constant tensor:
#      x y z
#    x 3.821320 0.000000 0.000000 
#    y 0.000000 3.752710 0.000000 
#    z 0.000000 0.000000 3.558310 
# 
# 
# High freq. dielectric constant tensor:
#      x y z
#    x 1.776640 0.000000 0.000000 
#    y 0.000000 1.769970 0.000000 
#    z 0.000000 0.000000 1.749990 
# 
# From -- ./inp_files/6196.got.cif
#   From: 2010.03.12/outbox.cif.g09.slc.cpg/sg51_4_cif.got.tgz:6196.got - 2010.04.16 13:43:02.
