data_PCOD8214839
_publ_section_title
;
Structure prediction by ZEFSAII (Michael W. Deem and Ramdas Pophale) SiO2 
 PCOD8214839
Probable space group: P M M A
;
_chemical_formula_sum "Si O2"
_cell_formula_units_Z 40
_cell_length_a 9.308183
_cell_length_b 19.020306
_cell_length_c 13.766040
_cell_angle_alpha 90.000000
_cell_angle_beta 90.000000
_cell_angle_gamma 90.000000
_cell_volume 2437.201517
_symmetry_space_group_name_H-M "P M M A"
_symmetry_group_IT_number 51
_symmetry_cell_setting 'orthorhombic'
loop_
_space_group_symop_operation_xyz
x,y,z
1/2-x,-y,z
1/2+x,-y,-z
-x,y,-z
-x,-y,-z
1/2+x,y,-z
1/2-x,y,z
x,-y,z
loop_
_atom_site_type_symbol
_atom_site_label
_atom_site_fract_x
_atom_site_fract_y
_atom_site_fract_z
Si Si1 0.919380 0.154988 0.097460
Si Si2 0.079290 0.212375 0.598179
Si Si3 0.919591 0.711562 0.212507
Si Si4 0.581862 0.421063 0.098544
Si Si5 0.920042 0.922688 0.288954
O O1 0.750000 0.153443 0.077895
O O2 0.972552 0.232104 0.132529
O O3 0.965410 0.099609 0.180404
O O4 0.000000 0.133246 0.000000
O O5 0.250000 0.215244 0.582481
O O6 0.025993 0.268466 0.679638
O O7 0.027481 0.134629 0.632265
O O8 0.000000 0.233349 0.500000
O O9 0.750000 0.717323 0.216233
O O10 0.970589 0.633440 0.181527
O O11 0.750000 0.411869 0.077141
O O12 0.546310 0.500000 0.134887
O O13 0.500000 0.403433 0.000000
O O14 0.750000 0.924893 0.293392
O O15 0.985190 0.000000 0.312644
#
# Coordination Sequence:
#
# PCOD8214839 Si02
#       5
#     8   8   8   8   8
#     4   9  16  26  41  59  80 108 138 165 194 233
#     4   9  17  30  47  63  79 102 134 171 207 243
#     4   8  15  28  43  59  82 111 138 162 196 245
#     4   9  16  26  42  64  88 113 139 165 194 231
#     4   8  15  28  43  58  79 108 136 160 197 250
#
# _framework density 16.412265000000001
#
# number of rings (size 3 to 8) (size 9 to 14) (size 15 to 20)
#    0.000    3.400    0.000    3.000    0.000    0.800 
#    0.000    5.000    0.000    1.800    0.000    0.000 
#    0.000    0.000    0.000    0.000    0.000    0.000 
#
# Total GULP energy -495678.355693 kJ/mol
# GULP energy per Si atom -12391.958892 kJ/mol
# Density = 1.637491 g / cm^3
# Si number density = 16.412265 Si / 1000 Ang^3
#
#
#
# Elastic Constant Matrix: (Units=GPa)
#
#
# Indices 1 2 3 4 5 6 
#
# 1 24.1356 19.6268 27.5717 0.0000 0.0000 0.0000
# 2 19.6268 125.8657 57.6817 0.0000 0.0000 0.0000
# 3 27.5717 57.6817 113.2933 0.0000 0.0000 0.0000
# 4 0.0000 0.0000 0.0000 19.7967 0.0000 0.0000
# 5 0.0000 0.0000 0.0000 0.0000 29.0939 0.0000
# 6 0.0000 0.0000 0.0000 0.0000 0.0000 12.6632
#
#
#
# Elastic Compliance Matrix: (Units=1/GPa)
#
#
# Indices 1 2 3 4 5 6 
#
# 1 0.058473 -0.003387 -0.012506 0.000000 0.000000 0.000000
# 2 -0.003387 0.010559 -0.004552 0.000000 0.000000 0.000000
# 3 -0.012506 -0.004552 0.014188 0.000000 0.000000 0.000000
# 4 0.000000 0.000000 0.000000 0.050514 0.000000 0.000000
# 5 0.000000 0.000000 0.000000 0.000000 0.034371 0.000000
# 6 0.000000 0.000000 0.000000 0.000000 0.000000 0.078969
#
#
# Mechanical properties :
#
#
# Convention : Reuss Voigt Hill
#
# Bulk Modulus (GPa) = 23.62349 52.56167 38.09258
# Shear Modulus (GPa) = 16.55228 22.87172 19.71200
#
# Velocity S-wave (km/s) = 3.17918 3.73711 3.46938
# Velocity P-wave (km/s) = 5.28217 7.12157 6.26969
#
# Compressibility (1/GPa) = 0.04233074
#
# Stress axis : x y z
#
# Youngs Moduli (GPa) = 17.10187 94.70527 70.48364
#
# Poissons Ratio (x) = 0.32074 0.88147
# Poissons Ratio (y) = 0.05792 0.32083
# Poissons Ratio (z) = 0.21388 0.43108
#
# Static dielectric constant tensor:
#      x y z
#    x 2.674940 0.000000 0.000000 
#    y 0.000000 3.523260 0.000000 
#    z 0.000000 0.000000 3.065750 
# 
# 
# High freq. dielectric constant tensor:
#      x y z
#    x 1.591120 0.000000 0.000000 
#    y 0.000000 1.633050 0.000000 
#    z 0.000000 0.000000 1.623270 
# 
# From -- ./inp_files/6964.got.cif
#   From: 2010.03.12/outbox.cif.g09.slc.cpg/sg51_4_cif.got.tgz:6964.got - 2010.04.16 13:43:02.
