data_PCOD8214941
_publ_section_title
;
Structure prediction by ZEFSAII (Michael W. Deem and Ramdas Pophale) SiO2 
 PCOD8214941
Probable space group: P N N A
;
_chemical_formula_sum "Si O2"
_cell_formula_units_Z 60
_cell_length_a 14.346743
_cell_length_b 21.711037
_cell_length_c 11.485330
_cell_angle_alpha 90.000000
_cell_angle_beta 90.000000
_cell_angle_gamma 90.000000
_cell_volume 3577.481232
_symmetry_space_group_name_H-M "P N N A"
_symmetry_group_IT_number 52
_symmetry_cell_setting 'orthorhombic'
loop_
_space_group_symop_operation_xyz
x,y,z
1/2-x,-y,z
x,1/2-y,1/2-z
1/2-x,1/2+y,1/2-z
-x,-y,-z
1/2+x,y,-z
-x,1/2+y,1/2+z
1/2+x,1/2-y,1/2+z
loop_
_atom_site_type_symbol
_atom_site_label
_atom_site_fract_x
_atom_site_fract_y
_atom_site_fract_z
Si Si1 0.934954 0.077269 0.606611
Si Si2 0.495248 0.166404 0.767829
Si Si3 0.671018 0.750000 0.250000
Si Si4 0.264891 0.933427 0.463904
Si Si5 0.074915 0.253808 0.063610
Si Si6 0.761782 0.300536 0.020213
Si Si7 0.970163 0.945104 0.634319
Si Si8 0.054800 0.788155 0.366281
O O1 0.822886 0.073169 0.624489
O O2 0.972075 0.140670 0.664450
O O3 0.960929 0.075380 0.469364
O O4 0.983870 0.017539 0.664982
O O5 0.390996 0.191170 0.789336
O O6 0.528175 0.195063 0.645271
O O7 0.500773 0.092882 0.750185
O O8 0.560193 0.186911 0.876265
O O9 0.737167 0.732236 0.144169
O O10 0.261178 0.872863 0.545390
O O11 0.362335 0.932363 0.396268
O O12 0.250000 0.000000 0.529644
O O13 0.183793 0.267533 0.056999
O O14 0.029544 0.255896 0.935341
O O15 0.857038 0.290699 0.951338
O O16 0.075963 0.750000 0.250000
#
# Coordination Sequence:
#
# PCOD8214941 Si02
#       8
#     8   8   4   8   8   8   8   8
#     4   9  18  29  45  76  99 127 164 204 259 298
#     4  10  17  34  51  69 102 132 164 212 235 301
#     4  10  20  32  50  70 104 130 168 212 244 296
#     4   9  17  27  45  72 102 123 156 207 253 303
#     4  10  20  31  47  73  99 129 170 193 251 297
#     4  11  19  33  49  74  98 133 167 200 254 298
#     4  10  16  30  52  68 101 130 162 212 250 292
#     4  11  21  33  48  73 109 127 158 212 248 298
#
# _framework density 16.771577000000001
#
# number of rings (size 3 to 8) (size 9 to 14) (size 15 to 20)
#    0.000    2.133    5.333    0.800    2.800    0.000 
#    0.000    0.000    0.000    0.800    0.000    0.000 
#    0.000    0.000    0.000    0.000    0.000    0.000 
#
# Total GULP energy -743457.926767 kJ/mol
# GULP energy per Si atom -12390.965446 kJ/mol
# Density = 1.673340 g / cm^3
# Si number density = 16.771577 Si / 1000 Ang^3
#
#
#
# Elastic Constant Matrix: (Units=GPa)
#
#
# Indices 1 2 3 4 5 6 
#
# 1 50.4374 15.6351 6.7246 0.0000 0.0000 0.0000
# 2 15.6351 139.2142 53.0009 0.0000 0.0000 0.0000
# 3 6.7246 53.0009 56.0979 0.0000 0.0000 0.0000
# 4 0.0000 0.0000 0.0000 25.9726 0.0000 0.0000
# 5 0.0000 0.0000 0.0000 0.0000 17.8185 0.0000
# 6 0.0000 0.0000 0.0000 0.0000 0.0000 17.3366
#
#
#
# Elastic Compliance Matrix: (Units=1/GPa)
#
#
# Indices 1 2 3 4 5 6 
#
# 1 0.020549 -0.002140 -0.000442 0.000000 0.000000 0.000000
# 2 -0.002140 0.011441 -0.010553 0.000000 0.000000 0.000000
# 3 -0.000442 -0.010553 0.027849 0.000000 0.000000 0.000000
# 4 0.000000 0.000000 0.000000 0.038502 0.000000 0.000000
# 5 0.000000 0.000000 0.000000 0.000000 0.056121 0.000000
# 6 0.000000 0.000000 0.000000 0.000000 0.000000 0.057682
#
#
# Mechanical properties :
#
#
# Convention : Reuss Voigt Hill
#
# Bulk Modulus (GPa) = 29.78809 44.05230 36.92019
# Shear Modulus (GPa) = 20.03179 23.58480 21.80830
#
# Velocity S-wave (km/s) = 3.45974 3.75405 3.60990
# Velocity P-wave (km/s) = 5.81028 6.71666 6.27985
#
# Compressibility (1/GPa) = 0.03357047
#
# Stress axis : x y z
#
# Youngs Moduli (GPa) = 48.66480 87.40347 35.90745
#
# Poissons Ratio (x) = 0.18702 0.01586
# Poissons Ratio (y) = 0.10413 0.37893
# Poissons Ratio (z) = 0.02149 0.92237
#
# Static dielectric constant tensor:
#      x y z
#    x 3.233430 0.000000 0.000000 
#    y 0.000000 3.647500 0.000000 
#    z 0.000000 0.000000 2.757680 
# 
# 
# High freq. dielectric constant tensor:
#      x y z
#    x 1.656400 0.000000 0.000000 
#    y 0.000000 1.651050 0.000000 
#    z 0.000000 0.000000 1.586440 
# 
# From -- ./inp_files/10983.got.cif
#   From: 2010.06.25/outbox.cif.g09.slc.cpg/sg52_6_cif.got.tgz:10983.got - 2010.06.26 19:32:48.
