data_PCOD8214694
_publ_section_title
;
Structure prediction by ZEFSAII (Michael W. Deem and Ramdas Pophale) SiO2 
 PCOD8214694
Probable space group: P M M A
;
_chemical_formula_sum "Si O2"
_cell_formula_units_Z 56
_cell_length_a 18.227553
_cell_length_b 9.610771
_cell_length_c 19.190094
_cell_angle_alpha 90.000000
_cell_angle_beta 90.000000
_cell_angle_gamma 90.000000
_cell_volume 3361.736744
_symmetry_space_group_name_H-M "P M M A"
_symmetry_group_IT_number 51
_symmetry_cell_setting 'orthorhombic'
loop_
_space_group_symop_operation_xyz
x,y,z
1/2-x,-y,z
1/2+x,-y,-z
-x,y,-z
-x,-y,-z
1/2+x,y,-z
1/2-x,y,z
x,-y,z
loop_
_atom_site_type_symbol
_atom_site_label
_atom_site_fract_x
_atom_site_fract_y
_atom_site_fract_z
Si Si1 0.074670 0.834927 0.916887
Si Si2 0.331408 0.165696 0.202441
Si Si3 0.479301 0.662777 0.577345
Si Si4 0.542449 0.159156 0.696293
Si Si5 0.388777 0.841076 0.768470
Si Si6 0.089254 0.834517 0.067979
Si Si7 0.168631 0.340282 0.648952
O O1 0.118380 0.783708 0.848032
O O2 0.991961 0.775118 0.917045
O O3 0.069440 0.000000 0.911704
O O4 0.114398 0.789472 0.989401
O O5 0.250000 0.222158 0.219025
O O6 0.386422 0.216490 0.262781
O O7 0.355788 0.224928 0.126649
O O8 0.332867 0.000000 0.199896
O O9 0.500000 0.711023 0.500000
O O10 0.494243 0.500000 0.587917
O O11 0.532571 0.745822 0.628653
O O12 0.393802 0.701095 0.592645
O O13 0.473769 0.171796 0.747728
O O14 0.553162 0.000000 0.671810
O O15 0.338085 0.748785 0.719116
O O16 0.361643 0.000000 0.761808
O O17 0.087358 0.000000 0.072000
O O18 0.250000 0.314439 0.616757
O O19 0.158413 0.500000 0.670788
#
# Coordination Sequence:
#
# PCOD8214694 Si02
#       7
#     8   8   8   8   8   8   8
#     4   8  12  19  34  56  83 113 147 187 224 256
#     4   9  15  23  36  56  86 121 153 185 221 261
#     4   9  18  33  52  71  89 111 142 178 211 251
#     4   9  16  27  44  66  90 115 146 179 215 258
#     4   9  15  25  43  66  89 114 146 184 220 254
#     4   8  12  19  32  53  82 117 152 183 220 262
#     4   9  18  32  48  66  89 117 144 171 212 264
#
# _framework density 16.658055999999998
#
# number of rings (size 3 to 8) (size 9 to 14) (size 15 to 20)
#    0.000    3.286    1.429    0.857    0.000    0.571 
#    0.000    1.429    0.000    3.857    0.000    3.000 
#    0.000    0.000    0.000    0.000    0.000    0.000 
#
# Total GULP energy -693902.070709 kJ/mol
# GULP energy per Si atom -12391.108406 kJ/mol
# Density = 1.662014 g / cm^3
# Si number density = 16.658056 Si / 1000 Ang^3
#
#
#
# Elastic Constant Matrix: (Units=GPa)
#
#
# Indices 1 2 3 4 5 6 
#
# 1 96.7896 20.8876 59.4898 0.0000 0.0000 0.0000
# 2 20.8876 27.4029 36.5995 0.0000 0.0000 0.0000
# 3 59.4898 36.5995 149.1810 0.0000 0.0000 0.0000
# 4 0.0000 0.0000 0.0000 7.1168 0.0000 0.0000
# 5 0.0000 0.0000 0.0000 0.0000 20.5250 0.0000
# 6 0.0000 0.0000 0.0000 0.0000 0.0000 11.4822
#
#
#
# Elastic Compliance Matrix: (Units=1/GPa)
#
#
# Indices 1 2 3 4 5 6 
#
# 1 0.014101 -0.004816 -0.004442 0.000000 0.000000 0.000000
# 2 -0.004816 0.055923 -0.011799 0.000000 0.000000 0.000000
# 3 -0.004442 -0.011799 0.011369 0.000000 0.000000 0.000000
# 4 0.000000 0.000000 0.000000 0.140512 0.000000 0.000000
# 5 0.000000 0.000000 0.000000 0.000000 0.048721 0.000000
# 6 0.000000 0.000000 0.000000 0.000000 0.000000 0.087092
#
#
# Mechanical properties :
#
#
# Convention : Reuss Voigt Hill
#
# Bulk Modulus (GPa) = 25.45894 56.36971 40.91433
# Shear Modulus (GPa) = 12.10873 18.25122 15.17997
#
# Velocity S-wave (km/s) = 2.69903 3.31363 3.02200
# Velocity P-wave (km/s) = 5.00295 6.96800 6.06558
#
# Compressibility (1/GPa) = 0.03927893
#
# Stress axis : x y z
#
# Youngs Moduli (GPa) = 70.91719 17.88179 87.95651
#
# Poissons Ratio (x) = 0.08612 0.39066
# Poissons Ratio (y) = 0.34155 1.03783
# Poissons Ratio (z) = 0.31498 0.21099
#
# Static dielectric constant tensor:
#      x y z
#    x 3.148430 0.000000 0.000000 
#    y 0.000000 2.709570 0.000000 
#    z 0.000000 0.000000 3.306540 
# 
# 
# High freq. dielectric constant tensor:
#      x y z
#    x 1.627150 0.000000 0.000000 
#    y 0.000000 1.588180 0.000000 
#    z 0.000000 0.000000 1.644250 
# 
# From -- ./inp_files/33724.got.cif
#   From: 2010.03.12/outbox.cif.g09.slc.cpg/sg51_17_cif.got.tgz:33724.got - 2010.04.16 13:43:02.
