data_PCOD8214971
_publ_section_title
;
Structure prediction by ZEFSAII (Michael W. Deem and Ramdas Pophale) SiO2 
 PCOD8214971
Probable space group: P N N A
;
_chemical_formula_sum "Si O2"
_cell_formula_units_Z 56
_cell_length_a 34.125930
_cell_length_b 8.689114
_cell_length_c 9.832550
_cell_angle_alpha 90.000000
_cell_angle_beta 90.000000
_cell_angle_gamma 90.000000
_cell_volume 2915.588001
_symmetry_space_group_name_H-M "P N N A"
_symmetry_group_IT_number 52
_symmetry_cell_setting 'orthorhombic'
loop_
_space_group_symop_operation_xyz
x,y,z
1/2-x,-y,z
x,1/2-y,1/2-z
1/2-x,1/2+y,1/2-z
-x,-y,-z
1/2+x,y,-z
-x,1/2+y,1/2+z
1/2+x,1/2-y,1/2+z
loop_
_atom_site_type_symbol
_atom_site_label
_atom_site_fract_x
_atom_site_fract_y
_atom_site_fract_z
Si Si1 0.556032 0.445366 0.526773
Si Si2 0.131586 0.585585 0.571474
Si Si3 0.060766 0.146961 0.621997
Si Si4 0.289357 0.574711 0.582802
Si Si5 0.009100 0.573091 0.715843
Si Si6 0.289236 0.580198 0.906362
Si Si7 0.369950 0.065624 0.606215
O O1 0.601977 0.487015 0.522908
O O2 0.547564 0.265018 0.494815
O O3 0.535638 0.473292 0.673941
O O4 0.536583 0.554289 0.414830
O O5 0.174768 0.528889 0.529555
O O6 0.124900 0.765458 0.543216
O O7 0.125871 0.557625 0.731192
O O8 0.075759 0.250000 0.750000
O O9 0.095592 0.046433 0.556054
O O10 0.024038 0.038265 0.663228
O O11 0.250000 0.500000 0.522539
O O12 0.287267 0.579614 0.744596
O O13 0.292670 0.749471 0.530636
O O14 0.013477 0.750000 0.750000
O O15 0.250000 0.500000 0.965338
O O16 0.328048 0.488987 0.949994
#
# Coordination Sequence:
#
# PCOD8214971 Si02
#       7
#     8   8   8   8   8   8   8
#     4  10  20  32  49  69  89 121 155 190 234 280
#     4  10  17  27  42  60  85 117 156 188 226 268
#     4  10  18  30  48  66  87 116 153 188 228 273
#     4   9  16  24  36  53  82 117 152 189 223 260
#     4  10  20  34  49  67  92 117 150 194 235 278
#     4   9  16  23  33  54  82 114 158 190 217 259
#     4  10  17  25  43  59  84 120 153 194 221 260
#
# _framework density 19.207104000000001
#
# number of rings (size 3 to 8) (size 9 to 14) (size 15 to 20)
#    0.000    2.286    2.857    2.571    2.000    4.000 
#    0.000    2.857    0.000    0.000    0.000    0.000 
#    0.000    0.000    0.000   14.143    0.857    1.429 
#
# Total GULP energy -694129.280987 kJ/mol
# GULP energy per Si atom -12395.165732 kJ/mol
# Density = 1.916339 g / cm^3
# Si number density = 19.207104 Si / 1000 Ang^3
#
#
#
# Elastic Constant Matrix: (Units=GPa)
#
#
# Indices 1 2 3 4 5 6 
#
# 1 156.2799 72.5177 29.2464 0.0000 0.0000 0.0000
# 2 72.5177 151.2413 21.7816 0.0000 0.0000 0.0000
# 3 29.2464 21.7816 12.2980 0.0000 0.0000 0.0000
# 4 0.0000 0.0000 0.0000 4.1667 0.0000 0.0000
# 5 0.0000 0.0000 0.0000 0.0000 5.3986 0.0000
# 6 0.0000 0.0000 0.0000 0.0000 0.0000 34.4121
#
#
#
# Elastic Compliance Matrix: (Units=1/GPa)
#
#
# Indices 1 2 3 4 5 6 
#
# 1 0.012060 -0.002218 -0.024753 0.000000 0.000000 0.000000
# 2 -0.002218 0.009284 -0.011169 0.000000 0.000000 0.000000
# 3 -0.024753 -0.011169 0.159961 0.000000 0.000000 0.000000
# 4 0.000000 0.000000 0.000000 0.239996 0.000000 0.000000
# 5 0.000000 0.000000 0.000000 0.000000 0.185235 0.000000
# 6 0.000000 0.000000 0.000000 0.000000 0.000000 0.029060
#
#
# Mechanical properties :
#
#
# Convention : Reuss Voigt Hill
#
# Bulk Modulus (GPa) = 9.52141 62.99007 36.25574
# Shear Modulus (GPa) = 6.69448 21.88039 14.28744
#
# Velocity S-wave (km/s) = 1.86895 3.37884 2.73034
# Velocity P-wave (km/s) = 3.10247 6.93458 5.37186
#
# Compressibility (1/GPa) = 0.10502651
#
# Stress axis : x y z
#
# Youngs Moduli (GPa) = 82.91806 107.71355 6.25151
#
# Poissons Ratio (x) = 0.23888 0.15474
# Poissons Ratio (y) = 0.18389 0.06982
# Poissons Ratio (z) = 2.05244 1.20306
#
# Static dielectric constant tensor:
#      x y z
#    x 3.762270 0.000000 0.000000 
#    y 0.000000 3.739310 0.000000 
#    z 0.000000 0.000000 2.762740 
# 
# 
# High freq. dielectric constant tensor:
#      x y z
#    x 1.758270 0.000000 0.000000 
#    y 0.000000 1.768840 0.000000 
#    z 0.000000 0.000000 1.648490 
# 
# From -- ./inp_files/29746.got.cif
#   From: 2010.06.25/outbox.cif.g09.slc.cpg/sg52_15_cif.got.tgz:29746.got - 2010.06.26 19:32:48.
