data_PCOD8214695
_publ_section_title
;
Structure prediction by ZEFSAII (Michael W. Deem and Ramdas Pophale) SiO2 
 PCOD8214695
Probable space group: P M M A
;
_chemical_formula_sum "Si O2"
_cell_formula_units_Z 56
_cell_length_a 18.400267
_cell_length_b 9.714411
_cell_length_c 18.985880
_cell_angle_alpha 90.000000
_cell_angle_beta 90.000000
_cell_angle_gamma 90.000000
_cell_volume 3393.683448
_symmetry_space_group_name_H-M "P M M A"
_symmetry_group_IT_number 51
_symmetry_cell_setting 'orthorhombic'
loop_
_space_group_symop_operation_xyz
x,y,z
1/2-x,-y,z
1/2+x,-y,-z
-x,y,-z
-x,-y,-z
1/2+x,y,-z
1/2-x,y,z
x,-y,z
loop_
_atom_site_type_symbol
_atom_site_label
_atom_site_fract_x
_atom_site_fract_y
_atom_site_fract_z
Si Si1 0.663735 0.652324 0.445352
Si Si2 0.028283 0.163128 0.073200
Si Si3 0.834140 0.660475 0.287641
Si Si4 0.902327 0.838076 0.713957
Si Si5 0.550013 0.161013 0.215079
Si Si6 0.830209 0.164365 0.854136
Si Si7 0.335539 0.159282 0.429184
O O1 0.750000 0.647085 0.447628
O O2 0.632782 0.500000 0.462212
O O3 0.640342 0.698693 0.366972
O O4 0.634049 0.759575 0.502898
O O5 0.974861 0.204524 0.136746
O O6 0.110213 0.217243 0.089213
O O7 0.030611 0.000000 0.066864
O O8 0.000000 0.229254 0.000000
O O9 0.750000 0.697265 0.276406
O O10 0.848176 0.500000 0.272918
O O11 0.879191 0.751302 0.232933
O O12 0.852057 0.778705 0.776847
O O13 0.876717 0.777731 0.638943
O O14 0.986275 0.802597 0.729328
O O15 0.890157 0.000000 0.711484
O O16 0.569394 0.000000 0.218354
O O17 0.750000 0.219599 0.874569
O O18 0.831466 0.000000 0.852217
O O19 0.250000 0.181521 0.418023
O O20 0.354287 0.000000 0.441640
#
# Coordination Sequence:
#
# PCOD8214695 Si02
#       7
#     8   8   8   8   8   8   8
#     4   8  15  28  43  58  79 108 140 175 217 259
#     4   8  14  25  40  60  90 121 143 171 214 255
#     4   9  18  33  50  64  81 109 144 182 220 255
#     4   8  14  24  37  57  86 112 135 170 214 253
#     4   9  17  29  46  66  87 113 142 173 213 259
#     4   8  12  19  34  55  79 112 149 175 200 245
#     4   9  15  23  39  62  84 108 141 179 214 249
#
# _framework density 16.501244
#
# number of rings (size 3 to 8) (size 9 to 14) (size 15 to 20)
#    0.000    3.571    0.000    3.000    0.000    2.571 
#    0.000    3.571    0.000    7.286    0.000    0.000 
#    0.000    5.143    0.000    0.857    0.000    0.000 
#
# Total GULP energy -693958.186749 kJ/mol
# GULP energy per Si atom -12392.110478 kJ/mol
# Density = 1.646369 g / cm^3
# Si number density = 16.501244 Si / 1000 Ang^3
#
#
#
# Elastic Constant Matrix: (Units=GPa)
#
#
# Indices 1 2 3 4 5 6 
#
# 1 98.1432 36.4019 69.6036 0.0000 0.0000 0.0000
# 2 36.4019 37.5944 41.2979 0.0000 0.0000 0.0000
# 3 69.6036 41.2979 125.2454 0.0000 0.0000 0.0000
# 4 0.0000 0.0000 0.0000 2.2087 0.0000 0.0000
# 5 0.0000 0.0000 0.0000 0.0000 25.1912 0.0000
# 6 0.0000 0.0000 0.0000 0.0000 0.0000 13.2456
#
#
#
# Elastic Compliance Matrix: (Units=1/GPa)
#
#
# Indices 1 2 3 4 5 6 
#
# 1 0.019262 -0.010806 -0.007141 0.000000 0.000000 0.000000
# 2 -0.010806 0.047769 -0.009746 0.000000 0.000000 0.000000
# 3 -0.007141 -0.009746 0.015167 0.000000 0.000000 0.000000
# 4 0.000000 0.000000 0.000000 0.452751 0.000000 0.000000
# 5 0.000000 0.000000 0.000000 0.000000 0.039696 0.000000
# 6 0.000000 0.000000 0.000000 0.000000 0.000000 0.075497
#
#
# Mechanical properties :
#
#
# Convention : Reuss Voigt Hill
#
# Bulk Modulus (GPa) = 37.29826 61.73219 49.51523
# Shear Modulus (GPa) = 6.99824 15.70774 11.35299
#
# Velocity S-wave (km/s) = 2.06161 3.08865 2.62584
# Velocity P-wave (km/s) = 5.32159 7.08601 6.26622
#
# Compressibility (1/GPa) = 0.02681090
#
# Stress axis : x y z
#
# Youngs Moduli (GPa) = 51.91576 20.93417 65.93421
#
# Poissons Ratio (x) = 0.22621 0.47087
# Poissons Ratio (y) = 0.56100 0.64258
# Poissons Ratio (z) = 0.37076 0.20402
#
# Static dielectric constant tensor:
#      x y z
#    x 3.064350 0.000000 0.000000 
#    y 0.000000 2.709300 0.000000 
#    z 0.000000 0.000000 3.389030 
# 
# 
# High freq. dielectric constant tensor:
#      x y z
#    x 1.623350 0.000000 0.000000 
#    y 0.000000 1.585020 0.000000 
#    z 0.000000 0.000000 1.634800 
# 
# From -- ./inp_files/33697.got.cif
#   From: 2010.03.12/outbox.cif.g09.slc.cpg/sg51_17_cif.got.tgz:33697.got - 2010.04.16 13:43:02.
