data_PCOD8214231
_publ_section_title
;
Structure prediction by ZEFSAII (Michael W. Deem and Ramdas Pophale) SiO2 
 PCOD8214231
Probable space group: P M M A
;
_chemical_formula_sum "Si O2"
_cell_formula_units_Z 44
_cell_length_a 9.345158
_cell_length_b 7.968400
_cell_length_c 30.347511
_cell_angle_alpha 90.000000
_cell_angle_beta 90.000000
_cell_angle_gamma 90.000000
_cell_volume 2259.856449
_symmetry_space_group_name_H-M "P M M A"
_symmetry_group_IT_number 51
_symmetry_cell_setting 'orthorhombic'
loop_
_space_group_symop_operation_xyz
x,y,z
1/2-x,-y,z
1/2+x,-y,-z
-x,y,-z
-x,-y,-z
1/2+x,y,-z
1/2-x,y,z
x,-y,z
loop_
_atom_site_type_symbol
_atom_site_label
_atom_site_fract_x
_atom_site_fract_y
_atom_site_fract_z
Si Si1 0.417368 0.693057 0.392455
Si Si2 0.590312 0.303021 0.307476
Si Si3 0.590087 0.305998 0.123131
Si Si4 0.913091 0.805249 0.215204
Si Si5 0.911268 0.299798 0.958050
Si Si6 0.582320 0.000000 0.545352
O O1 0.250000 0.701783 0.382853
O O2 0.460889 0.500000 0.405732
O O3 0.495014 0.756523 0.348292
O O4 0.461621 0.827814 0.429604
O O5 0.750000 0.223526 0.312047
O O6 0.601310 0.500000 0.307725
O O7 0.513980 0.246135 0.261624
O O8 0.750000 0.223667 0.121478
O O9 0.604819 0.500000 0.112536
O O10 0.519234 0.280329 0.171645
O O11 0.487925 0.226481 0.085849
O O12 0.750000 0.742128 0.218908
O O13 0.927314 0.000000 0.207589
O O14 0.750000 0.228140 0.960286
O O15 0.906976 0.500000 0.957368
O O16 0.000000 0.234117 0.000000
O O17 0.500000 0.000000 0.500000
O O18 0.750000 0.000000 0.535744
#
# Coordination Sequence:
#
# PCOD8214231 Si02
#       6
#     8   8   8   8   8   4
#     4   9  19  36  55  76 106 141 173 211 261 312
#     4   9  17  30  50  76 102 130 169 212 249 291
#     4   9  16  27  44  64  88 119 152 188 232 281
#     4   9  17  28  44  68  96 126 159 197 240 285
#     4   9  16  26  42  65  90 114 145 188 236 284
#     4  10  22  38  56  80 108 140 178 218 261 310
#
# _framework density 19.470262999999999
#
# number of rings (size 3 to 8) (size 9 to 14) (size 15 to 20)
#    0.000    2.909    0.000    1.091    1.273    5.455 
#    0.000    0.909    0.000    6.545    0.000    0.000 
#    0.000    0.000    0.000    0.000    0.000    0.000 
#
# Total GULP energy -545279.293084 kJ/mol
# GULP energy per Si atom -12392.711206 kJ/mol
# Density = 1.942595 g / cm^3
# Si number density = 19.470263 Si / 1000 Ang^3
#
#
#
# Elastic Constant Matrix: (Units=GPa)
#
#
# Indices 1 2 3 4 5 6 
#
# 1 78.1976 23.4804 76.2577 0.0000 0.0000 0.0000
# 2 23.4804 47.6108 49.7118 0.0000 0.0000 0.0000
# 3 76.2577 49.7118 202.6450 0.0000 0.0000 0.0000
# 4 0.0000 0.0000 0.0000 7.0144 0.0000 0.0000
# 5 0.0000 0.0000 0.0000 0.0000 31.1397 0.0000
# 6 0.0000 0.0000 0.0000 0.0000 0.0000 10.7718
#
#
#
# Elastic Compliance Matrix: (Units=1/GPa)
#
#
# Indices 1 2 3 4 5 6 
#
# 1 0.020468 -0.002759 -0.007025 0.000000 0.000000 0.000000
# 2 -0.002759 0.028608 -0.005980 0.000000 0.000000 0.000000
# 3 -0.007025 -0.005980 0.009045 0.000000 0.000000 0.000000
# 4 0.000000 0.000000 0.000000 0.142565 0.000000 0.000000
# 5 0.000000 0.000000 0.000000 0.000000 0.032113 0.000000
# 6 0.000000 0.000000 0.000000 0.000000 0.000000 0.092835
#
#
# Mechanical properties :
#
#
# Convention : Reuss Voigt Hill
#
# Bulk Modulus (GPa) = 37.60375 69.70590 53.65482
# Shear Modulus (GPa) = 13.66023 21.71875 17.68949
#
# Velocity S-wave (km/s) = 2.65164 3.34351 3.01747
# Velocity P-wave (km/s) = 5.36006 7.12631 6.30534
#
# Compressibility (1/GPa) = 0.02659309
#
# Stress axis : x y z
#
# Youngs Moduli (GPa) = 48.85767 34.95547 110.55283
#
# Poissons Ratio (x) = 0.09643 0.77669
# Poissons Ratio (y) = 0.13478 0.66109
# Poissons Ratio (z) = 0.34325 0.20903
#
# Static dielectric constant tensor:
#      x y z
#    x 3.878400 0.000000 0.000000 
#    y 0.000000 3.326040 0.000000 
#    z 0.000000 0.000000 3.763950 
# 
# 
# High freq. dielectric constant tensor:
#      x y z
#    x 1.724120 0.000000 0.000000 
#    y 0.000000 1.739910 0.000000 
#    z 0.000000 0.000000 1.769230 
# 
# From -- ./inp_files/36738.got.cif
#   From: 2010.03.12/outbox.cif.g09.slc.cpg/sg51_19_cif.got.tgz:36738.got - 2010.04.16 13:43:02.
