data_PCOD8214985
_publ_section_title
;
Structure prediction by ZEFSAII (Michael W. Deem and Ramdas Pophale) SiO2 
 PCOD8214985
Probable space group: P N N A
;
_chemical_formula_sum "Si O2"
_cell_formula_units_Z 48
_cell_length_a 13.855612
_cell_length_b 9.192256
_cell_length_c 24.495503
_cell_angle_alpha 90.000000
_cell_angle_beta 90.000000
_cell_angle_gamma 90.000000
_cell_volume 3119.853390
_symmetry_space_group_name_H-M "P N N A"
_symmetry_group_IT_number 52
_symmetry_cell_setting 'orthorhombic'
loop_
_space_group_symop_operation_xyz
x,y,z
1/2-x,-y,z
x,1/2-y,1/2-z
1/2-x,1/2+y,1/2-z
-x,-y,-z
1/2+x,y,-z
-x,1/2+y,1/2+z
1/2+x,1/2-y,1/2+z
loop_
_atom_site_type_symbol
_atom_site_label
_atom_site_fract_x
_atom_site_fract_y
_atom_site_fract_z
Si Si1 0.884639 0.402156 0.609691
Si Si2 0.157544 0.911045 0.227752
Si Si3 0.026507 0.635089 0.071287
Si Si4 0.647482 0.442872 0.005810
Si Si5 0.172655 0.212989 0.089912
Si Si6 0.137484 0.034354 0.339996
O O1 0.910790 0.403604 0.674653
O O2 0.964403 0.309576 0.577283
O O3 0.884884 0.562166 0.583530
O O4 0.783971 0.317513 0.602030
O O5 0.184210 0.750000 0.250000
O O6 0.250000 0.000000 0.206013
O O7 0.112217 0.007522 0.276611
O O8 0.061871 0.564574 0.127598
O O9 0.914241 0.604211 0.058670
O O10 0.093183 0.577428 0.022385
O O11 0.750000 0.500000 0.027058
O O12 0.659741 0.308026 0.964522
O O13 0.125214 0.298310 0.141466
O O14 0.250000 0.000000 0.353419
#
# Coordination Sequence:
#
# PCOD8214985 Si02
#       6
#     8   8   8   8   8   8
#     4  11  18  28  43  67  94 127 153 185 237 282
#     4  11  19  25  41  66  92 131 155 177 222 291
#     4  10  18  31  48  63  90 121 155 199 231 276
#     4  10  19  32  49  65  83 124 162 194 241 279
#     4  10  18  29  43  63  97 123 155 191 224 284
#     4  10  17  29  43  63  96 128 153 181 228 277
#
# _framework density 15.385339
#
# number of rings (size 3 to 8) (size 9 to 14) (size 15 to 20)
#    0.000    1.667    6.667    2.000    0.000    0.667 
#    0.000    0.000    0.000    0.000    0.000    0.000 
#    0.000   16.000    5.667    0.000    0.000    0.000 
#
# Total GULP energy -594899.814262 kJ/mol
# GULP energy per Si atom -12393.746130 kJ/mol
# Density = 1.535032 g / cm^3
# Si number density = 15.385339 Si / 1000 Ang^3
#
#
#
# Elastic Constant Matrix: (Units=GPa)
#
#
# Indices 1 2 3 4 5 6 
#
# 1 72.7893 33.7422 42.6637 0.0000 0.0000 0.0000
# 2 33.7422 111.6118 34.7045 0.0000 0.0000 0.0000
# 3 42.6637 34.7045 81.6094 0.0000 0.0000 0.0000
# 4 0.0000 0.0000 0.0000 20.1033 0.0000 0.0000
# 5 0.0000 0.0000 0.0000 0.0000 14.6853 0.0000
# 6 0.0000 0.0000 0.0000 0.0000 0.0000 16.2443
#
#
#
# Elastic Compliance Matrix: (Units=1/GPa)
#
#
# Indices 1 2 3 4 5 6 
#
# 1 0.020845 -0.003357 -0.009470 0.000000 0.000000 0.000000
# 2 -0.003357 0.010866 -0.002865 0.000000 0.000000 0.000000
# 3 -0.009470 -0.002865 0.018423 0.000000 0.000000 0.000000
# 4 0.000000 0.000000 0.000000 0.049743 0.000000 0.000000
# 5 0.000000 0.000000 0.000000 0.000000 0.068096 0.000000
# 6 0.000000 0.000000 0.000000 0.000000 0.000000 0.061560
#
#
# Mechanical properties :
#
#
# Convention : Reuss Voigt Hill
#
# Bulk Modulus (GPa) = 53.33815 54.24793 53.79304
# Shear Modulus (GPa) = 18.71496 20.53326 19.62411
#
# Velocity S-wave (km/s) = 3.49150 3.65718 3.57530
# Velocity P-wave (km/s) = 7.14125 7.29173 7.21688
#
# Compressibility (1/GPa) = 0.01874831
#
# Stress axis : x y z
#
# Youngs Moduli (GPa) = 47.97315 92.03368 54.28127
#
# Poissons Ratio (x) = 0.30899 0.51402
# Poissons Ratio (y) = 0.16106 0.15554
# Poissons Ratio (z) = 0.45429 0.26372
#
# Static dielectric constant tensor:
#      x y z
#    x 2.606610 0.000000 0.000000 
#    y 0.000000 3.254260 0.000000 
#    z 0.000000 0.000000 2.959640 
# 
# 
# High freq. dielectric constant tensor:
#      x y z
#    x 1.527380 0.000000 0.000000 
#    y 0.000000 1.611030 0.000000 
#    z 0.000000 0.000000 1.581810 
# 
# From -- ./inp_files/40564.got.cif
#   From: 2010.06.25/outbox.cif.g09.slc.cpg/sg52_21_cif.got.tgz:40564.got - 2010.06.26 19:32:48.
