data_PCOD8214137
_publ_section_title
;
Structure prediction by ZEFSAII (Michael W. Deem and Ramdas Pophale) SiO2 
 PCOD8214137
Probable space group: P M M A
;
_chemical_formula_sum "Si O2"
_cell_formula_units_Z 56
_cell_length_a 21.761115
_cell_length_b 14.005827
_cell_length_c 9.116695
_cell_angle_alpha 90.000000
_cell_angle_beta 90.000000
_cell_angle_gamma 90.000000
_cell_volume 2778.608292
_symmetry_space_group_name_H-M "P M M A"
_symmetry_group_IT_number 51
_symmetry_cell_setting 'orthorhombic'
loop_
_space_group_symop_operation_xyz
x,y,z
1/2-x,-y,z
1/2+x,-y,-z
-x,y,-z
-x,-y,-z
1/2+x,y,-z
1/2-x,y,z
x,-y,z
loop_
_atom_site_type_symbol
_atom_site_label
_atom_site_fract_x
_atom_site_fract_y
_atom_site_fract_z
Si Si1 0.010179 0.252571 0.171992
Si Si2 0.591364 0.886551 0.258756
Si Si3 0.952240 0.602163 0.376263
Si Si4 0.750000 0.389864 0.922547
Si Si5 0.182419 0.108423 0.997212
Si Si6 0.750000 0.613956 0.270239
Si Si7 0.348201 0.733825 0.554690
Si Si8 0.345208 0.258060 0.225832
O O1 0.081184 0.258967 0.215828
O O2 0.976720 0.159899 0.246362
O O3 0.977815 0.348224 0.229747
O O4 0.000000 0.246481 0.000000
O O5 0.628150 0.860470 0.110940
O O6 0.632569 0.838578 0.386221
O O7 0.585869 0.000000 0.287270
O O8 0.923137 0.500000 0.325877
O O9 0.907971 0.670915 0.464517
O O10 0.000000 0.578103 0.500000
O O11 0.750000 0.500000 0.881206
O O12 0.687187 0.347074 0.855135
O O13 0.750000 0.372509 0.096191
O O14 0.250000 0.125805 0.924542
O O15 0.173336 0.000000 0.041328
O O16 0.178760 0.163190 0.149376
O O17 0.750000 0.500000 0.311804
O O18 0.692523 0.671331 0.334764
O O19 0.320268 0.745713 0.392707
#
# Coordination Sequence:
#
# PCOD8214137 Si02
#       8
#     8   8   8   4   8   4   8   8
#     4  11  23  39  64  94 127 167 212 267 317 380
#     4  10  23  42  66  96 130 171 216 260 320 384
#     4  10  21  40  62  87 122 164 208 257 319 383
#     4  11  27  45  66  93 128 169 215 264 320 383
#     4  10  21  39  64  90 122 167 212 260 313 373
#     4  11  25  45  68  95 124 169 219 266 320 383
#     4  11  24  40  65  93 129 166 208 265 321 381
#     4  12  23  41  64  95 131 162 210 264 321 377
#
# _framework density 20.153974000000002
#
# number of rings (size 3 to 8) (size 9 to 14) (size 15 to 20)
#    0.000    1.286    3.571    1.714    3.000    4.000 
#    0.000    0.714    0.000    0.000    0.000    0.000 
#    0.000    0.000    0.000    0.000    0.000    0.000 
#
# Total GULP energy -694017.206482 kJ/mol
# GULP energy per Si atom -12393.164401 kJ/mol
# Density = 2.010810 g / cm^3
# Si number density = 20.153974 Si / 1000 Ang^3
#
#
#
# Elastic Constant Matrix: (Units=GPa)
#
#
# Indices 1 2 3 4 5 6 
#
# 1 106.1006 47.1082 31.5919 0.0000 0.0000 0.0000
# 2 47.1082 144.4770 56.9006 0.0000 0.0000 0.0000
# 3 31.5919 56.9006 119.0714 0.0000 0.0000 0.0000
# 4 0.0000 0.0000 0.0000 22.9480 0.0000 0.0000
# 5 0.0000 0.0000 0.0000 0.0000 25.8431 0.0000
# 6 0.0000 0.0000 0.0000 0.0000 0.0000 18.9923
#
#
#
# Elastic Compliance Matrix: (Units=1/GPa)
#
#
# Indices 1 2 3 4 5 6 
#
# 1 0.011238 -0.003067 -0.001516 0.000000 0.000000 0.000000
# 2 -0.003067 0.009363 -0.003661 0.000000 0.000000 0.000000
# 3 -0.001516 -0.003661 0.010550 0.000000 0.000000 0.000000
# 4 0.000000 0.000000 0.000000 0.043577 0.000000 0.000000
# 5 0.000000 0.000000 0.000000 0.000000 0.038695 0.000000
# 6 0.000000 0.000000 0.000000 0.000000 0.000000 0.052653
#
#
# Mechanical properties :
#
#
# Convention : Reuss Voigt Hill
#
# Bulk Modulus (GPa) = 68.19587 71.20561 69.70074
# Shear Modulus (GPa) = 26.67348 29.15989 27.91669
#
# Velocity S-wave (km/s) = 3.64192 3.80788 3.72583
# Velocity P-wave (km/s) = 7.18301 7.39870 7.29165
#
# Compressibility (1/GPa) = 0.01466364
#
# Stress axis : x y z
#
# Youngs Moduli (GPa) = 88.98165 106.79949 94.78818
#
# Poissons Ratio (x) = 0.32759 0.14369
# Poissons Ratio (y) = 0.27293 0.34698
# Poissons Ratio (z) = 0.13489 0.39095
#
# Static dielectric constant tensor:
#      x y z
#    x 4.052140 0.000000 0.000000 
#    y 0.000000 3.775740 0.000000 
#    z 0.000000 0.000000 3.622470 
# 
# 
# High freq. dielectric constant tensor:
#      x y z
#    x 1.796760 0.000000 0.000000 
#    y 0.000000 1.796250 0.000000 
#    z 0.000000 0.000000 1.784670 
# 
# From -- ./inp_files/11059.got.cif
#   From: 2010.03.12/outbox.cif.g09.slc.cpg/sg51_6_cif.got.tgz:11059.got - 2010.04.16 13:43:02.
