data_PCOD8214749
_publ_section_title
;
Structure prediction by ZEFSAII (Michael W. Deem and Ramdas Pophale) SiO2 
 PCOD8214749
Probable space group: P M M A
;
_chemical_formula_sum "Si O2"
_cell_formula_units_Z 48
_cell_length_a 15.072836
_cell_length_b 10.006649
_cell_length_c 17.346115
_cell_angle_alpha 90.000000
_cell_angle_beta 90.000000
_cell_angle_gamma 90.000000
_cell_volume 2616.289882
_symmetry_space_group_name_H-M "P M M A"
_symmetry_group_IT_number 51
_symmetry_cell_setting 'orthorhombic'
loop_
_space_group_symop_operation_xyz
x,y,z
1/2-x,-y,z
1/2+x,-y,-z
-x,y,-z
-x,-y,-z
1/2+x,y,-z
1/2-x,y,z
x,-y,z
loop_
_atom_site_type_symbol
_atom_site_label
_atom_site_fract_x
_atom_site_fract_y
_atom_site_fract_z
Si Si1 0.348615 0.659383 0.196615
Si Si2 0.147434 0.654126 0.796430
Si Si3 0.144433 0.149357 0.493368
Si Si4 0.144557 0.648550 0.367538
Si Si5 0.500445 0.342627 0.914406
Si Si6 0.855379 0.850655 0.335166
O O1 0.250000 0.714874 0.177601
O O2 0.346897 0.500000 0.194915
O O3 0.379868 0.703281 0.282288
O O4 0.417733 0.718680 0.134531
O O5 0.250000 0.684867 0.814811
O O6 0.133091 0.500000 0.772740
O O7 0.109216 0.742983 0.726341
O O8 0.092645 0.690397 0.873136
O O9 0.250000 0.154495 0.490816
O O10 0.103233 0.251809 0.431289
O O11 0.110663 0.188244 0.579175
O O12 0.111656 0.000000 0.472635
O O13 0.250000 0.642349 0.374820
O O14 0.105226 0.500000 0.381290
O O15 0.515111 0.500000 0.920770
O O16 0.500000 0.278668 0.000000
O O17 0.750000 0.847220 0.335232
O O18 0.888074 0.000000 0.312887
#
# Coordination Sequence:
#
# PCOD8214749 Si02
#       6
#     8   8   8   8   8   8
#     4   8  14  25  41  61  85 114 148 182 215 257
#     4   9  17  28  43  66  93 116 142 180 221 258
#     4   8  13  21  35  58  86 113 144 180 212 247
#     4   8  13  21  35  57  83 110 141 176 213 252
#     4   9  17  28  43  64  89 116 144 177 221 268
#     4   8  14  25  41  61  86 118 152 180 211 256
#
# _framework density 18.346592000000001
#
# number of rings (size 3 to 8) (size 9 to 14) (size 15 to 20)
#    0.000    3.667    0.000    2.000    0.000    1.333 
#    0.000    6.667    0.000    2.500    0.000    7.000 
#    0.000    5.333    0.000    0.000    0.000    0.000 
#
# Total GULP energy -594817.106996 kJ/mol
# GULP energy per Si atom -12392.023062 kJ/mol
# Density = 1.830483 g / cm^3
# Si number density = 18.346592 Si / 1000 Ang^3
#
#
#
# Elastic Constant Matrix: (Units=GPa)
#
#
# Indices 1 2 3 4 5 6 
#
# 1 57.4852 25.1599 52.6150 0.0000 0.0000 0.0000
# 2 25.1599 65.3406 72.4968 0.0000 0.0000 0.0000
# 3 52.6150 72.4968 183.2835 0.0000 0.0000 0.0000
# 4 0.0000 0.0000 0.0000 4.7493 0.0000 0.0000
# 5 0.0000 0.0000 0.0000 0.0000 6.9679 0.0000
# 6 0.0000 0.0000 0.0000 0.0000 0.0000 5.1838
#
#
#
# Elastic Compliance Matrix: (Units=1/GPa)
#
#
# Indices 1 2 3 4 5 6 
#
# 1 0.023886 -0.002833 -0.005736 0.000000 0.000000 0.000000
# 2 -0.002833 0.027610 -0.010108 0.000000 0.000000 0.000000
# 3 -0.005736 -0.010108 0.011101 0.000000 0.000000 0.000000
# 4 0.000000 0.000000 0.000000 0.210559 0.000000 0.000000
# 5 0.000000 0.000000 0.000000 0.000000 0.143516 0.000000
# 6 0.000000 0.000000 0.000000 0.000000 0.000000 0.192909
#
#
# Mechanical properties :
#
#
# Convention : Reuss Voigt Hill
#
# Bulk Modulus (GPa) = 39.61515 67.40586 53.51051
# Shear Modulus (GPa) = 7.62952 13.76936 10.69944
#
# Velocity S-wave (km/s) = 2.04146 2.74252 2.41754
# Velocity P-wave (km/s) = 5.21501 6.84460 6.08461
#
# Compressibility (1/GPa) = 0.02524287
#
# Stress axis : x y z
#
# Youngs Moduli (GPa) = 41.86537 36.21882 90.08317
#
# Poissons Ratio (x) = 0.10260 0.51676
# Poissons Ratio (y) = 0.11860 0.91054
# Poissons Ratio (z) = 0.24016 0.36609
#
# Static dielectric constant tensor:
#      x y z
#    x 3.147560 0.000000 0.000000 
#    y 0.000000 3.258420 0.000000 
#    z 0.000000 0.000000 3.729110 
# 
# 
# High freq. dielectric constant tensor:
#      x y z
#    x 1.689430 0.000000 0.000000 
#    y 0.000000 1.666570 0.000000 
#    z 0.000000 0.000000 1.711550 
# 
# From -- ./inp_files/24055.got.cif
#   From: 2010.03.12/outbox.cif.g09.slc.cpg/sg51_13_cif.got.tgz:24055.got - 2010.04.16 13:43:02.
