data_PCOD8214752
_publ_section_title
;
Structure prediction by ZEFSAII (Michael W. Deem and Ramdas Pophale) SiO2 
 PCOD8214752
Probable space group: P M M A
;
_chemical_formula_sum "Si O2"
_cell_formula_units_Z 44
_cell_length_a 9.244166
_cell_length_b 12.982438
_cell_length_c 25.730892
_cell_angle_alpha 90.000000
_cell_angle_beta 90.000000
_cell_angle_gamma 90.000000
_cell_volume 3088.010972
_symmetry_space_group_name_H-M "P M M A"
_symmetry_group_IT_number 51
_symmetry_cell_setting 'orthorhombic'
loop_
_space_group_symop_operation_xyz
x,y,z
1/2-x,-y,z
1/2+x,-y,-z
-x,y,-z
-x,-y,-z
1/2+x,y,-z
1/2-x,y,z
x,-y,z
loop_
_atom_site_type_symbol
_atom_site_label
_atom_site_fract_x
_atom_site_fract_y
_atom_site_fract_z
Si Si1 0.920021 0.223244 0.054711
Si Si2 0.922425 0.614937 0.138053
Si Si3 0.912916 0.377121 0.649913
Si Si4 0.586148 0.377255 0.449963
Si Si5 0.914806 0.000000 0.052159
Si Si6 0.088999 0.622252 0.747425
O O1 0.750000 0.241295 0.045263
O O2 0.983760 0.306482 0.095068
O O3 0.949147 0.109117 0.080595
O O4 0.000000 0.236979 0.000000
O O5 0.750000 0.614024 0.138066
O O6 0.980960 0.500000 0.125377
O O7 0.973441 0.651400 0.195511
O O8 0.750000 0.334335 0.645494
O O9 0.912072 0.500000 0.650094
O O10 0.005842 0.335672 0.601388
O O11 0.983427 0.333607 0.703007
O O12 0.500000 0.335209 0.500000
O O13 0.750000 0.334605 0.450962
O O14 0.587756 0.500000 0.450251
O O15 0.750000 0.000000 0.035042
O O16 0.000000 0.000000 0.000000
O O17 0.250000 0.668584 0.739071
O O18 0.098856 0.500000 0.743273
#
# Coordination Sequence:
#
# PCOD8214752 Si02
#       6
#     8   8   8   8   4   8
#     4   9  16  26  39  54  71  90 112 138 169 205
#     4   8  14  24  37  51  67  88 113 140 170 205
#     4   9  15  21  29  41  56  74  97 127 163 199
#     4   9  15  21  28  38  53  73  98 130 167 203
#     4   8  14  24  38  54  70  88 110 136 165 198
#     4   8  13  22  34  44  54  73 102 131 158 191
#
# _framework density 14.248654999999999
#
# number of rings (size 3 to 8) (size 9 to 14) (size 15 to 20)
#    0.000    3.455    0.000    2.182    0.000    4.727 
#    0.000    0.909    0.000    1.091    0.000    0.000 
#    0.000    0.000    0.000    0.000    0.000    0.000 
#
# Total GULP energy -545082.314786 kJ/mol
# GULP energy per Si atom -12388.234427 kJ/mol
# Density = 1.421622 g / cm^3
# Si number density = 14.248655 Si / 1000 Ang^3
#
#
#
# Elastic Constant Matrix: (Units=GPa)
#
#
# Indices 1 2 3 4 5 6 
#
# 1 75.3148 20.6840 50.6354 0.0000 0.0000 0.0000
# 2 20.6840 48.6297 44.5520 0.0000 0.0000 0.0000
# 3 50.6354 44.5520 127.2068 0.0000 0.0000 0.0000
# 4 0.0000 0.0000 0.0000 0.9220 0.0000 0.0000
# 5 0.0000 0.0000 0.0000 0.0000 22.5368 0.0000
# 6 0.0000 0.0000 0.0000 0.0000 0.0000 6.3427
#
#
#
# Elastic Compliance Matrix: (Units=1/GPa)
#
#
# Indices 1 2 3 4 5 6 
#
# 1 0.018216 -0.001627 -0.006681 0.000000 0.000000 0.000000
# 2 -0.001627 0.030424 -0.010008 0.000000 0.000000 0.000000
# 3 -0.006681 -0.010008 0.014026 0.000000 0.000000 0.000000
# 4 0.000000 0.000000 0.000000 1.084631 0.000000 0.000000
# 5 0.000000 0.000000 0.000000 0.000000 0.044372 0.000000
# 6 0.000000 0.000000 0.000000 0.000000 0.000000 0.157663
#
#
# Mechanical properties :
#
#
# Convention : Reuss Voigt Hill
#
# Bulk Modulus (GPa) = 38.41130 53.65493 46.03311
# Shear Modulus (GPa) = 3.58515 14.97894 9.28204
#
# Velocity S-wave (km/s) = 1.58795 3.24582 2.55509
# Velocity P-wave (km/s) = 5.51167 7.19618 6.40950
#
# Compressibility (1/GPa) = 0.02603401
#
# Stress axis : x y z
#
# Youngs Moduli (GPa) = 54.89561 32.86838 71.29681
#
# Poissons Ratio (x) = 0.05348 0.47636
# Poissons Ratio (y) = 0.08932 0.71354
# Poissons Ratio (z) = 0.36677 0.32895
#
# Static dielectric constant tensor:
#      x y z
#    x 2.807390 0.000000 0.000000 
#    y 0.000000 2.663920 0.000000 
#    z 0.000000 0.000000 2.947640 
# 
# 
# High freq. dielectric constant tensor:
#      x y z
#    x 1.539760 0.000000 0.000000 
#    y 0.000000 1.472850 0.000000 
#    z 0.000000 0.000000 1.546220 
# 
# From -- ./inp_files/36332.got.cif
#   From: 2010.03.12/outbox.cif.g09.slc.cpg/sg51_19_cif.got.tgz:36332.got - 2010.04.16 13:43:02.
