data_PCOD8214997
_publ_section_title
;
Structure prediction by ZEFSAII (Michael W. Deem and Ramdas Pophale) SiO2 
 PCOD8214997
Probable space group: P N N A
;
_chemical_formula_sum "Si O2"
_cell_formula_units_Z 40
_cell_length_a 12.996346
_cell_length_b 12.420876
_cell_length_c 11.089710
_cell_angle_alpha 90.000000
_cell_angle_beta 90.000000
_cell_angle_gamma 90.000000
_cell_volume 1790.167550
_symmetry_space_group_name_H-M "P N N A"
_symmetry_group_IT_number 52
_symmetry_cell_setting 'orthorhombic'
loop_
_space_group_symop_operation_xyz
x,y,z
1/2-x,-y,z
x,1/2-y,1/2-z
1/2-x,1/2+y,1/2-z
-x,-y,-z
1/2+x,y,-z
-x,1/2+y,1/2+z
1/2+x,1/2-y,1/2+z
loop_
_atom_site_type_symbol
_atom_site_label
_atom_site_fract_x
_atom_site_fract_y
_atom_site_fract_z
Si Si1 0.632388 0.198295 0.615654
Si Si2 0.431492 0.021853 0.145342
Si Si3 0.250000 0.000000 0.745782
Si Si4 0.250000 0.500000 0.180481
Si Si5 0.567251 0.864370 0.293773
Si Si6 0.876865 0.883864 0.066382
O O1 0.644667 0.250000 0.750000
O O2 0.710171 0.098537 0.599123
O O3 0.514733 0.155867 0.598567
O O4 0.657732 0.278821 0.507300
O O5 0.507349 0.124266 0.124049
O O6 0.342962 0.049364 0.240369
O O7 0.501984 0.920214 0.186105
O O8 0.376813 0.988044 0.020970
O O9 0.339351 0.056522 0.665544
O O10 0.204830 0.096085 0.828088
O O11 0.612137 0.750000 0.250000
#
# Coordination Sequence:
#
# PCOD8214997 Si02
#       6
#     8   8   4   4   8   8
#     4  10  18  31  49  76 113 144 171 217 278 318
#     4   9  17  28  49  80 113 130 172 227 263 312
#     4  10  21  28  56  89 102 132 186 225 254 318
#     4  10  17  30  50  81 108 142 188 211 260 334
#     4   9  16  33  49  78 109 138 164 215 278 314
#     4  10  17  30  49  82 112 134 171 225 272 305
#
# _framework density 22.344279
#
# number of rings (size 3 to 8) (size 9 to 14) (size 15 to 20)
#    0.000    2.400    6.000    0.600    0.000    0.000 
#    0.000    0.000    0.000   12.000    0.000   21.000 
#    0.000    0.000    0.000    0.000    0.000    0.000 
#
# Total GULP energy -495614.179341 kJ/mol
# GULP energy per Si atom -12390.354484 kJ/mol
# Density = 2.229342 g / cm^3
# Si number density = 22.344279 Si / 1000 Ang^3
#
#
#
# Elastic Constant Matrix: (Units=GPa)
#
#
# Indices 1 2 3 4 5 6 
#
# 1 115.1045 63.4418 13.7140 0.0000 0.0000 0.0000
# 2 63.4418 115.7241 23.8916 0.0000 0.0000 0.0000
# 3 13.7140 23.8916 25.2909 0.0000 0.0000 0.0000
# 4 0.0000 0.0000 0.0000 26.7751 0.0000 0.0000
# 5 0.0000 0.0000 0.0000 0.0000 -0.0161 0.0000
# 6 0.0000 0.0000 0.0000 0.0000 0.0000 40.8878
#
#
#
# Elastic Compliance Matrix: (Units=1/GPa)
#
#
# Indices 1 2 3 4 5 6 
#
# 1 0.012452 -0.006749 -0.000377 0.000000 0.000000 0.000000
# 2 -0.006749 0.014392 -0.009937 0.000000 0.000000 0.000000
# 3 -0.000377 -0.009937 0.049131 0.000000 0.000000 0.000000
# 4 0.000000 0.000000 0.000000 0.037348 0.000000 0.000000
# 5 0.000000 0.000000 0.000000 0.000000-62.199485 0.000000
# 6 0.000000 0.000000 0.000000 0.000000 0.000000 0.024457
#
#
# Mechanical properties :
#
#
# Convention : Reuss Voigt Hill
#
# Bulk Modulus (GPa) = 23.89408 50.91269 37.40338
# Shear Modulus (GPa) = -0.08063 23.86751 11.89344
#
# Velocity S-wave (km/s) = -0.19016 3.27183 2.30963
# Velocity P-wave (km/s) = 3.26628 6.09165 4.88758
#
# Compressibility (1/GPa) = 0.04185137
#
# Stress axis : x y z
#
# Youngs Moduli (GPa) = 80.30606 69.48081 20.35365
#
# Poissons Ratio (x) = 0.46891 0.00767
# Poissons Ratio (y) = 0.54197 0.20225
# Poissons Ratio (z) = 0.03027 0.69041
#
# Static dielectric constant tensor:
#      x y z
#    x 4.348600 0.000000 0.000000 
#    y 0.000000 3.913480 0.000000 
#    z 0.000000 0.000000 3.542520 
# 
# 
# High freq. dielectric constant tensor:
#      x y z
#    x 1.892860 0.000000 0.000000 
#    y 0.000000 1.859530 0.000000 
#    z 0.000000 0.000000 1.829880 
# 
# From -- ./inp_files/27064.got.cif
#   From: 2010.06.25/outbox.cif.g09.slc.cpg/sg52_14_cif.got.tgz:27064.got - 2010.06.26 19:32:48.
