data_PCOD8214813
_publ_section_title
;
Structure prediction by ZEFSAII (Michael W. Deem and Ramdas Pophale) SiO2 
 PCOD8214813
Probable space group: P M M A
;
_chemical_formula_sum "Si O2"
_cell_formula_units_Z 56
_cell_length_a 16.959696
_cell_length_b 9.558299
_cell_length_c 20.478189
_cell_angle_alpha 90.000000
_cell_angle_beta 90.000000
_cell_angle_gamma 90.000000
_cell_volume 3319.634138
_symmetry_space_group_name_H-M "P M M A"
_symmetry_group_IT_number 51
_symmetry_cell_setting 'orthorhombic'
loop_
_space_group_symop_operation_xyz
x,y,z
1/2-x,-y,z
1/2+x,-y,-z
-x,y,-z
-x,-y,-z
1/2+x,y,-z
1/2-x,y,z
x,-y,z
loop_
_atom_site_type_symbol
_atom_site_label
_atom_site_fract_x
_atom_site_fract_y
_atom_site_fract_z
Si Si1 0.982859 0.337291 0.143596
Si Si2 0.998087 0.336467 0.708099
Si Si3 0.164382 0.339812 0.351576
Si Si4 0.074577 0.158345 0.046737
Si Si5 0.839334 0.339943 0.051759
Si Si6 0.116943 0.156493 0.463309
Si Si7 0.055345 0.843443 0.597224
O O1 0.006106 0.500000 0.135289
O O2 0.897805 0.305109 0.111625
O O3 0.978255 0.293523 0.218962
O O4 0.051558 0.243737 0.111567
O O5 0.009061 0.500000 0.696400
O O6 0.906981 0.288911 0.695187
O O7 0.058568 0.259318 0.659276
O O8 0.250000 0.319227 0.316435
O O9 0.149813 0.500000 0.369896
O O10 0.169755 0.259160 0.420360
O O11 0.101086 0.000000 0.064529
O O12 0.144870 0.239175 0.009873
O O13 0.000000 0.155686 0.000000
O O14 0.750000 0.315398 0.076159
O O15 0.852279 0.500000 0.028727
O O16 0.115646 0.204047 0.539672
O O17 0.030174 0.159376 0.434070
O O18 0.151791 0.000000 0.458686
O O19 0.076255 0.000000 0.621123
#
# Coordination Sequence:
#
# PCOD8214813 Si02
#       7
#     8   8   8   8   8   8   8
#     4   9  17  30  47  67  92 121 154 187 218 263
#     4   9  17  28  43  63  87 118 152 183 217 260
#     4   9  17  28  41  59  84 112 144 184 227 267
#     4   9  17  29  46  68  92 117 145 180 222 263
#     4   9  17  30  49  70  90 115 148 186 228 270
#     4   8  14  25  41  60  80 104 136 175 218 260
#     4   8  14  25  41  61  83 105 135 177 218 256
#
# _framework density 16.869329
#
# number of rings (size 3 to 8) (size 9 to 14) (size 15 to 20)
#    0.000    3.286    0.000    1.286    0.000    3.429 
#    0.000    3.571    0.000    3.429    0.000    2.000 
#    0.000    0.000    0.000    0.000    0.000    0.000 
#
# Total GULP energy -693967.932254 kJ/mol
# GULP energy per Si atom -12392.284505 kJ/mol
# Density = 1.683093 g / cm^3
# Si number density = 16.869329 Si / 1000 Ang^3
#
#
#
# Elastic Constant Matrix: (Units=GPa)
#
#
# Indices 1 2 3 4 5 6 
#
# 1 60.0850 27.0005 33.2820 0.0000 0.0000 0.0000
# 2 27.0005 72.5057 56.3127 0.0000 0.0000 0.0000
# 3 33.2820 56.3127 118.8718 0.0000 0.0000 0.0000
# 4 0.0000 0.0000 0.0000 23.5805 0.0000 0.0000
# 5 0.0000 0.0000 0.0000 0.0000 15.6878 0.0000
# 6 0.0000 0.0000 0.0000 0.0000 0.0000 12.6986
#
#
#
# Elastic Compliance Matrix: (Units=1/GPa)
#
#
# Indices 1 2 3 4 5 6 
#
# 1 0.020828 -0.005105 -0.003413 0.000000 0.000000 0.000000
# 2 -0.005105 0.023072 -0.009500 0.000000 0.000000 0.000000
# 3 -0.003413 -0.009500 0.013868 0.000000 0.000000 0.000000
# 4 0.000000 0.000000 0.000000 0.042408 0.000000 0.000000
# 5 0.000000 0.000000 0.000000 0.000000 0.063744 0.000000
# 6 0.000000 0.000000 0.000000 0.000000 0.000000 0.078749
#
#
# Mechanical properties :
#
#
# Convention : Reuss Voigt Hill
#
# Bulk Modulus (GPa) = 46.01735 53.85033 49.93384
# Shear Modulus (GPa) = 17.48560 19.38452 18.43506
#
# Velocity S-wave (km/s) = 3.22302 3.39351 3.30936
# Velocity P-wave (km/s) = 6.41782 6.88084 6.65336
#
# Compressibility (1/GPa) = 0.02173093
#
# Stress axis : x y z
#
# Youngs Moduli (GPa) = 48.01281 43.34292 72.10589
#
# Poissons Ratio (x) = 0.22129 0.24608
# Poissons Ratio (y) = 0.24513 0.68503
# Poissons Ratio (z) = 0.16386 0.41177
#
# Static dielectric constant tensor:
#      x y z
#    x 3.017790 0.000000 0.000000 
#    y 0.000000 3.318150 0.000000 
#    z 0.000000 0.000000 3.199870 
# 
# 
# High freq. dielectric constant tensor:
#      x y z
#    x 1.622250 0.000000 0.000000 
#    y 0.000000 1.650480 0.000000 
#    z 0.000000 0.000000 1.634260 
# 
# From -- ./inp_files/33682.got.cif
#   From: 2010.03.12/outbox.cif.g09.slc.cpg/sg51_17_cif.got.tgz:33682.got - 2010.04.16 13:43:02.
