data_PCOD8214556
_publ_section_title
;
Structure prediction by ZEFSAII (Michael W. Deem and Ramdas Pophale) SiO2 
 PCOD8214556
Probable space group: P M M A
;
_chemical_formula_sum "Si O2"
_cell_formula_units_Z 44
_cell_length_a 9.037415
_cell_length_b 16.853666
_cell_length_c 15.489665
_cell_angle_alpha 90.000000
_cell_angle_beta 90.000000
_cell_angle_gamma 90.000000
_cell_volume 2359.286235
_symmetry_space_group_name_H-M "P M M A"
_symmetry_group_IT_number 51
_symmetry_cell_setting 'orthorhombic'
loop_
_space_group_symop_operation_xyz
x,y,z
1/2-x,-y,z
1/2+x,-y,-z
-x,y,-z
-x,-y,-z
1/2+x,y,-z
1/2-x,y,z
x,-y,z
loop_
_atom_site_type_symbol
_atom_site_label
_atom_site_fract_x
_atom_site_fract_y
_atom_site_fract_z
Si Si1 0.577651 0.796860 0.758332
Si Si2 0.080296 0.500000 0.911793
Si Si3 0.087779 0.622599 0.190614
Si Si4 0.415487 0.588197 0.386512
Si Si5 0.425547 0.251419 0.585506
Si Si6 0.076519 0.091587 0.087626
O O1 0.750000 0.807891 0.733881
O O2 0.550205 0.715101 0.807986
O O3 0.485883 0.796182 0.669022
O O4 0.521350 0.863937 0.825354
O O5 0.250000 0.500000 0.929987
O O6 0.039010 0.580098 0.862501
O O7 0.000000 0.500000 0.000000
O O8 0.250000 0.608791 0.148326
O O9 0.088518 0.584742 0.284306
O O10 0.250000 0.610479 0.420377
O O11 0.462527 0.500000 0.419702
O O12 0.532115 0.654837 0.415696
O O13 0.500000 0.212778 0.500000
O O14 0.250000 0.242353 0.582410
O O15 0.250000 0.105436 0.075716
O O16 0.034813 0.000000 0.101218
O O17 0.000000 0.124196 0.000000
#
# Coordination Sequence:
#
# PCOD8214556 Si02
#       6
#     8   4   8   8   8   8
#     4   9  19  36  57  80 109 145 179 217 269 323
#     4  12  24  34  46  64  91 128 173 222 268 314
#     4   9  17  33  51  68  94 130 170 213 262 312
#     4   9  17  32  53  72  96 132 170 216 272 323
#     4  11  22  35  52  76 106 141 183 229 273 322
#     4   9  18  34  58  88 119 147 175 213 264 322
#
# _framework density 18.649706999999999
#
# number of rings (size 3 to 8) (size 9 to 14) (size 15 to 20)
#    0.000    2.364    0.909    3.545    0.000    5.091 
#    0.000    1.818    0.000    0.545    0.000    0.000 
#    0.000    0.000    0.000    0.000    0.000    0.000 
#
# Total GULP energy -545363.813440 kJ/mol
# GULP energy per Si atom -12394.632124 kJ/mol
# Density = 1.860726 g / cm^3
# Si number density = 18.649707 Si / 1000 Ang^3
#
#
#
# Elastic Constant Matrix: (Units=GPa)
#
#
# Indices 1 2 3 4 5 6 
#
# 1 120.5907 34.2949 71.8498 0.0000 0.0000 0.0000
# 2 34.2949 69.7094 54.8515 0.0000 0.0000 0.0000
# 3 71.8498 54.8515 134.9725 0.0000 0.0000 0.0000
# 4 0.0000 0.0000 0.0000 19.8909 0.0000 0.0000
# 5 0.0000 0.0000 0.0000 0.0000 34.5317 0.0000
# 6 0.0000 0.0000 0.0000 0.0000 0.0000 19.7064
#
#
#
# Elastic Compliance Matrix: (Units=1/GPa)
#
#
# Indices 1 2 3 4 5 6 
#
# 1 0.012226 -0.001314 -0.005974 0.000000 0.000000 0.000000
# 2 -0.001314 0.021230 -0.007928 0.000000 0.000000 0.000000
# 3 -0.005974 -0.007928 0.013811 0.000000 0.000000 0.000000
# 4 0.000000 0.000000 0.000000 0.050274 0.000000 0.000000
# 5 0.000000 0.000000 0.000000 0.000000 0.028959 0.000000
# 6 0.000000 0.000000 0.000000 0.000000 0.000000 0.050745
#
#
# Mechanical properties :
#
#
# Convention : Reuss Voigt Hill
#
# Bulk Modulus (GPa) = 59.40258 71.91832 65.66045
# Shear Modulus (GPa) = 23.44238 25.77755 24.60997
#
# Velocity S-wave (km/s) = 3.54924 3.72182 3.63656
# Velocity P-wave (km/s) = 6.97976 7.55749 7.27437
#
# Compressibility (1/GPa) = 0.01683428
#
# Stress axis : x y z
#
# Youngs Moduli (GPa) = 81.79533 47.10293 72.40552
#
# Poissons Ratio (x) = 0.06189 0.43256
# Poissons Ratio (y) = 0.10747 0.57405
# Poissons Ratio (z) = 0.48866 0.37345
#
# Static dielectric constant tensor:
#      x y z
#    x 3.243940 0.000000 0.000000 
#    y 0.000000 3.296410 0.000000 
#    z 0.000000 0.000000 3.358310 
# 
# 
# High freq. dielectric constant tensor:
#      x y z
#    x 1.717510 0.000000 0.000000 
#    y 0.000000 1.697200 0.000000 
#    z 0.000000 0.000000 1.730670 
# 
# From -- ./inp_files/20907.got.cif
#   From: 2010.03.12/outbox.cif.g09.slc.cpg/sg51_11_cif.got.tgz:20907.got - 2010.04.16 13:43:02.
