data_PCOD8214541
_publ_section_title
;
Structure prediction by ZEFSAII (Michael W. Deem and Ramdas Pophale) SiO2 
 PCOD8214541
Probable space group: P M M A
;
_chemical_formula_sum "Si O2"
_cell_formula_units_Z 64
_cell_length_a 9.024023
_cell_length_b 20.628976
_cell_length_c 18.489975
_cell_angle_alpha 90.000000
_cell_angle_beta 90.000000
_cell_angle_gamma 90.000000
_cell_volume 3442.026330
_symmetry_space_group_name_H-M "P M M A"
_symmetry_group_IT_number 51
_symmetry_cell_setting 'orthorhombic'
loop_
_space_group_symop_operation_xyz
x,y,z
1/2-x,-y,z
1/2+x,-y,-z
-x,y,-z
-x,-y,-z
1/2+x,y,-z
1/2-x,y,z
x,-y,z
loop_
_atom_site_type_symbol
_atom_site_label
_atom_site_fract_x
_atom_site_fract_y
_atom_site_fract_z
Si Si1 0.422866 0.929174 0.685188
Si Si2 0.074504 0.310471 0.425608
Si Si3 0.074067 0.428613 0.811932
Si Si4 0.074323 0.677396 0.924235
Si Si5 0.422710 0.198263 0.318752
Si Si6 0.582523 0.931049 0.833076
Si Si7 0.077995 0.425038 0.649147
Si Si8 0.080497 0.791922 0.150442
O O1 0.250000 0.916431 0.678177
O O2 0.504481 0.867685 0.649064
O O3 0.465490 0.931532 0.769022
O O4 0.464356 0.000000 0.650324
O O5 0.250000 0.311959 0.434808
O O6 0.021398 0.259585 0.364652
O O7 0.000000 0.288420 0.500000
O O8 0.019134 0.381964 0.404501
O O9 0.250000 0.429552 0.813095
O O10 0.014104 0.500000 0.834034
O O11 0.012324 0.375728 0.867737
O O12 0.021937 0.411371 0.730923
O O13 0.250000 0.674869 0.932689
O O14 0.027879 0.747888 0.896287
O O15 0.000000 0.661122 0.000000
O O16 0.250000 0.188786 0.328301
O O17 0.465004 0.210443 0.234965
O O18 0.750000 0.925939 0.800385
O O19 0.557374 0.865777 0.880013
O O20 0.566217 0.000000 0.876656
O O21 0.250000 0.406378 0.640568
O O22 0.052483 0.500000 0.628973
O O23 0.250000 0.768706 0.139645
#
# Coordination Sequence:
#
# PCOD8214541 Si02
#       8
#     8   8   8   8   8   8   8   8
#     4   9  16  25  42  72 104 130 161 205 252 297
#     4  11  23  37  53  75 104 137 173 211 252 299
#     4   8  16  33  56  79 101 127 162 203 246 293
#     4  11  22  34  50  72 100 134 168 203 245 293
#     4   9  19  34  52  74 100 133 170 209 255 304
#     4   8  14  26  45  69  98 131 163 199 248 300
#     4   9  18  35  59  83 105 131 165 205 250 301
#     4   9  17  31  51  74 100 128 162 205 248 294
#
# _framework density 18.593698
#
# number of rings (size 3 to 8) (size 9 to 14) (size 15 to 20)
#    0.000    2.750    0.000    3.375    0.000    4.500 
#    0.000    0.625    0.000    3.375    0.000    0.000 
#    0.000    0.000    0.000    0.000    0.000    0.000 
#
# Total GULP energy -793117.532594 kJ/mol
# GULP energy per Si atom -12392.461447 kJ/mol
# Density = 1.855138 g / cm^3
# Si number density = 18.593698 Si / 1000 Ang^3
#
#
#
# Elastic Constant Matrix: (Units=GPa)
#
#
# Indices 1 2 3 4 5 6 
#
# 1 47.7313 25.1483 15.1405 0.0000 0.0000 0.0000
# 2 25.1483 98.3062 16.7391 0.0000 0.0000 0.0000
# 3 15.1405 16.7391 41.5261 0.0000 0.0000 0.0000
# 4 0.0000 0.0000 0.0000 6.5113 0.0000 0.0000
# 5 0.0000 0.0000 0.0000 0.0000 20.6884 0.0000
# 6 0.0000 0.0000 0.0000 0.0000 0.0000 28.5249
#
#
#
# Elastic Compliance Matrix: (Units=1/GPa)
#
#
# Indices 1 2 3 4 5 6 
#
# 1 0.026144 -0.005438 -0.007340 0.000000 0.000000 0.000000
# 2 -0.005438 0.012053 -0.002876 0.000000 0.000000 0.000000
# 3 -0.007340 -0.002876 0.027917 0.000000 0.000000 0.000000
# 4 0.000000 0.000000 0.000000 0.153579 0.000000 0.000000
# 5 0.000000 0.000000 0.000000 0.000000 0.048336 0.000000
# 6 0.000000 0.000000 0.000000 0.000000 0.000000 0.035057
#
#
# Mechanical properties :
#
#
# Convention : Reuss Voigt Hill
#
# Bulk Modulus (GPa) = 28.73089 33.51327 31.12208
# Shear Modulus (GPa) = 14.45103 19.84731 17.14917
#
# Velocity S-wave (km/s) = 2.79086 3.27069 3.04025
# Velocity P-wave (km/s) = 5.08632 5.68562 5.39430
#
# Compressibility (1/GPa) = 0.03480574
#
# Stress axis : x y z
#
# Youngs Moduli (GPa) = 38.24949 82.96569 35.82095
#
# Poissons Ratio (x) = 0.45119 0.26293
# Poissons Ratio (y) = 0.20801 0.10301
# Poissons Ratio (z) = 0.28075 0.23859
#
# Static dielectric constant tensor:
#      x y z
#    x 3.230650 0.000000 0.000000 
#    y 0.000000 3.941360 0.000000 
#    z 0.000000 0.000000 3.152500 
# 
# 
# High freq. dielectric constant tensor:
#      x y z
#    x 1.709780 0.000000 0.000000 
#    y 0.000000 1.745440 0.000000 
#    z 0.000000 0.000000 1.676980 
# 
# From -- ./inp_files/28421.got.cif
#   From: 2010.03.12/outbox.cif.g09.slc.cpg/sg51_15_cif.got.tgz:28421.got - 2010.04.16 13:43:02.
