data_PCOD8214738
_publ_section_title
;
Structure prediction by ZEFSAII (Michael W. Deem and Ramdas Pophale) SiO2 
 PCOD8214738
Probable space group: P M M A
;
_chemical_formula_sum "Si O2"
_cell_formula_units_Z 48
_cell_length_a 19.245639
_cell_length_b 9.454693
_cell_length_c 16.248640
_cell_angle_alpha 90.000000
_cell_angle_beta 90.000000
_cell_angle_gamma 90.000000
_cell_volume 2956.628668
_symmetry_space_group_name_H-M "P M M A"
_symmetry_group_IT_number 51
_symmetry_cell_setting 'orthorhombic'
loop_
_space_group_symop_operation_xyz
x,y,z
1/2-x,-y,z
1/2+x,-y,-z
-x,y,-z
-x,-y,-z
1/2+x,y,-z
1/2-x,y,z
x,-y,z
loop_
_atom_site_type_symbol
_atom_site_label
_atom_site_fract_x
_atom_site_fract_y
_atom_site_fract_z
Si Si1 0.674521 0.160902 0.152584
Si Si2 0.527503 0.165451 0.088622
Si Si3 0.444514 0.841358 0.381952
Si Si4 0.981848 0.658486 0.760506
Si Si5 0.601373 0.158479 0.443806
Si Si6 0.637506 0.342478 0.302259
O O1 0.750000 0.177170 0.107230
O O2 0.610125 0.202577 0.093367
O O3 0.678468 0.257758 0.232831
O O4 0.663360 0.000000 0.182486
O O5 0.483743 0.253195 0.155140
O O6 0.513968 0.000000 0.104661
O O7 0.500000 0.212870 0.000000
O O8 0.431326 0.736536 0.305010
O O9 0.399317 0.790999 0.460840
O O10 0.524439 0.842354 0.407399
O O11 0.422575 0.000000 0.355656
O O12 0.953721 0.500000 0.777843
O O13 0.057329 0.651169 0.721256
O O14 0.648144 0.265147 0.390115
O O15 0.632252 0.000000 0.437926
O O16 0.668653 0.500000 0.309168
#
# Coordination Sequence:
#
# PCOD8214738 Si02
#       6
#     8   8   8   8   8   8
#     4   9  17  29  44  60  79 105 136 168 202 244
#     4   9  17  29  44  60  79 105 136 170 211 259
#     4   8  13  21  33  49  71 101 134 164 193 228
#     4   9  16  24  35  53  77 104 132 163 201 244
#     4   8  13  21  33  49  71 101 134 163 191 225
#     4   9  16  24  35  53  77 104 132 162 196 234
#
# _framework density 16.234707
#
# number of rings (size 3 to 8) (size 9 to 14) (size 15 to 20)
#    0.000    3.333    0.000    2.000    0.000    5.333 
#    0.000    3.333    0.000    0.000    0.000    0.000 
#    0.000    1.333    0.000   10.333    0.000   11.500 
#
# Total GULP energy -594765.985380 kJ/mol
# GULP energy per Si atom -12390.958029 kJ/mol
# Density = 1.619776 g / cm^3
# Si number density = 16.234707 Si / 1000 Ang^3
#
#
#
# Elastic Constant Matrix: (Units=GPa)
#
#
# Indices 1 2 3 4 5 6 
#
# 1 38.6066 21.6692 34.8702 0.0000 0.0000 0.0000
# 2 21.6692 98.7992 68.9814 0.0000 0.0000 0.0000
# 3 34.8702 68.9814 130.2287 0.0000 0.0000 0.0000
# 4 0.0000 0.0000 0.0000 14.6653 0.0000 0.0000
# 5 0.0000 0.0000 0.0000 0.0000 11.2333 0.0000
# 6 0.0000 0.0000 0.0000 0.0000 0.0000 5.4345
#
#
#
# Elastic Compliance Matrix: (Units=1/GPa)
#
#
# Indices 1 2 3 4 5 6 
#
# 1 0.034358 -0.001765 -0.008265 0.000000 0.000000 0.000000
# 2 -0.001765 0.016152 -0.008083 0.000000 0.000000 0.000000
# 3 -0.008265 -0.008083 0.014173 0.000000 0.000000 0.000000
# 4 0.000000 0.000000 0.000000 0.068188 0.000000 0.000000
# 5 0.000000 0.000000 0.000000 0.000000 0.089021 0.000000
# 6 0.000000 0.000000 0.000000 0.000000 0.000000 0.184009
#
#
# Mechanical properties :
#
#
# Convention : Reuss Voigt Hill
#
# Bulk Modulus (GPa) = 35.14010 57.63069 46.38540
# Shear Modulus (GPa) = 11.07140 15.74086 13.40613
#
# Velocity S-wave (km/s) = 2.61427 3.11719 2.87674
# Velocity P-wave (km/s) = 5.55019 6.96644 6.29825
#
# Compressibility (1/GPa) = 0.02845751
#
# Stress axis : x y z
#
# Youngs Moduli (GPa) = 29.10541 61.91056 70.55494
#
# Poissons Ratio (x) = 0.10928 0.58311
# Poissons Ratio (y) = 0.05138 0.57031
# Poissons Ratio (z) = 0.24055 0.50043
#
# Static dielectric constant tensor:
#      x y z
#    x 2.642150 0.000000 0.000000 
#    y 0.000000 3.347720 0.000000 
#    z 0.000000 0.000000 3.062840 
# 
# 
# High freq. dielectric constant tensor:
#      x y z
#    x 1.563900 0.000000 0.000000 
#    y 0.000000 1.631110 0.000000 
#    z 0.000000 0.000000 1.610050 
# 
# From -- ./inp_files/26018.got.cif
#   From: 2010.03.12/outbox.cif.g09.slc.cpg/sg51_14_cif.got.tgz:26018.got - 2010.04.16 13:43:02.
