data_PCOD8214458
_publ_section_title
;
Structure prediction by ZEFSAII (Michael W. Deem and Ramdas Pophale) SiO2 
 PCOD8214458
Probable space group: P M M A
;
_chemical_formula_sum "Si O2"
_cell_formula_units_Z 40
_cell_length_a 9.001234
_cell_length_b 15.251933
_cell_length_c 20.371692
_cell_angle_alpha 90.000000
_cell_angle_beta 90.000000
_cell_angle_gamma 90.000000
_cell_volume 2796.752547
_symmetry_space_group_name_H-M "P M M A"
_symmetry_group_IT_number 51
_symmetry_cell_setting 'orthorhombic'
loop_
_space_group_symop_operation_xyz
x,y,z
1/2-x,-y,z
1/2+x,-y,-z
-x,y,-z
-x,-y,-z
1/2+x,y,-z
1/2-x,y,z
x,-y,z
loop_
_atom_site_type_symbol
_atom_site_label
_atom_site_fract_x
_atom_site_fract_y
_atom_site_fract_z
Si Si1 0.914326 0.395945 0.310926
Si Si2 0.924042 0.904742 0.070290
Si Si3 0.577131 0.397529 0.164618
Si Si4 0.915684 0.395372 0.563747
Si Si5 0.073337 0.735525 0.071298
O O1 0.750000 0.357331 0.321698
O O2 0.907918 0.500000 0.315932
O O3 0.972302 0.370185 0.238484
O O4 0.016493 0.357096 0.368713
O O5 0.750000 0.882872 0.062747
O O6 0.007398 0.823983 0.106545
O O7 0.945236 0.000000 0.105924
O O8 0.000000 0.911117 0.000000
O O9 0.750000 0.373908 0.153190
O O10 0.550753 0.500000 0.152748
O O11 0.471234 0.347290 0.114721
O O12 0.750000 0.359540 0.559110
O O13 0.921400 0.500000 0.564455
O O14 0.000000 0.358560 0.500000
O O15 0.250000 0.741180 0.065055
O O16 0.000000 0.724178 0.000000
#
# Coordination Sequence:
#
# PCOD8214458 Si02
#       5
#     8   8   8   8   8
#     4   8  14  25  39  52  67  90 120 154 192 230
#     4   9  16  27  44  63  81  99 119 147 186 233
#     4   9  18  32  46  57  73 100 133 168 203 237
#     4   9  15  21  31  48  69  91 116 149 186 223
#     4  11  21  31  44  60  79 101 127 162 199 237
#
# _framework density 14.302301
#
# number of rings (size 3 to 8) (size 9 to 14) (size 15 to 20)
#    0.000    2.800    0.000    5.400    0.000    5.200 
#    0.000    2.000    0.000    0.000    0.000    0.000 
#    0.000    0.000    0.000    0.000    0.000    1.000 
#
# Total GULP energy -495593.253879 kJ/mol
# GULP energy per Si atom -12389.831347 kJ/mol
# Density = 1.426975 g / cm^3
# Si number density = 14.302301 Si / 1000 Ang^3
#
#
#
# Elastic Constant Matrix: (Units=GPa)
#
#
# Indices 1 2 3 4 5 6 
#
# 1 119.6546 37.8593 54.1442 0.0000 0.0000 0.0000
# 2 37.8593 51.0823 33.1941 0.0000 0.0000 0.0000
# 3 54.1442 33.1941 83.9868 0.0000 0.0000 0.0000
# 4 0.0000 0.0000 0.0000 0.0369 0.0000 0.0000
# 5 0.0000 0.0000 0.0000 0.0000 24.7121 0.0000
# 6 0.0000 0.0000 0.0000 0.0000 0.0000 18.1998
#
#
#
# Elastic Compliance Matrix: (Units=1/GPa)
#
#
# Indices 1 2 3 4 5 6 
#
# 1 0.012885 -0.005586 -0.006098 0.000000 0.000000 0.000000
# 2 -0.005586 0.028764 -0.007767 0.000000 0.000000 0.000000
# 3 -0.006098 -0.007767 0.018908 0.000000 0.000000 0.000000
# 4 0.000000 0.000000 0.000000 27.117123 0.000000 0.000000
# 5 0.000000 0.000000 0.000000 0.000000 0.040466 0.000000
# 6 0.000000 0.000000 0.000000 0.000000 0.000000 0.054946
#
#
# Mechanical properties :
#
#
# Convention : Reuss Voigt Hill
#
# Bulk Modulus (GPa) = 46.18377 56.12434 51.15406
# Shear Modulus (GPa) = 0.18302 17.22482 8.70392
#
# Velocity S-wave (km/s) = 0.35811 3.47412 2.46959
# Velocity P-wave (km/s) = 5.70370 7.44442 6.63143
#
# Compressibility (1/GPa) = 0.02165263
#
# Stress axis : x y z
#
# Youngs Moduli (GPa) = 77.61247 34.76611 52.88822
#
# Poissons Ratio (x) = 0.19422 0.32253
# Poissons Ratio (y) = 0.43358 0.41077
# Poissons Ratio (z) = 0.47331 0.27002
#
# Static dielectric constant tensor:
#      x y z
#    x 2.975000 0.000000 0.000000 
#    y 0.000000 2.829740 0.000000 
#    z 0.000000 0.000000 2.763110 
# 
# 
# High freq. dielectric constant tensor:
#      x y z
#    x 1.560180 0.000000 0.000000 
#    y 0.000000 1.498130 0.000000 
#    z 0.000000 0.000000 1.525730 
# 
# From -- ./inp_files/27739.got.cif
#   From: 2010.03.12/outbox.cif.g09.slc.cpg/sg51_14_cif.got.tgz:27739.got - 2010.04.16 13:43:02.
