data_PCOD8214533
_publ_section_title
;
Structure prediction by ZEFSAII (Michael W. Deem and Ramdas Pophale) SiO2 
 PCOD8214533
Probable space group: P M M A
;
_chemical_formula_sum "Si O2"
_cell_formula_units_Z 56
_cell_length_a 9.030783
_cell_length_b 19.071716
_cell_length_c 18.349840
_cell_angle_alpha 90.000000
_cell_angle_beta 90.000000
_cell_angle_gamma 90.000000
_cell_volume 3160.439343
_symmetry_space_group_name_H-M "P M M A"
_symmetry_group_IT_number 51
_symmetry_cell_setting 'orthorhombic'
loop_
_space_group_symop_operation_xyz
x,y,z
1/2-x,-y,z
1/2+x,-y,-z
-x,y,-z
-x,-y,-z
1/2+x,y,-z
1/2-x,y,z
x,-y,z
loop_
_atom_site_type_symbol
_atom_site_label
_atom_site_fract_x
_atom_site_fract_y
_atom_site_fract_z
Si Si1 0.575388 0.717206 0.425326
Si Si2 0.079196 0.920179 0.203899
Si Si3 0.421375 0.422794 0.199571
Si Si4 0.080881 0.720813 0.145253
Si Si5 0.074980 0.844174 0.925435
Si Si6 0.082134 0.792428 0.298274
Si Si7 0.575846 0.422710 0.351506
O O1 0.500000 0.740772 0.500000
O O2 0.750000 0.721240 0.434820
O O3 0.528613 0.770945 0.362191
O O4 0.520810 0.638051 0.406082
O O5 0.250000 0.909536 0.179845
O O6 0.046120 0.872482 0.274663
O O7 0.976572 0.897429 0.137003
O O8 0.044127 0.000000 0.225262
O O9 0.250000 0.417038 0.221292
O O10 0.458432 0.500000 0.166728
O O11 0.459648 0.362162 0.140535
O O12 0.510970 0.408791 0.272438
O O13 0.250000 0.735401 0.121044
O O14 0.056729 0.743017 0.228752
O O15 0.974150 0.764415 0.092476
O O16 0.250000 0.847192 0.933354
O O17 0.000000 0.869252 0.000000
O O18 0.250000 0.785395 0.327007
O O19 0.750000 0.418034 0.342434
O O20 0.527462 0.500000 0.380905
#
# Coordination Sequence:
#
# PCOD8214533 Si02
#       7
#     8   8   8   8   8   8   8
#     4  11  22  33  48  69  97 134 174 216 261 305
#     4   9  19  37  60  84 109 137 165 197 243 297
#     4   9  16  27  47  73  98 128 167 211 258 306
#     4   9  17  31  51  74 102 134 170 212 256 302
#     4  11  22  35  53  78 109 142 174 206 244 291
#     4   9  17  32  53  76 101 129 163 205 248 298
#     4   9  18  31  45  65  96 131 168 212 260 307
#
# _framework density 17.719055000000001
#
# number of rings (size 3 to 8) (size 9 to 14) (size 15 to 20)
#    0.000    2.429    1.429    2.571    0.000    4.286 
#    0.000    0.000    0.000    0.857    0.000    0.000 
#    0.000    0.000    0.000    0.000    0.000    0.000 
#
# Total GULP energy -694256.098056 kJ/mol
# GULP energy per Si atom -12397.430322 kJ/mol
# Density = 1.767873 g / cm^3
# Si number density = 17.719055 Si / 1000 Ang^3
#
#
#
# Elastic Constant Matrix: (Units=GPa)
#
#
# Indices 1 2 3 4 5 6 
#
# 1 70.1124 39.2796 37.6947 0.0000 0.0000 0.0000
# 2 39.2796 125.9372 35.0741 0.0000 0.0000 0.0000
# 3 37.6947 35.0741 62.4101 0.0000 0.0000 0.0000
# 4 0.0000 0.0000 0.0000 15.6702 0.0000 0.0000
# 5 0.0000 0.0000 0.0000 0.0000 27.6638 0.0000
# 6 0.0000 0.0000 0.0000 0.0000 0.0000 23.3465
#
#
#
# Elastic Compliance Matrix: (Units=1/GPa)
#
#
# Indices 1 2 3 4 5 6 
#
# 1 0.022592 -0.003849 -0.011482 0.000000 0.000000 0.000000
# 2 -0.003849 0.010070 -0.003335 0.000000 0.000000 0.000000
# 3 -0.011482 -0.003335 0.024832 0.000000 0.000000 0.000000
# 4 0.000000 0.000000 0.000000 0.063815 0.000000 0.000000
# 5 0.000000 0.000000 0.000000 0.000000 0.036148 0.000000
# 6 0.000000 0.000000 0.000000 0.000000 0.000000 0.042833
#
#
# Mechanical properties :
#
#
# Convention : Reuss Voigt Hill
#
# Bulk Modulus (GPa) = 49.59611 53.61738 51.60675
# Shear Modulus (GPa) = 20.46307 23.09688 21.77997
#
# Velocity S-wave (km/s) = 3.40201 3.61433 3.50978
# Velocity P-wave (km/s) = 6.59414 6.90965 6.75373
#
# Compressibility (1/GPa) = 0.02016287
#
# Stress axis : x y z
#
# Youngs Moduli (GPa) = 44.26287 99.30969 40.27021
#
# Poissons Ratio (x) = 0.38220 0.46240
# Poissons Ratio (y) = 0.17035 0.13428
# Poissons Ratio (z) = 0.50825 0.33115
#
# Static dielectric constant tensor:
#      x y z
#    x 3.311540 0.000000 0.000000 
#    y 0.000000 3.593190 0.000000 
#    z 0.000000 0.000000 2.973850 
# 
# 
# High freq. dielectric constant tensor:
#      x y z
#    x 1.683300 0.000000 0.000000 
#    y 0.000000 1.691270 0.000000 
#    z 0.000000 0.000000 1.650680 
# 
# From -- ./inp_files/21819.got.cif
#   From: 2010.03.12/outbox.cif.g09.slc.cpg/sg51_11_cif.got.tgz:21819.got - 2010.04.16 13:43:02.
