data_PCOD8214022
_publ_section_title
;
Structure prediction by ZEFSAII (Michael W. Deem and Ramdas Pophale) SiO2 
 PCOD8214022
Probable space group: P M M A
;
_chemical_formula_sum "Si O2"
_cell_formula_units_Z 56
_cell_length_a 15.813735
_cell_length_b 8.998745
_cell_length_c 19.491586
_cell_angle_alpha 90.000000
_cell_angle_beta 90.000000
_cell_angle_gamma 90.000000
_cell_volume 2773.726147
_symmetry_space_group_name_H-M "P M M A"
_symmetry_group_IT_number 51
_symmetry_cell_setting 'orthorhombic'
loop_
_space_group_symop_operation_xyz
x,y,z
1/2-x,-y,z
1/2+x,-y,-z
-x,y,-z
-x,-y,-z
1/2+x,y,-z
1/2-x,y,z
x,-y,z
loop_
_atom_site_type_symbol
_atom_site_label
_atom_site_fract_x
_atom_site_fract_y
_atom_site_fract_z
Si Si1 0.908441 0.823330 0.213064
Si Si2 0.345961 0.674623 0.068016
Si Si3 0.494481 0.174281 0.578916
Si Si4 0.918287 0.324161 0.787636
Si Si5 0.651070 0.171519 0.066391
Si Si6 0.843951 0.171448 0.666165
Si Si7 0.655443 0.327948 0.340116
O O1 0.890412 0.766231 0.135976
O O2 0.842673 0.752431 0.266082
O O3 0.999480 0.765111 0.236410
O O4 0.902320 0.000000 0.217773
O O5 0.250000 0.731261 0.075905
O O6 0.349463 0.500000 0.059467
O O7 0.395644 0.726717 0.135379
O O8 0.387682 0.745443 0.999885
O O9 0.500000 0.220450 0.500000
O O10 0.583493 0.223170 0.613107
O O11 0.414141 0.257248 0.610376
O O12 0.478493 0.000000 0.588495
O O13 0.931934 0.500000 0.783259
O O14 0.846469 0.272647 0.734608
O O15 0.750000 0.202924 0.072290
O O16 0.629994 0.000000 0.057004
O O17 0.750000 0.193778 0.633624
O O18 0.857764 0.000000 0.686795
O O19 0.750000 0.308688 0.371490
O O20 0.632907 0.500000 0.329578
#
# Coordination Sequence:
#
# PCOD8214022 Si02
#       7
#     8   8   8   8   8   8   8
#     4  11  22  37  58  84 116 154 200 253 307 360
#     4   9  19  35  53  75 107 148 194 243 297 359
#     4  10  22  41  66  96 129 164 202 246 296 355
#     4  11  22  36  56  83 116 154 199 250 303 359
#     4   9  19  35  54  77 106 144 193 247 302 359
#     4  10  21  38  61  90 123 160 203 249 298 356
#     4  11  24  41  63  93 127 164 206 251 302 361
#
# _framework density 20.189449
#
# number of rings (size 3 to 8) (size 9 to 14) (size 15 to 20)
#    0.000    1.857    1.429    2.143    0.000    6.286 
#    0.000    7.143    0.000    0.000    0.000    0.000 
#    0.000    0.000    0.000    0.000    0.000    0.000 
#
# Total GULP energy -694436.611239 kJ/mol
# GULP energy per Si atom -12400.653772 kJ/mol
# Density = 2.014350 g / cm^3
# Si number density = 20.189449 Si / 1000 Ang^3
#
#
#
# Elastic Constant Matrix: (Units=GPa)
#
#
# Indices 1 2 3 4 5 6 
#
# 1 110.0667 41.1670 59.2931 0.0000 0.0000 0.0000
# 2 41.1670 68.0779 53.9566 0.0000 0.0000 0.0000
# 3 59.2931 53.9566 145.5131 0.0000 0.0000 0.0000
# 4 0.0000 0.0000 0.0000 24.5228 0.0000 0.0000
# 5 0.0000 0.0000 0.0000 0.0000 27.1088 0.0000
# 6 0.0000 0.0000 0.0000 0.0000 0.0000 26.6863
#
#
#
# Elastic Compliance Matrix: (Units=1/GPa)
#
#
# Indices 1 2 3 4 5 6 
#
# 1 0.012779 -0.005099 -0.003316 0.000000 0.000000 0.000000
# 2 -0.005099 0.022837 -0.006390 0.000000 0.000000 0.000000
# 3 -0.003316 -0.006390 0.010593 0.000000 0.000000 0.000000
# 4 0.000000 0.000000 0.000000 0.040778 0.000000 0.000000
# 5 0.000000 0.000000 0.000000 0.000000 0.036888 0.000000
# 6 0.000000 0.000000 0.000000 0.000000 0.000000 0.037472
#
#
# Mechanical properties :
#
#
# Convention : Reuss Voigt Hill
#
# Bulk Modulus (GPa) = 60.24885 70.27678 65.26281
# Shear Modulus (GPa) = 25.44616 26.94630 26.19623
#
# Velocity S-wave (km/s) = 3.55402 3.65728 3.60602
# Velocity P-wave (km/s) = 6.83725 7.26075 7.05218
#
# Compressibility (1/GPa) = 0.01659783
#
# Stress axis : x y z
#
# Youngs Moduli (GPa) = 78.25263 43.78795 94.40044
#
# Poissons Ratio (x) = 0.22328 0.31307
# Poissons Ratio (y) = 0.39902 0.60326
# Poissons Ratio (z) = 0.25952 0.27982
#
# Static dielectric constant tensor:
#      x y z
#    x 3.677340 0.000000 0.000000 
#    y 0.000000 3.553310 0.000000 
#    z 0.000000 0.000000 3.774170 
# 
# 
# High freq. dielectric constant tensor:
#      x y z
#    x 1.790980 0.000000 0.000000 
#    y 0.000000 1.781590 0.000000 
#    z 0.000000 0.000000 1.790130 
# 
# From -- ./inp_files/33404.got.cif
#   From: 2010.03.12/outbox.cif.g09.slc.cpg/sg51_17_cif.got.tgz:33404.got - 2010.04.16 13:43:02.
