data_PCOD8214459
_publ_section_title
;
Structure prediction by ZEFSAII (Michael W. Deem and Ramdas Pophale) SiO2 
 PCOD8214459
Probable space group: P M M A
;
_chemical_formula_sum "Si O2"
_cell_formula_units_Z 64
_cell_length_a 9.147988
_cell_length_b 22.965670
_cell_length_c 19.258036
_cell_angle_alpha 90.000000
_cell_angle_beta 90.000000
_cell_angle_gamma 90.000000
_cell_volume 4045.914497
_symmetry_space_group_name_H-M "P M M A"
_symmetry_group_IT_number 51
_symmetry_cell_setting 'orthorhombic'
loop_
_space_group_symop_operation_xyz
x,y,z
1/2-x,-y,z
1/2+x,-y,-z
-x,y,-z
-x,-y,-z
1/2+x,y,-z
1/2-x,y,z
x,-y,z
loop_
_atom_site_type_symbol
_atom_site_label
_atom_site_fract_x
_atom_site_fract_y
_atom_site_fract_z
Si Si1 0.087473 0.733665 0.638903
Si Si2 0.577866 0.933118 0.793582
Si Si3 0.421534 0.836922 0.725425
Si Si4 0.583748 0.866281 0.930555
Si Si5 0.588638 0.333150 0.215720
Si Si6 0.076139 0.635682 0.429005
Si Si7 0.582534 0.762899 0.839878
Si Si8 0.079141 0.566995 0.690801
O O1 0.250000 0.728521 0.605746
O O2 0.047959 0.802011 0.652898
O O3 0.086808 0.702421 0.712925
O O4 0.971496 0.702283 0.588684
O O5 0.750000 0.924506 0.784561
O O6 0.499352 0.900027 0.728987
O O7 0.524895 0.905601 0.866725
O O8 0.530352 0.000000 0.791017
O O9 0.250000 0.844752 0.737240
O O10 0.486061 0.798918 0.787036
O O11 0.750000 0.883100 0.944602
O O12 0.568450 0.796958 0.913198
O O13 0.500000 0.882467 0.000000
O O14 0.750000 0.332613 0.182264
O O15 0.479267 0.303514 0.159369
O O16 0.542095 0.398911 0.237117
O O17 0.250000 0.632455 0.435499
O O18 0.000000 0.615938 0.500000
O O19 0.020999 0.590777 0.371063
O O20 0.750000 0.761636 0.814828
O O21 0.250000 0.576692 0.671442
O O22 0.041414 0.500000 0.703627
#
# Coordination Sequence:
#
# PCOD8214459 Si02
#       8
#     8   8   8   8   8   8   8   8
#     4   8  15  28  43  60  82 104 130 168 211 249
#     4   9  18  31  43  57  82 113 142 173 207 243
#     4   9  16  26  42  62  81 102 131 169 209 247
#     4   9  18  29  40  56  79 109 143 175 207 242
#     4   8  14  25  42  62  80 101 131 166 205 246
#     4  11  21  31  44  61  83 112 145 177 207 242
#     4   9  16  26  40  58  80 104 130 165 210 253
#     4   9  18  32  46  60  83 113 142 173 206 240
#
# _framework density 15.818426000000001
#
# number of rings (size 3 to 8) (size 9 to 14) (size 15 to 20)
#    0.000    3.000    0.000    4.125    0.000    8.500 
#    0.000    0.000    0.000    0.000    0.000    0.000 
#    0.000    1.000    0.000    2.750    0.000    4.625 
#
# Total GULP energy -792903.540079 kJ/mol
# GULP energy per Si atom -12389.117814 kJ/mol
# Density = 1.578242 g / cm^3
# Si number density = 15.818426 Si / 1000 Ang^3
#
#
#
# Elastic Constant Matrix: (Units=GPa)
#
#
# Indices 1 2 3 4 5 6 
#
# 1 69.4171 46.7228 14.0367 0.0000 0.0000 0.0000
# 2 46.7228 123.1600 31.8845 0.0000 0.0000 0.0000
# 3 14.0367 31.8845 10.2997 0.0000 0.0000 0.0000
# 4 0.0000 0.0000 0.0000 14.8186 0.0000 0.0000
# 5 0.0000 0.0000 0.0000 0.0000 21.5176 0.0000
# 6 0.0000 0.0000 0.0000 0.0000 0.0000 21.8985
#
#
#
# Elastic Compliance Matrix: (Units=1/GPa)
#
#
# Indices 1 2 3 4 5 6 
#
# 1 0.020060 -0.002682 -0.019036 0.000000 0.000000 0.000000
# 2 -0.002682 0.041248 -0.124037 0.000000 0.000000 0.000000
# 3 -0.019036 -0.124037 0.507009 0.000000 0.000000 0.000000
# 4 0.000000 0.000000 0.000000 0.067483 0.000000 0.000000
# 5 0.000000 0.000000 0.000000 0.000000 0.046474 0.000000
# 6 0.000000 0.000000 0.000000 0.000000 0.000000 0.045665
#
#
# Mechanical properties :
#
#
# Convention : Reuss Voigt Hill
#
# Bulk Modulus (GPa) = 3.61260 43.12944 23.37102
# Shear Modulus (GPa) = 4.49755 18.99577 11.74666
#
# Velocity S-wave (km/s) = 1.68802 3.46911 2.72801
# Velocity P-wave (km/s) = 2.46738 6.58565 4.97286
#
# Compressibility (1/GPa) = 0.27680929
#
# Stress axis : x y z
#
# Youngs Moduli (GPa) = 49.85033 24.24333 1.97235
#
# Poissons Ratio (x) = 0.06502 0.03754
# Poissons Ratio (y) = 0.13370 0.24464
# Poissons Ratio (z) = 0.94893 3.00706
#
# Static dielectric constant tensor:
#      x y z
#    x 3.116810 0.000000 0.000000 
#    y 0.000000 3.578110 0.000000 
#    z 0.000000 0.000000 2.805290 
# 
# 
# High freq. dielectric constant tensor:
#      x y z
#    x 1.613030 0.000000 0.000000 
#    y 0.000000 1.602220 0.000000 
#    z 0.000000 0.000000 1.553920 
# 
# From -- ./inp_files/32690.got.cif
#   From: 2010.03.12/outbox.cif.g09.slc.cpg/sg51_17_cif.got.tgz:32690.got - 2010.04.16 13:43:02.
