data_PCOD8214430
_publ_section_title
;
Structure prediction by ZEFSAII (Michael W. Deem and Ramdas Pophale) SiO2 
 PCOD8214430
Probable space group: P M M A
;
_chemical_formula_sum "Si O2"
_cell_formula_units_Z 48
_cell_length_a 21.607032
_cell_length_b 9.252333
_cell_length_c 14.191589
_cell_angle_alpha 90.000000
_cell_angle_beta 90.000000
_cell_angle_gamma 90.000000
_cell_volume 2837.117975
_symmetry_space_group_name_H-M "P M M A"
_symmetry_group_IT_number 51
_symmetry_cell_setting 'orthorhombic'
loop_
_space_group_symop_operation_xyz
x,y,z
1/2-x,-y,z
1/2+x,-y,-z
-x,y,-z
-x,-y,-z
1/2+x,y,-z
1/2-x,y,z
x,-y,z
loop_
_atom_site_type_symbol
_atom_site_label
_atom_site_fract_x
_atom_site_fract_y
_atom_site_fract_z
Si Si1 0.929289 0.341647 0.468359
Si Si2 0.181267 0.671387 0.018070
Si Si3 0.321377 0.341300 0.230462
Si Si4 0.519893 0.330518 0.277429
Si Si5 0.054794 0.671705 0.931274
Si Si6 0.903218 0.170031 0.641059
O O1 0.898755 0.500000 0.483773
O O2 0.927296 0.300235 0.357054
O O3 0.895291 0.223814 0.532984
O O4 0.000000 0.348096 0.500000
O O5 0.250000 0.732342 0.987645
O O6 0.184350 0.500000 0.009342
O O7 0.166014 0.715271 0.125126
O O8 0.123255 0.733386 0.957902
O O9 0.250000 0.362188 0.248275
O O10 0.353407 0.500000 0.245711
O O11 0.343063 0.219491 0.302841
O O12 0.502759 0.500000 0.276623
O O13 0.542967 0.277648 0.175623
O O14 0.459888 0.240030 0.303411
O O15 0.055936 0.500000 0.939354
O O16 0.000000 0.731414 0.000000
O O17 0.910753 0.000000 0.639744
#
# Coordination Sequence:
#
# PCOD8214430 Si02
#       6
#     8   8   8   8   8   8
#     4   8  15  28  44  61  84 115 148 180 215 262
#     4   8  14  25  43  68  93 115 144 184 226 266
#     4   9  17  30  48  67  88 117 150 182 220 269
#     4   9  17  29  45  65  90 120 151 182 219 264
#     4   9  15  23  41  68  93 117 147 185 226 267
#     4  11  20  28  43  66  91 117 146 185 230 271
#
# _framework density 16.918576999999999
#
# number of rings (size 3 to 8) (size 9 to 14) (size 15 to 20)
#    0.000    3.000    0.000    4.500    0.000    6.000 
#    0.000    0.000    0.000    5.500    0.000    4.667 
#    0.000    0.000    0.000    0.000    0.000    0.000 
#
# Total GULP energy -594680.766785 kJ/mol
# GULP energy per Si atom -12389.182641 kJ/mol
# Density = 1.688007 g / cm^3
# Si number density = 16.918577 Si / 1000 Ang^3
#
#
#
# Elastic Constant Matrix: (Units=GPa)
#
#
# Indices 1 2 3 4 5 6 
#
# 1 65.6923 18.5744 56.5003 0.0000 0.0000 0.0000
# 2 18.5744 60.9570 41.2089 0.0000 0.0000 0.0000
# 3 56.5003 41.2089 148.1431 0.0000 0.0000 0.0000
# 4 0.0000 0.0000 0.0000 0.9862 0.0000 0.0000
# 5 0.0000 0.0000 0.0000 0.0000 20.1524 0.0000
# 6 0.0000 0.0000 0.0000 0.0000 0.0000 5.4573
#
#
#
# Elastic Compliance Matrix: (Units=1/GPa)
#
#
# Indices 1 2 3 4 5 6 
#
# 1 0.022738 -0.001313 -0.008307 0.000000 0.000000 0.000000
# 2 -0.001313 0.020280 -0.005141 0.000000 0.000000 0.000000
# 3 -0.008307 -0.005141 0.011348 0.000000 0.000000 0.000000
# 4 0.000000 0.000000 0.000000 1.014033 0.000000 0.000000
# 5 0.000000 0.000000 0.000000 0.000000 0.049622 0.000000
# 6 0.000000 0.000000 0.000000 0.000000 0.000000 0.183241
#
#
# Mechanical properties :
#
#
# Convention : Reuss Voigt Hill
#
# Bulk Modulus (GPa) = 40.24789 56.37328 48.31058
# Shear Modulus (GPa) = 3.73395 15.88643 9.81019
#
# Velocity S-wave (km/s) = 1.48721 3.06762 2.41061
# Velocity P-wave (km/s) = 5.17589 6.77789 6.03033
#
# Compressibility (1/GPa) = 0.02484602
#
# Stress axis : x y z
#
# Youngs Moduli (GPa) = 43.97870 49.30896 88.11828
#
# Poissons Ratio (x) = 0.06474 0.73199
# Poissons Ratio (y) = 0.05774 0.45298
# Poissons Ratio (z) = 0.36533 0.25348
#
# Static dielectric constant tensor:
#      x y z
#    x 3.161220 0.000000 0.000000 
#    y 0.000000 3.177390 0.000000 
#    z 0.000000 0.000000 3.549270 
# 
# 
# High freq. dielectric constant tensor:
#      x y z
#    x 1.627980 0.000000 0.000000 
#    y 0.000000 1.606800 0.000000 
#    z 0.000000 0.000000 1.657920 
# 
# From -- ./inp_files/25467.got.cif
#   From: 2010.03.12/outbox.cif.g09.slc.cpg/sg51_13_cif.got.tgz:25467.got - 2010.04.16 13:43:02.
