data_PCOD8214537
_publ_section_title
;
Structure prediction by ZEFSAII (Michael W. Deem and Ramdas Pophale) SiO2 
 PCOD8214537
Probable space group: P M M A
;
_chemical_formula_sum "Si O2"
_cell_formula_units_Z 64
_cell_length_a 9.382360
_cell_length_b 14.196967
_cell_length_c 25.543044
_cell_angle_alpha 90.000000
_cell_angle_beta 90.000000
_cell_angle_gamma 90.000000
_cell_volume 3402.360416
_symmetry_space_group_name_H-M "P M M A"
_symmetry_group_IT_number 51
_symmetry_cell_setting 'orthorhombic'
loop_
_space_group_symop_operation_xyz
x,y,z
1/2-x,-y,z
1/2+x,-y,-z
-x,y,-z
-x,-y,-z
1/2+x,y,-z
1/2-x,y,z
x,-y,z
loop_
_atom_site_type_symbol
_atom_site_label
_atom_site_fract_x
_atom_site_fract_y
_atom_site_fract_z
Si Si1 0.918697 0.279449 0.153141
Si Si2 0.915375 0.608233 0.049982
Si Si3 0.913258 0.895215 0.395975
Si Si4 0.588795 0.611096 0.640431
Si Si5 0.917636 0.107848 0.817152
Si Si6 0.086218 0.610105 0.240404
Si Si7 0.084463 0.290969 0.551008
Si Si8 0.405632 0.888384 0.299892
O O1 0.750000 0.270454 0.160058
O O2 0.961650 0.334849 0.101027
O O3 0.988794 0.175995 0.146464
O O4 0.981455 0.333483 0.202905
O O5 0.750000 0.620760 0.037619
O O6 0.956007 0.500000 0.060551
O O7 0.000000 0.648086 0.000000
O O8 0.750000 0.901852 0.379788
O O9 0.936214 0.822241 0.443360
O O10 0.990359 0.852047 0.345010
O O11 0.970149 0.000000 0.411891
O O12 0.750000 0.638272 0.623730
O O13 0.567981 0.500000 0.637068
O O14 0.559893 0.644948 0.699984
O O15 0.475546 0.658548 0.602189
O O16 0.750000 0.120838 0.827780
O O17 0.956288 0.140457 0.757961
O O18 0.962762 0.000000 0.827822
O O19 0.250000 0.629867 0.224430
O O20 0.051212 0.500000 0.235505
O O21 0.250000 0.317671 0.544635
O O22 0.000000 0.325751 0.500000
O O23 0.250000 0.844634 0.311359
O O24 0.396145 0.000000 0.301309
#
# Coordination Sequence:
#
# PCOD8214537 Si02
#       8
#     8   8   8   8   8   8   8   8
#     4  11  22  33  52  84 119 151 184 227 280 331
#     4   9  19  36  56  80 112 149 188 231 277 326
#     4   9  19  35  53  75 105 136 168 211 261 315
#     4   9  20  40  62  81 104 136 174 219 268 317
#     4   9  19  35  52  74 108 149 193 234 270 317
#     4   9  19  36  57  82 112 146 182 218 264 327
#     4  11  24  39  56  79 104 134 175 219 268 323
#     4   8  15  29  49  72  97 130 173 215 256 305
#
# _framework density 18.810472000000001
#
# number of rings (size 3 to 8) (size 9 to 14) (size 15 to 20)
#    0.000    2.625    0.000    2.625    1.750    4.750 
#    0.000    3.750    0.000    0.375    0.000    0.000 
#    0.000    0.000    0.000    0.000    0.000    0.000 
#
# Total GULP energy -793481.672603 kJ/mol
# GULP energy per Si atom -12398.151134 kJ/mol
# Density = 1.876766 g / cm^3
# Si number density = 18.810472 Si / 1000 Ang^3
#
#
#
# Elastic Constant Matrix: (Units=GPa)
#
#
# Indices 1 2 3 4 5 6 
#
# 1 91.0876 50.0179 64.1482 0.0000 0.0000 0.0000
# 2 50.0179 62.7167 52.6033 0.0000 0.0000 0.0000
# 3 64.1482 52.6033 109.9626 0.0000 0.0000 0.0000
# 4 0.0000 0.0000 0.0000 25.7940 0.0000 0.0000
# 5 0.0000 0.0000 0.0000 0.0000 34.8233 0.0000
# 6 0.0000 0.0000 0.0000 0.0000 0.0000 28.6964
#
#
#
# Elastic Compliance Matrix: (Units=1/GPa)
#
#
# Indices 1 2 3 4 5 6 
#
# 1 0.022876 -0.011776 -0.007712 0.000000 0.000000 0.000000
# 2 -0.011776 0.032691 -0.008769 0.000000 0.000000 0.000000
# 3 -0.007712 -0.008769 0.017788 0.000000 0.000000 0.000000
# 4 0.000000 0.000000 0.000000 0.038769 0.000000 0.000000
# 5 0.000000 0.000000 0.000000 0.000000 0.028716 0.000000
# 6 0.000000 0.000000 0.000000 0.000000 0.000000 0.034848
#
#
# Mechanical properties :
#
#
# Convention : Reuss Voigt Hill
#
# Bulk Modulus (GPa) = 59.37705 66.36729 62.87217
# Shear Modulus (GPa) = 21.02487 24.32922 22.67704
#
# Velocity S-wave (km/s) = 3.34686 3.60027 3.47588
# Velocity P-wave (km/s) = 6.82421 7.25543 7.04312
#
# Compressibility (1/GPa) = 0.01684152
#
# Stress axis : x y z
#
# Youngs Moduli (GPa) = 43.71482 30.58933 56.21904
#
# Poissons Ratio (x) = 0.36021 0.43354
# Poissons Ratio (y) = 0.51477 0.49299
# Poissons Ratio (z) = 0.33711 0.26824
#
# Static dielectric constant tensor:
#      x y z
#    x 3.537050 0.000000 0.000000 
#    y 0.000000 3.527710 0.000000 
#    z 0.000000 0.000000 3.362650 
# 
# 
# High freq. dielectric constant tensor:
#      x y z
#    x 1.726800 0.000000 0.000000 
#    y 0.000000 1.736470 0.000000 
#    z 0.000000 0.000000 1.711290 
# 
# From -- ./inp_files/34875.got.cif
#   From: 2010.03.12/outbox.cif.g09.slc.cpg/sg51_18_cif.got.tgz:34875.got - 2010.04.16 13:43:02.
