data_PCOD8214056
_publ_section_title
;
Structure prediction by ZEFSAII (Michael W. Deem and Ramdas Pophale) SiO2 
 PCOD8214056
Probable space group: P M M A
;
_chemical_formula_sum "Si O2"
_cell_formula_units_Z 40
_cell_length_a 15.092215
_cell_length_b 12.315346
_cell_length_c 9.132354
_cell_angle_alpha 90.000000
_cell_angle_beta 90.000000
_cell_angle_gamma 90.000000
_cell_volume 1697.392735
_symmetry_space_group_name_H-M "P M M A"
_symmetry_group_IT_number 51
_symmetry_cell_setting 'orthorhombic'
loop_
_space_group_symop_operation_xyz
x,y,z
1/2-x,-y,z
1/2+x,-y,-z
-x,y,-z
-x,-y,-z
1/2+x,y,-z
1/2-x,y,z
x,-y,z
loop_
_atom_site_type_symbol
_atom_site_label
_atom_site_fract_x
_atom_site_fract_y
_atom_site_fract_z
Si Si1 0.914569 0.623631 0.427135
Si Si2 0.250000 0.370622 0.401076
Si Si3 0.479530 0.125835 0.723689
Si Si4 0.424694 0.314827 0.900648
Si Si5 0.250000 0.628847 0.061470
Si Si6 0.352626 0.872426 0.462562
O O1 0.909062 0.500000 0.479801
O O2 0.833765 0.683215 0.513362
O O3 0.912526 0.622811 0.252059
O O4 0.000000 0.678865 0.500000
O O5 0.250000 0.500000 0.424407
O O6 0.250000 0.341000 0.231655
O O7 0.459203 0.192357 0.871055
O O8 0.581717 0.146514 0.675950
O O9 0.406115 0.173508 0.606761
O O10 0.462322 0.000000 0.753797
O O11 0.500000 0.373500 0.000000
O O12 0.333888 0.315032 0.988372
O O13 0.250000 0.500000 0.034045
O O14 0.250000 0.828631 0.436685
O O15 0.345784 0.000000 0.491586
#
# Coordination Sequence:
#
# PCOD8214056 Si02
#       6
#     8   4   8   8   4   8
#     4  10  21  38  63  92 121 160 213 269 327 388
#     4   9  19  41  69  93 118 156 209 274 331 389
#     4   9  20  38  60  94 138 181 230 284 337 400
#     4  12  26  42  63  99 136 179 223 270 342 412
#     4  11  25  47  70  95 132 172 220 282 348 415
#     4   8  15  33  63  94 125 174 234 287 339 383
#
# _framework density 23.565553000000001
#
# number of rings (size 3 to 8) (size 9 to 14) (size 15 to 20)
#    0.000    2.200    0.000    3.600    4.200    4.400 
#    1.800    0.000    0.000    0.000    0.000    1.400 
#    0.000    0.000    0.000    0.000    0.000    0.000 
#
# Total GULP energy -495937.202922 kJ/mol
# GULP energy per Si atom -12398.430073 kJ/mol
# Density = 2.351192 g / cm^3
# Si number density = 23.565553 Si / 1000 Ang^3
#
#
#
# Elastic Constant Matrix: (Units=GPa)
#
#
# Indices 1 2 3 4 5 6 
#
# 1 244.3192 52.2430 102.9814 0.0000 0.0000 0.0000
# 2 52.2430 71.9535 29.8593 0.0000 0.0000 0.0000
# 3 102.9814 29.8593 162.2406 0.0000 0.0000 0.0000
# 4 0.0000 0.0000 0.0000 32.4296 0.0000 0.0000
# 5 0.0000 0.0000 0.0000 0.0000 49.6220 0.0000
# 6 0.0000 0.0000 0.0000 0.0000 0.0000 36.0359
#
#
#
# Elastic Compliance Matrix: (Units=1/GPa)
#
#
# Indices 1 2 3 4 5 6 
#
# 1 0.006162 -0.003087 -0.003343 0.000000 0.000000 0.000000
# 2 -0.003087 0.016593 -0.001095 0.000000 0.000000 0.000000
# 3 -0.003343 -0.001095 0.008487 0.000000 0.000000 0.000000
# 4 0.000000 0.000000 0.000000 0.030836 0.000000 0.000000
# 5 0.000000 0.000000 0.000000 0.000000 0.020152 0.000000
# 6 0.000000 0.000000 0.000000 0.000000 0.000000 0.027750
#
#
# Mechanical properties :
#
#
# Convention : Reuss Voigt Hill
#
# Bulk Modulus (GPa) = 61.75333 94.29786 78.02560
# Shear Modulus (GPa) = 38.33512 43.17948 40.75730
#
# Velocity S-wave (km/s) = 4.03767 4.28520 4.16327
# Velocity P-wave (km/s) = 6.92812 8.03653 7.50282
#
# Compressibility (1/GPa) = 0.01619346
#
# Stress axis : x y z
#
# Youngs Moduli (GPa) = 162.27674 60.26526 117.82265
#
# Poissons Ratio (x) = 0.18603 0.39393
# Poissons Ratio (y) = 0.50092 0.12896
# Poissons Ratio (z) = 0.54255 0.06596
#
# Static dielectric constant tensor:
#      x y z
#    x 4.896760 0.000000 0.000000 
#    y 0.000000 4.499890 0.000000 
#    z 0.000000 0.000000 4.026410 
# 
# 
# High freq. dielectric constant tensor:
#      x y z
#    x 1.953530 0.000000 0.000000 
#    y 0.000000 1.981390 0.000000 
#    z 0.000000 0.000000 1.912190 
# 
# From -- ./inp_files/7998.got.cif
#   From: 2010.03.12/outbox.cif.g09.slc.cpg/sg51_4_cif.got.tgz:7998.got - 2010.04.16 13:43:02.
