data_PCOD8214727
_publ_section_title
;
Structure prediction by ZEFSAII (Michael W. Deem and Ramdas Pophale) SiO2 
 PCOD8214727
Probable space group: P M M A
;
_chemical_formula_sum "Si O2"
_cell_formula_units_Z 64
_cell_length_a 18.708244
_cell_length_b 9.437347
_cell_length_c 20.853182
_cell_angle_alpha 90.000000
_cell_angle_beta 90.000000
_cell_angle_gamma 90.000000
_cell_volume 3681.758371
_symmetry_space_group_name_H-M "P M M A"
_symmetry_group_IT_number 51
_symmetry_cell_setting 'orthorhombic'
loop_
_space_group_symop_operation_xyz
x,y,z
1/2-x,-y,z
1/2+x,-y,-z
-x,y,-z
-x,-y,-z
1/2+x,y,-z
1/2-x,y,z
x,-y,z
loop_
_atom_site_type_symbol
_atom_site_label
_atom_site_fract_x
_atom_site_fract_y
_atom_site_fract_z
Si Si1 0.335246 0.660179 0.880746
Si Si2 0.665122 0.658911 0.739072
Si Si3 0.164856 0.841685 0.762706
Si Si4 0.167074 0.834488 0.380147
Si Si5 0.580438 0.168929 0.497099
Si Si6 0.164930 0.340448 0.119372
Si Si7 0.335285 0.839806 0.001414
Si Si8 0.670285 0.168633 0.378512
O O1 0.250000 0.658774 0.880537
O O2 0.365050 0.500000 0.884519
O O3 0.365005 0.733904 0.816106
O O4 0.363906 0.749594 0.941184
O O5 0.750000 0.664642 0.738604
O O6 0.638345 0.500000 0.724998
O O7 0.635255 0.760998 0.683640
O O8 0.638191 0.707637 0.809759
O O9 0.250000 0.847481 0.764780
O O10 0.141116 0.787362 0.692010
O O11 0.134971 0.000000 0.776490
O O12 0.250000 0.797483 0.391543
O O13 0.123680 0.776279 0.441102
O O14 0.155244 0.000000 0.370449
O O15 0.500000 0.228141 0.500000
O O16 0.617797 0.230004 0.432966
O O17 0.581074 0.000000 0.495525
O O18 0.250000 0.339134 0.117235
O O19 0.138053 0.500000 0.104380
O O20 0.134391 0.232628 0.066237
O O21 0.250000 0.840811 0.001623
O O22 0.364860 0.000000 0.997073
O O23 0.750000 0.229993 0.390275
O O24 0.673763 0.000000 0.382121
#
# Coordination Sequence:
#
# PCOD8214727 Si02
#       8
#     8   8   8   8   8   8   8   8
#     4   9  15  21  29  42  63  92 124 157 192 229
#     4   8  14  24  37  52  71  97 129 164 200 237
#     4   8  13  21  33  48  65  87 119 158 194 227
#     4   9  16  25  39  59  80 102 131 167 202 236
#     4   9  16  25  38  58  83 107 130 160 200 243
#     4   8  13  21  31  43  62  90 124 159 193 229
#     4   9  15  20  27  41  63  93 127 159 190 227
#     4   8  13  22  37  55  74  99 132 167 201 238
#
# _framework density 17.382998000000001
#
# number of rings (size 3 to 8) (size 9 to 14) (size 15 to 20)
#    0.000    3.500    0.000    2.625    0.000    5.000 
#    0.000    2.500    0.000    1.125    0.000    3.500 
#    0.000    0.000    0.000    1.125    0.000   25.500 
#
# Total GULP energy -793114.595254 kJ/mol
# GULP energy per Si atom -12392.415551 kJ/mol
# Density = 1.734343 g / cm^3
# Si number density = 17.382998 Si / 1000 Ang^3
#
#
#
# Elastic Constant Matrix: (Units=GPa)
#
#
# Indices 1 2 3 4 5 6 
#
# 1 32.6603 17.8945 37.3679 0.0000 0.0000 0.0000
# 2 17.8945 88.6460 80.6413 0.0000 0.0000 0.0000
# 3 37.3679 80.6413 195.3387 0.0000 0.0000 0.0000
# 4 0.0000 0.0000 0.0000 17.2928 0.0000 0.0000
# 5 0.0000 0.0000 0.0000 0.0000 1.5236 0.0000
# 6 0.0000 0.0000 0.0000 0.0000 0.0000 3.5922
#
#
#
# Elastic Compliance Matrix: (Units=1/GPa)
#
#
# Indices 1 2 3 4 5 6 
#
# 1 0.039367 -0.001755 -0.006806 0.000000 0.000000 0.000000
# 2 -0.001755 0.018143 -0.007154 0.000000 0.000000 0.000000
# 3 -0.006806 -0.007154 0.009375 0.000000 0.000000 0.000000
# 4 0.000000 0.000000 0.000000 0.057827 0.000000 0.000000
# 5 0.000000 0.000000 0.000000 0.000000 0.656349 0.000000
# 6 0.000000 0.000000 0.000000 0.000000 0.000000 0.278383
#
#
# Mechanical properties :
#
#
# Convention : Reuss Voigt Hill
#
# Bulk Modulus (GPa) = 28.20561 65.38359 46.79460
# Shear Modulus (GPa) = 4.53435 16.53114 10.53274
#
# Velocity S-wave (km/s) = 1.61684 3.08717 2.46422
# Velocity P-wave (km/s) = 4.44373 7.09948 5.92239
#
# Compressibility (1/GPa) = 0.03545395
#
# Stress axis : x y z
#
# Youngs Moduli (GPa) = 25.40183 55.11622 106.66807
#
# Poissons Ratio (x) = 0.09674 0.72601
# Poissons Ratio (y) = 0.04458 0.76314
# Poissons Ratio (z) = 0.17289 0.39432
#
# Static dielectric constant tensor:
#      x y z
#    x 2.617870 0.000000 0.000000 
#    y 0.000000 3.132410 0.000000 
#    z 0.000000 0.000000 3.730760 
# 
# 
# High freq. dielectric constant tensor:
#      x y z
#    x 1.591230 0.000000 0.000000 
#    y 0.000000 1.644640 0.000000 
#    z 0.000000 0.000000 1.694050 
# 
# From -- ./inp_files/34084.got.cif
#   From: 2010.03.12/outbox.cif.g09.slc.cpg/sg51_18_cif.got.tgz:34084.got - 2010.04.16 13:43:02.
