data_PCOD8214008
_publ_section_title
;
Structure prediction by ZEFSAII (Michael W. Deem and Ramdas Pophale) SiO2 
 PCOD8214008
Probable space group: P M M A
;
_chemical_formula_sum "Si O2"
_cell_formula_units_Z 48
_cell_length_a 9.532975
_cell_length_b 28.244417
_cell_length_c 9.143968
_cell_angle_alpha 90.000000
_cell_angle_beta 90.000000
_cell_angle_gamma 90.000000
_cell_volume 2462.043752
_symmetry_space_group_name_H-M "P M M A"
_symmetry_group_IT_number 51
_symmetry_cell_setting 'orthorhombic'
loop_
_space_group_symop_operation_xyz
x,y,z
1/2-x,-y,z
1/2+x,-y,-z
-x,y,-z
-x,-y,-z
1/2+x,y,-z
1/2-x,y,z
x,-y,z
loop_
_atom_site_type_symbol
_atom_site_label
_atom_site_fract_x
_atom_site_fract_y
_atom_site_fract_z
Si Si1 0.584727 0.810585 0.143939
Si Si2 0.408109 0.296844 0.865813
Si Si3 0.412973 0.555866 0.142807
Si Si4 0.750000 0.056979 0.832216
Si Si5 0.505185 0.896161 0.326091
Si Si6 0.915352 0.619537 0.353992
Si Si7 0.750000 0.944929 0.165199
O O1 0.750000 0.819324 0.118815
O O2 0.550027 0.756125 0.183382
O O3 0.529228 0.841700 0.278863
O O4 0.500000 0.826108 0.000000
O O5 0.250000 0.297523 0.923833
O O6 0.429771 0.331400 0.731015
O O7 0.500000 0.315438 0.000000
O O8 0.250000 0.573903 0.134068
O O9 0.413313 0.500000 0.164366
O O10 0.500272 0.577363 0.276298
O O11 0.500000 0.571216 0.000000
O O12 0.626675 0.080256 0.744740
O O13 0.750000 0.000000 0.821908
O O14 0.750000 0.075738 0.999955
O O15 0.500000 0.898060 0.500000
O O16 0.622014 0.929377 0.261241
O O17 0.750000 0.606113 0.376955
O O18 0.000000 0.628980 0.500000
O O19 0.750000 0.000000 0.144737
#
# Coordination Sequence:
#
# PCOD8214008 Si02
#       7
#     8   8   8   4   8   8   4
#     4  10  21  40  64  89 118 155 198 243 292 358
#     4   9  20  38  61  88 116 151 196 244 293 349
#     4  10  21  38  61  88 119 157 203 255 308 366
#     4  11  25  43  65  89 117 157 203 243 290 357
#     4  12  25  39  61  91 124 156 191 245 304 355
#     4  11  23  38  58  85 121 163 203 251 307 364
#     4  11  23  43  65  87 115 157 203 243 290 353
#
# _framework density 19.495998
#
# number of rings (size 3 to 8) (size 9 to 14) (size 15 to 20)
#    0.000    1.500    0.833    4.000    1.167    8.000 
#    0.000    0.000    0.000    0.000    0.000    0.000 
#    0.000    0.000    0.000    0.000    0.000    0.000 
#
# Total GULP energy -595025.692157 kJ/mol
# GULP energy per Si atom -12396.368587 kJ/mol
# Density = 1.945162 g / cm^3
# Si number density = 19.495998 Si / 1000 Ang^3
#
#
#
# Elastic Constant Matrix: (Units=GPa)
#
#
# Indices 1 2 3 4 5 6 
#
# 1 169.7550 46.8706 82.3539 0.0000 0.0000 0.0000
# 2 46.8706 63.9108 46.2014 0.0000 0.0000 0.0000
# 3 82.3539 46.2014 164.3299 0.0000 0.0000 0.0000
# 4 0.0000 0.0000 0.0000 23.4012 0.0000 0.0000
# 5 0.0000 0.0000 0.0000 0.0000 40.9262 0.0000
# 6 0.0000 0.0000 0.0000 0.0000 0.0000 30.1037
#
#
#
# Elastic Compliance Matrix: (Units=1/GPa)
#
#
# Indices 1 2 3 4 5 6 
#
# 1 0.008515 -0.003966 -0.003152 0.000000 0.000000 0.000000
# 2 -0.003966 0.021485 -0.004053 0.000000 0.000000 0.000000
# 3 -0.003152 -0.004053 0.008805 0.000000 0.000000 0.000000
# 4 0.000000 0.000000 0.000000 0.042733 0.000000 0.000000
# 5 0.000000 0.000000 0.000000 0.000000 0.024434 0.000000
# 6 0.000000 0.000000 0.000000 0.000000 0.000000 0.033219
#
#
# Mechanical properties :
#
#
# Convention : Reuss Voigt Hill
#
# Bulk Modulus (GPa) = 60.74455 83.20527 71.97491
# Shear Modulus (GPa) = 29.93636 33.72422 31.83029
#
# Velocity S-wave (km/s) = 3.92281 4.16360 4.04500
# Velocity P-wave (km/s) = 7.19326 8.11695 7.66903
#
# Compressibility (1/GPa) = 0.01646238
#
# Stress axis : x y z
#
# Youngs Moduli (GPa) = 117.43724 46.54341 113.57649
#
# Poissons Ratio (x) = 0.18459 0.35803
# Poissons Ratio (y) = 0.46575 0.46033
# Poissons Ratio (z) = 0.37020 0.18864
#
# Static dielectric constant tensor:
#      x y z
#    x 3.832480 0.000000 0.000000 
#    y 0.000000 3.736310 0.000000 
#    z 0.000000 0.000000 3.569400 
# 
# 
# High freq. dielectric constant tensor:
#      x y z
#    x 1.780580 0.000000 0.000000 
#    y 0.000000 1.772510 0.000000 
#    z 0.000000 0.000000 1.753640 
# 
# From -- ./inp_files/6198.got.cif
#   From: 2010.03.12/outbox.cif.g09.slc.cpg/sg51_4_cif.got.tgz:6198.got - 2010.04.16 13:43:02.
