data_PCOD8214381
_publ_section_title
;
Structure prediction by ZEFSAII (Michael W. Deem and Ramdas Pophale) SiO2 
 PCOD8214381
Probable space group: P M M A
;
_chemical_formula_sum "Si O2"
_cell_formula_units_Z 40
_cell_length_a 8.650242
_cell_length_b 11.742708
_cell_length_c 20.492231
_cell_angle_alpha 90.000000
_cell_angle_beta 90.000000
_cell_angle_gamma 90.000000
_cell_volume 2081.544798
_symmetry_space_group_name_H-M "P M M A"
_symmetry_group_IT_number 51
_symmetry_cell_setting 'orthorhombic'
loop_
_space_group_symop_operation_xyz
x,y,z
1/2-x,-y,z
1/2+x,-y,-z
-x,y,-z
-x,-y,-z
1/2+x,y,-z
1/2-x,y,z
x,-y,z
loop_
_atom_site_type_symbol
_atom_site_label
_atom_site_fract_x
_atom_site_fract_y
_atom_site_fract_z
Si Si1 0.567605 0.739807 0.434646
Si Si2 0.931212 0.868327 0.304661
Si Si3 0.429686 0.628303 0.066199
Si Si4 0.072182 0.500000 0.728326
Si Si5 0.569624 0.709594 0.796070
Si Si6 0.570068 0.500000 0.592654
O O1 0.500000 0.800444 0.500000
O O2 0.750000 0.746399 0.437250
O O3 0.507928 0.802297 0.369072
O O4 0.511065 0.610357 0.436886
O O5 0.750000 0.847031 0.293979
O O6 0.023004 0.825865 0.240467
O O7 0.970008 0.000000 0.314483
O O8 0.250000 0.619319 0.054789
O O9 0.495050 0.500000 0.079977
O O10 0.466248 0.713668 0.126406
O O11 0.500000 0.680571 0.000000
O O12 0.250000 0.500000 0.703628
O O13 0.041104 0.388184 0.769471
O O14 0.952084 0.500000 0.669673
O O15 0.750000 0.681287 0.784098
O O16 0.750000 0.500000 0.574685
#
# Coordination Sequence:
#
# PCOD8214381 Si02
#       6
#     8   8   8   4   8   4
#     4  11  23  39  59  84 115 150 188 231 284 342
#     4  10  23  42  61  82 110 147 194 242 286 337
#     4   9  18  32  50  80 119 154 185 223 272 331
#     4  12  22  33  54  85 116 151 188 227 282 345
#     4  11  21  36  58  85 117 150 189 236 282 334
#     4  12  23  37  58  85 118 149 184 231 280 341
#
# _framework density 19.216498000000001
#
# number of rings (size 3 to 8) (size 9 to 14) (size 15 to 20)
#    0.000    1.400    3.000    3.300    0.000    3.200 
#    0.000    0.000    0.000    0.600    0.000    0.000 
#    0.000    0.000    0.000    0.000    0.000    0.000 
#
# Total GULP energy -495955.193033 kJ/mol
# GULP energy per Si atom -12398.879826 kJ/mol
# Density = 1.917276 g / cm^3
# Si number density = 19.216498 Si / 1000 Ang^3
#
#
#
# Elastic Constant Matrix: (Units=GPa)
#
#
# Indices 1 2 3 4 5 6 
#
# 1 59.1622 23.5238 42.2301 0.0000 0.0000 0.0000
# 2 23.5238 88.6925 50.9181 0.0000 0.0000 0.0000
# 3 42.2301 50.9181 169.4551 0.0000 0.0000 0.0000
# 4 0.0000 0.0000 0.0000 12.8518 0.0000 0.0000
# 5 0.0000 0.0000 0.0000 0.0000 35.3707 0.0000
# 6 0.0000 0.0000 0.0000 0.0000 0.0000 23.6770
#
#
#
# Elastic Compliance Matrix: (Units=1/GPa)
#
#
# Indices 1 2 3 4 5 6 
#
# 1 0.021259 -0.003138 -0.004355 0.000000 0.000000 0.000000
# 2 -0.003138 0.014089 -0.003451 0.000000 0.000000 0.000000
# 3 -0.004355 -0.003451 0.008024 0.000000 0.000000 0.000000
# 4 0.000000 0.000000 0.000000 0.077810 0.000000 0.000000
# 5 0.000000 0.000000 0.000000 0.000000 0.028272 0.000000
# 6 0.000000 0.000000 0.000000 0.000000 0.000000 0.042235
#
#
# Mechanical properties :
#
#
# Convention : Reuss Voigt Hill
#
# Bulk Modulus (GPa) = 46.55019 61.18376 53.86697
# Shear Modulus (GPa) = 22.65126 27.75577 25.20352
#
# Velocity S-wave (km/s) = 3.43700 3.80461 3.62547
# Velocity P-wave (km/s) = 6.32671 7.15600 6.75410
#
# Compressibility (1/GPa) = 0.02148219
#
# Stress axis : x y z
#
# Youngs Moduli (GPa) = 47.03856 70.97912 124.63197
#
# Poissons Ratio (x) = 0.22276 0.54277
# Poissons Ratio (y) = 0.14762 0.43014
# Poissons Ratio (z) = 0.20485 0.24497
#
# Static dielectric constant tensor:
#      x y z
#    x 3.464890 0.000000 0.000000 
#    y 0.000000 3.634740 0.000000 
#    z 0.000000 0.000000 3.836590 
# 
# 
# High freq. dielectric constant tensor:
#      x y z
#    x 1.748690 0.000000 0.000000 
#    y 0.000000 1.711680 0.000000 
#    z 0.000000 0.000000 1.762460 
# 
# From -- ./inp_files/31417.got.cif
#   From: 2010.03.12/outbox.cif.g09.slc.cpg/sg51_16_cif.got.tgz:31417.got - 2010.04.16 13:43:02.
