data_PCOD8214295
_publ_section_title
;
Structure prediction by ZEFSAII (Michael W. Deem and Ramdas Pophale) SiO2 
 PCOD8214295
Probable space group: P M M A
;
_chemical_formula_sum "Si O2"
_cell_formula_units_Z 40
_cell_length_a 25.169488
_cell_length_b 9.004133
_cell_length_c 9.150178
_cell_angle_alpha 90.000000
_cell_angle_beta 90.000000
_cell_angle_gamma 90.000000
_cell_volume 2073.699510
_symmetry_space_group_name_H-M "P M M A"
_symmetry_group_IT_number 51
_symmetry_cell_setting 'orthorhombic'
loop_
_space_group_symop_operation_xyz
x,y,z
1/2-x,-y,z
1/2+x,-y,-z
-x,y,-z
-x,-y,-z
1/2+x,y,-z
1/2-x,y,z
x,-y,z
loop_
_atom_site_type_symbol
_atom_site_label
_atom_site_fract_x
_atom_site_fract_y
_atom_site_fract_z
Si Si1 0.808600 0.176630 0.156265
Si Si2 0.311704 0.169829 0.171771
Si Si3 0.001874 0.670726 0.830887
Si Si4 0.093150 0.824056 0.656784
Si Si5 0.101889 0.671830 0.351208
O O1 0.750000 0.235371 0.203478
O O2 0.852554 0.236844 0.268789
O O3 0.807776 0.000000 0.153320
O O4 0.822079 0.231166 0.992083
O O5 0.250000 0.182373 0.211990
O O6 0.343062 0.269202 0.286943
O O7 0.331099 0.000000 0.186159
O O8 0.019129 0.500000 0.806568
O O9 0.043663 0.777845 0.754779
O O10 0.943948 0.701589 0.766144
O O11 0.000000 0.713001 0.000000
O O12 0.086438 0.755853 0.498083
O O13 0.094470 0.000000 0.643354
O O14 0.108214 0.500000 0.389067
#
# Coordination Sequence:
#
# PCOD8214295 Si02
#       5
#     8   8   8   8   8
#     4   8  16  33  56  81 108 138 175 220 268 316
#     4   9  18  35  59  83 107 138 178 224 270 315
#     4  10  22  40  59  78 105 143 183 225 277 331
#     4  11  22  35  56  84 111 142 182 226 271 323
#     4  11  23  37  54  78 111 147 180 219 270 327
#
# _framework density 19.289197000000001
#
# number of rings (size 3 to 8) (size 9 to 14) (size 15 to 20)
#    0.000    2.200    0.000    4.200    0.000    5.600 
#    0.000    3.000    0.000    4.200    0.000    0.000 
#    0.000    0.000    0.000    0.000    0.000    0.000 
#
# Total GULP energy -496097.361802 kJ/mol
# GULP energy per Si atom -12402.434045 kJ/mol
# Density = 1.924529 g / cm^3
# Si number density = 19.289197 Si / 1000 Ang^3
#
#
#
# Elastic Constant Matrix: (Units=GPa)
#
#
# Indices 1 2 3 4 5 6 
#
# 1 92.8953 46.4265 53.9429 0.0000 0.0000 0.0000
# 2 46.4265 74.3918 49.6895 0.0000 0.0000 0.0000
# 3 53.9429 49.6895 132.1867 0.0000 0.0000 0.0000
# 4 0.0000 0.0000 0.0000 28.4276 0.0000 0.0000
# 5 0.0000 0.0000 0.0000 0.0000 18.0691 0.0000
# 6 0.0000 0.0000 0.0000 0.0000 0.0000 23.6633
#
#
#
# Elastic Compliance Matrix: (Units=1/GPa)
#
#
# Indices 1 2 3 4 5 6 
#
# 1 0.017062 -0.008008 -0.003952 0.000000 0.000000 0.000000
# 2 -0.008008 0.021708 -0.004892 0.000000 0.000000 0.000000
# 3 -0.003952 -0.004892 0.011017 0.000000 0.000000 0.000000
# 4 0.000000 0.000000 0.000000 0.035177 0.000000 0.000000
# 5 0.000000 0.000000 0.000000 0.000000 0.055343 0.000000
# 6 0.000000 0.000000 0.000000 0.000000 0.000000 0.042259
#
#
# Mechanical properties :
#
#
# Convention : Reuss Voigt Hill
#
# Bulk Modulus (GPa) = 62.18329 66.62128 64.40229
# Shear Modulus (GPa) = 22.55988 23.99299 23.27644
#
# Velocity S-wave (km/s) = 3.42359 3.53066 3.47754
# Velocity P-wave (km/s) = 6.92354 7.15778 7.04163
#
# Compressibility (1/GPa) = 0.01608149
#
# Stress axis : x y z
#
# Youngs Moduli (GPa) = 58.60903 46.06667 90.76963
#
# Poissons Ratio (x) = 0.36891 0.35876
# Poissons Ratio (y) = 0.46935 0.44405
# Poissons Ratio (z) = 0.23165 0.22536
#
# Static dielectric constant tensor:
#      x y z
#    x 3.717760 0.000000 0.000000 
#    y 0.000000 3.326840 0.000000 
#    z 0.000000 0.000000 3.610040 
# 
# 
# High freq. dielectric constant tensor:
#      x y z
#    x 1.761320 0.000000 0.000000 
#    y 0.000000 1.731100 0.000000 
#    z 0.000000 0.000000 1.758220 
# 
# From -- ./inp_files/11414.got.cif
#   From: 2010.03.12/outbox.cif.g09.slc.cpg/sg51_6_cif.got.tgz:11414.got - 2010.04.16 13:43:02.
