data_PCOD8214168
_publ_section_title
;
Structure prediction by ZEFSAII (Michael W. Deem and Ramdas Pophale) SiO2 
 PCOD8214168
Probable space group: P M M A
;
_chemical_formula_sum "Si O2"
_cell_formula_units_Z 56
_cell_length_a 15.541027
_cell_length_b 19.654198
_cell_length_c 9.431907
_cell_angle_alpha 90.000000
_cell_angle_beta 90.000000
_cell_angle_gamma 90.000000
_cell_volume 2880.942244
_symmetry_space_group_name_H-M "P M M A"
_symmetry_group_IT_number 51
_symmetry_cell_setting 'orthorhombic'
loop_
_space_group_symop_operation_xyz
x,y,z
1/2-x,-y,z
1/2+x,-y,-z
-x,y,-z
-x,-y,-z
1/2+x,y,-z
1/2-x,y,z
x,-y,z
loop_
_atom_site_type_symbol
_atom_site_label
_atom_site_fract_x
_atom_site_fract_y
_atom_site_fract_z
Si Si1 0.400908 0.692291 0.007217
Si Si2 0.349082 0.077532 0.856257
Si Si3 0.467948 0.834025 0.657486
Si Si4 0.348079 0.425204 0.201335
Si Si5 0.152290 0.296244 0.696042
Si Si6 0.398708 0.577325 0.512046
Si Si7 0.585673 0.168833 0.909736
O O1 0.397253 0.625958 0.101884
O O2 0.360240 0.760462 0.078029
O O3 0.500000 0.709683 0.000000
O O4 0.354858 0.682088 0.858705
O O5 0.250000 0.082976 0.812213
O O6 0.401693 0.113437 0.729257
O O7 0.380689 0.000000 0.864968
O O8 0.359720 0.108839 0.015421
O O9 0.500000 0.853690 0.500000
O O10 0.419792 0.760303 0.656044
O O11 0.557513 0.838535 0.745919
O O12 0.250000 0.425338 0.154218
O O13 0.389597 0.500000 0.181104
O O14 0.356136 0.402966 0.363325
O O15 0.250000 0.269889 0.665332
O O16 0.137103 0.367535 0.619348
O O17 0.500000 0.583845 0.500000
O O18 0.372800 0.500000 0.557897
O O19 0.500000 0.171802 0.000000
#
# Coordination Sequence:
#
# PCOD8214168 Si02
#       7
#     8   8   8   8   8   8   8
#     4  11  20  36  59  84 113 148 196 248 295 350
#     4  10  21  41  69  96 125 161 200 245 299 356
#     4  11  23  39  61  90 128 164 205 247 297 361
#     4  10  22  38  54  78 113 151 192 242 301 358
#     4  12  23  36  58  86 120 156 198 254 309 361
#     4  10  22  40  60  81 112 156 202 247 300 371
#     4   9  19  38  60  88 118 157 198 244 286 352
#
# _framework density 19.438085999999998
#
# number of rings (size 3 to 8) (size 9 to 14) (size 15 to 20)
#    0.000    1.571    4.286    2.571    2.000    5.143 
#    0.000    1.429    0.000    1.714    0.000    0.000 
#    0.000    0.000    0.000    0.000    0.000    0.000 
#
# Total GULP energy -693849.416899 kJ/mol
# GULP energy per Si atom -12390.168159 kJ/mol
# Density = 1.939384 g / cm^3
# Si number density = 19.438086 Si / 1000 Ang^3
#
#
#
# Elastic Constant Matrix: (Units=GPa)
#
#
# Indices 1 2 3 4 5 6 
#
# 1 57.0554 32.6930 25.8378 0.0000 0.0000 0.0000
# 2 32.6930 135.0963 73.5665 0.0000 0.0000 0.0000
# 3 25.8378 73.5665 125.2608 0.0000 0.0000 0.0000
# 4 0.0000 0.0000 0.0000 25.0701 0.0000 0.0000
# 5 0.0000 0.0000 0.0000 0.0000 21.2542 0.0000
# 6 0.0000 0.0000 0.0000 0.0000 0.0000 36.9499
#
#
#
# Elastic Compliance Matrix: (Units=1/GPa)
#
#
# Indices 1 2 3 4 5 6 
#
# 1 0.020667 -0.003940 -0.001949 0.000000 0.000000 0.000000
# 2 -0.003940 0.011634 -0.006020 0.000000 0.000000 0.000000
# 3 -0.001949 -0.006020 0.011921 0.000000 0.000000 0.000000
# 4 0.000000 0.000000 0.000000 0.039888 0.000000 0.000000
# 5 0.000000 0.000000 0.000000 0.000000 0.047050 0.000000
# 6 0.000000 0.000000 0.000000 0.000000 0.000000 0.027064
#
#
# Mechanical properties :
#
#
# Convention : Reuss Voigt Hill
#
# Bulk Modulus (GPa) = 49.01031 64.62300 56.81666
# Shear Modulus (GPa) = 26.47712 29.00917 27.74314
#
# Velocity S-wave (km/s) = 3.69470 3.86733 3.78200
# Velocity P-wave (km/s) = 6.59313 7.29791 6.95445
#
# Compressibility (1/GPa) = 0.02040387
#
# Stress axis : x y z
#
# Youngs Moduli (GPa) = 48.38598 85.95718 83.88663
#
# Poissons Ratio (x) = 0.33868 0.16350
# Poissons Ratio (y) = 0.19064 0.50498
# Poissons Ratio (z) = 0.09431 0.51745
#
# Static dielectric constant tensor:
#      x y z
#    x 3.578610 0.000000 0.000000 
#    y 0.000000 3.915120 0.000000 
#    z 0.000000 0.000000 3.361990 
# 
# 
# High freq. dielectric constant tensor:
#      x y z
#    x 1.752230 0.000000 0.000000 
#    y 0.000000 1.764720 0.000000 
#    z 0.000000 0.000000 1.746600 
# 
# From -- ./inp_files/8572.got.cif
#   From: 2010.03.12/outbox.cif.g09.slc.cpg/sg51_5_cif.got.tgz:8572.got - 2010.04.16 13:43:02.
