data_PCOD8214389
_publ_section_title
;
Structure prediction by ZEFSAII (Michael W. Deem and Ramdas Pophale) SiO2 
 PCOD8214389
Probable space group: P M M A
;
_chemical_formula_sum "Si O2"
_cell_formula_units_Z 40
_cell_length_a 18.438513
_cell_length_b 8.510449
_cell_length_c 12.413984
_cell_angle_alpha 90.000000
_cell_angle_beta 90.000000
_cell_angle_gamma 90.000000
_cell_volume 1948.002674
_symmetry_space_group_name_H-M "P M M A"
_symmetry_group_IT_number 51
_symmetry_cell_setting 'orthorhombic'
loop_
_space_group_symop_operation_xyz
x,y,z
1/2-x,-y,z
1/2+x,-y,-z
-x,y,-z
-x,-y,-z
1/2+x,y,-z
1/2-x,y,z
x,-y,z
loop_
_atom_site_type_symbol
_atom_site_label
_atom_site_fract_x
_atom_site_fract_y
_atom_site_fract_z
Si Si1 0.935313 0.818783 0.711763
Si Si2 0.333691 0.683642 0.459166
Si Si3 0.167239 0.818193 0.878116
Si Si4 0.426018 0.682325 0.058028
Si Si5 0.412642 0.317493 0.677029
O O1 0.864997 0.779655 0.641065
O O2 0.915950 0.783130 0.834910
O O3 0.001821 0.713762 0.669027
O O4 0.956215 0.000000 0.699417
O O5 0.250000 0.728708 0.473053
O O6 0.344371 0.500000 0.436723
O O7 0.375172 0.736130 0.566882
O O8 0.250000 0.772123 0.853643
O O9 0.119834 0.783442 0.773519
O O10 0.158706 0.000000 0.908296
O O11 0.140795 0.715777 0.978994
O O12 0.428229 0.500000 0.089622
O O13 0.500000 0.734690 0.000000
O O14 0.398217 0.500000 0.701006
#
# Coordination Sequence:
#
# PCOD8214389 Si02
#       5
#     8   8   8   8   8
#     4  12  25  40  64  94 127 165 206 257 317 374
#     4  10  23  43  65  90 124 166 211 259 309 366
#     4  11  24  40  62  95 131 165 203 254 316 375
#     4  11  23  41  66  92 120 163 212 256 304 365
#     4  11  22  40  66  94 124 164 213 259 306 366
#
# _framework density 20.533853000000001
#
# number of rings (size 3 to 8) (size 9 to 14) (size 15 to 20)
#    0.000    1.000    2.000    4.800    0.000    8.400 
#    0.000    0.000    0.000    0.000    0.000    0.000 
#    0.000    0.000    0.000    0.000    0.000    0.000 
#
# Total GULP energy -496372.809336 kJ/mol
# GULP energy per Si atom -12409.320233 kJ/mol
# Density = 2.048712 g / cm^3
# Si number density = 20.533853 Si / 1000 Ang^3
#
#
#
# Elastic Constant Matrix: (Units=GPa)
#
#
# Indices 1 2 3 4 5 6 
#
# 1 84.1078 16.7304 43.2851 0.0000 0.0000 0.0000
# 2 16.7304 54.2649 30.1148 0.0000 0.0000 0.0000
# 3 43.2851 30.1148 133.1346 0.0000 0.0000 0.0000
# 4 0.0000 0.0000 0.0000 23.6015 0.0000 0.0000
# 5 0.0000 0.0000 0.0000 0.0000 27.3869 0.0000
# 6 0.0000 0.0000 0.0000 0.0000 0.0000 29.9417
#
#
#
# Elastic Compliance Matrix: (Units=1/GPa)
#
#
# Indices 1 2 3 4 5 6 
#
# 1 0.014489 -0.002119 -0.004231 0.000000 0.000000 0.000000
# 2 -0.002119 0.021383 -0.004148 0.000000 0.000000 0.000000
# 3 -0.004231 -0.004148 0.009825 0.000000 0.000000 0.000000
# 4 0.000000 0.000000 0.000000 0.042370 0.000000 0.000000
# 5 0.000000 0.000000 0.000000 0.000000 0.036514 0.000000
# 6 0.000000 0.000000 0.000000 0.000000 0.000000 0.033398
#
#
# Mechanical properties :
#
#
# Convention : Reuss Voigt Hill
#
# Bulk Modulus (GPa) = 40.48437 50.19642 45.34039
# Shear Modulus (GPa) = 26.70813 28.27784 27.49299
#
# Velocity S-wave (km/s) = 3.61042 3.71500 3.66308
# Velocity P-wave (km/s) = 6.09417 6.54984 6.32611
#
# Compressibility (1/GPa) = 0.02470089
#
# Stress axis : x y z
#
# Youngs Moduli (GPa) = 69.02002 46.76545 101.77956
#
# Poissons Ratio (x) = 0.09908 0.43066
# Poissons Ratio (y) = 0.14624 0.42218
# Poissons Ratio (z) = 0.29204 0.19398
#
# Static dielectric constant tensor:
#      x y z
#    x 3.765430 0.000000 0.000000 
#    y 0.000000 3.647670 0.000000 
#    z 0.000000 0.000000 3.743640 
# 
# 
# High freq. dielectric constant tensor:
#      x y z
#    x 1.807730 0.000000 0.000000 
#    y 0.000000 1.804730 0.000000 
#    z 0.000000 0.000000 1.813040 
# 
# From -- ./inp_files/17061.got.cif
#   From: 2010.03.12/outbox.cif.g09.slc.cpg/sg51_9_cif.got.tgz:17061.got - 2010.04.16 13:43:02.
