data_PCOD8214582
_publ_section_title
;
Structure prediction by ZEFSAII (Michael W. Deem and Ramdas Pophale) SiO2 
 PCOD8214582
Probable space group: P M M A
;
_chemical_formula_sum "Si O2"
_cell_formula_units_Z 40
_cell_length_a 10.004257
_cell_length_b 24.385123
_cell_length_c 9.115228
_cell_angle_alpha 90.000000
_cell_angle_beta 90.000000
_cell_angle_gamma 90.000000
_cell_volume 2223.705788
_symmetry_space_group_name_H-M "P M M A"
_symmetry_group_IT_number 51
_symmetry_cell_setting 'orthorhombic'
loop_
_space_group_symop_operation_xyz
x,y,z
1/2-x,-y,z
1/2+x,-y,-z
-x,y,-z
-x,-y,-z
1/2+x,y,-z
1/2-x,y,z
x,-y,z
loop_
_atom_site_type_symbol
_atom_site_label
_atom_site_fract_x
_atom_site_fract_y
_atom_site_fract_z
Si Si1 0.250000 0.937056 0.336341
Si Si2 0.404031 0.772094 0.137007
Si Si3 0.402376 0.561794 0.366905
Si Si4 0.097760 0.652339 0.135652
Si Si5 0.750000 0.066057 0.332039
Si Si6 0.007022 0.113783 0.176746
O O1 0.250000 0.911116 0.500429
O O2 0.377440 0.924005 0.239048
O O3 0.250000 0.000000 0.372136
O O4 0.250000 0.784653 0.090771
O O5 0.412921 0.712420 0.215835
O O6 0.459978 0.823651 0.230160
O O7 0.500000 0.766679 0.000000
O O8 0.500000 0.572526 0.500000
O O9 0.250000 0.572063 0.418197
O O10 0.419328 0.500000 0.305274
O O11 0.446227 0.604692 0.244513
O O12 0.250000 0.643481 0.081032
O O13 0.000000 0.647949 0.000000
O O14 0.626241 0.091958 0.248218
O O15 0.750000 0.000000 0.319075
O O16 0.000000 0.110346 0.000000
#
# Coordination Sequence:
#
# PCOD8214582 Si02
#       6
#     4   8   8   8   4   8
#     4  11  23  41  59  79 113 149 176 217 278 333
#     4   9  18  33  55  80 108 139 174 222 274 318
#     4   9  18  33  52  74 106 146 184 225 270 314
#     4   9  18  33  53  78 108 139 176 219 268 323
#     4  11  25  41  57  81 115 149 178 219 282 335
#     4  11  22  37  61  86 108 140 186 231 267 324
#
# _framework density 17.987991000000001
#
# number of rings (size 3 to 8) (size 9 to 14) (size 15 to 20)
#    0.000    2.200    1.000    1.800    4.200    5.200 
#    0.000    2.000    0.000    0.000    0.000    0.000 
#    0.000    0.000    0.000    0.000    0.000    0.000 
#
# Total GULP energy -495600.143474 kJ/mol
# GULP energy per Si atom -12390.003587 kJ/mol
# Density = 1.794705 g / cm^3
# Si number density = 17.987991 Si / 1000 Ang^3
#
#
#
# Elastic Constant Matrix: (Units=GPa)
#
#
# Indices 1 2 3 4 5 6 
#
# 1 125.1302 62.4951 53.0155 0.0000 0.0000 0.0000
# 2 62.4951 133.1675 58.8681 0.0000 0.0000 0.0000
# 3 53.0155 58.8681 93.9243 0.0000 0.0000 0.0000
# 4 0.0000 0.0000 0.0000 -3.3574 0.0000 0.0000
# 5 0.0000 0.0000 0.0000 0.0000 20.3174 0.0000
# 6 0.0000 0.0000 0.0000 0.0000 0.0000 29.9955
#
#
#
# Elastic Compliance Matrix: (Units=1/GPa)
#
#
# Indices 1 2 3 4 5 6 
#
# 1 0.011586 -0.003522 -0.004332 0.000000 0.000000 0.000000
# 2 -0.003522 0.011458 -0.005193 0.000000 0.000000 0.000000
# 3 -0.004332 -0.005193 0.016347 0.000000 0.000000 0.000000
# 4 0.000000 0.000000 0.000000 -0.297846 0.000000 0.000000
# 5 0.000000 0.000000 0.000000 0.000000 0.049219 0.000000
# 6 0.000000 0.000000 0.000000 0.000000 0.000000 0.033338
#
#
# Mechanical properties :
#
#
# Convention : Reuss Voigt Hill
#
# Bulk Modulus (GPa) = 75.21146 77.88661 76.54903
# Shear Modulus (GPa) = -34.39522 21.24730 -6.57396
#
# Velocity S-wave (km/s) = -4.37752 3.44058 -1.91379
# Velocity P-wave (km/s) = 4.04382 7.69264 6.14529
#
# Compressibility (1/GPa) = 0.01329585
#
# Stress axis : x y z
#
# Youngs Moduli (GPa) = 86.30825 87.27426 61.17254
#
# Poissons Ratio (x) = 0.30741 0.26502
# Poissons Ratio (y) = 0.30401 0.31769
# Poissons Ratio (z) = 0.37391 0.45325
#
# Static dielectric constant tensor:
#      x y z
#    x 3.780110 0.000000 0.000000 
#    y 0.000000 3.997700 0.000000 
#    z 0.000000 0.000000 3.164370 
# 
# 
# High freq. dielectric constant tensor:
#      x y z
#    x 1.716550 0.000000 0.000000 
#    y 0.000000 1.718720 0.000000 
#    z 0.000000 0.000000 1.660330 
# 
# From -- ./inp_files/5535.got.cif
#   From: 2010.03.12/outbox.cif.g09.slc.cpg/sg51_3_cif.got.tgz:5535.got - 2010.04.16 13:43:02.
