data_PCOD8214767
_publ_section_title
;
Structure prediction by ZEFSAII (Michael W. Deem and Ramdas Pophale) SiO2 
 PCOD8214767
Probable space group: P M M A
;
_chemical_formula_sum "Si O2"
_cell_formula_units_Z 40
_cell_length_a 9.223082
_cell_length_b 9.770968
_cell_length_c 26.070564
_cell_angle_alpha 90.000000
_cell_angle_beta 90.000000
_cell_angle_gamma 90.000000
_cell_volume 2349.438534
_symmetry_space_group_name_H-M "P M M A"
_symmetry_group_IT_number 51
_symmetry_cell_setting 'orthorhombic'
loop_
_space_group_symop_operation_xyz
x,y,z
1/2-x,-y,z
1/2+x,-y,-z
-x,y,-z
-x,-y,-z
1/2+x,y,-z
1/2-x,y,z
x,-y,z
loop_
_atom_site_type_symbol
_atom_site_label
_atom_site_fract_x
_atom_site_fract_y
_atom_site_fract_z
Si Si1 0.586020 0.337207 0.351680
Si Si2 0.589790 0.837236 0.952817
Si Si3 0.085500 0.663192 0.450298
Si Si4 0.580561 0.341271 0.749017
Si Si5 0.077165 0.847348 0.159171
O O1 0.750000 0.279822 0.353061
O O2 0.587158 0.500000 0.353732
O O3 0.497109 0.279511 0.400244
O O4 0.506746 0.287087 0.300194
O O5 0.750000 0.774052 0.957156
O O6 0.520142 0.799892 0.897162
O O7 0.596944 0.000000 0.957330
O O8 0.500000 0.773391 0.000000
O O9 0.250000 0.719565 0.451010
O O10 0.087267 0.500000 0.449861
O O11 0.000000 0.717948 0.500000
O O12 0.750000 0.314701 0.738796
O O13 0.549505 0.500000 0.759858
O O14 0.521434 0.257569 0.797860
O O15 0.250000 0.848892 0.156753
O O16 0.020085 0.000000 0.172434
#
# Coordination Sequence:
#
# PCOD8214767 Si02
#       5
#     8   8   8   8   8
#     4   9  16  25  36  51  74 104 134 163 199 242
#     4   8  13  22  37  56  76  98 125 157 193 233
#     4   9  15  22  33  50  73 101 133 168 204 241
#     4   9  16  26  41  59  77 101 135 169 197 231
#     4   8  14  25  41  60  81 104 130 162 200 239
#
# _framework density 17.025345000000002
#
# number of rings (size 3 to 8) (size 9 to 14) (size 15 to 20)
#    0.000    3.400    0.000    2.400    0.000    4.800 
#    0.000    1.000    0.000    2.400    0.000    0.000 
#    0.000    0.800    0.000    2.200    0.000    4.000 
#
# Total GULP energy -495738.759603 kJ/mol
# GULP energy per Si atom -12393.468990 kJ/mol
# Density = 1.698660 g / cm^3
# Si number density = 17.025345 Si / 1000 Ang^3
#
#
#
# Elastic Constant Matrix: (Units=GPa)
#
#
# Indices 1 2 3 4 5 6 
#
# 1 97.3411 18.8963 77.3284 0.0000 0.0000 0.0000
# 2 18.8963 25.7251 41.0676 0.0000 0.0000 0.0000
# 3 77.3284 41.0676 197.8025 0.0000 0.0000 0.0000
# 4 0.0000 0.0000 0.0000 7.9411 0.0000 0.0000
# 5 0.0000 0.0000 0.0000 0.0000 32.2144 0.0000
# 6 0.0000 0.0000 0.0000 0.0000 0.0000 6.3222
#
#
#
# Elastic Compliance Matrix: (Units=1/GPa)
#
#
# Indices 1 2 3 4 5 6 
#
# 1 0.015006 -0.002479 -0.005352 0.000000 0.000000 0.000000
# 2 -0.002479 0.058554 -0.011188 0.000000 0.000000 0.000000
# 3 -0.005352 -0.011188 0.009470 0.000000 0.000000 0.000000
# 4 0.000000 0.000000 0.000000 0.125927 0.000000 0.000000
# 5 0.000000 0.000000 0.000000 0.000000 0.031042 0.000000
# 6 0.000000 0.000000 0.000000 0.000000 0.000000 0.158173
#
#
# Mechanical properties :
#
#
# Convention : Reuss Voigt Hill
#
# Bulk Modulus (GPa) = 22.22568 66.16149 44.19358
# Shear Modulus (GPa) = 11.08141 21.53396 16.30769
#
# Velocity S-wave (km/s) = 2.55400 3.56029 3.09827
# Velocity P-wave (km/s) = 4.66691 7.47300 6.23000
#
# Compressibility (1/GPa) = 0.04499301
#
# Stress axis : x y z
#
# Youngs Moduli (GPa) = 66.64107 17.07836 105.59145
#
# Poissons Ratio (x) = 0.04234 0.56508
# Poissons Ratio (y) = 0.16521 1.18132
# Poissons Ratio (z) = 0.35664 0.19107
#
# Static dielectric constant tensor:
#      x y z
#    x 3.194930 0.000000 0.000000 
#    y 0.000000 2.601780 0.000000 
#    z 0.000000 0.000000 3.566220 
# 
# 
# High freq. dielectric constant tensor:
#      x y z
#    x 1.641990 0.000000 0.000000 
#    y 0.000000 1.578900 0.000000 
#    z 0.000000 0.000000 1.677880 
# 
# From -- ./inp_files/31361.got.cif
#   From: 2010.03.12/outbox.cif.g09.slc.cpg/sg51_16_cif.got.tgz:31361.got - 2010.04.16 13:43:02.
