data_PCOD8214467
_publ_section_title
;
Structure prediction by ZEFSAII (Michael W. Deem and Ramdas Pophale) SiO2 
 PCOD8214467
Probable space group: P M M A
;
_chemical_formula_sum "Si O2"
_cell_formula_units_Z 56
_cell_length_a 9.019146
_cell_length_b 25.174486
_cell_length_c 15.270004
_cell_angle_alpha 90.000000
_cell_angle_beta 90.000000
_cell_angle_gamma 90.000000
_cell_volume 3467.090517
_symmetry_space_group_name_H-M "P M M A"
_symmetry_group_IT_number 51
_symmetry_cell_setting 'orthorhombic'
loop_
_space_group_symop_operation_xyz
x,y,z
1/2-x,-y,z
1/2+x,-y,-z
-x,y,-z
-x,-y,-z
1/2+x,y,-z
1/2-x,y,z
x,-y,z
loop_
_atom_site_type_symbol
_atom_site_label
_atom_site_fract_x
_atom_site_fract_y
_atom_site_fract_z
Si Si1 0.573262 0.858992 0.404573
Si Si2 0.576646 0.756623 0.593087
Si Si3 0.077329 0.062171 0.276432
Si Si4 0.421922 0.360508 0.407655
Si Si5 0.924431 0.439107 0.740593
Si Si6 0.913401 0.936984 0.917693
Si Si7 0.916385 0.563220 0.084627
O O1 0.500000 0.866000 0.500000
O O2 0.750000 0.856399 0.412932
O O3 0.508640 0.805013 0.358193
O O4 0.526743 0.908291 0.345113
O O5 0.500000 0.752672 0.500000
O O6 0.750000 0.770835 0.584546
O O7 0.553401 0.698245 0.635378
O O8 0.250000 0.077916 0.288083
O O9 0.020824 0.077306 0.178128
O O10 0.056741 0.000000 0.293636
O O11 0.500000 0.368488 0.500000
O O12 0.250000 0.370190 0.425865
O O13 0.484117 0.403773 0.339678
O O14 0.750000 0.432510 0.754148
O O15 0.967942 0.500000 0.721045
O O16 0.001404 0.417420 0.828112
O O17 0.750000 0.912800 0.923624
O O18 0.907836 0.000000 0.927037
O O19 0.000000 0.911586 0.000000
O O20 0.750000 0.585687 0.085118
O O21 0.917124 0.500000 0.080388
O O22 0.000000 0.586798 0.000000
#
# Coordination Sequence:
#
# PCOD8214467 Si02
#       7
#     8   8   8   8   8   8   8
#     4  11  21  32  47  66  88 115 148 185 224 263
#     4   9  16  29  47  64  83 108 144 187 225 259
#     4   9  18  32  47  65  92 123 151 178 213 260
#     4   9  18  30  45  65  88 117 150 183 219 257
#     4   9  17  29  43  62  91 122 149 178 215 262
#     4   8  14  25  42  63  87 115 145 177 211 247
#     4   9  16  26  41  61  84 112 146 182 219 258
#
# _framework density 16.151872000000001
#
# number of rings (size 3 to 8) (size 9 to 14) (size 15 to 20)
#    0.000    2.857    0.000    3.857    0.000    4.286 
#    0.000    1.429    0.000    0.000    0.000    1.000 
#    0.000    4.571    0.000    0.000    0.000    0.000 
#
# Total GULP energy -693923.261243 kJ/mol
# GULP energy per Si atom -12391.486808 kJ/mol
# Density = 1.611511 g / cm^3
# Si number density = 16.151872 Si / 1000 Ang^3
#
#
#
# Elastic Constant Matrix: (Units=GPa)
#
#
# Indices 1 2 3 4 5 6 
#
# 1 93.4624 40.3705 54.8042 0.0000 0.0000 0.0000
# 2 40.3705 67.7004 52.5602 0.0000 0.0000 0.0000
# 3 54.8042 52.5602 113.4180 0.0000 0.0000 0.0000
# 4 0.0000 0.0000 0.0000 1.3510 0.0000 0.0000
# 5 0.0000 0.0000 0.0000 0.0000 28.8530 0.0000
# 6 0.0000 0.0000 0.0000 0.0000 0.0000 19.0849
#
#
#
# Elastic Compliance Matrix: (Units=1/GPa)
#
#
# Indices 1 2 3 4 5 6 
#
# 1 0.016179 -0.005589 -0.005228 0.000000 0.000000 0.000000
# 2 -0.005589 0.025003 -0.008886 0.000000 0.000000 0.000000
# 3 -0.005228 -0.008886 0.015461 0.000000 0.000000 0.000000
# 4 0.000000 0.000000 0.000000 0.740196 0.000000 0.000000
# 5 0.000000 0.000000 0.000000 0.000000 0.034658 0.000000
# 6 0.000000 0.000000 0.000000 0.000000 0.000000 0.052398
#
#
# Mechanical properties :
#
#
# Convention : Reuss Voigt Hill
#
# Bulk Modulus (GPa) = 58.01500 63.33896 60.67698
# Shear Modulus (GPa) = 5.38187 18.31416 11.84801
#
# Velocity S-wave (km/s) = 1.82737 3.37095 2.71133
# Velocity P-wave (km/s) = 6.35994 7.37908 6.88838
#
# Compressibility (1/GPa) = 0.01723692
#
# Stress axis : x y z
#
# Youngs Moduli (GPa) = 61.80812 39.99575 64.67909
#
# Poissons Ratio (x) = 0.22354 0.33812
# Poissons Ratio (y) = 0.34546 0.57474
# Poissons Ratio (z) = 0.32311 0.35540
#
# Static dielectric constant tensor:
#      x y z
#    x 6.828290 0.000000 0.000000 
#    y 0.000000 3.211120 0.000000 
#    z 0.000000 0.000000 3.052620 
# 
# 
# High freq. dielectric constant tensor:
#      x y z
#    x 1.626880 0.000000 0.000000 
#    y 0.000000 1.589850 0.000000 
#    z 0.000000 0.000000 1.608420 
# 
# From -- ./inp_files/22524.got.cif
#   From: 2010.03.12/outbox.cif.g09.slc.cpg/sg51_12_cif.got.tgz:22524.got - 2010.04.16 13:43:02.
