data_PCOD8214654
_publ_section_title
;
Structure prediction by ZEFSAII (Michael W. Deem and Ramdas Pophale) SiO2 
 PCOD8214654
Probable space group: P M M A
;
_chemical_formula_sum "Si O2"
_cell_formula_units_Z 28
_cell_length_a 15.853254
_cell_length_b 10.723941
_cell_length_c 7.902659
_cell_angle_alpha 90.000000
_cell_angle_beta 90.000000
_cell_angle_gamma 90.000000
_cell_volume 1343.526003
_symmetry_space_group_name_H-M "P M M A"
_symmetry_group_IT_number 51
_symmetry_cell_setting 'orthorhombic'
loop_
_space_group_symop_operation_xyz
x,y,z
1/2-x,-y,z
1/2+x,-y,-z
-x,y,-z
-x,-y,-z
1/2+x,y,-z
1/2-x,y,z
x,-y,z
loop_
_atom_site_type_symbol
_atom_site_label
_atom_site_fract_x
_atom_site_fract_y
_atom_site_fract_z
Si Si1 0.000000 0.281153 0.000000
Si Si2 0.848868 0.137101 0.524170
Si Si3 0.655434 0.145567 0.140328
Si Si4 0.439182 0.364112 0.342477
O O1 0.990790 0.364820 0.832871
O O2 0.085899 0.201331 0.985209
O O3 0.750000 0.124967 0.536836
O O4 0.874496 0.172536 0.332532
O O5 0.876831 0.245733 0.652405
O O6 0.887801 0.000000 0.572067
O O7 0.750000 0.201963 0.108089
O O8 0.659879 0.000000 0.105403
O O9 0.500000 0.348110 0.500000
O O10 0.393080 0.500000 0.354999
#
# Coordination Sequence:
#
# PCOD8214654 Si02
#       4
#     4   8   8   8
#     4  12  22  38  64  90 119 170 209 254 309 376
#     4   9  19  39  65  91 122 161 207 259 310 367
#     4   9  19  36  59  92 129 161 204 261 315 371
#     4  11  24  41  60  87 123 161 203 253 307 368
#
# _framework density 20.840682000000001
#
# number of rings (size 3 to 8) (size 9 to 14) (size 15 to 20)
#    0.000    2.000    2.857    2.571    0.000    4.571 
#    0.000    2.857    0.000    2.571    0.000    0.000 
#    0.000    0.000    0.000    0.000    0.000    0.000 
#
# Total GULP energy -346970.828832 kJ/mol
# GULP energy per Si atom -12391.815315 kJ/mol
# Density = 2.079325 g / cm^3
# Si number density = 20.840682 Si / 1000 Ang^3
#
#
#
# Elastic Constant Matrix: (Units=GPa)
#
#
# Indices 1 2 3 4 5 6 
#
# 1 65.3035 47.0064 32.3518 0.0000 0.0000 0.0000
# 2 47.0064 135.6065 44.5697 0.0000 0.0000 0.0000
# 3 32.3518 44.5697 113.5178 0.0000 0.0000 0.0000
# 4 0.0000 0.0000 0.0000 -13.6180 0.0000 0.0000
# 5 0.0000 0.0000 0.0000 0.0000 34.5100 0.0000
# 6 0.0000 0.0000 0.0000 0.0000 0.0000 13.9703
#
#
#
# Elastic Compliance Matrix: (Units=1/GPa)
#
#
# Indices 1 2 3 4 5 6 
#
# 1 0.021683 -0.006298 -0.003707 0.000000 0.000000 0.000000
# 2 -0.006298 0.010296 -0.002248 0.000000 0.000000 0.000000
# 3 -0.003707 -0.002248 0.010748 0.000000 0.000000 0.000000
# 4 0.000000 0.000000 0.000000 -0.073432 0.000000 0.000000
# 5 0.000000 0.000000 0.000000 0.000000 0.028977 0.000000
# 6 0.000000 0.000000 0.000000 0.000000 0.000000 0.071580
#
#
# Mechanical properties :
#
#
# Convention : Reuss Voigt Hill
#
# Bulk Modulus (GPa) = 54.87729 62.47595 58.67662
# Shear Modulus (GPa) = 49.78546 19.67244 34.72895
#
# Velocity S-wave (km/s) = 4.89290 3.07570 4.08659
# Velocity P-wave (km/s) = 7.63607 6.53117 7.10513
#
# Compressibility (1/GPa) = 0.01822247
#
# Stress axis : x y z
#
# Youngs Moduli (GPa) = 46.11971 97.12459 93.03990
#
# Poissons Ratio (x) = 0.61167 0.34488
# Poissons Ratio (y) = 0.29045 0.20912
# Poissons Ratio (z) = 0.17096 0.21830
#
# Static dielectric constant tensor:
#      x y z
#    x 3.694740 0.000000 0.000000 
#    y 0.000000 3.937460 0.000000 
#    z 0.000000 0.000000 4.113120 
# 
# 
# High freq. dielectric constant tensor:
#      x y z
#    x 1.797140 0.000000 0.000000 
#    y 0.000000 1.810090 0.000000 
#    z 0.000000 0.000000 1.818950 
# 
# From -- ./inp_files/9092.got.cif
#   From: 2010.03.12/outbox.cif.g09.slc.cpg/sg51_5_cif.got.tgz:9092.got - 2010.04.16 13:43:02.
