data_PCOD8214422
_publ_section_title
;
Structure prediction by ZEFSAII (Michael W. Deem and Ramdas Pophale) SiO2 
 PCOD8214422
Probable space group: P M M A
;
_chemical_formula_sum "Si O2"
_cell_formula_units_Z 40
_cell_length_a 10.231901
_cell_length_b 13.450801
_cell_length_c 16.524500
_cell_angle_alpha 90.000000
_cell_angle_beta 90.000000
_cell_angle_gamma 90.000000
_cell_volume 2274.221727
_symmetry_space_group_name_H-M "P M M A"
_symmetry_group_IT_number 51
_symmetry_cell_setting 'orthorhombic'
loop_
_space_group_symop_operation_xyz
x,y,z
1/2-x,-y,z
1/2+x,-y,-z
-x,y,-z
-x,-y,-z
1/2+x,y,-z
1/2-x,y,z
x,-y,z
loop_
_atom_site_type_symbol
_atom_site_label
_atom_site_fract_x
_atom_site_fract_y
_atom_site_fract_z
Si Si1 0.900063 0.110695 0.841553
Si Si2 0.992098 0.804365 0.680576
Si Si3 0.750000 0.113756 0.587550
Si Si4 0.100202 0.695553 0.068325
Si Si5 0.901800 0.388079 0.757436
Si Si6 0.750000 0.114505 0.395896
O O1 0.750000 0.124183 0.813540
O O2 0.986165 0.131267 0.762558
O O3 0.930551 0.188578 0.912661
O O4 0.928686 0.000000 0.874531
O O5 0.877949 0.831830 0.619181
O O6 0.985112 0.687371 0.702655
O O7 0.126693 0.826688 0.637370
O O8 0.750000 0.119571 0.491698
O O9 0.750000 0.000000 0.617930
O O10 0.250000 0.682226 0.038333
O O11 0.073558 0.630166 0.147631
O O12 0.000000 0.658493 0.000000
O O13 0.750000 0.369648 0.738248
O O14 0.944938 0.500000 0.735859
O O15 0.750000 0.000000 0.366615
#
# Coordination Sequence:
#
# PCOD8214422 Si02
#       6
#     8   8   4   8   8   4
#     4   9  16  29  51  72  95 138 186 215 246 308
#     4  11  19  35  55  78 107 143 179 220 261 310
#     4  11  20  34  57  81 106 143 183 209 253 321
#     4   9  18  32  49  74 105 133 168 215 264 312
#     4   9  18  36  61  81  98 136 188 227 262 307
#     4  11  24  34  49  83 122 143 161 213 273 315
#
# _framework density 17.588433999999999
#
# number of rings (size 3 to 8) (size 9 to 14) (size 15 to 20)
#    0.000    2.200    2.000    3.600    0.000    2.400 
#    7.200    0.500    0.000    3.600    0.000    0.000 
#    0.000    0.000    0.000    0.000    0.000    0.000 
#
# Total GULP energy -496003.493891 kJ/mol
# GULP energy per Si atom -12400.087347 kJ/mol
# Density = 1.754840 g / cm^3
# Si number density = 17.588434 Si / 1000 Ang^3
#
#
#
# Elastic Constant Matrix: (Units=GPa)
#
#
# Indices 1 2 3 4 5 6 
#
# 1 111.5134 42.3692 49.9499 0.0000 0.0000 0.0000
# 2 42.3692 129.7678 34.9146 0.0000 0.0000 0.0000
# 3 49.9499 34.9146 67.6898 0.0000 0.0000 0.0000
# 4 0.0000 0.0000 0.0000 17.2176 0.0000 0.0000
# 5 0.0000 0.0000 0.0000 0.0000 25.2907 0.0000
# 6 0.0000 0.0000 0.0000 0.0000 0.0000 21.7005
#
#
#
# Elastic Compliance Matrix: (Units=1/GPa)
#
#
# Indices 1 2 3 4 5 6 
#
# 1 0.013853 -0.002058 -0.009161 0.000000 0.000000 0.000000
# 2 -0.002058 0.009254 -0.003254 0.000000 0.000000 0.000000
# 3 -0.009161 -0.003254 0.023212 0.000000 0.000000 0.000000
# 4 0.000000 0.000000 0.000000 0.058080 0.000000 0.000000
# 5 0.000000 0.000000 0.000000 0.000000 0.039540 0.000000
# 6 0.000000 0.000000 0.000000 0.000000 0.000000 0.046082
#
#
# Mechanical properties :
#
#
# Convention : Reuss Voigt Hill
#
# Bulk Modulus (GPa) = 57.56432 62.60427 60.08429
# Shear Modulus (GPa) = 22.24619 24.95759 23.60189
#
# Velocity S-wave (km/s) = 3.56029 3.77102 3.66717
# Velocity P-wave (km/s) = 7.04985 7.39135 7.22262
#
# Compressibility (1/GPa) = 0.01737187
#
# Stress axis : x y z
#
# Youngs Moduli (GPa) = 72.18713 108.06539 43.08163
#
# Poissons Ratio (x) = 0.22242 0.39466
# Poissons Ratio (y) = 0.14858 0.14020
# Poissons Ratio (z) = 0.66129 0.35167
#
# Static dielectric constant tensor:
#      x y z
#    x 3.033560 0.000000 0.000000 
#    y 0.000000 3.390730 0.000000 
#    z 0.000000 0.000000 3.068650 
# 
# 
# High freq. dielectric constant tensor:
#      x y z
#    x 1.661630 0.000000 0.000000 
#    y 0.000000 1.683280 0.000000 
#    z 0.000000 0.000000 1.667950 
# 
# From -- ./inp_files/20587.got.cif
#   From: 2010.03.12/outbox.cif.g09.slc.cpg/sg51_11_cif.got.tgz:20587.got - 2010.04.16 13:43:02.
