data_PCOD8214940
_publ_section_title
;
Structure prediction by ZEFSAII (Michael W. Deem and Ramdas Pophale) SiO2 
 PCOD8214940
Probable space group: P N N A
;
_chemical_formula_sum "Si O2"
_cell_formula_units_Z 40
_cell_length_a 5.151648
_cell_length_b 16.046652
_cell_length_c 22.499793
_cell_angle_alpha 90.000000
_cell_angle_beta 90.000000
_cell_angle_gamma 90.000000
_cell_volume 1859.983698
_symmetry_space_group_name_H-M "P N N A"
_symmetry_group_IT_number 52
_symmetry_cell_setting 'orthorhombic'
loop_
_space_group_symop_operation_xyz
x,y,z
1/2-x,-y,z
x,1/2-y,1/2-z
1/2-x,1/2+y,1/2-z
-x,-y,-z
1/2+x,y,-z
-x,1/2+y,1/2+z
1/2+x,1/2-y,1/2+z
loop_
_atom_site_type_symbol
_atom_site_label
_atom_site_fract_x
_atom_site_fract_y
_atom_site_fract_z
Si Si1 0.667343 0.656969 0.733414
Si Si2 0.498941 0.948155 0.655320
Si Si3 0.525859 0.093671 0.474425
Si Si4 0.780293 0.401761 0.468132
Si Si5 0.818837 0.096491 0.168271
O O1 0.748269 0.750000 0.750000
O O2 0.590983 0.613584 0.794377
O O3 0.415410 0.654087 0.691494
O O4 0.912444 0.612537 0.702706
O O5 0.411278 0.901102 0.595536
O O6 0.250000 0.000000 0.679221
O O7 0.750000 0.000000 0.635964
O O8 0.760211 0.140830 0.508453
O O9 0.500000 0.000000 0.500000
O O10 0.750000 0.500000 0.476414
O O11 0.506415 0.363651 0.489880
O O12 0.851576 0.379557 0.400481
O O13 0.750000 0.000000 0.177263
#
# Coordination Sequence:
#
# PCOD8214940 Si02
#       5
#     8   8   8   8   8
#     4  12  26  41  57  86 129 172 207 249 321 377
#     4  12  21  35  61  87 112 151 204 252 291 361
#     4  10  16  30  51  85 115 134 181 256 303 342
#     4   9  17  31  57  93 117 143 187 250 318 359
#     4  11  22  41  66  91 123 155 213 268 299 365
#
# _framework density 21.505562999999999
#
# number of rings (size 3 to 8) (size 9 to 14) (size 15 to 20)
#    0.000    1.200    4.000    5.400    0.000    3.200 
#    0.000    0.000    0.000    7.200    0.000    0.000 
#    0.000    0.000    0.000    0.000    0.000    0.000 
#
# Total GULP energy -495874.951524 kJ/mol
# GULP energy per Si atom -12396.873788 kJ/mol
# Density = 2.145662 g / cm^3
# Si number density = 21.505563 Si / 1000 Ang^3
#
#
#
# Elastic Constant Matrix: (Units=GPa)
#
#
# Indices 1 2 3 4 5 6 
#
# 1 184.4951 25.9693 70.8632 0.0000 0.0000 0.0000
# 2 25.9693 41.7867 43.9786 0.0000 0.0000 0.0000
# 3 70.8632 43.9786 170.8438 0.0000 0.0000 0.0000
# 4 0.0000 0.0000 0.0000 2.9950 0.0000 0.0000
# 5 0.0000 0.0000 0.0000 0.0000 309.8434 0.0000
# 6 0.0000 0.0000 0.0000 0.0000 0.0000 19.1100
#
#
#
# Elastic Compliance Matrix: (Units=1/GPa)
#
#
# Indices 1 2 3 4 5 6 
#
# 1 0.006530 -0.001656 -0.002282 0.000000 0.000000 0.000000
# 2 -0.001656 0.033244 -0.007871 0.000000 0.000000 0.000000
# 3 -0.002282 -0.007871 0.008826 0.000000 0.000000 0.000000
# 4 0.000000 0.000000 0.000000 0.333894 0.000000 0.000000
# 5 0.000000 0.000000 0.000000 0.000000 0.003227 0.000000
# 6 0.000000 0.000000 0.000000 0.000000 0.000000 0.052329
#
#
# Mechanical properties :
#
#
# Convention : Reuss Voigt Hill
#
# Bulk Modulus (GPa) = 40.02949 75.41643 57.72296
# Shear Modulus (GPa) = 10.63840 83.47731 47.05785
#
# Velocity S-wave (km/s) = 2.22656 6.23706 4.68286
# Velocity P-wave (km/s) = 5.02633 9.32804 7.49254
#
# Compressibility (1/GPa) = 0.02498158
#
# Stress axis : x y z
#
# Youngs Moduli (GPa) = 153.14206 30.08073 113.30242
#
# Poissons Ratio (x) = 0.04982 0.25857
# Poissons Ratio (y) = 0.25365 0.89176
# Poissons Ratio (z) = 0.34949 0.23675
#
# Static dielectric constant tensor:
#      x y z
#    x 5.945960 0.000000 0.000000 
#    y 0.000000 3.209000 0.000000 
#    z 0.000000 0.000000 4.022950 
# 
# 
# High freq. dielectric constant tensor:
#      x y z
#    x 1.876940 0.000000 0.000000 
#    y 0.000000 1.777830 0.000000 
#    z 0.000000 0.000000 1.864300 
# 
# From -- ./inp_files/35058.got.cif
#   From: 2010.06.25/outbox.cif.g09.slc.cpg/sg52_18_cif.got.tgz:35058.got - 2010.06.26 19:32:48.
