data_PCOD8214669
_publ_section_title
;
Structure prediction by ZEFSAII (Michael W. Deem and Ramdas Pophale) SiO2 
 PCOD8214669
Probable space group: P M M A
;
_chemical_formula_sum "Si O2"
_cell_formula_units_Z 30
_cell_length_a 13.940732
_cell_length_b 11.376790
_cell_length_c 9.210444
_cell_angle_alpha 90.000000
_cell_angle_beta 90.000000
_cell_angle_gamma 90.000000
_cell_volume 1460.783606
_symmetry_space_group_name_H-M "P M M A"
_symmetry_group_IT_number 51
_symmetry_cell_setting 'orthorhombic'
loop_
_space_group_symop_operation_xyz
x,y,z
1/2-x,-y,z
1/2+x,-y,-z
-x,y,-z
-x,-y,-z
1/2+x,y,-z
1/2-x,y,z
x,-y,z
loop_
_atom_site_type_symbol
_atom_site_label
_atom_site_fract_x
_atom_site_fract_y
_atom_site_fract_z
Si Si1 0.250000 0.276279 0.303951
Si Si2 0.948313 0.500000 0.350048
Si Si3 0.446444 0.862583 0.352413
Si Si4 0.250000 0.500000 0.510265
Si Si5 0.948309 0.291028 0.147906
Si Si6 0.750000 0.641803 0.028737
O O1 0.155476 0.201199 0.337509
O O2 0.250000 0.387026 0.408958
O O3 0.250000 0.317896 0.137599
O O4 0.835585 0.500000 0.375236
O O5 0.983661 0.387101 0.262853
O O6 0.000000 0.500000 0.500000
O O7 0.500000 0.824057 0.500000
O O8 0.517156 0.832460 0.216806
O O9 0.425566 0.000000 0.349698
O O10 0.836170 0.299141 0.117359
O O11 0.000000 0.320379 0.000000
O O12 0.750000 0.500000 0.037948
#
# Coordination Sequence:
#
# PCOD8214669 Si02
#       6
#     4   4   8   2   8   4
#     4  12  23  45  70 105 137 181 227 285 349 405
#     4  12  25  38  63 101 137 179 215 275 341 401
#     4  11  26  48  72  99 136 182 235 287 340 403
#     4  12  24  38  66  96 140 168 226 272 334 422
#     4  12  24  43  68  98 139 181 226 279 340 408
#     4  12  25  43  66 104 147 177 225 277 350 418
#
# _framework density 20.536922000000001
#
# number of rings (size 3 to 8) (size 9 to 14) (size 15 to 20)
#    0.000    0.267    4.667    5.600    0.000    1.600 
#    0.000    2.000    0.000    0.000    0.000    0.000 
#    0.000    0.000    0.000    0.000    0.000    0.000 
#
# Total GULP energy -372068.538540 kJ/mol
# GULP energy per Si atom -12402.284618 kJ/mol
# Density = 2.049018 g / cm^3
# Si number density = 20.536922 Si / 1000 Ang^3
#
#
#
# Elastic Constant Matrix: (Units=GPa)
#
#
# Indices 1 2 3 4 5 6 
#
# 1 158.7686 57.3966 59.1157 0.0000 0.0000 0.0000
# 2 57.3966 98.8078 53.1417 0.0000 0.0000 0.0000
# 3 59.1157 53.1417 150.7215 0.0000 0.0000 0.0000
# 4 0.0000 0.0000 0.0000 24.8606 0.0000 0.0000
# 5 0.0000 0.0000 0.0000 0.0000 47.6426 0.0000
# 6 0.0000 0.0000 0.0000 0.0000 0.0000 69.2229
#
#
#
# Elastic Compliance Matrix: (Units=1/GPa)
#
#
# Indices 1 2 3 4 5 6 
#
# 1 0.008411 -0.003840 -0.001945 0.000000 0.000000 0.000000
# 2 -0.003840 0.014242 -0.003515 0.000000 0.000000 0.000000
# 3 -0.001945 -0.003515 0.008637 0.000000 0.000000 0.000000
# 4 0.000000 0.000000 0.000000 0.040224 0.000000 0.000000
# 5 0.000000 0.000000 0.000000 0.000000 0.020990 0.000000
# 6 0.000000 0.000000 0.000000 0.000000 0.000000 0.014446
#
#
# Mechanical properties :
#
#
# Convention : Reuss Voigt Hill
#
# Bulk Modulus (GPa) = 78.80585 83.06732 80.93658
# Shear Modulus (GPa) = 38.52682 44.25481 41.39082
#
# Velocity S-wave (km/s) = 4.33596 4.64712 4.49423
# Velocity P-wave (km/s) = 7.97016 8.32645 8.15025
#
# Compressibility (1/GPa) = 0.01268941
#
# Stress axis : x y z
#
# Youngs Moduli (GPa) = 118.89516 70.21598 115.77929
#
# Poissons Ratio (x) = 0.26960 0.22520
# Poissons Ratio (y) = 0.45651 0.40701
# Poissons Ratio (z) = 0.23126 0.24684
#
# Static dielectric constant tensor:
#      x y z
#    x 5.211650 0.000000 0.000000 
#    y 0.000000 3.746440 0.000000 
#    z 0.000000 0.000000 3.989370 
# 
# 
# High freq. dielectric constant tensor:
#      x y z
#    x 1.822380 0.000000 0.000000 
#    y 0.000000 1.796170 0.000000 
#    z 0.000000 0.000000 1.829010 
# 
# From -- ./inp_files/7541.got.cif
#   From: 2010.03.12/outbox.cif.g09.slc.cpg/sg51_4_cif.got.tgz:7541.got - 2010.04.16 13:43:02.
