data_PCOD8214575
_publ_section_title
;
Structure prediction by ZEFSAII (Michael W. Deem and Ramdas Pophale) SiO2 
 PCOD8214575
Probable space group: P M M A
;
_chemical_formula_sum "Si O2"
_cell_formula_units_Z 48
_cell_length_a 30.147923
_cell_length_b 8.349193
_cell_length_c 9.409365
_cell_angle_alpha 90.000000
_cell_angle_beta 90.000000
_cell_angle_gamma 90.000000
_cell_volume 2368.439052
_symmetry_space_group_name_H-M "P M M A"
_symmetry_group_IT_number 51
_symmetry_cell_setting 'orthorhombic'
loop_
_space_group_symop_operation_xyz
x,y,z
1/2-x,-y,z
1/2+x,-y,-z
-x,y,-z
-x,-y,-z
1/2+x,y,-z
1/2-x,y,z
x,-y,z
loop_
_atom_site_type_symbol
_atom_site_label
_atom_site_fract_x
_atom_site_fract_y
_atom_site_fract_z
Si Si1 0.198794 0.184579 0.832450
Si Si2 0.043462 0.313981 0.155084
Si Si3 0.119995 0.814238 0.336681
Si Si4 0.875614 0.683041 0.357591
Si Si5 0.947518 0.186941 0.147995
Si Si6 0.201295 0.190262 0.153009
O O1 0.250000 0.206484 0.790245
O O2 0.169675 0.290980 0.727906
O O3 0.184261 0.000000 0.817163
O O4 0.190188 0.245736 0.992802
O O5 0.031226 0.500000 0.146114
O O6 0.077561 0.282977 0.281917
O O7 0.998814 0.215383 0.185868
O O8 0.064723 0.256199 0.006821
O O9 0.124616 0.794315 0.504304
O O10 0.164089 0.743989 0.260376
O O11 0.113564 0.000000 0.298802
O O12 0.878584 0.500000 0.406450
O O13 0.917998 0.724253 0.263285
O O14 0.936535 0.000000 0.150060
O O15 0.250000 0.256947 0.198001
O O16 0.203052 0.000000 0.156543
#
# Coordination Sequence:
#
# PCOD8214575 Si02
#       6
#     8   8   8   8   8   8
#     4   9  18  36  62  88 113 147 193 241 289 347
#     4  11  22  39  62  90 120 149 185 235 294 345
#     4  11  22  37  58  85 117 156 198 237 284 347
#     4  12  25  39  55  82 120 157 193 241 299 346
#     4  11  22  40  64  88 113 149 197 240 282 341
#     4   8  16  33  59  87 111 140 186 240 284 328
#
# _framework density 20.266511999999999
#
# number of rings (size 3 to 8) (size 9 to 14) (size 15 to 20)
#    0.000    1.667    0.000    8.000    0.000    3.000 
#    0.000    5.833    0.000    3.500    0.000    0.000 
#    0.000    0.000    0.000    0.000    0.000    0.000 
#
# Total GULP energy -595407.175035 kJ/mol
# GULP energy per Si atom -12404.316147 kJ/mol
# Density = 2.022038 g / cm^3
# Si number density = 20.266512 Si / 1000 Ang^3
#
#
#
# Elastic Constant Matrix: (Units=GPa)
#
#
# Indices 1 2 3 4 5 6 
#
# 1 100.9898 7.3796 62.0652 0.0000 0.0000 0.0000
# 2 7.3796 66.4260 3.3355 0.0000 0.0000 0.0000
# 3 62.0652 3.3355 109.5649 0.0000 0.0000 0.0000
# 4 0.0000 0.0000 0.0000 23.9134 0.0000 0.0000
# 5 0.0000 0.0000 0.0000 0.0000 12.9055 0.0000
# 6 0.0000 0.0000 0.0000 0.0000 0.0000 23.6100
#
#
#
# Elastic Compliance Matrix: (Units=1/GPa)
#
#
# Indices 1 2 3 4 5 6 
#
# 1 0.015296 -0.001266 -0.008626 0.000000 0.000000 0.000000
# 2 -0.001266 0.015182 0.000255 0.000000 0.000000 0.000000
# 3 -0.008626 0.000255 0.014006 0.000000 0.000000 0.000000
# 4 0.000000 0.000000 0.000000 0.041818 0.000000 0.000000
# 5 0.000000 0.000000 0.000000 0.000000 0.077486 0.000000
# 6 0.000000 0.000000 0.000000 0.000000 0.000000 0.042355
#
#
# Mechanical properties :
#
#
# Convention : Reuss Voigt Hill
#
# Bulk Modulus (GPa) = 39.66786 46.94904 43.30845
# Shear Modulus (GPa) = 21.38398 25.69914 23.54156
#
# Velocity S-wave (km/s) = 3.25181 3.56485 3.41192
# Velocity P-wave (km/s) = 5.80643 6.33721 6.07762
#
# Compressibility (1/GPa) = 0.02520932
#
# Stress axis : x y z
#
# Youngs Moduli (GPa) = 65.37726 65.86659 71.39968
#
# Poissons Ratio (x) = 0.08340 0.61590
# Poissons Ratio (y) = 0.08278 -0.01821
# Poissons Ratio (z) = 0.56395 -0.01680
#
# Static dielectric constant tensor:
#      x y z
#    x 3.875190 0.000000 0.000000 
#    y 0.000000 3.473280 0.000000 
#    z 0.000000 0.000000 3.579240 
# 
# 
# High freq. dielectric constant tensor:
#      x y z
#    x 1.804160 0.000000 0.000000 
#    y 0.000000 1.780430 0.000000 
#    z 0.000000 0.000000 1.786220 
# 
# From -- ./inp_files/12788.got.cif
#   From: 2010.03.12/outbox.cif.g09.slc.cpg/sg51_7_cif.got.tgz:12788.got - 2010.04.16 13:43:02.
