data_PCOD8214257
_publ_section_title
;
Structure prediction by ZEFSAII (Michael W. Deem and Ramdas Pophale) SiO2 
 PCOD8214257
Probable space group: P M M A
;
_chemical_formula_sum "Si O2"
_cell_formula_units_Z 64
_cell_length_a 21.051703
_cell_length_b 17.373044
_cell_length_c 9.346549
_cell_angle_alpha 90.000000
_cell_angle_beta 90.000000
_cell_angle_gamma 90.000000
_cell_volume 3418.333578
_symmetry_space_group_name_H-M "P M M A"
_symmetry_group_IT_number 51
_symmetry_cell_setting 'orthorhombic'
loop_
_space_group_symop_operation_xyz
x,y,z
1/2-x,-y,z
1/2+x,-y,-z
-x,y,-z
-x,-y,-z
1/2+x,y,-z
1/2-x,y,z
x,-y,z
loop_
_atom_site_type_symbol
_atom_site_label
_atom_site_fract_x
_atom_site_fract_y
_atom_site_fract_z
Si Si1 0.175387 0.243862 0.010627
Si Si2 0.572658 0.202052 0.489778
Si Si3 0.822026 0.088254 0.550820
Si Si4 0.102844 0.681670 0.268260
Si Si5 0.177532 0.585754 0.488880
Si Si6 0.622821 0.683415 0.267862
Si Si7 0.987825 0.585880 0.166169
Si Si8 0.175682 0.916921 0.117158
O O1 0.250000 0.248923 0.046655
O O2 0.162928 0.269977 0.849166
O O3 0.137866 0.297702 0.120991
O O4 0.149759 0.155614 0.026446
O O5 0.500000 0.171002 0.500000
O O6 0.624188 0.134376 0.462891
O O7 0.592942 0.242770 0.636877
O O8 0.576753 0.259594 0.355606
O O9 0.750000 0.119621 0.520534
O O10 0.838896 0.097294 0.716916
O O11 0.825711 0.000000 0.501673
O O12 0.142624 0.617577 0.350226
O O13 0.034948 0.644505 0.241385
O O14 0.250000 0.582299 0.444935
O O15 0.151681 0.500000 0.524312
O O16 0.170756 0.641494 0.624736
O O17 0.582536 0.617305 0.191369
O O18 0.994042 0.500000 0.231780
O O19 0.000000 0.582864 0.000000
O O20 0.250000 0.923432 0.092931
O O21 0.145278 0.000000 0.069590
#
# Coordination Sequence:
#
# PCOD8214257 Si02
#       8
#     8   8   8   8   8   8   8   8
#     4  11  21  35  58  88 116 148 188 239 294 345
#     4  11  22  36  58  87 119 157 195 240 293 342
#     4   9  18  34  58  86 116 155 202 243 282 340
#     4  11  21  37  59  84 109 146 197 242 281 339
#     4  10  22  39  56  78 113 151 186 233 291 350
#     4  11  23  38  56  83 116 151 187 233 296 359
#     4  11  22  38  60  83 108 145 194 243 287 341
#     4   8  15  30  54  83 111 144 188 234 278 329
#
# _framework density 18.722572
#
# number of rings (size 3 to 8) (size 9 to 14) (size 15 to 20)
#    0.000    1.750    3.750    2.250    0.000    2.750 
#    0.000    2.500    0.000    4.500    0.000    2.625 
#    0.000    0.000    0.000    0.000    0.000    0.000 
#
# Total GULP energy -793438.218439 kJ/mol
# GULP energy per Si atom -12397.472163 kJ/mol
# Density = 1.867996 g / cm^3
# Si number density = 18.722572 Si / 1000 Ang^3
#
#
#
# Elastic Constant Matrix: (Units=GPa)
#
#
# Indices 1 2 3 4 5 6 
#
# 1 82.6842 36.3572 10.6583 0.0000 0.0000 0.0000
# 2 36.3572 105.7259 27.5472 0.0000 0.0000 0.0000
# 3 10.6583 27.5472 64.9386 0.0000 0.0000 0.0000
# 4 0.0000 0.0000 0.0000 -25.6960 0.0000 0.0000
# 5 0.0000 0.0000 0.0000 0.0000 24.0803 0.0000
# 6 0.0000 0.0000 0.0000 0.0000 0.0000 33.8735
#
#
#
# Elastic Compliance Matrix: (Units=1/GPa)
#
#
# Indices 1 2 3 4 5 6 
#
# 1 0.014254 -0.004825 -0.000292 0.000000 0.000000 0.000000
# 2 -0.004825 0.012267 -0.004412 0.000000 0.000000 0.000000
# 3 -0.000292 -0.004412 0.017319 0.000000 0.000000 0.000000
# 4 0.000000 0.000000 0.000000 -0.038917 0.000000 0.000000
# 5 0.000000 0.000000 0.000000 0.000000 0.041528 0.000000
# 6 0.000000 0.000000 0.000000 0.000000 0.000000 0.029522
#
#
# Mechanical properties :
#
#
# Convention : Reuss Voigt Hill
#
# Bulk Modulus (GPa) = 40.35473 44.71934 42.53703
# Shear Modulus (GPa) = 48.40645 18.37062 33.38854
#
# Velocity S-wave (km/s) = 5.09026 3.13581 4.22753
# Velocity P-wave (km/s) = 7.49323 6.08672 6.82630
#
# Compressibility (1/GPa) = 0.02478025
#
# Stress axis : x y z
#
# Youngs Moduli (GPa) = 70.15728 81.51755 57.74104
#
# Poissons Ratio (x) = 0.39335 0.01689
# Poissons Ratio (y) = 0.33853 0.25475
# Poissons Ratio (z) = 0.02052 0.35964
#
# Static dielectric constant tensor:
#      x y z
#    x 3.194680 0.000000 0.000000 
#    y 0.000000 3.549580 0.000000 
#    z 0.000000 0.000000 3.236460 
# 
# 
# High freq. dielectric constant tensor:
#      x y z
#    x 1.716290 0.000000 0.000000 
#    y 0.000000 1.736980 0.000000 
#    z 0.000000 0.000000 1.713450 
# 
# From -- ./inp_files/11183.got.cif
#   From: 2010.03.12/outbox.cif.g09.slc.cpg/sg51_6_cif.got.tgz:11183.got - 2010.04.16 13:43:02.
