data_PCOD8214798
_publ_section_title
;
Structure prediction by ZEFSAII (Michael W. Deem and Ramdas Pophale) SiO2 
 PCOD8214798
Probable space group: P M M A
;
_chemical_formula_sum "Si O2"
_cell_formula_units_Z 52
_cell_length_a 9.853137
_cell_length_b 13.488970
_cell_length_c 23.643289
_cell_angle_alpha 90.000000
_cell_angle_beta 90.000000
_cell_angle_gamma 90.000000
_cell_volume 3142.398081
_symmetry_space_group_name_H-M "P M M A"
_symmetry_group_IT_number 51
_symmetry_cell_setting 'orthorhombic'
loop_
_space_group_symop_operation_xyz
x,y,z
1/2-x,-y,z
1/2+x,-y,-z
-x,y,-z
-x,-y,-z
1/2+x,y,-z
1/2-x,y,z
x,-y,z
loop_
_atom_site_type_symbol
_atom_site_label
_atom_site_fract_x
_atom_site_fract_y
_atom_site_fract_z
Si Si1 0.593472 0.200910 0.669652
Si Si2 0.405452 0.885905 0.448724
Si Si3 0.406118 0.783471 0.945516
Si Si4 0.902950 0.110014 0.243914
Si Si5 0.598963 0.000000 0.050966
Si Si6 0.906650 0.703301 0.171289
Si Si7 0.594690 0.388850 0.740522
O O1 0.750000 0.175601 0.681905
O O2 0.561244 0.186919 0.603525
O O3 0.503540 0.122753 0.703600
O O4 0.556964 0.312902 0.689879
O O5 0.500000 0.851247 0.500000
O O6 0.250000 0.873759 0.468031
O O7 0.435411 0.000000 0.431539
O O8 0.250000 0.768387 0.964461
O O9 0.424913 0.894508 0.917599
O O10 0.442963 0.706070 0.895548
O O11 0.500000 0.764036 0.000000
O O12 0.750000 0.125422 0.266605
O O13 0.936647 0.187184 0.194822
O O14 0.921737 0.000000 0.218331
O O15 0.750000 0.000000 0.025932
O O16 0.500000 0.000000 0.000000
O O17 0.750000 0.672510 0.180392
O O18 0.001694 0.625986 0.204032
O O19 0.750000 0.373106 0.759679
O O20 0.570914 0.500000 0.717371
#
# Coordination Sequence:
#
# PCOD8214798 Si02
#       7
#     8   8   8   8   4   8   8
#     4   9  17  30  47  66  90 119 152 188 226 267
#     4   9  17  28  43  65  93 126 158 185 214 251
#     4   9  17  28  43  62  87 119 152 183 217 259
#     4   9  17  27  41  63  91 121 150 181 219 264
#     4   8  14  24  38  56  80 114 150 178 203 240
#     4   9  18  30  45  67  91 117 148 182 224 271
#     4   9  18  33  52  71  89 112 145 187 235 281
#
# _framework density 16.547872000000002
#
# number of rings (size 3 to 8) (size 9 to 14) (size 15 to 20)
#    0.000    3.077    0.000    0.462    1.077    2.462 
#    0.000    1.538    0.000    0.923    0.000    0.000 
#    0.000    0.000    0.000    0.000    0.000    0.000 
#
# Total GULP energy -644353.204680 kJ/mol
# GULP energy per Si atom -12391.407782 kJ/mol
# Density = 1.651021 g / cm^3
# Si number density = 16.547872 Si / 1000 Ang^3
#
#
#
# Elastic Constant Matrix: (Units=GPa)
#
#
# Indices 1 2 3 4 5 6 
#
# 1 63.5018 27.4401 49.9089 0.0000 0.0000 0.0000
# 2 27.4401 66.5792 32.7644 0.0000 0.0000 0.0000
# 3 49.9089 32.7644 97.8649 0.0000 0.0000 0.0000
# 4 0.0000 0.0000 0.0000 17.0772 0.0000 0.0000
# 5 0.0000 0.0000 0.0000 0.0000 28.6279 0.0000
# 6 0.0000 0.0000 0.0000 0.0000 0.0000 19.5734
#
#
#
# Elastic Compliance Matrix: (Units=1/GPa)
#
#
# Indices 1 2 3 4 5 6 
#
# 1 0.027794 -0.005363 -0.012379 0.000000 0.000000 0.000000
# 2 -0.005363 0.019017 -0.003632 0.000000 0.000000 0.000000
# 3 -0.012379 -0.003632 0.017747 0.000000 0.000000 0.000000
# 4 0.000000 0.000000 0.000000 0.058558 0.000000 0.000000
# 5 0.000000 0.000000 0.000000 0.000000 0.034931 0.000000
# 6 0.000000 0.000000 0.000000 0.000000 0.000000 0.051090
#
#
# Mechanical properties :
#
#
# Convention : Reuss Voigt Hill
#
# Bulk Modulus (GPa) = 45.84886 49.79698 47.82292
# Shear Modulus (GPa) = 19.29349 20.91122 20.10235
#
# Velocity S-wave (km/s) = 3.41826 3.55868 3.48918
# Velocity P-wave (km/s) = 6.58379 6.85884 6.72272
#
# Compressibility (1/GPa) = 0.02181079
#
# Stress axis : x y z
#
# Youngs Moduli (GPa) = 35.97865 52.58353 56.34777
#
# Poissons Ratio (x) = 0.28203 0.69752
# Poissons Ratio (y) = 0.19297 0.20463
# Poissons Ratio (z) = 0.44537 0.19096
#
# Static dielectric constant tensor:
#      x y z
#    x 3.200200 0.000000 0.000000 
#    y 0.000000 -31.944350 0.000000 
#    z 0.000000 0.000000 2.688040 
# 
# 
# High freq. dielectric constant tensor:
#      x y z
#    x 1.642110 0.000000 0.000000 
#    y 0.000000 1.617320 0.000000 
#    z 0.000000 0.000000 1.617000 
# 
# From -- ./inp_files/36349.got.cif
#   From: 2010.03.12/outbox.cif.g09.slc.cpg/sg51_19_cif.got.tgz:36349.got - 2010.04.16 13:43:02.
