data_PCOD8214437
_publ_section_title
;
Structure prediction by ZEFSAII (Michael W. Deem and Ramdas Pophale) SiO2 
 PCOD8214437
Probable space group: P M M A
;
_chemical_formula_sum "Si O2"
_cell_formula_units_Z 56
_cell_length_a 26.736809
_cell_length_b 9.061113
_cell_length_c 14.230332
_cell_angle_alpha 90.000000
_cell_angle_beta 90.000000
_cell_angle_gamma 90.000000
_cell_volume 3447.514906
_symmetry_space_group_name_H-M "P M M A"
_symmetry_group_IT_number 51
_symmetry_cell_setting 'orthorhombic'
loop_
_space_group_symop_operation_xyz
x,y,z
1/2-x,-y,z
1/2+x,-y,-z
-x,y,-z
-x,-y,-z
1/2+x,y,-z
1/2-x,y,z
x,-y,z
loop_
_atom_site_type_symbol
_atom_site_label
_atom_site_fract_x
_atom_site_fract_y
_atom_site_fract_z
Si Si1 0.377322 0.834637 0.725227
Si Si2 0.884802 0.675047 0.981811
Si Si3 0.541673 0.672866 0.630527
Si Si4 0.807933 0.174197 0.110952
Si Si5 0.566449 0.826750 0.817707
Si Si6 0.956409 0.833773 0.117716
Si Si7 0.431711 0.671173 0.575379
O O1 0.332054 0.773035 0.789946
O O2 0.428727 0.824577 0.782990
O O3 0.384966 0.744131 0.629476
O O4 0.364737 0.000000 0.694389
O O5 0.880930 0.500000 0.975592
O O6 0.891108 0.743630 0.877977
O O7 0.833848 0.739902 0.025537
O O8 0.932459 0.720311 0.044620
O O9 0.542379 0.500000 0.655807
O O10 0.567922 0.765115 0.712315
O O11 0.484958 0.728868 0.614562
O O12 0.572934 0.704202 0.535428
O O13 0.750000 0.215007 0.111636
O O14 0.817968 0.000000 0.097611
O O15 0.513551 0.790097 0.866355
O O16 0.577512 0.000000 0.814903
O O17 0.951542 0.000000 0.076177
O O18 0.428569 0.500000 0.595647
#
# Coordination Sequence:
#
# PCOD8214437 Si02
#       7
#     8   8   8   8   8   8   8
#     4   9  16  28  47  71  94 120 158 197 234 278
#     4  11  22  32  46  69  95 123 156 196 240 286
#     4   9  18  30  43  63  94 130 166 197 230 274
#     4   9  19  37  56  72  94 123 154 193 241 290
#     4  11  20  31  46  65  92 129 167 201 234 275
#     4   9  18  31  44  63  93 128 163 197 230 273
#     4   9  17  29  44  64  94 130 160 192 236 280
#
# _framework density 16.243584999999999
#
# number of rings (size 3 to 8) (size 9 to 14) (size 15 to 20)
#    0.000    2.429    1.429    3.857    0.000    6.000 
#    0.000    1.429    0.000    0.000    0.000    1.000 
#    0.000    3.429    0.000    0.000    0.000    0.000 
#
# Total GULP energy -694302.831225 kJ/mol
# GULP energy per Si atom -12398.264843 kJ/mol
# Density = 1.620661 g / cm^3
# Si number density = 16.243585 Si / 1000 Ang^3
#
#
#
# Elastic Constant Matrix: (Units=GPa)
#
#
# Indices 1 2 3 4 5 6 
#
# 1 82.8944 38.9790 50.6734 0.0000 0.0000 0.0000
# 2 38.9790 80.1041 59.5669 0.0000 0.0000 0.0000
# 3 50.6734 59.5669 111.1486 0.0000 0.0000 0.0000
# 4 0.0000 0.0000 0.0000 30.6317 0.0000 0.0000
# 5 0.0000 0.0000 0.0000 0.0000 14.7574 0.0000
# 6 0.0000 0.0000 0.0000 0.0000 0.0000 14.8832
#
#
#
# Elastic Compliance Matrix: (Units=1/GPa)
#
#
# Indices 1 2 3 4 5 6 
#
# 1 0.017577 -0.004313 -0.005702 0.000000 0.000000 0.000000
# 2 -0.004313 0.021813 -0.009724 0.000000 0.000000 0.000000
# 3 -0.005702 -0.009724 0.016808 0.000000 0.000000 0.000000
# 4 0.000000 0.000000 0.000000 0.032646 0.000000 0.000000
# 5 0.000000 0.000000 0.000000 0.000000 0.067763 0.000000
# 6 0.000000 0.000000 0.000000 0.000000 0.000000 0.067190
#
#
# Mechanical properties :
#
#
# Convention : Reuss Voigt Hill
#
# Bulk Modulus (GPa) = 59.80714 63.62063 61.71388
# Shear Modulus (GPa) = 18.59779 20.38295 19.49037
#
# Velocity S-wave (km/s) = 3.38735 3.54620 3.46769
# Velocity P-wave (km/s) = 7.22480 7.48459 7.35584
#
# Compressibility (1/GPa) = 0.01672041
#
# Stress axis : x y z
#
# Youngs Moduli (GPa) = 56.89130 45.84342 59.49564
#
# Poissons Ratio (x) = 0.19772 0.33926
# Poissons Ratio (y) = 0.24537 0.57853
# Poissons Ratio (z) = 0.32441 0.44578
#
# Static dielectric constant tensor:
#      x y z
#    x 2.799560 0.000000 0.000000 
#    y 0.000000 2.994750 0.000000 
#    z 0.000000 0.000000 3.081500 
# 
# 
# High freq. dielectric constant tensor:
#      x y z
#    x 1.581750 0.000000 0.000000 
#    y 0.000000 1.623630 0.000000 
#    z 0.000000 0.000000 1.624900 
# 
# From -- ./inp_files/26466.got.cif
#   From: 2010.03.12/outbox.cif.g09.slc.cpg/sg51_14_cif.got.tgz:26466.got - 2010.04.16 13:43:02.
