data_PCOD8214777
_publ_section_title
;
Structure prediction by ZEFSAII (Michael W. Deem and Ramdas Pophale) SiO2 
 PCOD8214777
Probable space group: P M M A
;
_chemical_formula_sum "Si O2"
_cell_formula_units_Z 40
_cell_length_a 10.339823
_cell_length_b 9.851472
_cell_length_c 24.450853
_cell_angle_alpha 90.000000
_cell_angle_beta 90.000000
_cell_angle_gamma 90.000000
_cell_volume 2490.624446
_symmetry_space_group_name_H-M "P M M A"
_symmetry_group_IT_number 51
_symmetry_cell_setting 'orthorhombic'
loop_
_space_group_symop_operation_xyz
x,y,z
1/2-x,-y,z
1/2+x,-y,-z
-x,y,-z
-x,-y,-z
1/2+x,y,-z
1/2-x,y,z
x,-y,z
loop_
_atom_site_type_symbol
_atom_site_label
_atom_site_fract_x
_atom_site_fract_y
_atom_site_fract_z
Si Si1 0.096608 0.654926 0.741408
Si Si2 0.403237 0.849278 0.836090
Si Si3 0.511573 0.338448 0.376278
Si Si4 0.750000 0.338067 0.570203
Si Si5 0.105215 0.161606 0.957714
Si Si6 0.750000 0.662022 0.446633
O O1 0.250000 0.666677 0.735033
O O2 0.055779 0.500000 0.753106
O O3 0.041418 0.745665 0.791034
O O4 0.032611 0.711114 0.685783
O O5 0.250000 0.857078 0.831516
O O6 0.439498 0.795483 0.896687
O O7 0.461476 0.000000 0.825942
O O8 0.516382 0.500000 0.377594
O O9 0.375417 0.282097 0.398182
O O10 0.623843 0.281206 0.415614
O O11 0.750000 0.500000 0.569565
O O12 0.750000 0.281905 0.508400
O O13 0.250000 0.217893 0.970892
O O14 0.109088 0.000000 0.961221
O O15 0.000000 0.222470 0.000000
O O16 0.750000 0.500000 0.446738
#
# Coordination Sequence:
#
# PCOD8214777 Si02
#       6
#     8   8   8   4   8   4
#     4   9  15  24  39  57  78 104 134 165 195 231
#     4   8  14  24  39  60  82 102 130 167 198 227
#     4   9  15  23  34  51  74 101 130 159 195 237
#     4   9  16  22  32  50  75 103 128 157 198 242
#     4   8  13  22  38  59  80 101 126 159 198 234
#     4   9  14  22  34  50  73  99 128 163 198 232
#
# _framework density 16.060229
#
# number of rings (size 3 to 8) (size 9 to 14) (size 15 to 20)
#    0.000    3.400    1.000    1.800    0.000    2.400 
#    0.000    0.000    2.200    0.600    0.000    0.000 
#    0.000    4.800    0.000    0.000    0.000    0.000 
#
# Total GULP energy -495737.398016 kJ/mol
# GULP energy per Si atom -12393.434950 kJ/mol
# Density = 1.602368 g / cm^3
# Si number density = 16.060229 Si / 1000 Ang^3
#
#
#
# Elastic Constant Matrix: (Units=GPa)
#
#
# Indices 1 2 3 4 5 6 
#
# 1 92.4639 16.1296 68.5764 0.0000 0.0000 0.0000
# 2 16.1296 28.5484 40.8231 0.0000 0.0000 0.0000
# 3 68.5764 40.8231 173.0926 0.0000 0.0000 0.0000
# 4 0.0000 0.0000 0.0000 11.2924 0.0000 0.0000
# 5 0.0000 0.0000 0.0000 0.0000 23.2031 0.0000
# 6 0.0000 0.0000 0.0000 0.0000 0.0000 5.0046
#
#
#
# Elastic Compliance Matrix: (Units=1/GPa)
#
#
# Indices 1 2 3 4 5 6 
#
# 1 0.015315 0.000035 -0.006076 0.000000 0.000000 0.000000
# 2 0.000035 0.052853 -0.012479 0.000000 0.000000 0.000000
# 3 -0.006076 -0.012479 0.011128 0.000000 0.000000 0.000000
# 4 0.000000 0.000000 0.000000 0.088555 0.000000 0.000000
# 5 0.000000 0.000000 0.000000 0.000000 0.043098 0.000000
# 6 0.000000 0.000000 0.000000 0.000000 0.000000 0.199815
#
#
# Mechanical properties :
#
#
# Convention : Reuss Voigt Hill
#
# Bulk Modulus (GPa) = 23.66512 60.57370 42.11941
# Shear Modulus (GPa) = 10.82511 19.13840 14.98175
#
# Velocity S-wave (km/s) = 2.59903 3.45579 3.05757
# Velocity P-wave (km/s) = 4.87584 7.32952 6.22477
#
# Compressibility (1/GPa) = 0.04225628
#
# Stress axis : x y z
#
# Youngs Moduli (GPa) = 65.29495 18.92045 89.86661
#
# Poissons Ratio (x) = -0.00067 0.54603
# Poissons Ratio (y) = -0.00232 1.12146
# Poissons Ratio (z) = 0.39673 0.23611
#
# Static dielectric constant tensor:
#      x y z
#    x 3.028660 0.000000 0.000000 
#    y 0.000000 2.604060 0.000000 
#    z 0.000000 0.000000 3.372440 
# 
# 
# High freq. dielectric constant tensor:
#      x y z
#    x 1.594020 0.000000 0.000000 
#    y 0.000000 1.546660 0.000000 
#    z 0.000000 0.000000 1.633550 
# 
# From -- ./inp_files/36034.got.cif
#   From: 2010.03.12/outbox.cif.g09.slc.cpg/sg51_19_cif.got.tgz:36034.got - 2010.04.16 13:43:02.
