data_PCOD8214835
_publ_section_title
;
Structure prediction by ZEFSAII (Michael W. Deem and Ramdas Pophale) SiO2 
 PCOD8214835
Probable space group: P M M A
;
_chemical_formula_sum "Si O2"
_cell_formula_units_Z 48
_cell_length_a 9.361328
_cell_length_b 9.656054
_cell_length_c 31.056001
_cell_angle_alpha 90.000000
_cell_angle_beta 90.000000
_cell_angle_gamma 90.000000
_cell_volume 2807.260275
_symmetry_space_group_name_H-M "P M M A"
_symmetry_group_IT_number 51
_symmetry_cell_setting 'orthorhombic'
loop_
_space_group_symop_operation_xyz
x,y,z
1/2-x,-y,z
1/2+x,-y,-z
-x,y,-z
-x,-y,-z
1/2+x,y,-z
1/2-x,y,z
x,-y,z
loop_
_atom_site_type_symbol
_atom_site_label
_atom_site_fract_x
_atom_site_fract_y
_atom_site_fract_z
Si Si1 0.416899 0.840101 0.622297
Si Si2 0.079972 0.154328 0.202573
Si Si3 0.091305 0.835268 0.296564
Si Si4 0.411993 0.664775 0.959343
Si Si5 0.083726 0.338729 0.124009
Si Si6 0.583647 0.340404 0.457756
O O1 0.250000 0.819579 0.629281
O O2 0.491118 0.780268 0.665220
O O3 0.472083 0.751871 0.581818
O O4 0.456935 0.000000 0.613954
O O5 0.250000 0.149275 0.203360
O O6 0.029264 0.209695 0.249652
O O7 0.025357 0.257570 0.165676
O O8 0.019548 0.000000 0.193327
O O9 0.250000 0.774075 0.303851
O O10 0.097414 0.000000 0.297013
O O11 0.250000 0.722865 0.960096
O O12 0.409841 0.500000 0.961353
O O13 0.492181 0.714894 0.916370
O O14 0.500000 0.724193 0.000000
O O15 0.250000 0.307577 0.114606
O O16 0.058472 0.500000 0.132796
O O17 0.500000 0.291431 0.500000
O O18 0.750000 0.314997 0.466440
O O19 0.550868 0.500000 0.446868
#
# Coordination Sequence:
#
# PCOD8214835 Si02
#       6
#     8   8   8   8   8   8
#     4   9  17  29  45  65  87 109 136 173 213 248
#     4   8  14  26  44  63  84 113 145 172 203 248
#     4   8  14  26  44  64  85 111 143 175 206 244
#     4   9  16  26  41  61  85 112 141 173 210 252
#     4   9  16  26  42  64  87 109 136 173 213 248
#     4   9  18  32  47  62  84 114 143 170 205 251
#
# _framework density 17.098521000000002
#
# number of rings (size 3 to 8) (size 9 to 14) (size 15 to 20)
#    0.000    3.333    0.000    1.500    0.000    3.000 
#    0.000    1.667    0.000    3.000    0.000    0.000 
#    0.000    0.000    0.000    0.000    0.000    0.000 
#
# Total GULP energy -595001.615249 kJ/mol
# GULP energy per Si atom -12395.866984 kJ/mol
# Density = 1.705960 g / cm^3
# Si number density = 17.098521 Si / 1000 Ang^3
#
#
#
# Elastic Constant Matrix: (Units=GPa)
#
#
# Indices 1 2 3 4 5 6 
#
# 1 65.0388 26.4409 70.7483 0.0000 0.0000 0.0000
# 2 26.4409 43.3073 60.8440 0.0000 0.0000 0.0000
# 3 70.7483 60.8440 200.2353 0.0000 0.0000 0.0000
# 4 0.0000 0.0000 0.0000 29.0694 0.0000 0.0000
# 5 0.0000 0.0000 0.0000 0.0000 32.3898 0.0000
# 6 0.0000 0.0000 0.0000 0.0000 0.0000 11.8206
#
#
#
# Elastic Compliance Matrix: (Units=1/GPa)
#
#
# Indices 1 2 3 4 5 6 
#
# 1 0.025604 -0.005099 -0.007497 0.000000 0.000000 0.000000
# 2 -0.005099 0.041307 -0.010750 0.000000 0.000000 0.000000
# 3 -0.007497 -0.010750 0.010909 0.000000 0.000000 0.000000
# 4 0.000000 0.000000 0.000000 0.034400 0.000000 0.000000
# 5 0.000000 0.000000 0.000000 0.000000 0.030874 0.000000
# 6 0.000000 0.000000 0.000000 0.000000 0.000000 0.084598
#
#
# Mechanical properties :
#
#
# Convention : Reuss Voigt Hill
#
# Bulk Modulus (GPa) = 32.12564 69.40530 50.76547
# Shear Modulus (GPa) = 17.55860 24.69250 21.12555
#
# Velocity S-wave (km/s) = 3.20802 3.80429 3.51881
# Velocity P-wave (km/s) = 5.70536 7.74444 6.80175
#
# Compressibility (1/GPa) = 0.03112778
#
# Stress axis : x y z
#
# Youngs Moduli (GPa) = 39.05714 24.20886 91.66335
#
# Poissons Ratio (x) = 0.12345 0.68719
# Poissons Ratio (y) = 0.19917 0.98538
# Poissons Ratio (z) = 0.29281 0.26024
#
# Static dielectric constant tensor:
#      x y z
#    x 3.112230 0.000000 0.000000 
#    y 0.000000 2.923920 0.000000 
#    z 0.000000 0.000000 3.555760 
# 
# 
# High freq. dielectric constant tensor:
#      x y z
#    x 1.640580 0.000000 0.000000 
#    y 0.000000 1.618330 0.000000 
#    z 0.000000 0.000000 1.675080 
# 
# From -- ./inp_files/34540.got.cif
#   From: 2010.03.12/outbox.cif.g09.slc.cpg/sg51_18_cif.got.tgz:34540.got - 2010.04.16 13:43:02.
