data_PCOD8214260
_publ_section_title
;
Structure prediction by ZEFSAII (Michael W. Deem and Ramdas Pophale) SiO2 
 PCOD8214260
Probable space group: P M M A
;
_chemical_formula_sum "Si O2"
_cell_formula_units_Z 32
_cell_length_a 16.236324
_cell_length_b 7.600205
_cell_length_c 11.922734
_cell_angle_alpha 90.000000
_cell_angle_beta 90.000000
_cell_angle_gamma 90.000000
_cell_volume 1471.258113
_symmetry_space_group_name_H-M "P M M A"
_symmetry_group_IT_number 51
_symmetry_cell_setting 'orthorhombic'
loop_
_space_group_symop_operation_xyz
x,y,z
1/2-x,-y,z
1/2+x,-y,-z
-x,y,-z
-x,-y,-z
1/2+x,y,-z
1/2-x,y,z
x,-y,z
loop_
_atom_site_type_symbol
_atom_site_label
_atom_site_fract_x
_atom_site_fract_y
_atom_site_fract_z
Si Si1 0.412054 0.793776 0.463569
Si Si2 0.656196 0.500000 0.167294
Si Si3 0.844257 0.190300 0.306770
Si Si4 0.587642 0.500000 0.936064
Si Si5 0.347149 0.792214 0.224891
O O1 0.500000 0.711455 0.500000
O O2 0.349890 0.745777 0.564365
O O3 0.376882 0.720816 0.346478
O O4 0.420615 0.000000 0.446711
O O5 0.750000 0.500000 0.210347
O O6 0.612534 0.672464 0.221455
O O7 0.655067 0.500000 0.034261
O O8 0.750000 0.167444 0.273462
O O9 0.889334 0.000000 0.293001
O O10 0.601616 0.677595 0.864923
O O11 0.500000 0.500000 0.000000
O O12 0.250000 0.754322 0.212779
O O13 0.365227 0.000000 0.206222
#
# Coordination Sequence:
#
# PCOD8214260 Si02
#       5
#     8   4   8   4   8
#     4   9  18  33  59  93 127 156 192 248 310 376
#     4  10  22  39  57  81 114 154 204 250 293 363
#     4   9  18  34  58  86 117 152 188 237 304 370
#     4  12  28  43  61  90 125 166 216 275 319 365
#     4  10  22  43  69  93 124 170 217 262 318 386
#
# _framework density 21.75009
#
# number of rings (size 3 to 8) (size 9 to 14) (size 15 to 20)
#    0.000    2.250    0.000    1.875    3.500    5.500 
#    0.000    6.250    0.000    0.000    0.000    0.000 
#    0.000    0.000    0.000    0.000    0.000    0.000 
#
# Total GULP energy -396516.255901 kJ/mol
# GULP energy per Si atom -12391.132997 kJ/mol
# Density = 2.170059 g / cm^3
# Si number density = 21.750090 Si / 1000 Ang^3
#
#
#
# Elastic Constant Matrix: (Units=GPa)
#
#
# Indices 1 2 3 4 5 6 
#
# 1 76.1934 25.3579 25.3162 0.0000 0.0000 0.0000
# 2 25.3579 115.2469 79.6249 0.0000 0.0000 0.0000
# 3 25.3162 79.6249 171.1043 0.0000 0.0000 0.0000
# 4 0.0000 0.0000 0.0000 38.6179 0.0000 0.0000
# 5 0.0000 0.0000 0.0000 0.0000 41.1375 0.0000
# 6 0.0000 0.0000 0.0000 0.0000 0.0000 15.0852
#
#
#
# Elastic Compliance Matrix: (Units=1/GPa)
#
#
# Indices 1 2 3 4 5 6 
#
# 1 0.014267 -0.002477 -0.000958 0.000000 0.000000 0.000000
# 2 -0.002477 0.013219 -0.005785 0.000000 0.000000 0.000000
# 3 -0.000958 -0.005785 0.008678 0.000000 0.000000 0.000000
# 4 0.000000 0.000000 0.000000 0.025895 0.000000 0.000000
# 5 0.000000 0.000000 0.000000 0.000000 0.024309 0.000000
# 6 0.000000 0.000000 0.000000 0.000000 0.000000 0.066290
#
#
# Mechanical properties :
#
#
# Convention : Reuss Voigt Hill
#
# Bulk Modulus (GPa) = 56.42167 69.23806 62.82987
# Shear Modulus (GPa) = 28.24745 34.45115 31.34930
#
# Velocity S-wave (km/s) = 3.60770 3.98421 3.80062
# Velocity P-wave (km/s) = 6.58416 7.28477 6.94331
#
# Compressibility (1/GPa) = 0.01772369
#
# Stress axis : x y z
#
# Youngs Moduli (GPa) = 70.09029 75.64841 115.23011
#
# Poissons Ratio (x) = 0.18740 0.11041
# Poissons Ratio (y) = 0.17363 0.66661
# Poissons Ratio (z) = 0.06716 0.43763
#
# Static dielectric constant tensor:
#      x y z
#    x 3.760270 0.000000 0.000000 
#    y 0.000000 4.336550 0.000000 
#    z 0.000000 0.000000 3.991150 
# 
# 
# High freq. dielectric constant tensor:
#      x y z
#    x 1.838920 0.000000 0.000000 
#    y 0.000000 1.851560 0.000000 
#    z 0.000000 0.000000 1.855370 
# 
# From -- ./inp_files/15961.got.cif
#   From: 2010.03.12/outbox.cif.g09.slc.cpg/sg51_8_cif.got.tgz:15961.got - 2010.04.16 13:43:02.
