data_PCOD8214447
_publ_section_title
;
Structure prediction by ZEFSAII (Michael W. Deem and Ramdas Pophale) SiO2 
 PCOD8214447
Probable space group: P M M A
;
_chemical_formula_sum "Si O2"
_cell_formula_units_Z 52
_cell_length_a 10.062212
_cell_length_b 21.747113
_cell_length_c 14.300714
_cell_angle_alpha 90.000000
_cell_angle_beta 90.000000
_cell_angle_gamma 90.000000
_cell_volume 3129.340318
_symmetry_space_group_name_H-M "P M M A"
_symmetry_group_IT_number 51
_symmetry_cell_setting 'orthorhombic'
loop_
_space_group_symop_operation_xyz
x,y,z
1/2-x,-y,z
1/2+x,-y,-z
-x,y,-z
-x,-y,-z
1/2+x,y,-z
1/2-x,y,z
x,-y,z
loop_
_atom_site_type_symbol
_atom_site_label
_atom_site_fract_x
_atom_site_fract_y
_atom_site_fract_z
Si Si1 0.899607 0.618610 0.921161
Si Si2 0.594889 0.240758 0.722247
Si Si3 0.398302 0.000000 0.417056
Si Si4 0.104607 0.764566 0.071442
Si Si5 0.403408 0.132677 0.412516
Si Si6 0.016979 0.376211 0.288705
Si Si7 0.250000 0.427215 0.413617
Si Si8 0.750000 0.427046 0.371316
O O1 0.750000 0.592008 0.936209
O O2 0.895592 0.691284 0.932526
O O3 0.947819 0.601776 0.816524
O O4 0.000000 0.590750 0.000000
O O5 0.750000 0.258083 0.712470
O O6 0.564808 0.214505 0.825012
O O7 0.548188 0.186396 0.655199
O O8 0.512116 0.302299 0.702288
O O9 0.500000 0.000000 0.500000
O O10 0.417460 0.935018 0.361713
O O11 0.250000 0.000000 0.460335
O O12 0.250000 0.789660 0.043978
O O13 0.000000 0.793892 0.000000
O O14 0.500000 0.135805 0.500000
O O15 0.250000 0.143699 0.442618
O O16 0.120066 0.402544 0.362950
O O17 0.874597 0.401573 0.315179
O O18 0.250000 0.500000 0.409545
O O19 0.250000 0.404102 0.521124
O O20 0.750000 0.500000 0.367953
#
# Coordination Sequence:
#
# PCOD8214447 Si02
#       8
#     8   8   4   8   8   8   4   4
#     4   9  17  30  53  79 102 129 159 194 246 307
#     4   9  17  32  49  71 100 128 158 195 244 294
#     4   8  14  26  44  64  89 128 172 202 229 272
#     4   8  14  26  43  65  92 121 152 189 232 280
#     4   9  17  29  45  67  98 133 166 200 236 281
#     4  11  20  38  56  77 103 130 162 208 261 301
#     4  11  22  40  61  73  91 130 175 205 241 303
#     4  11  26  40  55  79  99 126 171 217 247 291
#
# _framework density 16.61692
#
# number of rings (size 3 to 8) (size 9 to 14) (size 15 to 20)
#    0.000    2.615    1.538    1.846    1.077    2.462 
#    5.538    0.000    0.000    2.769    0.000    0.538 
#    0.000    0.000    0.000    0.000    0.000    0.000 
#
# Total GULP energy -644362.216833 kJ/mol
# GULP energy per Si atom -12391.581093 kJ/mol
# Density = 1.657910 g / cm^3
# Si number density = 16.616920 Si / 1000 Ang^3
#
#
#
# Elastic Constant Matrix: (Units=GPa)
#
#
# Indices 1 2 3 4 5 6 
#
# 1 117.1376 37.8777 68.6306 0.0000 0.0000 0.0000
# 2 37.8777 66.6499 42.3849 0.0000 0.0000 0.0000
# 3 68.6306 42.3849 115.3950 0.0000 0.0000 0.0000
# 4 0.0000 0.0000 0.0000 -1.3851 0.0000 0.0000
# 5 0.0000 0.0000 0.0000 0.0000 28.8734 0.0000
# 6 0.0000 0.0000 0.0000 0.0000 0.0000 17.6431
#
#
#
# Elastic Compliance Matrix: (Units=1/GPa)
#
#
# Indices 1 2 3 4 5 6 
#
# 1 0.013665 -0.003389 -0.006882 0.000000 0.000000 0.000000
# 2 -0.003389 0.020417 -0.005483 0.000000 0.000000 0.000000
# 3 -0.006882 -0.005483 0.014773 0.000000 0.000000 0.000000
# 4 0.000000 0.000000 0.000000 -0.721991 0.000000 0.000000
# 5 0.000000 0.000000 0.000000 0.000000 0.034634 0.000000
# 6 0.000000 0.000000 0.000000 0.000000 0.000000 0.056679
#
#
# Mechanical properties :
#
#
# Convention : Reuss Voigt Hill
#
# Bulk Modulus (GPa) = 57.65295 66.32989 61.99142
# Shear Modulus (GPa) = -9.18223 19.04558 4.93167
#
# Velocity S-wave (km/s) = -2.35326 3.38917 1.72462
# Velocity P-wave (km/s) = 5.23325 7.43767 6.43062
#
# Compressibility (1/GPa) = 0.01734517
#
# Stress axis : x y z
#
# Youngs Moduli (GPa) = 73.17760 48.97863 67.68969
#
# Poissons Ratio (x) = 0.16601 0.46587
# Poissons Ratio (y) = 0.24802 0.37117
# Poissons Ratio (z) = 0.50364 0.26857
#
# Static dielectric constant tensor:
#      x y z
#    x 3.381830 0.000000 0.000000 
#    y 0.000000 3.171120 0.000000 
#    z 0.000000 0.000000 3.255130 
# 
# 
# High freq. dielectric constant tensor:
#      x y z
#    x 1.646770 0.000000 0.000000 
#    y 0.000000 1.615990 0.000000 
#    z 0.000000 0.000000 1.630020 
# 
# From -- ./inp_files/21676.got.cif
#   From: 2010.03.12/outbox.cif.g09.slc.cpg/sg51_11_cif.got.tgz:21676.got - 2010.04.16 13:43:02.
