data_PCOD8214921
_publ_section_title
;
Structure prediction by ZEFSAII (Michael W. Deem and Ramdas Pophale) SiO2 
 PCOD8214921
Probable space group: P N N A
;
_chemical_formula_sum "Si O2"
_cell_formula_units_Z 36
_cell_length_a 34.867754
_cell_length_b 5.036746
_cell_length_c 12.032179
_cell_angle_alpha 90.000000
_cell_angle_beta 90.000000
_cell_angle_gamma 90.000000
_cell_volume 2113.091523
_symmetry_space_group_name_H-M "P N N A"
_symmetry_group_IT_number 52
_symmetry_cell_setting 'orthorhombic'
loop_
_space_group_symop_operation_xyz
x,y,z
1/2-x,-y,z
x,1/2-y,1/2-z
1/2-x,1/2+y,1/2-z
-x,-y,-z
1/2+x,y,-z
-x,1/2+y,1/2+z
1/2+x,1/2-y,1/2+z
loop_
_atom_site_type_symbol
_atom_site_label
_atom_site_fract_x
_atom_site_fract_y
_atom_site_fract_z
Si Si1 0.370547 0.232421 0.382568
Si Si2 0.049268 0.773459 0.009399
Si Si3 0.028517 0.263887 0.878627
Si Si4 0.750000 0.000000 0.824657
Si Si5 0.326717 0.726903 0.380895
O O1 0.373128 0.250000 0.250000
O O2 0.412278 0.176474 0.430955
O O3 0.355616 0.510478 0.430986
O O4 0.340062 0.011647 0.427742
O O5 0.037300 0.559874 0.917821
O O6 0.054501 0.054272 0.946942
O O7 0.016361 0.802957 0.102818
O O8 0.038856 0.250000 0.750000
O O9 0.766148 0.250000 0.750000
O O10 0.716944 0.127029 0.903356
O O11 0.330894 0.750000 0.250000
#
# Coordination Sequence:
#
# PCOD8214921 Si02
#       5
#     8   8   8   4   8
#     4  10  18  29  43  64  91 120 154 189 223 261
#     4  10  20  32  49  68  89 119 153 191 232 270
#     4  10  20  34  49  67  89 118 154 191 232 275
#     4  10  16  26  40  58  86 122 162 188 210 262
#     4   9  17  26  40  60  86 121 155 184 216 257
#
# _framework density 17.036650000000002
#
# number of rings (size 3 to 8) (size 9 to 14) (size 15 to 20)
#    0.000    2.222    0.000    6.000    0.000    0.000 
#    0.000    6.667    0.000    0.000    0.000    0.000 
#    0.000    0.000    0.000   56.000    0.000   11.444 
#
# Total GULP energy -446129.012223 kJ/mol
# GULP energy per Si atom -12392.472562 kJ/mol
# Density = 1.699787 g / cm^3
# Si number density = 17.036650 Si / 1000 Ang^3
#
#
#
# Elastic Constant Matrix: (Units=GPa)
#
#
# Indices 1 2 3 4 5 6 
#
# 1 104.4000 25.1745 18.2368 0.0000 0.0000 0.0000
# 2 25.1745 88.1625 14.4643 0.0000 0.0000 0.0000
# 3 18.2368 14.4643 36.7548 0.0000 0.0000 0.0000
# 4 0.0000 0.0000 0.0000 13.4620 0.0000 0.0000
# 5 0.0000 0.0000 0.0000 0.0000 14.9282 0.0000
# 6 0.0000 0.0000 0.0000 0.0000 0.0000 32.4548
#
#
#
# Elastic Compliance Matrix: (Units=1/GPa)
#
#
# Indices 1 2 3 4 5 6 
#
# 1 0.010938 -0.002387 -0.004488 0.000000 0.000000 0.000000
# 2 -0.002387 0.012646 -0.003792 0.000000 0.000000 0.000000
# 3 -0.004488 -0.003792 0.030926 0.000000 0.000000 0.000000
# 4 0.000000 0.000000 0.000000 0.074283 0.000000 0.000000
# 5 0.000000 0.000000 0.000000 0.000000 0.066987 0.000000
# 6 0.000000 0.000000 0.000000 0.000000 0.000000 0.030812
#
#
# Mechanical properties :
#
#
# Convention : Reuss Voigt Hill
#
# Bulk Modulus (GPa) = 30.14183 38.34094 34.24138
# Shear Modulus (GPa) = 19.30598 23.59845 21.45222
#
# Velocity S-wave (km/s) = 3.36996 3.72581 3.55234
# Velocity P-wave (km/s) = 5.73349 6.40802 6.08012
#
# Compressibility (1/GPa) = 0.03317649
#
# Stress axis : x y z
#
# Youngs Moduli (GPa) = 91.42366 79.07329 32.33475
#
# Poissons Ratio (x) = 0.18875 0.14511
# Poissons Ratio (y) = 0.21823 0.12263
# Poissons Ratio (z) = 0.41029 0.29988
#
# Static dielectric constant tensor:
#      x y z
#    x 3.329830 0.000000 0.000000 
#    y 0.000000 3.669750 0.000000 
#    z 0.000000 0.000000 2.598070 
# 
# 
# High freq. dielectric constant tensor:
#      x y z
#    x 1.656280 0.000000 0.000000 
#    y 0.000000 1.688450 0.000000 
#    z 0.000000 0.000000 1.583180 
# 
# From -- ./inp_files/23016.got.cif
#   From: 2010.06.25/outbox.cif.g09.slc.cpg/sg52_12_cif.got.tgz:23016.got - 2010.06.26 19:32:48.
