data_PCOD8214090
_publ_section_title
;
Structure prediction by ZEFSAII (Michael W. Deem and Ramdas Pophale) SiO2 
 PCOD8214090
Probable space group: P M M A
;
_chemical_formula_sum "Si O2"
_cell_formula_units_Z 48
_cell_length_a 30.339353
_cell_length_b 9.094661
_cell_length_c 9.036471
_cell_angle_alpha 90.000000
_cell_angle_beta 90.000000
_cell_angle_gamma 90.000000
_cell_volume 2493.398476
_symmetry_space_group_name_H-M "P M M A"
_symmetry_group_IT_number 51
_symmetry_cell_setting 'orthorhombic'
loop_
_space_group_symop_operation_xyz
x,y,z
1/2-x,-y,z
1/2+x,-y,-z
-x,y,-z
-x,-y,-z
1/2+x,y,-z
1/2-x,y,z
x,-y,z
loop_
_atom_site_type_symbol
_atom_site_label
_atom_site_fract_x
_atom_site_fract_y
_atom_site_fract_z
Si Si1 0.124815 0.172281 0.089272
Si Si2 0.622293 0.826626 0.573172
Si Si3 0.457044 0.673190 0.591969
Si Si4 0.198901 0.670276 0.583013
Si Si5 0.799793 0.671915 0.079508
Si Si6 0.958044 0.830804 0.102566
O O1 0.114682 0.219194 0.257117
O O2 0.131952 0.000000 0.078438
O O3 0.169434 0.246525 0.035811
O O4 0.084385 0.224175 0.988021
O O5 0.585573 0.749829 0.474774
O O6 0.670412 0.772478 0.523842
O O7 0.618912 0.000000 0.549511
O O8 0.500000 0.719157 0.500000
O O9 0.449166 0.500000 0.590686
O O10 0.464261 0.726762 0.757973
O O11 0.250000 0.703421 0.551199
O O12 0.188267 0.500000 0.551408
O O13 0.186884 0.709933 0.752228
O O14 0.750000 0.724266 0.049158
O O15 0.804230 0.500000 0.051641
O O16 0.952925 0.000000 0.153625
O O17 0.000000 0.810987 0.000000
#
# Coordination Sequence:
#
# PCOD8214090 Si02
#       6
#     8   8   8   8   8   8
#     4  10  22  37  54  81 113 145 183 227 274 324
#     4  11  23  38  57  82 114 150 188 230 277 331
#     4  11  24  40  59  85 115 146 184 230 279 332
#     4   9  19  37  59  83 113 148 187 232 281 333
#     4   9  19  36  57  80 107 143 185 227 275 329
#     4  10  21  39  62  85 112 147 185 225 274 332
#
# _framework density 19.250833
#
# number of rings (size 3 to 8) (size 9 to 14) (size 15 to 20)
#    0.000    2.000    0.000    4.000    0.000    9.667 
#    0.000    5.000    0.000    0.000    0.000    0.000 
#    0.000    0.000    0.000    0.000    0.000    0.000 
#
# Total GULP energy -595410.875174 kJ/mol
# GULP energy per Si atom -12404.393233 kJ/mol
# Density = 1.920702 g / cm^3
# Si number density = 19.250833 Si / 1000 Ang^3
#
#
#
# Elastic Constant Matrix: (Units=GPa)
#
#
# Indices 1 2 3 4 5 6 
#
# 1 103.3597 36.6214 48.1439 0.0000 0.0000 0.0000
# 2 36.6214 48.6508 46.4469 0.0000 0.0000 0.0000
# 3 48.1439 46.4469 106.5265 0.0000 0.0000 0.0000
# 4 0.0000 0.0000 0.0000 33.7391 0.0000 0.0000
# 5 0.0000 0.0000 0.0000 0.0000 35.7874 0.0000
# 6 0.0000 0.0000 0.0000 0.0000 0.0000 31.5081
#
#
#
# Elastic Compliance Matrix: (Units=1/GPa)
#
#
# Indices 1 2 3 4 5 6 
#
# 1 0.013699 -0.007539 -0.002904 0.000000 0.000000 0.000000
# 2 -0.007539 0.039361 -0.013755 0.000000 0.000000 0.000000
# 3 -0.002904 -0.013755 0.016697 0.000000 0.000000 0.000000
# 4 0.000000 0.000000 0.000000 0.029639 0.000000 0.000000
# 5 0.000000 0.000000 0.000000 0.000000 0.027943 0.000000
# 6 0.000000 0.000000 0.000000 0.000000 0.000000 0.031738
#
#
# Mechanical properties :
#
#
# Convention : Reuss Voigt Hill
#
# Bulk Modulus (GPa) = 46.81345 57.88461 52.34903
# Shear Modulus (GPa) = 23.29988 28.69525 25.99756
#
# Velocity S-wave (km/s) = 3.48276 3.86501 3.67885
# Velocity P-wave (km/s) = 6.36735 7.07472 6.73034
#
# Compressibility (1/GPa) = 0.02136138
#
# Stress axis : x y z
#
# Youngs Moduli (GPa) = 72.99916 25.40554 59.89116
#
# Poissons Ratio (x) = 0.19154 0.17391
# Poissons Ratio (y) = 0.55036 0.82379
# Poissons Ratio (z) = 0.21198 0.34945
#
# Static dielectric constant tensor:
#      x y z
#    x 3.638140 0.000000 0.000000 
#    y 0.000000 3.435700 0.000000 
#    z 0.000000 0.000000 3.598690 
# 
# 
# High freq. dielectric constant tensor:
#      x y z
#    x 1.763990 0.000000 0.000000 
#    y 0.000000 1.744670 0.000000 
#    z 0.000000 0.000000 1.755920 
# 
# From -- ./inp_files/12736.got.cif
#   From: 2010.03.12/outbox.cif.g09.slc.cpg/sg51_7_cif.got.tgz:12736.got - 2010.04.16 13:43:02.
