data_PCOD8214160
_publ_section_title
;
Structure prediction by ZEFSAII (Michael W. Deem and Ramdas Pophale) SiO2 
 PCOD8214160
Probable space group: P M M A
;
_chemical_formula_sum "Si O2"
_cell_formula_units_Z 64
_cell_length_a 23.702816
_cell_length_b 8.724751
_cell_length_c 14.970207
_cell_angle_alpha 90.000000
_cell_angle_beta 90.000000
_cell_angle_gamma 90.000000
_cell_volume 3095.856287
_symmetry_space_group_name_H-M "P M M A"
_symmetry_group_IT_number 51
_symmetry_cell_setting 'orthorhombic'
loop_
_space_group_symop_operation_xyz
x,y,z
1/2-x,-y,z
1/2+x,-y,-z
-x,y,-z
-x,-y,-z
1/2+x,y,-z
1/2-x,y,z
x,-y,z
loop_
_atom_site_type_symbol
_atom_site_label
_atom_site_fract_x
_atom_site_fract_y
_atom_site_fract_z
Si Si1 0.186679 0.818014 0.142723
Si Si2 0.149328 0.179518 0.951344
Si Si3 0.626022 0.820334 0.680467
Si Si4 0.498325 0.820868 0.270588
Si Si5 0.966576 0.322295 0.090291
Si Si6 0.314024 0.319569 0.488333
Si Si7 0.385413 0.823056 0.644759
Si Si8 0.187723 0.672428 0.786478
O O1 0.250000 0.751949 0.149513
O O2 0.150144 0.758128 0.225665
O O3 0.188001 0.000000 0.142630
O O4 0.157310 0.758798 0.051997
O O5 0.087733 0.215501 0.914020
O O6 0.192731 0.271156 0.888539
O O7 0.162182 0.000000 0.945448
O O8 0.559422 0.782462 0.677001
O O9 0.659817 0.734816 0.604048
O O10 0.637082 0.000000 0.668710
O O11 0.498628 0.726307 0.178178
O O12 0.549406 0.775777 0.337671
O O13 0.501373 0.000000 0.245383
O O14 0.949561 0.500000 0.097975
O O15 0.000000 0.289451 0.000000
O O16 0.250000 0.253084 0.500814
O O17 0.310605 0.500000 0.488184
O O18 0.356706 0.272143 0.566343
O O19 0.352444 0.790372 0.735869
O O20 0.380829 0.000000 0.618725
O O21 0.250000 0.675405 0.743447
O O22 0.162993 0.500000 0.780784
#
# Coordination Sequence:
#
# PCOD8214160 Si02
#       8
#     8   8   8   8   8   8   8   8
#     4   9  18  33  56  87 119 154 201 255 307 360
#     4  11  21  35  57  85 118 159 206 256 307 363
#     4  10  21  40  66  92 121 158 203 256 311 368
#     4  10  22  40  62  92 125 160 204 256 312 365
#     4  11  23  37  56  84 121 166 212 256 305 366
#     4  11  25  44  65  92 125 160 201 252 313 376
#     4  11  23  40  64  92 122 160 206 254 305 364
#     4  11  23  38  57  85 123 162 200 248 306 367
#
# _framework density 20.672794
#
# number of rings (size 3 to 8) (size 9 to 14) (size 15 to 20)
#    0.000    1.500    1.250    3.750    0.000    8.000 
#    0.000    3.750    0.000    3.000    0.000    0.000 
#    0.000    0.000    0.000    0.000    0.000    0.000 
#
# Total GULP energy -793654.181034 kJ/mol
# GULP energy per Si atom -12400.846579 kJ/mol
# Density = 2.062574 g / cm^3
# Si number density = 20.672794 Si / 1000 Ang^3
#
#
#
# Elastic Constant Matrix: (Units=GPa)
#
#
# Indices 1 2 3 4 5 6 
#
# 1 114.1114 31.8574 44.0094 0.0000 0.0000 0.0000
# 2 31.8574 51.0930 27.6476 0.0000 0.0000 0.0000
# 3 44.0094 27.6476 123.0465 0.0000 0.0000 0.0000
# 4 0.0000 0.0000 0.0000 29.7689 0.0000 0.0000
# 5 0.0000 0.0000 0.0000 0.0000 34.7651 0.0000
# 6 0.0000 0.0000 0.0000 0.0000 0.0000 22.4212
#
#
#
# Elastic Compliance Matrix: (Units=1/GPa)
#
#
# Indices 1 2 3 4 5 6 
#
# 1 0.011413 -0.005587 -0.002827 0.000000 0.000000 0.000000
# 2 -0.005587 0.025016 -0.003623 0.000000 0.000000 0.000000
# 3 -0.002827 -0.003623 0.009952 0.000000 0.000000 0.000000
# 4 0.000000 0.000000 0.000000 0.033592 0.000000 0.000000
# 5 0.000000 0.000000 0.000000 0.000000 0.028764 0.000000
# 6 0.000000 0.000000 0.000000 0.000000 0.000000 0.044601
#
#
# Mechanical properties :
#
#
# Convention : Reuss Voigt Hill
#
# Bulk Modulus (GPa) = 44.82551 55.03108 49.92829
# Shear Modulus (GPa) = 27.04935 29.70680 28.37808
#
# Velocity S-wave (km/s) = 3.62118 3.79489 3.70905
# Velocity P-wave (km/s) = 6.26213 6.77344 6.52280
#
# Compressibility (1/GPa) = 0.02230873
#
# Stress axis : x y z
#
# Youngs Moduli (GPa) = 87.61725 39.97455 100.48169
#
# Poissons Ratio (x) = 0.22333 0.28404
# Poissons Ratio (y) = 0.48949 0.36402
# Poissons Ratio (z) = 0.24768 0.14482
#
# Static dielectric constant tensor:
#      x y z
#    x 4.043220 0.000000 0.000000 
#    y 0.000000 3.540880 0.000000 
#    z 0.000000 0.000000 3.901390 
# 
# 
# High freq. dielectric constant tensor:
#      x y z
#    x 1.821320 0.000000 0.000000 
#    y 0.000000 1.792260 0.000000 
#    z 0.000000 0.000000 1.814400 
# 
# From -- ./inp_files/26230.got.cif
#   From: 2010.03.12/outbox.cif.g09.slc.cpg/sg51_14_cif.got.tgz:26230.got - 2010.04.16 13:43:02.
