data_PCOD8214566
_publ_section_title
;
Structure prediction by ZEFSAII (Michael W. Deem and Ramdas Pophale) SiO2 
 PCOD8214566
Probable space group: P M M A
;
_chemical_formula_sum "Si O2"
_cell_formula_units_Z 48
_cell_length_a 14.807930
_cell_length_b 8.775268
_cell_length_c 19.084290
_cell_angle_alpha 90.000000
_cell_angle_beta 90.000000
_cell_angle_gamma 90.000000
_cell_volume 2479.880473
_symmetry_space_group_name_H-M "P M M A"
_symmetry_group_IT_number 51
_symmetry_cell_setting 'orthorhombic'
loop_
_space_group_symop_operation_xyz
x,y,z
1/2-x,-y,z
1/2+x,-y,-z
-x,y,-z
-x,-y,-z
1/2+x,y,-z
1/2-x,y,z
x,-y,z
loop_
_atom_site_type_symbol
_atom_site_label
_atom_site_fract_x
_atom_site_fract_y
_atom_site_fract_z
Si Si1 0.996085 0.819023 0.892605
Si Si2 0.148148 0.327143 0.355680
Si Si3 0.393583 0.173944 0.497830
Si Si4 0.147854 0.181222 0.996881
Si Si5 0.498601 0.179623 0.734908
Si Si6 0.851181 0.328093 0.359128
O O1 0.992042 0.755831 0.813692
O O2 0.089254 0.763458 0.929616
O O3 0.994986 0.000000 0.892912
O O4 0.906866 0.761263 0.934256
O O5 0.250000 0.315814 0.327649
O O6 0.112015 0.500000 0.350607
O O7 0.146069 0.276194 0.436160
O O8 0.088364 0.217370 0.308091
O O9 0.500000 0.191099 0.500000
O O10 0.353634 0.230015 0.570634
O O11 0.363921 0.000000 0.485477
O O12 0.250000 0.250305 0.995219
O O13 0.154292 0.000000 0.997338
O O14 0.412528 0.257457 0.700768
O O15 0.483538 0.000000 0.733759
O O16 0.750000 0.325839 0.329309
O O17 0.883277 0.500000 0.375829
#
# Coordination Sequence:
#
# PCOD8214566 Si02
#       6
#     8   8   8   8   8   8
#     4   8  16  28  44  73 109 140 175 216 262 322
#     4  11  24  40  58  80 108 147 190 229 274 330
#     4  11  22  37  60  87 110 137 178 233 289 331
#     4   8  13  25  46  71 103 142 176 210 260 320
#     4  11  22  36  55  82 115 148 182 227 280 326
#     4  11  24  40  58  80 108 147 190 229 274 330
#
# _framework density 19.355772999999999
#
# number of rings (size 3 to 8) (size 9 to 14) (size 15 to 20)
#    0.000    2.000    1.667    3.500    0.000    6.667 
#    0.000    3.333    0.000    0.000    0.000    9.333 
#    0.000   16.000    0.000    0.000    0.000    0.000 
#
# Total GULP energy -595172.418324 kJ/mol
# GULP energy per Si atom -12399.425382 kJ/mol
# Density = 1.931172 g / cm^3
# Si number density = 19.355773 Si / 1000 Ang^3
#
#
#
# Elastic Constant Matrix: (Units=GPa)
#
#
# Indices 1 2 3 4 5 6 
#
# 1 135.5287 23.3159 49.8055 0.0000 0.0000 0.0000
# 2 23.3159 49.5679 4.0147 0.0000 0.0000 0.0000
# 3 49.8055 4.0147 122.9829 0.0000 0.0000 0.0000
# 4 0.0000 0.0000 0.0000 0.0553 0.0000 0.0000
# 5 0.0000 0.0000 0.0000 0.0000 -20.5886 0.0000
# 6 0.0000 0.0000 0.0000 0.0000 0.0000 28.2903
#
#
#
# Elastic Compliance Matrix: (Units=1/GPa)
#
#
# Indices 1 2 3 4 5 6 
#
# 1 0.009448 -0.004145 -0.003691 0.000000 0.000000 0.000000
# 2 -0.004145 0.022047 0.000959 0.000000 0.000000 0.000000
# 3 -0.003691 0.000959 0.009595 0.000000 0.000000 0.000000
# 4 0.000000 0.000000 0.000000 18.075698 0.000000 0.000000
# 5 0.000000 0.000000 0.000000 0.000000 -0.048571 0.000000
# 6 0.000000 0.000000 0.000000 0.000000 0.000000 0.035348
#
#
# Mechanical properties :
#
#
# Convention : Reuss Voigt Hill
#
# Bulk Modulus (GPa) = 36.58323 51.37242 43.97783
# Shear Modulus (GPa) = 0.27584 16.94764 8.61174
#
# Velocity S-wave (km/s) = 0.37792 2.96224 2.11160
# Velocity P-wave (km/s) = 4.37400 6.18858 5.35866
#
# Compressibility (1/GPa) = 0.02733493
#
# Stress axis : x y z
#
# Youngs Moduli (GPa) = 105.84212 45.35863 104.22469
#
# Poissons Ratio (x) = 0.18802 0.38469
# Poissons Ratio (y) = 0.43874 -0.09996
# Poissons Ratio (z) = 0.39066 -0.04350
#
# Static dielectric constant tensor:
#      x y z
#    x 3.784820 0.000000 0.000000 
#    y 0.000000 3.312980 0.000000 
#    z 0.000000 0.000000 3.690460 
# 
# 
# High freq. dielectric constant tensor:
#      x y z
#    x 1.767660 0.000000 0.000000 
#    y 0.000000 1.727490 0.000000 
#    z 0.000000 0.000000 1.748930 
# 
# From -- ./inp_files/29405.got.cif
#   From: 2010.03.12/outbox.cif.g09.slc.cpg/sg51_15_cif.got.tgz:29405.got - 2010.04.16 13:43:02.
