data_PCOD8214617
_publ_section_title
;
Structure prediction by ZEFSAII (Michael W. Deem and Ramdas Pophale) SiO2 
 PCOD8214617
Probable space group: P M M A
;
_chemical_formula_sum "Si O2"
_cell_formula_units_Z 48
_cell_length_a 8.990028
_cell_length_b 30.274009
_cell_length_c 9.489081
_cell_angle_alpha 90.000000
_cell_angle_beta 90.000000
_cell_angle_gamma 90.000000
_cell_volume 2582.588031
_symmetry_space_group_name_H-M "P M M A"
_symmetry_group_IT_number 51
_symmetry_cell_setting 'orthorhombic'
loop_
_space_group_symop_operation_xyz
x,y,z
1/2-x,-y,z
1/2+x,-y,-z
-x,y,-z
-x,-y,-z
1/2+x,y,-z
1/2-x,y,z
x,-y,z
loop_
_atom_site_type_symbol
_atom_site_label
_atom_site_fract_x
_atom_site_fract_y
_atom_site_fract_z
Si Si1 0.926321 0.199976 0.152756
Si Si2 0.076560 0.548916 0.852700
Si Si3 0.425429 0.622605 0.643841
Si Si4 0.426070 0.873299 0.347412
Si Si5 0.422854 0.278032 0.643820
Si Si6 0.076893 0.950235 0.141145
O O1 0.750000 0.191767 0.139536
O O2 0.963575 0.246812 0.225346
O O3 0.999638 0.163033 0.249277
O O4 0.000000 0.199360 0.000000
O O5 0.250000 0.555729 0.875933
O O6 0.042911 0.500000 0.789558
O O7 0.011356 0.587394 0.754667
O O8 0.000000 0.555047 0.000000
O O9 0.500000 0.608506 0.500000
O O10 0.250000 0.618614 0.627374
O O11 0.473283 0.672427 0.686359
O O12 0.500000 0.872326 0.500000
O O13 0.250000 0.864547 0.360672
O O14 0.461364 0.920561 0.276445
O O15 0.500000 0.261685 0.500000
O O16 0.250000 0.276193 0.609639
O O17 0.250000 0.949205 0.108501
O O18 0.020940 0.000000 0.173816
O O19 0.000000 0.931332 0.000000
#
# Coordination Sequence:
#
# PCOD8214617 Si02
#       6
#     8   8   8   8   8   8
#     4  11  23  38  56  79 107 138 175 217 262 311
#     4   9  18  32  49  70  98 131 166 206 251 299
#     4   9  18  33  51  73 101 131 166 207 252 302
#     4  11  23  38  57  81 110 143 179 219 264 312
#     4   9  19  35  54  75 101 134 169 208 254 305
#     4   9  19  36  57  81 109 141 177 217 261 309
#
# _framework density 18.586008
#
# number of rings (size 3 to 8) (size 9 to 14) (size 15 to 20)
#    0.000    2.333    0.000    2.000    0.000    7.333 
#    0.000    0.000    0.000    0.000    0.000    0.000 
#    0.000    0.000    0.000    0.000    0.000    0.000 
#
# Total GULP energy -595149.896477 kJ/mol
# GULP energy per Si atom -12398.956177 kJ/mol
# Density = 1.854371 g / cm^3
# Si number density = 18.586008 Si / 1000 Ang^3
#
#
#
# Elastic Constant Matrix: (Units=GPa)
#
#
# Indices 1 2 3 4 5 6 
#
# 1 62.5237 53.5323 63.2751 0.0000 0.0000 0.0000
# 2 53.5323 124.4995 93.7479 0.0000 0.0000 0.0000
# 3 63.2751 93.7479 159.3676 0.0000 0.0000 0.0000
# 4 0.0000 0.0000 0.0000 40.6495 0.0000 0.0000
# 5 0.0000 0.0000 0.0000 0.0000 37.8590 0.0000
# 6 0.0000 0.0000 0.0000 0.0000 0.0000 27.5358
#
#
#
# Elastic Compliance Matrix: (Units=1/GPa)
#
#
# Indices 1 2 3 4 5 6 
#
# 1 0.029793 -0.007007 -0.007707 0.000000 0.000000 0.000000
# 2 -0.007007 0.016067 -0.006669 0.000000 0.000000 0.000000
# 3 -0.007707 -0.006669 0.013258 0.000000 0.000000 0.000000
# 4 0.000000 0.000000 0.000000 0.024601 0.000000 0.000000
# 5 0.000000 0.000000 0.000000 0.000000 0.026414 0.000000
# 6 0.000000 0.000000 0.000000 0.000000 0.000000 0.036316
#
#
# Mechanical properties :
#
#
# Convention : Reuss Voigt Hill
#
# Bulk Modulus (GPa) = 61.15770 85.27794 73.21782
# Shear Modulus (GPa) = 25.68501 30.26458 27.97479
#
# Velocity S-wave (km/s) = 3.72150 4.03966 3.88384
# Velocity P-wave (km/s) = 7.17236 8.23049 7.71958
#
# Compressibility (1/GPa) = 0.01635117
#
# Stress axis : x y z
#
# Youngs Moduli (GPa) = 33.56501 62.23914 75.42538
#
# Poissons Ratio (x) = 0.43610 0.58131
# Poissons Ratio (y) = 0.23519 0.50304
# Poissons Ratio (z) = 0.25869 0.41510
#
# Static dielectric constant tensor:
#      x y z
#    x 3.430420 0.000000 0.000000 
#    y 0.000000 3.942720 0.000000 
#    z 0.000000 0.000000 3.215530 
# 
# 
# High freq. dielectric constant tensor:
#      x y z
#    x 1.721530 0.000000 0.000000 
#    y 0.000000 1.736200 0.000000 
#    z 0.000000 0.000000 1.718970 
# 
# From -- ./inp_files/5995.got.cif
#   From: 2010.03.12/outbox.cif.g09.slc.cpg/sg51_3_cif.got.tgz:5995.got - 2010.04.16 13:43:02.
