data_PCOD8214342
_publ_section_title
;
Structure prediction by ZEFSAII (Michael W. Deem and Ramdas Pophale) SiO2 
 PCOD8214342
Probable space group: P M M A
;
_chemical_formula_sum "Si O2"
_cell_formula_units_Z 40
_cell_length_a 17.632446
_cell_length_b 19.577923
_cell_length_c 5.146868
_cell_angle_alpha 90.000000
_cell_angle_beta 90.000000
_cell_angle_gamma 90.000000
_cell_volume 1776.733164
_symmetry_space_group_name_H-M "P M M A"
_symmetry_group_IT_number 51
_symmetry_cell_setting 'orthorhombic'
loop_
_space_group_symop_operation_xyz
x,y,z
1/2-x,-y,z
1/2+x,-y,-z
-x,y,-z
-x,-y,-z
1/2+x,y,-z
1/2-x,y,z
x,-y,z
loop_
_atom_site_type_symbol
_atom_site_label
_atom_site_fract_x
_atom_site_fract_y
_atom_site_fract_z
Si Si1 0.334650 0.424076 0.436619
Si Si2 0.836129 0.706440 0.915147
Si Si3 0.159387 0.922849 0.816348
Si Si4 0.049383 0.647797 0.748732
Si Si5 0.160585 0.153616 0.318363
O O1 0.250000 0.415152 0.556600
O O2 0.343683 0.500000 0.315709
O O3 0.347488 0.367138 0.217377
O O4 0.397678 0.415703 0.661226
O O5 0.750000 0.717825 0.014606
O O6 0.859992 0.766400 0.717018
O O7 0.892695 0.708371 0.163148
O O8 0.250000 0.921834 0.814913
O O9 0.125924 0.876466 0.583115
O O10 0.129215 0.000000 0.787725
O O11 0.127126 0.890267 0.080123
O O12 0.000000 0.672483 0.500000
O O13 0.000000 0.625770 0.000000
O O14 0.250000 0.143894 0.325980
#
# Coordination Sequence:
#
# PCOD8214342 Si02
#       5
#     8   8   8   8   8
#     4  10  23  44  69  95 125 166 212 258 311 371
#     4  10  22  41  65  90 124 165 214 262 310 372
#     4   9  16  27  44  74 116 155 190 234 296 367
#     4  12  25  44  64  91 126 164 206 264 319 371
#     4   9  18  29  50  78 110 156 199 240 297 361
#
# _framework density 22.513231000000001
#
# number of rings (size 3 to 8) (size 9 to 14) (size 15 to 20)
#    0.000    2.000    2.000    1.200    2.800    4.000 
#    0.000    2.000    0.000    0.000    0.000    0.000 
#    0.000   16.000    0.000    0.000    0.000    0.000 
#
# Total GULP energy -495694.696491 kJ/mol
# GULP energy per Si atom -12392.367412 kJ/mol
# Density = 2.246199 g / cm^3
# Si number density = 22.513231 Si / 1000 Ang^3
#
#
#
# Elastic Constant Matrix: (Units=GPa)
#
#
# Indices 1 2 3 4 5 6 
#
# 1 86.7584 8.4836 25.7926 0.0000 0.0000 0.0000
# 2 8.4836 106.6045 20.0708 0.0000 0.0000 0.0000
# 3 25.7926 20.0708 114.5748 0.0000 0.0000 0.0000
# 4 0.0000 0.0000 0.0000 37.1254 0.0000 0.0000
# 5 0.0000 0.0000 0.0000 0.0000 19.2748 0.0000
# 6 0.0000 0.0000 0.0000 0.0000 0.0000 -2.2578
#
#
#
# Elastic Compliance Matrix: (Units=1/GPa)
#
#
# Indices 1 2 3 4 5 6 
#
# 1 0.012376 -0.000476 -0.002703 0.000000 0.000000 0.000000
# 2 -0.000476 0.009719 -0.001595 0.000000 0.000000 0.000000
# 3 -0.002703 -0.001595 0.009616 0.000000 0.000000 0.000000
# 4 0.000000 0.000000 0.000000 0.026936 0.000000 0.000000
# 5 0.000000 0.000000 0.000000 0.000000 0.051881 0.000000
# 6 0.000000 0.000000 0.000000 0.000000 0.000000 -0.442912
#
#
# Mechanical properties :
#
#
# Convention : Reuss Voigt Hill
#
# Bulk Modulus (GPa) = 45.12097 46.29242 45.70669
# Shear Modulus (GPa) = -15.85046 27.73454 5.94204
#
# Velocity S-wave (km/s) = -2.65627 3.51368 1.62637
# Velocity P-wave (km/s) = 3.26768 6.08837 4.88600
#
# Compressibility (1/GPa) = 0.02216265
#
# Stress axis : x y z
#
# Youngs Moduli (GPa) = 80.79960 102.89434 103.99544
#
# Poissons Ratio (x) = 0.04898 0.28107
# Poissons Ratio (y) = 0.03846 0.16591
# Poissons Ratio (z) = 0.21838 0.16415
#
# Static dielectric constant tensor:
#      x y z
#    x 4.016810 0.000000 0.000000 
#    y 0.000000 4.003440 0.000000 
#    z 0.000000 0.000000 4.181490 
# 
# 
# High freq. dielectric constant tensor:
#      x y z
#    x 1.850740 0.000000 0.000000 
#    y 0.000000 1.878830 0.000000 
#    z 0.000000 0.000000 1.888730 
# 
# From -- ./inp_files/1935.got.cif
#   From: 2010.03.12/outbox.cif.g09.slc.cpg/sg51_1_cif.got.tgz:1935.got - 2010.04.16 13:43:02.
