data_PCOD8214055
_publ_section_title
;
Structure prediction by ZEFSAII (Michael W. Deem and Ramdas Pophale) SiO2 
 PCOD8214055
Probable space group: P M M A
;
_chemical_formula_sum "Si O2"
_cell_formula_units_Z 64
_cell_length_a 30.402674
_cell_length_b 8.955877
_cell_length_c 11.794792
_cell_angle_alpha 90.000000
_cell_angle_beta 90.000000
_cell_angle_gamma 90.000000
_cell_volume 3211.516736
_symmetry_space_group_name_H-M "P M M A"
_symmetry_group_IT_number 51
_symmetry_cell_setting 'orthorhombic'
loop_
_space_group_symop_operation_xyz
x,y,z
1/2-x,-y,z
1/2+x,-y,-z
-x,y,-z
-x,-y,-z
1/2+x,y,-z
1/2-x,y,z
x,-y,z
loop_
_atom_site_type_symbol
_atom_site_label
_atom_site_fract_x
_atom_site_fract_y
_atom_site_fract_z
Si Si1 0.375085 0.323921 0.857104
Si Si2 0.573119 0.671057 0.501328
Si Si3 0.050403 0.169587 0.271180
Si Si4 0.675925 0.671391 0.500904
Si Si5 0.625112 0.172907 0.904363
Si Si6 0.299464 0.170474 0.719533
Si Si7 0.699890 0.829511 0.729428
Si Si8 0.951193 0.828950 0.281165
O O1 0.375257 0.500000 0.846575
O O2 0.330939 0.265670 0.799036
O O3 0.418437 0.265155 0.795415
O O4 0.375584 0.276683 0.986906
O O5 0.558972 0.500000 0.485778
O O6 0.560645 0.720252 0.626705
O O7 0.624501 0.693365 0.480327
O O8 0.547257 0.769793 0.409934
O O9 0.081502 0.211454 0.166512
O O10 0.000150 0.187349 0.230233
O O11 0.059912 0.000000 0.311384
O O12 0.689945 0.500000 0.486969
O O13 0.701101 0.769290 0.408559
O O14 0.689801 0.723108 0.624905
O O15 0.668449 0.214790 0.833063
O O16 0.625812 0.000000 0.941791
O O17 0.250000 0.182214 0.767996
O O18 0.315860 0.000000 0.718934
O O19 0.750000 0.808024 0.770223
O O20 0.690574 0.000000 0.692091
O O21 0.935546 0.000000 0.281362
#
# Coordination Sequence:
#
# PCOD8214055 Si02
#       8
#     8   8   8   8   8   8   8   8
#     4  12  26  43  63  89 122 159 202 251 308 363
#     4  11  22  36  59  92 128 163 199 245 307 368
#     4  10  22  40  64  92 120 160 207 252 302 360
#     4  11  22  36  59  92 129 164 197 242 302 363
#     4  10  22  42  64  86 119 159 205 257 302 352
#     4  11  24  42  66  93 121 159 205 250 299 357
#     4  10  21  38  63  92 121 158 204 250 297 356
#     4  11  23  40  64  91 121 159 207 253 300 361
#
# _framework density 19.928280000000001
#
# number of rings (size 3 to 8) (size 9 to 14) (size 15 to 20)
#    0.000    1.250    2.500    3.375    0.000    8.250 
#    0.000    3.750    0.000    0.000    0.000    0.000 
#    0.000    0.000    0.000    0.000    0.000    0.000 
#
# Total GULP energy -793995.502165 kJ/mol
# GULP energy per Si atom -12406.179721 kJ/mol
# Density = 1.988292 g / cm^3
# Si number density = 19.928280 Si / 1000 Ang^3
#
#
#
# Elastic Constant Matrix: (Units=GPa)
#
#
# Indices 1 2 3 4 5 6 
#
# 1 81.0070 75.7896 36.1700 0.0000 0.0000 0.0000
# 2 75.7896 139.2847 72.5510 0.0000 0.0000 0.0000
# 3 36.1700 72.5510 111.4698 0.0000 0.0000 0.0000
# 4 0.0000 0.0000 0.0000 15.6970 0.0000 0.0000
# 5 0.0000 0.0000 0.0000 0.0000 5.0876 0.0000
# 6 0.0000 0.0000 0.0000 0.0000 0.0000 21.0639
#
#
#
# Elastic Compliance Matrix: (Units=1/GPa)
#
#
# Indices 1 2 3 4 5 6 
#
# 1 0.025241 -0.014324 0.001133 0.000000 0.000000 0.000000
# 2 -0.014324 0.018991 -0.007713 0.000000 0.000000 0.000000
# 3 0.001133 -0.007713 0.013623 0.000000 0.000000 0.000000
# 4 0.000000 0.000000 0.000000 0.063707 0.000000 0.000000
# 5 0.000000 0.000000 0.000000 0.000000 0.196556 0.000000
# 6 0.000000 0.000000 0.000000 0.000000 0.000000 0.047475
#
#
# Mechanical properties :
#
#
# Convention : Reuss Voigt Hill
#
# Bulk Modulus (GPa) = 62.31675 77.86474 70.09075
# Shear Modulus (GPa) = 12.11391 18.18643 15.15017
#
# Velocity S-wave (km/s) = 2.46819 3.02419 2.76023
# Velocity P-wave (km/s) = 6.28180 7.16601 6.73842
#
# Compressibility (1/GPa) = 0.01604705
#
# Stress axis : x y z
#
# Youngs Moduli (GPa) = 39.61887 52.65568 73.40418
#
# Poissons Ratio (x) = 0.75426 -0.08317
# Poissons Ratio (y) = 0.56752 0.56614
# Poissons Ratio (z) = -0.04489 0.40611
#
# Static dielectric constant tensor:
#      x y z
#    x 3.850560 0.000000 0.000000 
#    y 0.000000 3.711950 0.000000 
#    z 0.000000 0.000000 3.481390 
# 
# 
# High freq. dielectric constant tensor:
#      x y z
#    x 1.795290 0.000000 0.000000 
#    y 0.000000 1.782720 0.000000 
#    z 0.000000 0.000000 1.769050 
# 
# From -- ./inp_files/19609.got.cif
#   From: 2010.03.12/outbox.cif.g09.slc.cpg/sg51_10_cif.got.tgz:19609.got - 2010.04.16 13:43:02.
