data_PCOD8214017
_publ_section_title
;
Structure prediction by ZEFSAII (Michael W. Deem and Ramdas Pophale) SiO2 
 PCOD8214017
Probable space group: P M M A
;
_chemical_formula_sum "Si O2"
_cell_formula_units_Z 64
_cell_length_a 30.559218
_cell_length_b 8.894039
_cell_length_c 11.868340
_cell_angle_alpha 90.000000
_cell_angle_beta 90.000000
_cell_angle_gamma 90.000000
_cell_volume 3225.754007
_symmetry_space_group_name_H-M "P M M A"
_symmetry_group_IT_number 51
_symmetry_cell_setting 'orthorhombic'
loop_
_space_group_symop_operation_xyz
x,y,z
1/2-x,-y,z
1/2+x,-y,-z
-x,y,-z
-x,-y,-z
1/2+x,y,-z
1/2-x,y,z
x,-y,z
loop_
_atom_site_type_symbol
_atom_site_label
_atom_site_fract_x
_atom_site_fract_y
_atom_site_fract_z
Si Si1 0.623020 0.175479 0.138639
Si Si2 0.299210 0.671071 0.738723
Si Si3 0.700960 0.827366 0.721694
Si Si4 0.831545 0.327819 0.505144
Si Si5 0.951782 0.327657 0.280079
Si Si6 0.923605 0.822577 0.501952
Si Si7 0.378355 0.824260 0.120449
Si Si8 0.449506 0.327589 0.268540
O O1 0.668090 0.217720 0.198790
O O2 0.582018 0.259674 0.191954
O O3 0.614899 0.000000 0.154541
O O4 0.627003 0.221936 0.008828
O O5 0.250000 0.711241 0.776685
O O6 0.311179 0.500000 0.771567
O O7 0.301641 0.691533 0.604395
O O8 0.750000 0.805433 0.770347
O O9 0.696046 0.724345 0.612357
O O10 0.666359 0.777454 0.816576
O O11 0.692730 0.000000 0.686626
O O12 0.846330 0.500000 0.522317
O O13 0.873545 0.224120 0.489143
O O14 0.938702 0.500000 0.301165
O O15 0.951422 0.244867 0.399825
O O16 0.000305 0.311957 0.228478
O O17 0.942751 0.767040 0.619160
O O18 0.927432 0.000000 0.497197
O O19 0.419162 0.733488 0.169327
O O20 0.388062 0.000000 0.135183
O O21 0.437359 0.500000 0.293721
#
# Coordination Sequence:
#
# PCOD8214017 Si02
#       8
#     8   8   8   8   8   8   8   8
#     4  11  24  41  63  90 120 161 209 256 307 358
#     4  10  22  40  62  89 124 164 202 248 305 362
#     4  10  21  38  61  89 122 161 203 248 300 358
#     4  11  21  36  61  91 124 161 199 242 299 364
#     4  11  24  42  63  90 124 161 202 248 303 364
#     4  12  23  37  62  94 126 159 197 244 303 365
#     4  10  23  42  62  87 122 162 205 255 305 358
#     4  11  24  41  64  92 122 160 202 247 303 365
#
# _framework density 19.840322
#
# number of rings (size 3 to 8) (size 9 to 14) (size 15 to 20)
#    0.000    1.250    2.500    3.375    0.000    7.000 
#    0.000    3.750    0.000    0.000    0.000    0.000 
#    0.000    0.000    0.000    0.000    0.000    0.000 
#
# Total GULP energy -793926.976111 kJ/mol
# GULP energy per Si atom -12405.109002 kJ/mol
# Density = 1.979516 g / cm^3
# Si number density = 19.840322 Si / 1000 Ang^3
#
#
#
# Elastic Constant Matrix: (Units=GPa)
#
#
# Indices 1 2 3 4 5 6 
#
# 1 115.4232 49.4351 40.0977 0.0000 0.0000 0.0000
# 2 49.4351 119.7184 60.4153 0.0000 0.0000 0.0000
# 3 40.0977 60.4153 114.1100 0.0000 0.0000 0.0000
# 4 0.0000 0.0000 0.0000 -9.3359 0.0000 0.0000
# 5 0.0000 0.0000 0.0000 0.0000 22.2252 0.0000
# 6 0.0000 0.0000 0.0000 0.0000 0.0000 20.0732
#
#
#
# Elastic Compliance Matrix: (Units=1/GPa)
#
#
# Indices 1 2 3 4 5 6 
#
# 1 0.010838 -0.003484 -0.001964 0.000000 0.000000 0.000000
# 2 -0.003484 0.012519 -0.005404 0.000000 0.000000 0.000000
# 3 -0.001964 -0.005404 0.012314 0.000000 0.000000 0.000000
# 4 0.000000 0.000000 0.000000 -0.107113 0.000000 0.000000
# 5 0.000000 0.000000 0.000000 0.000000 0.044994 0.000000
# 6 0.000000 0.000000 0.000000 0.000000 0.000000 0.049818
#
#
# Mechanical properties :
#
#
# Convention : Reuss Voigt Hill
#
# Bulk Modulus (GPa) = 71.59242 72.12751 71.85997
# Shear Modulus (GPa) = 100.54448 19.87941 60.21194
#
# Velocity S-wave (km/s) = 7.12649 3.16883 5.51490
# Velocity P-wave (km/s) = 10.19208 7.05844 8.76641
#
# Compressibility (1/GPa) = 0.01396796
#
# Stress axis : x y z
#
# Youngs Moduli (GPa) = 92.26507 79.88088 81.20579
#
# Poissons Ratio (x) = 0.27834 0.15946
# Poissons Ratio (y) = 0.32150 0.43880
# Poissons Ratio (z) = 0.18118 0.43164
#
# Static dielectric constant tensor:
#      x y z
#    x 3.719620 0.000000 0.000000 
#    y 0.000000 3.709480 0.000000 
#    z 0.000000 0.000000 3.588990 
# 
# 
# High freq. dielectric constant tensor:
#      x y z
#    x 1.786910 0.000000 0.000000 
#    y 0.000000 1.780850 0.000000 
#    z 0.000000 0.000000 1.767670 
# 
# From -- ./inp_files/19475.got.cif
#   From: 2010.03.12/outbox.cif.g09.slc.cpg/sg51_10_cif.got.tgz:19475.got - 2010.04.16 13:43:02.
