data_PCOD8214156
_publ_section_title
;
Structure prediction by ZEFSAII (Michael W. Deem and Ramdas Pophale) SiO2 
 PCOD8214156
Probable space group: P M M A
;
_chemical_formula_sum "Si O2"
_cell_formula_units_Z 40
_cell_length_a 16.105306
_cell_length_b 8.907682
_cell_length_c 13.341588
_cell_angle_alpha 90.000000
_cell_angle_beta 90.000000
_cell_angle_gamma 90.000000
_cell_volume 1913.996814
_symmetry_space_group_name_H-M "P M M A"
_symmetry_group_IT_number 51
_symmetry_cell_setting 'orthorhombic'
loop_
_space_group_symop_operation_xyz
x,y,z
1/2-x,-y,z
1/2+x,-y,-z
-x,y,-z
-x,-y,-z
1/2+x,y,-z
1/2-x,y,z
x,-y,z
loop_
_atom_site_type_symbol
_atom_site_label
_atom_site_fract_x
_atom_site_fract_y
_atom_site_fract_z
Si Si1 0.250000 0.832573 0.814975
Si Si2 0.388327 0.670381 0.930658
Si Si3 0.345195 0.823336 0.132573
Si Si4 0.515778 0.669885 0.765206
Si Si5 0.068426 0.820852 0.580614
Si Si6 0.250000 0.835353 0.578954
O O1 0.328962 0.738334 0.847153
O O2 0.250000 0.849136 0.697432
O O3 0.250000 0.000000 0.864315
O O4 0.362761 0.500000 0.958669
O O5 0.478264 0.672856 0.878065
O O6 0.385223 0.772573 0.028314
O O7 0.250000 0.770434 0.138059
O O8 0.394371 0.748823 0.225605
O O9 0.353827 0.000000 0.142822
O O10 0.526867 0.500000 0.727242
O O11 0.457198 0.756425 0.687830
O O12 0.161171 0.758000 0.548753
O O13 0.000000 0.768872 0.500000
O O14 0.073074 0.000000 0.590497
O O15 0.250000 0.000000 0.528950
#
# Coordination Sequence:
#
# PCOD8214156 Si02
#       6
#     4   8   8   8   8   4
#     4  11  19  31  57  86 117 156 201 249 296 350
#     4  11  22  36  57  87 122 159 199 247 300 354
#     4  11  24  40  59  85 118 161 209 249 293 357
#     4  11  24  40  60  87 122 158 198 248 307 365
#     4  10  21  40  65  91 121 157 201 255 308 361
#     4   9  18  35  61  90 117 152 197 249 308 360
#
# _framework density 20.898675000000001
#
# number of rings (size 3 to 8) (size 9 to 14) (size 15 to 20)
#    0.000    1.400    3.000    2.700    0.000    6.400 
#    1.800    0.500    0.000    0.000    0.000    0.000 
#    0.000    0.000    0.000    0.000    0.000    0.000 
#
# Total GULP energy -495818.389359 kJ/mol
# GULP energy per Si atom -12395.459734 kJ/mol
# Density = 2.085111 g / cm^3
# Si number density = 20.898675 Si / 1000 Ang^3
#
#
#
# Elastic Constant Matrix: (Units=GPa)
#
#
# Indices 1 2 3 4 5 6 
#
# 1 160.8700 41.6973 51.6817 0.0000 0.0000 0.0000
# 2 41.6973 59.3263 7.7474 0.0000 0.0000 0.0000
# 3 51.6817 7.7474 44.8887 0.0000 0.0000 0.0000
# 4 0.0000 0.0000 0.0000 15.9671 0.0000 0.0000
# 5 0.0000 0.0000 0.0000 0.0000 41.5568 0.0000
# 6 0.0000 0.0000 0.0000 0.0000 0.0000 19.0019
#
#
#
# Elastic Compliance Matrix: (Units=1/GPa)
#
#
# Indices 1 2 3 4 5 6 
#
# 1 0.012071 -0.006823 -0.012721 0.000000 0.000000 0.000000
# 2 -0.006823 0.021101 0.004214 0.000000 0.000000 0.000000
# 3 -0.012721 0.004214 0.036196 0.000000 0.000000 0.000000
# 4 0.000000 0.000000 0.000000 0.062629 0.000000 0.000000
# 5 0.000000 0.000000 0.000000 0.000000 0.024063 0.000000
# 6 0.000000 0.000000 0.000000 0.000000 0.000000 0.052626
#
#
# Mechanical properties :
#
#
# Convention : Reuss Voigt Hill
#
# Bulk Modulus (GPa) = 25.83415 51.92643 38.88029
# Shear Modulus (GPa) = 19.82164 26.23573 23.02868
#
# Velocity S-wave (km/s) = 3.08306 3.54697 3.32312
# Velocity P-wave (km/s) = 5.00621 6.45565 5.77657
#
# Compressibility (1/GPa) = 0.03870846
#
# Stress axis : x y z
#
# Youngs Moduli (GPa) = 82.84041 47.39042 27.62772
#
# Poissons Ratio (x) = 0.32335 0.35144
# Poissons Ratio (y) = 0.56523 -0.11642
# Poissons Ratio (z) = 1.05377 -0.19969
#
# Static dielectric constant tensor:
#      x y z
#    x 4.323860 0.000000 0.000000 
#    y 0.000000 3.751930 0.000000 
#    z 0.000000 0.000000 3.445350 
# 
# 
# High freq. dielectric constant tensor:
#      x y z
#    x 1.839150 0.000000 0.000000 
#    y 0.000000 1.808610 0.000000 
#    z 0.000000 0.000000 1.792710 
# 
# From -- ./inp_files/23813.got.cif
#   From: 2010.03.12/outbox.cif.g09.slc.cpg/sg51_12_cif.got.tgz:23813.got - 2010.04.16 13:43:02.
