data_PCOD8214847
_publ_section_title
;
Structure prediction by ZEFSAII (Michael W. Deem and Ramdas Pophale) SiO2 
 PCOD8214847
Probable space group: P M M A
;
_chemical_formula_sum "Si O2"
_cell_formula_units_Z 64
_cell_length_a 18.137068
_cell_length_b 9.606712
_cell_length_c 21.712494
_cell_angle_alpha 90.000000
_cell_angle_beta 90.000000
_cell_angle_gamma 90.000000
_cell_volume 3783.132601
_symmetry_space_group_name_H-M "P M M A"
_symmetry_group_IT_number 51
_symmetry_cell_setting 'orthorhombic'
loop_
_space_group_symop_operation_xyz
x,y,z
1/2-x,-y,z
1/2+x,-y,-z
-x,y,-z
-x,-y,-z
1/2+x,y,-z
1/2-x,y,z
x,-y,z
loop_
_atom_site_type_symbol
_atom_site_label
_atom_site_fract_x
_atom_site_fract_y
_atom_site_fract_z
Si Si1 0.087653 0.166193 0.386868
Si Si2 0.667012 0.166017 0.490761
Si Si3 0.922561 0.165663 0.374288
Si Si4 0.954055 0.158854 0.827838
Si Si5 0.332245 0.339694 0.865883
Si Si6 0.606240 0.158693 0.238894
Si Si7 0.667564 0.834401 0.734444
Si Si8 0.479655 0.337184 0.931591
O O1 0.124212 0.222852 0.449513
O O2 0.134182 0.224603 0.329153
O O3 0.004851 0.225499 0.382734
O O4 0.087420 0.000000 0.386414
O O5 0.750000 0.223642 0.492295
O O6 0.627891 0.224062 0.429305
O O7 0.666448 0.000000 0.490444
O O8 0.887878 0.213126 0.309057
O O9 0.926471 0.000000 0.375613
O O10 0.881473 0.213342 0.792540
O O11 0.965588 0.255620 0.886757
O O12 0.021232 0.171164 0.780380
O O13 0.944945 0.000000 0.850546
O O14 0.250000 0.311395 0.892860
O O15 0.341832 0.500000 0.847295
O O16 0.341863 0.251843 0.803795
O O17 0.394044 0.298768 0.916716
O O18 0.633834 0.000000 0.232923
O O19 0.750000 0.775343 0.743255
O O20 0.667597 0.000000 0.731023
O O21 0.494547 0.500000 0.922726
O O22 0.500000 0.288318 0.000000
#
# Coordination Sequence:
#
# PCOD8214847 Si02
#       8
#     8   8   8   8   8   8   8   8
#     4   9  14  22  34  49  73 110 153 188 220 267
#     4   9  16  22  28  44  74 112 150 186 225 269
#     4   9  15  23  35  52  78 112 147 183 226 270
#     4   9  16  28  45  66  92 117 147 184 221 264
#     4   9  18  32  49  69  93 119 148 182 217 255
#     4   9  16  27  44  65  89 118 149 183 225 269
#     4   9  15  23  38  59  83 113 148 187 229 269
#     4   9  18  33  52  71  91 119 152 180 211 256
#
# _framework density 16.917197999999999
#
# number of rings (size 3 to 8) (size 9 to 14) (size 15 to 20)
#    0.000    3.000    1.250    0.750    0.000    4.000 
#    0.000    1.875    0.000    1.125    0.000    0.000 
#    0.000    3.000    0.000    1.125    0.000    0.250 
#
# Total GULP energy -793406.584661 kJ/mol
# GULP energy per Si atom -12396.977885 kJ/mol
# Density = 1.687869 g / cm^3
# Si number density = 16.917198 Si / 1000 Ang^3
#
#
#
# Elastic Constant Matrix: (Units=GPa)
#
#
# Indices 1 2 3 4 5 6 
#
# 1 114.9198 20.9208 69.7640 0.0000 0.0000 0.0000
# 2 20.9208 22.7926 33.8304 0.0000 0.0000 0.0000
# 3 69.7640 33.8304 156.4425 0.0000 0.0000 0.0000
# 4 0.0000 0.0000 0.0000 5.2646 0.0000 0.0000
# 5 0.0000 0.0000 0.0000 0.0000 23.7623 0.0000
# 6 0.0000 0.0000 0.0000 0.0000 0.0000 9.7643
#
#
#
# Elastic Compliance Matrix: (Units=1/GPa)
#
#
# Indices 1 2 3 4 5 6 
#
# 1 0.012253 -0.004619 -0.004465 0.000000 0.000000 0.000000
# 2 -0.004619 0.066354 -0.012289 0.000000 0.000000 0.000000
# 3 -0.004465 -0.012289 0.011041 0.000000 0.000000 0.000000
# 4 0.000000 0.000000 0.000000 0.189949 0.000000 0.000000
# 5 0.000000 0.000000 0.000000 0.000000 0.042083 0.000000
# 6 0.000000 0.000000 0.000000 0.000000 0.000000 0.102413
#
#
# Mechanical properties :
#
#
# Convention : Reuss Voigt Hill
#
# Bulk Modulus (GPa) = 21.32154 60.35394 40.83774
# Shear Modulus (GPa) = 10.36322 19.06755 14.71539
#
# Velocity S-wave (km/s) = 2.47773 3.36089 2.95252
# Velocity P-wave (km/s) = 4.56250 7.12842 5.98459
#
# Compressibility (1/GPa) = 0.04690093
#
# Stress axis : x y z
#
# Youngs Moduli (GPa) = 81.60975 15.07069 90.57242
#
# Poissons Ratio (x) = 0.06962 0.40444
# Poissons Ratio (y) = 0.37698 1.11304
# Poissons Ratio (z) = 0.36442 0.18520
#
# Static dielectric constant tensor:
#      x y z
#    x 3.342240 0.000000 0.000000 
#    y 0.000000 2.650980 0.000000 
#    z 0.000000 0.000000 3.232300 
# 
# 
# High freq. dielectric constant tensor:
#      x y z
#    x 1.658310 0.000000 0.000000 
#    y 0.000000 1.587930 0.000000 
#    z 0.000000 0.000000 1.653720 
# 
# From -- ./inp_files/33993.got.cif
#   From: 2010.03.12/outbox.cif.g09.slc.cpg/sg51_17_cif.got.tgz:33993.got - 2010.04.16 13:43:02.
