data_PCOD8214555
_publ_section_title
;
Structure prediction by ZEFSAII (Michael W. Deem and Ramdas Pophale) SiO2 
 PCOD8214555
Probable space group: P M M A
;
_chemical_formula_sum "Si O2"
_cell_formula_units_Z 48
_cell_length_a 15.121332
_cell_length_b 8.940605
_cell_length_c 18.027205
_cell_angle_alpha 90.000000
_cell_angle_beta 90.000000
_cell_angle_gamma 90.000000
_cell_volume 2437.167366
_symmetry_space_group_name_H-M "P M M A"
_symmetry_group_IT_number 51
_symmetry_cell_setting 'orthorhombic'
loop_
_space_group_symop_operation_xyz
x,y,z
1/2-x,-y,z
1/2+x,-y,-z
-x,y,-z
-x,-y,-z
1/2+x,y,-z
1/2-x,y,z
x,-y,z
loop_
_atom_site_type_symbol
_atom_site_label
_atom_site_fract_x
_atom_site_fract_y
_atom_site_fract_z
Si Si1 0.484002 0.175899 0.326183
Si Si2 0.850482 0.326908 0.392767
Si Si3 0.592607 0.164063 0.958934
Si Si4 0.347247 0.825723 0.888389
Si Si5 0.016994 0.675844 0.174018
Si Si6 0.851378 0.671777 0.565367
O O1 0.583451 0.227113 0.344820
O O2 0.451170 0.251204 0.250387
O O3 0.415865 0.220101 0.390254
O O4 0.483990 0.000000 0.315790
O O5 0.750000 0.284119 0.371284
O O6 0.868851 0.500000 0.374881
O O7 0.866820 0.295150 0.479140
O O8 0.586721 0.277260 0.889935
O O9 0.620446 0.000000 0.928583
O O10 0.500000 0.153041 0.000000
O O11 0.658426 0.219564 0.023977
O O12 0.250000 0.797168 0.854146
O O13 0.417313 0.727551 0.843783
O O14 0.375056 0.000000 0.881642
O O15 0.018636 0.500000 0.182383
O O16 0.750000 0.705313 0.587256
O O17 0.875192 0.500000 0.583415
#
# Coordination Sequence:
#
# PCOD8214555 Si02
#       6
#     8   8   8   8   8   8
#     4  12  24  36  54  81 114 151 187 227 277 331
#     4   9  19  37  60  84 111 145 184 226 274 330
#     4   8  15  31  53  74  98 129 164 203 250 306
#     4   9  18  34  56  80 106 136 169 210 264 323
#     4  11  22  35  52  74 104 142 180 220 265 314
#     4   9  19  38  62  84 108 141 182 229 279 331
#
# _framework density 19.694994999999999
#
# number of rings (size 3 to 8) (size 9 to 14) (size 15 to 20)
#    0.000    2.333    0.000    5.500    0.000    7.333 
#    0.000    2.500    0.000    3.000    0.000    0.000 
#    0.000    0.000    0.000    0.000    0.000    0.000 
#
# Total GULP energy -595103.239149 kJ/mol
# GULP energy per Si atom -12397.984149 kJ/mol
# Density = 1.965017 g / cm^3
# Si number density = 19.694995 Si / 1000 Ang^3
#
#
#
# Elastic Constant Matrix: (Units=GPa)
#
#
# Indices 1 2 3 4 5 6 
#
# 1 41.4932 15.6097 3.7114 0.0000 0.0000 0.0000
# 2 15.6097 116.8053 36.0311 0.0000 0.0000 0.0000
# 3 3.7114 36.0311 62.6689 0.0000 0.0000 0.0000
# 4 0.0000 0.0000 0.0000 34.1965 0.0000 0.0000
# 5 0.0000 0.0000 0.0000 0.0000 16.4902 0.0000
# 6 0.0000 0.0000 0.0000 0.0000 0.0000 10.8177
#
#
#
# Elastic Compliance Matrix: (Units=1/GPa)
#
#
# Indices 1 2 3 4 5 6 
#
# 1 0.025391 -0.003561 0.000544 0.000000 0.000000 0.000000
# 2 -0.003561 0.010906 -0.006060 0.000000 0.000000 0.000000
# 3 0.000544 -0.006060 0.019409 0.000000 0.000000 0.000000
# 4 0.000000 0.000000 0.000000 0.029243 0.000000 0.000000
# 5 0.000000 0.000000 0.000000 0.000000 0.060642 0.000000
# 6 0.000000 0.000000 0.000000 0.000000 0.000000 0.092441
#
#
# Mechanical properties :
#
#
# Convention : Reuss Voigt Hill
#
# Bulk Modulus (GPa) = 26.62952 36.85245 31.74098
# Shear Modulus (GPa) = 18.60784 23.34188 20.97486
#
# Velocity S-wave (km/s) = 3.07709 3.44636 3.26695
# Velocity P-wave (km/s) = 5.11615 5.88122 5.51198
#
# Compressibility (1/GPa) = 0.03755232
#
# Stress axis : x y z
#
# Youngs Moduli (GPa) = 39.38350 91.68954 51.52344
#
# Poissons Ratio (x) = 0.32650 -0.02801
# Poissons Ratio (y) = 0.14024 0.31221
# Poissons Ratio (z) = -0.02141 0.55561
#
# Static dielectric constant tensor:
#      x y z
#    x 4.033460 0.000000 0.000000 
#    y 0.000000 3.402230 0.000000 
#    z 0.000000 0.000000 3.668930 
# 
# 
# High freq. dielectric constant tensor:
#      x y z
#    x 1.758630 0.000000 0.000000 
#    y 0.000000 1.754810 0.000000 
#    z 0.000000 0.000000 1.766200 
# 
# From -- ./inp_files/29424.got.cif
#   From: 2010.03.12/outbox.cif.g09.slc.cpg/sg51_15_cif.got.tgz:29424.got - 2010.04.16 13:43:02.
