data_PCOD8214522
_publ_section_title
;
Structure prediction by ZEFSAII (Michael W. Deem and Ramdas Pophale) SiO2 
 PCOD8214522
Probable space group: P M M A
;
_chemical_formula_sum "Si O2"
_cell_formula_units_Z 56
_cell_length_a 15.291639
_cell_length_b 18.287802
_cell_length_c 10.134771
_cell_angle_alpha 90.000000
_cell_angle_beta 90.000000
_cell_angle_gamma 90.000000
_cell_volume 2834.193436
_symmetry_space_group_name_H-M "P M M A"
_symmetry_group_IT_number 51
_symmetry_cell_setting 'orthorhombic'
loop_
_space_group_symop_operation_xyz
x,y,z
1/2-x,-y,z
1/2+x,-y,-z
-x,y,-z
-x,-y,-z
1/2+x,y,-z
1/2-x,y,z
x,-y,z
loop_
_atom_site_type_symbol
_atom_site_label
_atom_site_fract_x
_atom_site_fract_y
_atom_site_fract_z
Si Si1 0.145996 0.920328 0.373704
Si Si2 0.099844 0.236524 0.007076
Si Si3 0.496776 0.414129 0.654982
Si Si4 0.649889 0.311737 0.254274
Si Si5 0.151772 0.319235 0.264725
Si Si6 0.649569 0.217450 0.487405
Si Si7 0.853576 0.080879 0.923696
O O1 0.250000 0.911011 0.367311
O O2 0.104163 0.859128 0.470231
O O3 0.110327 0.910774 0.225235
O O4 0.120072 0.000000 0.429738
O O5 0.140518 0.263344 0.144017
O O6 0.108831 0.148363 0.990751
O O7 0.149716 0.279018 0.891620
O O8 0.000000 0.259961 0.000000
O O9 0.500000 0.393690 0.500000
O O10 0.494383 0.500000 0.675921
O O11 0.409952 0.382981 0.726089
O O12 0.581890 0.384676 0.733456
O O13 0.750000 0.332707 0.291610
O O14 0.609174 0.250223 0.353196
O O15 0.250000 0.352107 0.260220
O O16 0.136149 0.274917 0.397240
O O17 0.750000 0.201338 0.458182
O O18 0.750000 0.086330 0.926492
O O19 0.882120 0.000000 0.978721
#
# Coordination Sequence:
#
# PCOD8214522 Si02
#       7
#     8   8   8   8   8   8   8
#     4   8  13  24  47  80 113 148 197 253 297 339
#     4  12  23  37  60  88 122 165 210 258 307 357
#     4  11  24  42  66  98 127 153 194 246 303 368
#     4  11  23  40  60  90 127 163 199 244 309 370
#     4  11  21  39  64  90 119 157 205 248 294 358
#     4   9  17  31  56  84 114 153 199 244 291 352
#     4   9  17  31  53  82 116 157 207 257 303 356
#
# _framework density 19.758707999999999
#
# number of rings (size 3 to 8) (size 9 to 14) (size 15 to 20)
#    0.000    1.857    4.286    2.143    0.000    0.857 
#    0.000    3.571    0.000    4.286    0.000    3.000 
#    0.000    0.000    0.000    0.000    0.000    0.000 
#
# Total GULP energy -694126.388840 kJ/mol
# GULP energy per Si atom -12395.114086 kJ/mol
# Density = 1.971374 g / cm^3
# Si number density = 19.758708 Si / 1000 Ang^3
#
#
#
# Elastic Constant Matrix: (Units=GPa)
#
#
# Indices 1 2 3 4 5 6 
#
# 1 89.8301 46.4859 19.6661 0.0000 0.0000 0.0000
# 2 46.4859 112.0437 20.4137 0.0000 0.0000 0.0000
# 3 19.6661 20.4137 58.4205 0.0000 0.0000 0.0000
# 4 0.0000 0.0000 0.0000 28.0551 0.0000 0.0000
# 5 0.0000 0.0000 0.0000 0.0000 20.8954 0.0000
# 6 0.0000 0.0000 0.0000 0.0000 0.0000 27.1318
#
#
#
# Elastic Compliance Matrix: (Units=1/GPa)
#
#
# Indices 1 2 3 4 5 6 
#
# 1 0.014652 -0.005532 -0.002999 0.000000 0.000000 0.000000
# 2 -0.005532 0.011621 -0.002198 0.000000 0.000000 0.000000
# 3 -0.002999 -0.002198 0.018895 0.000000 0.000000 0.000000
# 4 0.000000 0.000000 0.000000 0.035644 0.000000 0.000000
# 5 0.000000 0.000000 0.000000 0.000000 0.047858 0.000000
# 6 0.000000 0.000000 0.000000 0.000000 0.000000 0.036857
#
#
# Mechanical properties :
#
#
# Convention : Reuss Voigt Hill
#
# Bulk Modulus (GPa) = 42.17964 48.15842 45.16903
# Shear Modulus (GPa) = 25.65569 26.79836 26.22702
#
# Velocity S-wave (km/s) = 3.60731 3.68677 3.64726
# Velocity P-wave (km/s) = 6.22446 6.52297 6.37547
#
# Compressibility (1/GPa) = 0.02370812
#
# Stress axis : x y z
#
# Youngs Moduli (GPa) = 68.25170 86.05136 52.92405
#
# Poissons Ratio (x) = 0.47607 0.15872
# Poissons Ratio (y) = 0.37760 0.11634
# Poissons Ratio (z) = 0.20469 0.18917
#
# Static dielectric constant tensor:
#      x y z
#    x 3.400550 0.000000 0.000000 
#    y 0.000000 3.699370 0.000000 
#    z 0.000000 0.000000 3.547180 
# 
# 
# High freq. dielectric constant tensor:
#      x y z
#    x 1.755880 0.000000 0.000000 
#    y 0.000000 1.766440 0.000000 
#    z 0.000000 0.000000 1.756270 
# 
# From -- ./inp_files/8541.got.cif
#   From: 2010.03.12/outbox.cif.g09.slc.cpg/sg51_5_cif.got.tgz:8541.got - 2010.04.16 13:43:02.
