data_PCOD8214843
_publ_section_title
;
Structure prediction by ZEFSAII (Michael W. Deem and Ramdas Pophale) SiO2 
 PCOD8214843
Probable space group: P M M A
;
_chemical_formula_sum "Si O2"
_cell_formula_units_Z 56
_cell_length_a 9.297607
_cell_length_b 15.159537
_cell_length_c 24.748588
_cell_angle_alpha 90.000000
_cell_angle_beta 90.000000
_cell_angle_gamma 90.000000
_cell_volume 3488.249561
_symmetry_space_group_name_H-M "P M M A"
_symmetry_group_IT_number 51
_symmetry_cell_setting 'orthorhombic'
loop_
_space_group_symop_operation_xyz
x,y,z
1/2-x,-y,z
1/2+x,-y,-z
-x,y,-z
-x,-y,-z
1/2+x,y,-z
1/2-x,y,z
x,-y,z
loop_
_atom_site_type_symbol
_atom_site_label
_atom_site_fract_x
_atom_site_fract_y
_atom_site_fract_z
Si Si1 0.581448 0.899561 0.945549
Si Si2 0.081966 0.399463 0.671940
Si Si3 0.918970 0.100017 0.553786
Si Si4 0.587191 0.753803 0.636421
Si Si5 0.417904 0.399837 0.053722
Si Si6 0.580081 0.750783 0.866514
Si Si7 0.413863 0.704685 0.249743
O O1 0.750000 0.884490 0.956002
O O2 0.521907 0.837566 0.897331
O O3 0.547720 0.000000 0.928874
O O4 0.500000 0.872837 0.000000
O O5 0.250000 0.379726 0.675881
O O6 0.050919 0.500000 0.655164
O O7 0.010820 0.333954 0.626933
O O8 0.009288 0.379128 0.730604
O O9 0.750000 0.107892 0.543240
O O10 0.970812 0.163085 0.602543
O O11 0.000000 0.130965 0.500000
O O12 0.962017 0.000000 0.569277
O O13 0.750000 0.731023 0.618656
O O14 0.581892 0.776681 0.701044
O O15 0.250000 0.388088 0.041893
O O16 0.456242 0.500000 0.070043
O O17 0.469518 0.337383 0.102349
O O18 0.500000 0.370446 0.000000
O O19 0.750000 0.757553 0.864268
O O20 0.520276 0.746381 0.805099
O O21 0.250000 0.672210 0.239686
#
# Coordination Sequence:
#
# PCOD8214843 Si02
#       7
#     8   8   8   8   8   8   8
#     4   9  17  29  45  64  84 108 140 178 219 264
#     4   9  17  29  46  68  93 121 153 189 229 271
#     4   9  17  30  49  75 103 129 160 196 232 272
#     4   8  16  30  47  68  95 126 159 192 226 269
#     4   9  17  28  41  58  81 109 140 175 217 263
#     4   9  16  28  45  64  85 108 143 182 216 263
#     4   8  16  29  45  64  88 117 150 185 224 271
#
# _framework density 16.053896999999999
#
# number of rings (size 3 to 8) (size 9 to 14) (size 15 to 20)
#    0.857    2.429    0.000    0.429    0.000    2.286 
#    0.000    3.571    0.000    6.429    0.000    0.000 
#    0.000    0.000    0.000    0.000    0.000    0.000 
#
# Total GULP energy -693791.775961 kJ/mol
# GULP energy per Si atom -12389.138856 kJ/mol
# Density = 1.601736 g / cm^3
# Si number density = 16.053897 Si / 1000 Ang^3
#
#
#
# Elastic Constant Matrix: (Units=GPa)
#
#
# Indices 1 2 3 4 5 6 
#
# 1 44.6528 38.0521 33.0141 0.0000 0.0000 0.0000
# 2 38.0521 111.8177 71.5472 0.0000 0.0000 0.0000
# 3 33.0141 71.5472 105.2437 0.0000 0.0000 0.0000
# 4 0.0000 0.0000 0.0000 25.2836 0.0000 0.0000
# 5 0.0000 0.0000 0.0000 0.0000 19.9755 0.0000
# 6 0.0000 0.0000 0.0000 0.0000 0.0000 19.0089
#
#
#
# Elastic Compliance Matrix: (Units=1/GPa)
#
#
# Indices 1 2 3 4 5 6 
#
# 1 0.032851 -0.008116 -0.004788 0.000000 0.000000 0.000000
# 2 -0.008116 0.017833 -0.009578 0.000000 0.000000 0.000000
# 3 -0.004788 -0.009578 0.017515 0.000000 0.000000 0.000000
# 4 0.000000 0.000000 0.000000 0.039551 0.000000 0.000000
# 5 0.000000 0.000000 0.000000 0.000000 0.050061 0.000000
# 6 0.000000 0.000000 0.000000 0.000000 0.000000 0.052607
#
#
# Mechanical properties :
#
#
# Convention : Reuss Voigt Hill
#
# Bulk Modulus (GPa) = 43.03565 60.77120 51.90343
# Shear Modulus (GPa) = 19.00227 20.79365 19.89796
#
# Velocity S-wave (km/s) = 3.44416 3.60285 3.52440
# Velocity P-wave (km/s) = 6.53311 7.43263 6.99734
#
# Compressibility (1/GPa) = 0.02323655
#
# Stress axis : x y z
#
# Youngs Moduli (GPa) = 30.44053 56.07497 57.09490
#
# Poissons Ratio (x) = 0.45510 0.27335
# Poissons Ratio (y) = 0.24705 0.54683
# Poissons Ratio (z) = 0.14574 0.53706
#
# Static dielectric constant tensor:
#      x y z
#    x 2.898910 0.000000 0.000000 
#    y 0.000000 3.057510 0.000000 
#    z 0.000000 0.000000 3.057780 
# 
# 
# High freq. dielectric constant tensor:
#      x y z
#    x 1.602380 0.000000 0.000000 
#    y 0.000000 1.608990 0.000000 
#    z 0.000000 0.000000 1.600280 
# 
# From -- ./inp_files/37483.got.cif
#   From: 2010.03.12/outbox.cif.g09.slc.cpg/sg51_19_cif.got.tgz:37483.got - 2010.04.16 13:43:02.
