data_PCOD8214817
_publ_section_title
;
Structure prediction by ZEFSAII (Michael W. Deem and Ramdas Pophale) SiO2 
 PCOD8214817
Probable space group: P M M A
;
_chemical_formula_sum "Si O2"
_cell_formula_units_Z 64
_cell_length_a 13.746576
_cell_length_b 9.661138
_cell_length_c 30.355830
_cell_angle_alpha 90.000000
_cell_angle_beta 90.000000
_cell_angle_gamma 90.000000
_cell_volume 4031.483950
_symmetry_space_group_name_H-M "P M M A"
_symmetry_group_IT_number 51
_symmetry_cell_setting 'orthorhombic'
loop_
_space_group_symop_operation_xyz
x,y,z
1/2-x,-y,z
1/2+x,-y,-z
-x,y,-z
-x,-y,-z
1/2+x,y,-z
1/2-x,y,z
x,-y,z
loop_
_atom_site_type_symbol
_atom_site_label
_atom_site_fract_x
_atom_site_fract_y
_atom_site_fract_z
Si Si1 0.041726 0.836269 0.569639
Si Si2 0.862343 0.659683 0.357108
Si Si3 0.862914 0.838310 0.873346
Si Si4 0.140939 0.653435 0.897557
Si Si5 0.356560 0.836101 0.481356
Si Si6 0.001178 0.657577 0.182996
Si Si7 0.009271 0.161110 0.949887
Si Si8 0.858138 0.663756 0.256648
O O1 0.069700 0.756153 0.613555
O O2 0.110012 0.785230 0.529568
O O3 0.931474 0.792405 0.556901
O O4 0.051258 0.000000 0.578028
O O5 0.750000 0.685503 0.369143
O O6 0.890012 0.500000 0.365068
O O7 0.882672 0.702946 0.306808
O O8 0.750000 0.797849 0.878264
O O9 0.915431 0.800042 0.919758
O O10 0.908588 0.752958 0.832399
O O11 0.876029 0.000000 0.862634
O O12 0.250000 0.692299 0.884773
O O13 0.133164 0.500000 0.918223
O O14 0.081126 0.662373 0.853326
O O15 0.104553 0.762102 0.933146
O O16 0.250000 0.773897 0.470645
O O17 0.353914 0.000000 0.483434
O O18 0.038986 0.500000 0.190413
O O19 0.946939 0.719964 0.226318
O O20 0.030975 0.000000 0.947215
O O21 0.000000 0.210636 0.000000
O O22 0.750000 0.723087 0.244215
O O23 0.853351 0.500000 0.250601
#
# Coordination Sequence:
#
# PCOD8214817 Si02
#       8
#     8   8   8   8   8   8   8   8
#     4   9  16  26  43  64  83 109 145 181 214 249
#     4   9  17  28  42  62  89 117 140 166 208 259
#     4   9  18  32  47  63  87 117 144 175 218 257
#     4   9  17  28  43  65  90 112 134 166 211 254
#     4   8  14  25  41  61  84 110 142 179 217 255
#     4   9  16  28  48  69  86 107 141 180 208 241
#     4   9  18  31  46  64  85 112 147 179 205 243
#     4   8  14  26  45  67  89 114 140 165 204 260
#
# _framework density 15.875048
#
# number of rings (size 3 to 8) (size 9 to 14) (size 15 to 20)
#    0.000    3.250    0.000    2.250    0.000    3.500 
#    0.000    3.125    0.000    3.750    0.000    3.500 
#    0.000    0.000    0.000    0.000    0.000    0.000 
#
# Total GULP energy -793158.611987 kJ/mol
# GULP energy per Si atom -12393.103312 kJ/mol
# Density = 1.583892 g / cm^3
# Si number density = 15.875048 Si / 1000 Ang^3
#
#
#
# Elastic Constant Matrix: (Units=GPa)
#
#
# Indices 1 2 3 4 5 6 
#
# 1 111.2761 35.4668 48.3744 0.0000 0.0000 0.0000
# 2 35.4668 36.8692 34.6277 0.0000 0.0000 0.0000
# 3 48.3744 34.6277 93.8538 0.0000 0.0000 0.0000
# 4 0.0000 0.0000 0.0000 24.5034 0.0000 0.0000
# 5 0.0000 0.0000 0.0000 0.0000 21.6348 0.0000
# 6 0.0000 0.0000 0.0000 0.0000 0.0000 23.1383
#
#
#
# Elastic Compliance Matrix: (Units=1/GPa)
#
#
# Indices 1 2 3 4 5 6 
#
# 1 0.013613 -0.009955 -0.003344 0.000000 0.000000 0.000000
# 2 -0.009955 0.048786 -0.012869 0.000000 0.000000 0.000000
# 3 -0.003344 -0.012869 0.017126 0.000000 0.000000 0.000000
# 4 0.000000 0.000000 0.000000 0.040811 0.000000 0.000000
# 5 0.000000 0.000000 0.000000 0.000000 0.046222 0.000000
# 6 0.000000 0.000000 0.000000 0.000000 0.000000 0.043218
#
#
# Mechanical properties :
#
#
# Convention : Reuss Voigt Hill
#
# Bulk Modulus (GPa) = 36.77759 53.21522 44.99640
# Shear Modulus (GPa) = 18.43838 22.09065 20.26451
#
# Velocity S-wave (km/s) = 3.41173 3.73437 3.57669
# Velocity P-wave (km/s) = 6.22391 7.22413 6.74260
#
# Compressibility (1/GPa) = 0.02719047
#
# Stress axis : x y z
#
# Youngs Moduli (GPa) = 73.45849 20.49786 58.39033
#
# Poissons Ratio (x) = 0.20406 0.19523
# Poissons Ratio (y) = 0.73128 0.75140
# Poissons Ratio (z) = 0.24561 0.26378
#
# Static dielectric constant tensor:
#      x y z
#    x 3.244370 0.000000 0.000000 
#    y 0.000000 2.850460 0.000000 
#    z 0.000000 0.000000 3.041830 
# 
# 
# High freq. dielectric constant tensor:
#      x y z
#    x 1.605490 0.000000 0.000000 
#    y 0.000000 1.584820 0.000000 
#    z 0.000000 0.000000 1.601350 
# 
# From -- ./inp_files/37799.got.cif
#   From: 2010.03.12/outbox.cif.g09.slc.cpg/sg51_19_cif.got.tgz:37799.got - 2010.04.16 13:43:02.
