data_PCOD8214495
_publ_section_title
;
Structure prediction by ZEFSAII (Michael W. Deem and Ramdas Pophale) SiO2 
 PCOD8214495
Probable space group: P M M A
;
_chemical_formula_sum "Si O2"
_cell_formula_units_Z 32
_cell_length_a 17.128607
_cell_length_b 10.473070
_cell_length_c 9.434147
_cell_angle_alpha 90.000000
_cell_angle_beta 90.000000
_cell_angle_gamma 90.000000
_cell_volume 1692.383141
_symmetry_space_group_name_H-M "P M M A"
_symmetry_group_IT_number 51
_symmetry_cell_setting 'orthorhombic'
loop_
_space_group_symop_operation_xyz
x,y,z
1/2-x,-y,z
1/2+x,-y,-z
-x,y,-z
-x,-y,-z
1/2+x,y,-z
1/2-x,y,z
x,-y,z
loop_
_atom_site_type_symbol
_atom_site_label
_atom_site_fract_x
_atom_site_fract_y
_atom_site_fract_z
Si Si1 0.343784 0.271561 0.309707
Si Si2 0.407805 0.732454 0.999774
Si Si3 0.342752 0.500000 0.823762
Si Si4 0.663612 0.000000 0.009227
Si Si5 0.335204 0.000000 0.326182
Si Si6 0.657384 0.500000 0.497534
O O1 0.250000 0.266890 0.297742
O O2 0.374417 0.375820 0.420295
O O3 0.377004 0.133762 0.366906
O O4 0.376470 0.302560 0.155067
O O5 0.374723 0.627605 0.893832
O O6 0.381815 0.872093 0.943374
O O7 0.500000 0.726271 0.000000
O O8 0.250000 0.500000 0.832499
O O9 0.373476 0.500000 0.662046
O O10 0.750000 0.000000 0.079299
O O11 0.672747 0.000000 0.842184
O O12 0.250000 0.000000 0.398174
O O13 0.750000 0.500000 0.501976
#
# Coordination Sequence:
#
# PCOD8214495 Si02
#       6
#     8   8   4   4   4   4
#     4   9  16  31  52  73  97 134 177 216 258 313
#     4  11  21  34  54  83 111 139 175 220 268 318
#     4  11  22  37  53  76 109 143 178 221 266 316
#     4   9  17  33  56  81 106 138 174 216 266 317
#     4   7  12  23  46  73  93 116 161 212 250 293
#     4   9  19  33  52  74  98 133 182 225 258 302
#
# _framework density 18.908248
#
# number of rings (size 3 to 8) (size 9 to 14) (size 15 to 20)
#    0.000    2.500    0.000    5.250    0.000    1.000 
#    0.000    3.750    0.000    4.500    0.000    7.000 
#    0.000    0.000    0.000    0.000    0.000    0.000 
#
# Total GULP energy -396562.267756 kJ/mol
# GULP energy per Si atom -12392.570867 kJ/mol
# Density = 1.886521 g / cm^3
# Si number density = 18.908248 Si / 1000 Ang^3
#
#
#
# Elastic Constant Matrix: (Units=GPa)
#
#
# Indices 1 2 3 4 5 6 
#
# 1 83.4470 43.1959 34.0637 0.0000 0.0000 0.0000
# 2 43.1959 214.8877 96.4007 0.0000 0.0000 0.0000
# 3 34.0637 96.4007 113.9832 0.0000 0.0000 0.0000
# 4 0.0000 0.0000 0.0000 0.7527 0.0000 0.0000
# 5 0.0000 0.0000 0.0000 0.0000 11.3236 0.0000
# 6 0.0000 0.0000 0.0000 0.0000 0.0000 21.5108
#
#
#
# Elastic Compliance Matrix: (Units=1/GPa)
#
#
# Indices 1 2 3 4 5 6 
#
# 1 0.013944 -0.001504 -0.002895 0.000000 0.000000 0.000000
# 2 -0.001504 0.007661 -0.006030 0.000000 0.000000 0.000000
# 3 -0.002895 -0.006030 0.014738 0.000000 0.000000 0.000000
# 4 0.000000 0.000000 0.000000 1.328541 0.000000 0.000000
# 5 0.000000 0.000000 0.000000 0.000000 0.088311 0.000000
# 6 0.000000 0.000000 0.000000 0.000000 0.000000 0.046488
#
#
# Mechanical properties :
#
#
# Convention : Reuss Voigt Hill
#
# Bulk Modulus (GPa) = 64.57775 84.40429 74.49102
# Shear Modulus (GPa) = 3.27718 22.62793 12.95255
#
# Velocity S-wave (km/s) = 1.31794 3.46312 2.62013
# Velocity P-wave (km/s) = 6.04511 7.79274 6.97388
#
# Compressibility (1/GPa) = 0.01548521
#
# Stress axis : x y z
#
# Youngs Moduli (GPa) = 71.71507 130.53230 67.85229
#
# Poissons Ratio (x) = 0.19636 0.19643
# Poissons Ratio (y) = 0.10788 0.40913
# Poissons Ratio (z) = 0.20761 0.78706
#
# Static dielectric constant tensor:
#      x y z
#    x 3.193180 0.000000 0.000000 
#    y 0.000000 4.217130 0.000000 
#    z 0.000000 0.000000 3.250720 
# 
# 
# High freq. dielectric constant tensor:
#      x y z
#    x 1.706830 0.000000 0.000000 
#    y 0.000000 1.765450 0.000000 
#    z 0.000000 0.000000 1.702260 
# 
# From -- ./inp_files/7668.got.cif
#   From: 2010.03.12/outbox.cif.g09.slc.cpg/sg51_4_cif.got.tgz:7668.got - 2010.04.16 13:43:02.
