data_PCOD8214960
_publ_section_title
;
Structure prediction by ZEFSAII (Michael W. Deem and Ramdas Pophale) SiO2 
 PCOD8214960
Probable space group: P N N A
;
_chemical_formula_sum "Si O2"
_cell_formula_units_Z 56
_cell_length_a 10.083038
_cell_length_b 17.613345
_cell_length_c 17.945449
_cell_angle_alpha 90.000000
_cell_angle_beta 90.000000
_cell_angle_gamma 90.000000
_cell_volume 3187.040444
_symmetry_space_group_name_H-M "P N N A"
_symmetry_group_IT_number 52
_symmetry_cell_setting 'orthorhombic'
loop_
_space_group_symop_operation_xyz
x,y,z
1/2-x,-y,z
x,1/2-y,1/2-z
1/2-x,1/2+y,1/2-z
-x,-y,-z
1/2+x,y,-z
-x,1/2+y,1/2+z
1/2+x,1/2-y,1/2+z
loop_
_atom_site_type_symbol
_atom_site_label
_atom_site_fract_x
_atom_site_fract_y
_atom_site_fract_z
Si Si1 0.401087 0.325170 0.208468
Si Si2 0.600321 0.614381 0.161241
Si Si3 0.485927 0.749756 0.933752
Si Si4 0.250000 0.500000 0.730905
Si Si5 0.220326 0.678985 0.983715
Si Si6 0.697442 0.750000 0.250000
Si Si7 0.299714 0.915341 0.375180
Si Si8 0.103929 0.363233 0.674772
O O1 0.352919 0.250000 0.250000
O O2 0.484146 0.306726 0.134375
O O3 0.268580 0.371953 0.193257
O O4 0.497933 0.373993 0.259645
O O5 0.657742 0.549273 0.214651
O O6 0.687599 0.626859 0.087373
O O7 0.600503 0.694345 0.204769
O O8 0.456083 0.589273 0.135294
O O9 0.348415 0.730053 0.972120
O O10 0.470356 0.836635 0.901732
O O11 0.602894 0.738528 0.994429
O O12 0.172312 0.445605 0.672551
O O13 0.252388 0.619926 0.047917
O O14 0.791124 0.703477 0.306531
O O15 0.250000 0.000000 0.374185
#
# Coordination Sequence:
#
# PCOD8214960 Si02
#       8
#     8   8   8   4   8   4   8   8
#     4   9  18  34  56  74 104 148 188 221 267 321
#     4  11  22  37  54  82 113 140 187 225 274 322
#     4  10  18  34  55  77 108 142 188 229 257 325
#     4  10  22  32  58  84 106 144 176 234 288 318
#     4  11  21  35  53  80 110 149 185 216 268 328
#     4  10  18  32  58  78 100 138 186 238 258 306
#     4  11  24  35  49  79 118 149 173 218 280 335
#     4  10  16  35  56  78 103 140 186 227 271 325
#
# _framework density 17.571159999999999
#
# number of rings (size 3 to 8) (size 9 to 14) (size 15 to 20)
#    0.000    1.714    5.000    1.714    2.000    1.714 
#    0.000    0.000    0.000    0.857    0.000    0.000 
#    0.000    0.000    0.000    0.000    0.000    0.000 
#
# Total GULP energy -694168.845915 kJ/mol
# GULP energy per Si atom -12395.872248 kJ/mol
# Density = 1.753117 g / cm^3
# Si number density = 17.571160 Si / 1000 Ang^3
#
#
#
# Elastic Constant Matrix: (Units=GPa)
#
#
# Indices 1 2 3 4 5 6 
#
# 1 98.4686 37.0441 25.6400 0.0000 0.0000 0.0000
# 2 37.0441 102.4413 36.0308 0.0000 0.0000 0.0000
# 3 25.6400 36.0308 43.0183 0.0000 0.0000 0.0000
# 4 0.0000 0.0000 0.0000 19.3511 0.0000 0.0000
# 5 0.0000 0.0000 0.0000 0.0000 31.4075 0.0000
# 6 0.0000 0.0000 0.0000 0.0000 0.0000 27.2894
#
#
#
# Elastic Compliance Matrix: (Units=1/GPa)
#
#
# Indices 1 2 3 4 5 6 
#
# 1 0.012526 -0.002699 -0.005206 0.000000 0.000000 0.000000
# 2 -0.002699 0.014420 -0.010469 0.000000 0.000000 0.000000
# 3 -0.005206 -0.010469 0.035117 0.000000 0.000000 0.000000
# 4 0.000000 0.000000 0.000000 0.051677 0.000000 0.000000
# 5 0.000000 0.000000 0.000000 0.000000 0.031840 0.000000
# 6 0.000000 0.000000 0.000000 0.000000 0.000000 0.036644
#
#
# Mechanical properties :
#
#
# Convention : Reuss Voigt Hill
#
# Bulk Modulus (GPa) = 39.50005 49.03977 44.26991
# Shear Modulus (GPa) = 21.98682 25.29050 23.63866
#
# Velocity S-wave (km/s) = 3.54121 3.79795 3.67183
# Velocity P-wave (km/s) = 6.26491 6.87040 6.57463
#
# Compressibility (1/GPa) = 0.02531643
#
# Stress axis : x y z
#
# Youngs Moduli (GPa) = 79.83223 69.34929 28.47619
#
# Poissons Ratio (x) = 0.18716 0.14823
# Poissons Ratio (y) = 0.21545 0.29812
# Poissons Ratio (z) = 0.41557 0.72602
#
# Static dielectric constant tensor:
#      x y z
#    x 3.363040 0.000000 0.000000 
#    y 0.000000 3.273940 0.000000 
#    z 0.000000 0.000000 3.051130 
# 
# 
# High freq. dielectric constant tensor:
#      x y z
#    x 1.685590 0.000000 0.000000 
#    y 0.000000 1.666060 0.000000 
#    z 0.000000 0.000000 1.669830 
# 
# From -- ./inp_files/36162.got.cif
#   From: 2010.06.25/outbox.cif.g09.slc.cpg/sg52_19_cif.got.tgz:36162.got - 2010.06.26 19:32:48.
