data_PCOD8214267
_publ_section_title
;
Structure prediction by ZEFSAII (Michael W. Deem and Ramdas Pophale) SiO2 
 PCOD8214267
Probable space group: P M M A
;
_chemical_formula_sum "Si O2"
_cell_formula_units_Z 56
_cell_length_a 9.868715
_cell_length_b 14.110116
_cell_length_c 22.819617
_cell_angle_alpha 90.000000
_cell_angle_beta 90.000000
_cell_angle_gamma 90.000000
_cell_volume 3177.602308
_symmetry_space_group_name_H-M "P M M A"
_symmetry_group_IT_number 51
_symmetry_cell_setting 'orthorhombic'
loop_
_space_group_symop_operation_xyz
x,y,z
1/2-x,-y,z
1/2+x,-y,-z
-x,y,-z
-x,-y,-z
1/2+x,y,-z
1/2-x,y,z
x,-y,z
loop_
_atom_site_type_symbol
_atom_site_label
_atom_site_fract_x
_atom_site_fract_y
_atom_site_fract_z
Si Si1 0.750000 0.389405 0.072299
Si Si2 0.589854 0.104326 0.665018
Si Si3 0.999163 0.714265 0.123833
Si Si4 0.590223 0.230045 0.556428
Si Si5 0.589219 0.730051 0.746305
Si Si6 0.408318 0.892023 0.943147
Si Si7 0.589550 0.604495 0.639554
Si Si8 0.250000 0.614136 0.063689
O O1 0.750000 0.500000 0.077361
O O2 0.622829 0.351222 0.106231
O O3 0.750000 0.359212 0.004549
O O4 0.750000 0.098213 0.668500
O O5 0.550780 0.148240 0.602368
O O6 0.540365 0.169966 0.718660
O O7 0.523756 0.000000 0.670971
O O8 0.971589 0.822886 0.105409
O O9 0.013387 0.712907 0.193362
O O10 0.124000 0.665467 0.092343
O O11 0.500000 0.211531 0.500000
O O12 0.750000 0.228057 0.540797
O O13 0.546338 0.330542 0.584765
O O14 0.750000 0.728870 0.756745
O O15 0.542205 0.648044 0.701468
O O16 0.250000 0.867304 0.956303
O O17 0.420950 0.000000 0.920284
O O18 0.500000 0.877110 0.000000
O O19 0.750000 0.599712 0.640925
O O20 0.525240 0.500000 0.631846
O O21 0.250000 0.500000 0.074359
#
# Coordination Sequence:
#
# PCOD8214267 Si02
#       8
#     4   8   8   8   8   8   8   4
#     4  11  24  40  55  77 111 149 181 214 276 344
#     4   8  15  30  52  75 104 137 170 215 261 301
#     4  12  22  37  59  84 109 144 180 228 279 330
#     4   9  17  29  48  76 105 135 170 208 251 305
#     4   9  18  32  50  79 103 127 177 227 266 308
#     4  10  22  39  59  82 107 139 178 221 273 334
#     4   8  15  29  49  71  98 133 173 219 263 299
#     4  11  24  40  59  83 111 141 185 232 272 326
#
# _framework density 17.623351
#
# number of rings (size 3 to 8) (size 9 to 14) (size 15 to 20)
#    0.000    2.429    1.429    3.429    1.000    3.429 
#    0.000    0.000    6.286    0.000    0.000    0.000 
#    0.000    0.000    0.000    0.000    0.000    0.000 
#
# Total GULP energy -694107.163736 kJ/mol
# GULP energy per Si atom -12394.770781 kJ/mol
# Density = 1.758324 g / cm^3
# Si number density = 17.623351 Si / 1000 Ang^3
#
#
#
# Elastic Constant Matrix: (Units=GPa)
#
#
# Indices 1 2 3 4 5 6 
#
# 1 81.2146 29.3835 48.4271 0.0000 0.0000 0.0000
# 2 29.3835 108.9402 51.0866 0.0000 0.0000 0.0000
# 3 48.4271 51.0866 135.4926 0.0000 0.0000 0.0000
# 4 0.0000 0.0000 0.0000 13.9598 0.0000 0.0000
# 5 0.0000 0.0000 0.0000 0.0000 19.7614 0.0000
# 6 0.0000 0.0000 0.0000 0.0000 0.0000 24.8197
#
#
#
# Elastic Compliance Matrix: (Units=1/GPa)
#
#
# Indices 1 2 3 4 5 6 
#
# 1 0.015993 -0.001984 -0.004968 0.000000 0.000000 0.000000
# 2 -0.001984 0.011397 -0.003588 0.000000 0.000000 0.000000
# 3 -0.004968 -0.003588 0.010509 0.000000 0.000000 0.000000
# 4 0.000000 0.000000 0.000000 0.071634 0.000000 0.000000
# 5 0.000000 0.000000 0.000000 0.000000 0.050604 0.000000
# 6 0.000000 0.000000 0.000000 0.000000 0.000000 0.040291
#
#
# Mechanical properties :
#
#
# Convention : Reuss Voigt Hill
#
# Bulk Modulus (GPa) = 59.45679 64.82686 62.14183
# Shear Modulus (GPa) = 22.01531 24.82486 23.42008
#
# Velocity S-wave (km/s) = 3.53825 3.75725 3.64939
# Velocity P-wave (km/s) = 7.10655 7.46238 7.28664
#
# Compressibility (1/GPa) = 0.01681894
#
# Stress axis : x y z
#
# Youngs Moduli (GPa) = 62.52605 87.74183 95.15594
#
# Poissons Ratio (x) = 0.17407 0.47276
# Poissons Ratio (y) = 0.12405 0.34143
# Poissons Ratio (z) = 0.31064 0.31483
#
# Static dielectric constant tensor:
#      x y z
#    x 2.976380 0.000000 0.000000 
#    y 0.000000 4.038740 0.000000 
#    z 0.000000 0.000000 3.215380 
# 
# 
# High freq. dielectric constant tensor:
#      x y z
#    x 1.650480 0.000000 0.000000 
#    y 0.000000 1.699690 0.000000 
#    z 0.000000 0.000000 1.678310 
# 
# From -- ./inp_files/32130.got.cif
#   From: 2010.03.12/outbox.cif.g09.slc.cpg/sg51_17_cif.got.tgz:32130.got - 2010.04.16 13:43:02.
