data_PCOD8214082
_publ_section_title
;
Structure prediction by ZEFSAII (Michael W. Deem and Ramdas Pophale) SiO2 
 PCOD8214082
Probable space group: P M M A
;
_chemical_formula_sum "Si O2"
_cell_formula_units_Z 64
_cell_length_a 30.837894
_cell_length_b 9.013041
_cell_length_c 11.887730
_cell_angle_alpha 90.000000
_cell_angle_beta 90.000000
_cell_angle_gamma 90.000000
_cell_volume 3304.113752
_symmetry_space_group_name_H-M "P M M A"
_symmetry_group_IT_number 51
_symmetry_cell_setting 'orthorhombic'
loop_
_space_group_symop_operation_xyz
x,y,z
1/2-x,-y,z
1/2+x,-y,-z
-x,y,-z
-x,-y,-z
1/2+x,y,-z
1/2-x,y,z
x,-y,z
loop_
_atom_site_type_symbol
_atom_site_label
_atom_site_fract_x
_atom_site_fract_y
_atom_site_fract_z
Si Si1 0.876327 0.174561 0.623181
Si Si2 0.045596 0.674356 0.775843
Si Si3 0.540042 0.169396 0.762628
Si Si4 0.201338 0.170319 0.221517
Si Si5 0.577192 0.170688 0.003278
Si Si6 0.375311 0.674626 0.615502
Si Si7 0.201802 0.323632 0.769718
Si Si8 0.667962 0.323888 0.990505
O O1 0.917064 0.224741 0.698372
O O2 0.832333 0.228064 0.684732
O O3 0.879819 0.251151 0.504054
O O4 0.875699 0.000000 0.604493
O O5 0.045069 0.500000 0.799038
O O6 0.052675 0.758057 0.892386
O O7 0.083260 0.718595 0.689593
O O8 0.999910 0.727586 0.723947
O O9 0.529503 0.000000 0.729784
O O10 0.546084 0.184390 0.896078
O O11 0.250000 0.185951 0.270312
O O12 0.190404 0.000000 0.190121
O O13 0.198425 0.268561 0.109727
O O14 0.620699 0.257239 0.974612
O O15 0.588166 0.000000 0.029606
O O16 0.372364 0.500000 0.598388
O O17 0.332189 0.736342 0.677541
O O18 0.250000 0.264368 0.740232
O O19 0.200934 0.500000 0.770749
O O20 0.188187 0.266008 0.892701
O O21 0.664662 0.500000 0.988155
#
# Coordination Sequence:
#
# PCOD8214082 Si02
#       8
#     8   8   8   8   8   8   8   8
#     4  10  22  41  60  82 113 153 199 243 286 337
#     4  11  23  39  59  88 121 150 189 240 294 346
#     4  10  22  40  60  84 116 153 192 235 288 348
#     4  10  21  39  61  86 120 157 191 235 292 347
#     4  11  21  37  61  87 119 156 192 232 289 353
#     4  10  22  40  58  82 115 151 193 242 291 338
#     4   9  18  35  58  83 116 153 185 228 287 343
#     4  11  20  34  59  90 122 153 192 238 289 347
#
# _framework density 19.369792
#
# number of rings (size 3 to 8) (size 9 to 14) (size 15 to 20)
#    0.000    1.750    2.500    1.875    0.000    6.250 
#    0.000    2.500    0.000    1.500    0.000    0.000 
#    0.000    0.000    0.000    0.000    0.000    0.000 
#
# Total GULP energy -793803.149677 kJ/mol
# GULP energy per Si atom -12403.174214 kJ/mol
# Density = 1.932571 g / cm^3
# Si number density = 19.369792 Si / 1000 Ang^3
#
#
#
# Elastic Constant Matrix: (Units=GPa)
#
#
# Indices 1 2 3 4 5 6 
#
# 1 149.2165 42.5161 61.6215 0.0000 0.0000 0.0000
# 2 42.5161 59.0658 44.9344 0.0000 0.0000 0.0000
# 3 61.6215 44.9344 135.0833 0.0000 0.0000 0.0000
# 4 0.0000 0.0000 0.0000 36.6780 0.0000 0.0000
# 5 0.0000 0.0000 0.0000 0.0000 11.5244 0.0000
# 6 0.0000 0.0000 0.0000 0.0000 0.0000 23.0429
#
#
#
# Elastic Compliance Matrix: (Units=1/GPa)
#
#
# Indices 1 2 3 4 5 6 
#
# 1 0.009081 -0.004532 -0.002635 0.000000 0.000000 0.000000
# 2 -0.004532 0.024928 -0.006225 0.000000 0.000000 0.000000
# 3 -0.002635 -0.006225 0.010675 0.000000 0.000000 0.000000
# 4 0.000000 0.000000 0.000000 0.027264 0.000000 0.000000
# 5 0.000000 0.000000 0.000000 0.000000 0.086773 0.000000
# 6 0.000000 0.000000 0.000000 0.000000 0.000000 0.043397
#
#
# Mechanical properties :
#
#
# Convention : Reuss Voigt Hill
#
# Bulk Modulus (GPa) = 55.86281 71.27882 63.57082
# Shear Modulus (GPa) = 21.28841 27.20196 24.24518
#
# Velocity S-wave (km/s) = 3.31879 3.75153 3.54178
# Velocity P-wave (km/s) = 6.60217 7.45950 7.04389
#
# Compressibility (1/GPa) = 0.01790100
#
# Stress axis : x y z
#
# Youngs Moduli (GPa) = 110.11786 40.11557 93.67276
#
# Poissons Ratio (x) = 0.18181 0.24683
# Poissons Ratio (y) = 0.49907 0.58308
# Poissons Ratio (z) = 0.29016 0.24971
#
# Static dielectric constant tensor:
#      x y z
#    x 3.855950 0.000000 0.000000 
#    y 0.000000 3.388510 0.000000 
#    z 0.000000 0.000000 3.524220 
# 
# 
# High freq. dielectric constant tensor:
#      x y z
#    x 1.771760 0.000000 0.000000 
#    y 0.000000 1.739420 0.000000 
#    z 0.000000 0.000000 1.749020 
# 
# From -- ./inp_files/19526.got.cif
#   From: 2010.03.12/outbox.cif.g09.slc.cpg/sg51_10_cif.got.tgz:19526.got - 2010.04.16 13:43:02.
