data_PCOD8214614
_publ_section_title
;
Structure prediction by ZEFSAII (Michael W. Deem and Ramdas Pophale) SiO2 
 PCOD8214614
Probable space group: P M M A
;
_chemical_formula_sum "Si O2"
_cell_formula_units_Z 48
_cell_length_a 15.501081
_cell_length_b 15.425191
_cell_length_c 10.004520
_cell_angle_alpha 90.000000
_cell_angle_beta 90.000000
_cell_angle_gamma 90.000000
_cell_volume 2392.152116
_symmetry_space_group_name_H-M "P M M A"
_symmetry_group_IT_number 51
_symmetry_cell_setting 'orthorhombic'
loop_
_space_group_symop_operation_xyz
x,y,z
1/2-x,-y,z
1/2+x,-y,-z
-x,y,-z
-x,-y,-z
1/2+x,y,-z
1/2-x,y,z
x,-y,z
loop_
_atom_site_type_symbol
_atom_site_label
_atom_site_fract_x
_atom_site_fract_y
_atom_site_fract_z
Si Si1 0.846020 0.791833 0.268444
Si Si2 0.851996 0.500000 0.082575
Si Si3 0.852377 0.500000 0.388038
Si Si4 0.099194 0.679414 0.495184
Si Si5 0.153679 0.224747 0.249581
Si Si6 0.495516 0.899590 0.342032
Si Si7 0.900618 0.312253 0.014497
O O1 0.750000 0.831584 0.248860
O O2 0.846367 0.740105 0.406861
O O3 0.916496 0.868182 0.270287
O O4 0.865390 0.721331 0.155151
O O5 0.750000 0.500000 0.079185
O O6 0.885389 0.500000 0.235481
O O7 0.886736 0.415529 0.005585
O O8 0.750000 0.500000 0.395553
O O9 0.891559 0.580363 0.466163
O O10 0.134651 0.693945 0.346358
O O11 0.000000 0.708692 0.500000
O O12 0.250000 0.187931 0.272756
O O13 0.086512 0.147920 0.277842
O O14 0.149542 0.261525 0.100512
O O15 0.500000 0.881969 0.500000
O O16 0.484420 0.000000 0.309301
O O17 0.000000 0.289335 0.000000
#
# Coordination Sequence:
#
# PCOD8214614 Si02
#       7
#     8   4   4   8   8   8   8
#     4  12  22  42  70  96 128 173 218 259 317 388
#     4  11  23  39  61  95 128 169 229 268 305 376
#     4  11  23  37  61  95 126 171 227 270 311 368
#     4  12  22  41  63  92 130 173 216 267 316 375
#     4  12  24  42  66  97 133 170 212 266 330 384
#     4  11  24  44  70 101 133 165 211 271 327 389
#     4  12  24  43  66  94 132 178 217 265 323 380
#
# _framework density 20.065615000000001
#
# number of rings (size 3 to 8) (size 9 to 14) (size 15 to 20)
#    0.000    0.333    6.667    3.500    0.000    1.333 
#    0.000    5.000    0.000    2.000    0.000    0.000 
#    0.000    0.000    0.000    0.000    0.000    0.000 
#
# Total GULP energy -595457.203950 kJ/mol
# GULP energy per Si atom -12405.358416 kJ/mol
# Density = 2.001994 g / cm^3
# Si number density = 20.065615 Si / 1000 Ang^3
#
#
#
# Elastic Constant Matrix: (Units=GPa)
#
#
# Indices 1 2 3 4 5 6 
#
# 1 164.6559 47.2212 25.2765 0.0000 0.0000 0.0000
# 2 47.2212 135.4221 33.5023 0.0000 0.0000 0.0000
# 3 25.2765 33.5023 64.6814 0.0000 0.0000 0.0000
# 4 0.0000 0.0000 0.0000 26.0476 0.0000 0.0000
# 5 0.0000 0.0000 0.0000 0.0000 25.8594 0.0000
# 6 0.0000 0.0000 0.0000 0.0000 0.0000 7.1187
#
#
#
# Elastic Compliance Matrix: (Units=1/GPa)
#
#
# Indices 1 2 3 4 5 6 
#
# 1 0.006901 -0.001995 -0.001664 0.000000 0.000000 0.000000
# 2 -0.001995 0.009046 -0.003906 0.000000 0.000000 0.000000
# 3 -0.001664 -0.003906 0.018134 0.000000 0.000000 0.000000
# 4 0.000000 0.000000 0.000000 0.038391 0.000000 0.000000
# 5 0.000000 0.000000 0.000000 0.000000 0.038671 0.000000
# 6 0.000000 0.000000 0.000000 0.000000 0.000000 0.140475
#
#
# Mechanical properties :
#
#
# Convention : Reuss Voigt Hill
#
# Bulk Modulus (GPa) = 52.76494 64.08439 58.42467
# Shear Modulus (GPa) = 18.31078 29.05577 23.68328
#
# Velocity S-wave (km/s) = 3.02411 3.80944 3.43926
# Velocity P-wave (km/s) = 6.20862 7.16630 6.70458
#
# Compressibility (1/GPa) = 0.01895198
#
# Stress axis : x y z
#
# Youngs Moduli (GPa) = 144.91298 110.54377 55.14614
#
# Poissons Ratio (x) = 0.22050 0.09174
# Poissons Ratio (y) = 0.28906 0.21540
# Poissons Ratio (z) = 0.24106 0.43179
#
# Static dielectric constant tensor:
#      x y z
#    x 3.917970 0.000000 0.000000 
#    y 0.000000 3.424290 0.000000 
#    z 0.000000 0.000000 3.705760 
# 
# 
# High freq. dielectric constant tensor:
#      x y z
#    x 1.800320 0.000000 0.000000 
#    y 0.000000 1.771560 0.000000 
#    z 0.000000 0.000000 1.785070 
# 
# From -- ./inp_files/8315.got.cif
#   From: 2010.03.12/outbox.cif.g09.slc.cpg/sg51_5_cif.got.tgz:8315.got - 2010.04.16 13:43:02.
