data_PCOD8214616
_publ_section_title
;
Structure prediction by ZEFSAII (Michael W. Deem and Ramdas Pophale) SiO2 
 PCOD8214616
Probable space group: P M M A
;
_chemical_formula_sum "Si O2"
_cell_formula_units_Z 48
_cell_length_a 8.746241
_cell_length_b 31.440355
_cell_length_c 8.981960
_cell_angle_alpha 90.000000
_cell_angle_beta 90.000000
_cell_angle_gamma 90.000000
_cell_volume 2469.903570
_symmetry_space_group_name_H-M "P M M A"
_symmetry_group_IT_number 51
_symmetry_cell_setting 'orthorhombic'
loop_
_space_group_symop_operation_xyz
x,y,z
1/2-x,-y,z
1/2+x,-y,-z
-x,y,-z
-x,-y,-z
1/2+x,y,-z
1/2-x,y,z
x,-y,z
loop_
_atom_site_type_symbol
_atom_site_label
_atom_site_fract_x
_atom_site_fract_y
_atom_site_fract_z
Si Si1 0.570101 0.089859 0.338687
Si Si2 0.573199 0.423345 0.839471
Si Si3 0.430660 0.000000 0.663101
Si Si4 0.930607 0.818244 0.337353
Si Si5 0.426686 0.661841 0.343096
Si Si6 0.069333 0.500000 0.662217
Si Si7 0.930754 0.262999 0.160831
O O1 0.500000 0.088515 0.500000
O O2 0.750000 0.090350 0.356290
O O3 0.520014 0.045063 0.255503
O O4 0.519846 0.135293 0.267279
O O5 0.750000 0.436637 0.851204
O O6 0.552292 0.377909 0.764444
O O7 0.483691 0.458140 0.746325
O O8 0.500000 0.420417 0.000000
O O9 0.500000 0.000000 0.500000
O O10 0.250000 0.000000 0.645655
O O11 0.750000 0.814885 0.356711
O O12 0.988874 0.782553 0.222694
O O13 0.000000 0.810594 0.500000
O O14 0.500000 0.649631 0.500000
O O15 0.250000 0.673840 0.364524
O O16 0.514649 0.701670 0.275605
O O17 0.250000 0.500000 0.649754
O O18 0.000000 0.500000 0.500000
O O19 0.750000 0.264971 0.146963
O O20 0.000000 0.271607 0.000000
#
# Coordination Sequence:
#
# PCOD8214616 Si02
#       7
#     8   8   4   8   8   4   8
#     4   8  13  22  36  58  88 120 156 197 246 302
#     4  11  24  42  64  91 123 158 195 235 281 330
#     4   8  12  18  32  54  83 118 152 192 242 298
#     4   9  18  31  48  71  99 131 167 210 259 314
#     4  11  24  41  63  89 117 149 185 227 274 326
#     4  12  25  42  65  92 124 160 200 244 287 332
#     4  11  23  38  56  78 106 140 179 224 273 325
#
# _framework density 19.433955999999998
#
# number of rings (size 3 to 8) (size 9 to 14) (size 15 to 20)
#    0.000    2.000    0.000    4.000    0.000    8.000 
#    0.000    0.000    0.000    0.000    0.000    0.583 
#    0.000    0.000    0.000    0.000    0.000    0.000 
#
# Total GULP energy -594697.502649 kJ/mol
# GULP energy per Si atom -12389.531305 kJ/mol
# Density = 1.938972 g / cm^3
# Si number density = 19.433956 Si / 1000 Ang^3
#
#
#
# Elastic Constant Matrix: (Units=GPa)
#
#
# Indices 1 2 3 4 5 6 
#
# 1 84.4399 52.1373 41.5078 0.0000 0.0000 0.0000
# 2 52.1373 138.9482 39.1873 0.0000 0.0000 0.0000
# 3 41.5078 39.1873 100.7684 0.0000 0.0000 0.0000
# 4 0.0000 0.0000 0.0000 26.8685 0.0000 0.0000
# 5 0.0000 0.0000 0.0000 0.0000 26.9257 0.0000
# 6 0.0000 0.0000 0.0000 0.0000 0.0000 17.3089
#
#
#
# Elastic Compliance Matrix: (Units=1/GPa)
#
#
# Indices 1 2 3 4 5 6 
#
# 1 0.017584 -0.005117 -0.005253 0.000000 0.000000 0.000000
# 2 -0.005117 0.009572 -0.001615 0.000000 0.000000 0.000000
# 3 -0.005253 -0.001615 0.012716 0.000000 0.000000 0.000000
# 4 0.000000 0.000000 0.000000 0.037218 0.000000 0.000000
# 5 0.000000 0.000000 0.000000 0.000000 0.037139 0.000000
# 6 0.000000 0.000000 0.000000 0.000000 0.000000 0.057774
#
#
# Mechanical properties :
#
#
# Convention : Reuss Voigt Hill
#
# Bulk Modulus (GPa) = 62.88335 65.53571 64.20953
# Shear Modulus (GPa) = 24.84170 26.97555 25.90862
#
# Velocity S-wave (km/s) = 3.57916 3.72971 3.65521
# Velocity P-wave (km/s) = 7.03621 7.23486 7.13622
#
# Compressibility (1/GPa) = 0.01590246
#
# Stress axis : x y z
#
# Youngs Moduli (GPa) = 56.86866 104.46865 78.64262
#
# Poissons Ratio (x) = 0.53452 0.41315
# Poissons Ratio (y) = 0.29097 0.12700
# Poissons Ratio (z) = 0.29876 0.16871
#
# Static dielectric constant tensor:
#      x y z
#    x 4.209210 0.000000 0.000000 
#    y 0.000000 4.486670 0.000000 
#    z 0.000000 0.000000 3.277530 
# 
# 
# High freq. dielectric constant tensor:
#      x y z
#    x 1.762290 0.000000 0.000000 
#    y 0.000000 1.794570 0.000000 
#    z 0.000000 0.000000 1.721390 
# 
# From -- ./inp_files/6135.got.cif
#   From: 2010.03.12/outbox.cif.g09.slc.cpg/sg51_4_cif.got.tgz:6135.got - 2010.04.16 13:43:02.
