data_PCOD8214574
_publ_section_title
;
Structure prediction by ZEFSAII (Michael W. Deem and Ramdas Pophale) SiO2 
 PCOD8214574
Probable space group: P M M A
;
_chemical_formula_sum "Si O2"
_cell_formula_units_Z 44
_cell_length_a 8.751054
_cell_length_b 17.622675
_cell_length_c 15.141192
_cell_angle_alpha 90.000000
_cell_angle_beta 90.000000
_cell_angle_gamma 90.000000
_cell_volume 2335.028912
_symmetry_space_group_name_H-M "P M M A"
_symmetry_group_IT_number 51
_symmetry_cell_setting 'orthorhombic'
loop_
_space_group_symop_operation_xyz
x,y,z
1/2-x,-y,z
1/2+x,-y,-z
-x,y,-z
-x,-y,-z
1/2+x,y,-z
1/2-x,y,z
x,-y,z
loop_
_atom_site_type_symbol
_atom_site_label
_atom_site_fract_x
_atom_site_fract_y
_atom_site_fract_z
Si Si1 0.068044 0.375038 0.274445
Si Si2 0.420317 0.381172 0.912434
Si Si3 0.566918 0.500000 0.401207
Si Si4 0.066626 0.212146 0.726315
Si Si5 0.083917 0.798087 0.916688
Si Si6 0.430205 0.084718 0.592413
O O1 0.250000 0.382192 0.278737
O O2 0.014076 0.400620 0.176518
O O3 0.992092 0.426471 0.349233
O O4 0.015965 0.290078 0.298604
O O5 0.250000 0.415746 0.902989
O O6 0.408060 0.291923 0.926392
O O7 0.500000 0.416754 0.000000
O O8 0.750000 0.500000 0.405442
O O9 0.500000 0.500000 0.500000
O O10 0.250000 0.225369 0.727061
O O11 0.007190 0.183949 0.822388
O O12 0.010721 0.146283 0.661689
O O13 0.250000 0.835266 0.918295
O O14 0.000000 0.835421 0.000000
O O15 0.500000 0.109092 0.500000
O O16 0.250000 0.087543 0.584459
O O17 0.484726 0.000000 0.619976
#
# Coordination Sequence:
#
# PCOD8214574 Si02
#       6
#     8   8   4   8   8   8
#     4  11  22  37  57  83 111 142 181 222 266 318
#     4   9  16  29  50  78 110 144 178 217 265 315
#     4  12  26  46  65  80 103 138 178 224 276 324
#     4   9  18  33  52  76 106 140 177 217 262 313
#     4   8  14  24  41  66  97 132 169 208 250 298
#     4   9  18  33  53  76 103 135 171 214 266 320
#
# _framework density 18.843449
#
# number of rings (size 3 to 8) (size 9 to 14) (size 15 to 20)
#    0.000    2.545    0.000    4.091    0.000    5.818 
#    0.000    2.273    0.000    0.545    0.000    0.000 
#    0.000    0.000    0.000    0.000    0.000    2.000 
#
# Total GULP energy -545304.930691 kJ/mol
# GULP energy per Si atom -12393.293879 kJ/mol
# Density = 1.880056 g / cm^3
# Si number density = 18.843449 Si / 1000 Ang^3
#
#
#
# Elastic Constant Matrix: (Units=GPa)
#
#
# Indices 1 2 3 4 5 6 
#
# 1 109.4637 38.5135 64.6848 0.0000 0.0000 0.0000
# 2 38.5135 88.4735 86.2504 0.0000 0.0000 0.0000
# 3 64.6848 86.2504 183.3951 0.0000 0.0000 0.0000
# 4 0.0000 0.0000 0.0000 -81.1588 0.0000 0.0000
# 5 0.0000 0.0000 0.0000 0.0000 34.4984 0.0000
# 6 0.0000 0.0000 0.0000 0.0000 0.0000 10.8165
#
#
#
# Elastic Compliance Matrix: (Units=1/GPa)
#
#
# Indices 1 2 3 4 5 6 
#
# 1 0.011726 -0.001981 -0.003204 0.000000 0.000000 0.000000
# 2 -0.001981 0.021207 -0.009275 0.000000 0.000000 0.000000
# 3 -0.003204 -0.009275 0.010945 0.000000 0.000000 0.000000
# 4 0.000000 0.000000 0.000000 -0.012322 0.000000 0.000000
# 5 0.000000 0.000000 0.000000 0.000000 0.028987 0.000000
# 6 0.000000 0.000000 0.000000 0.000000 0.000000 0.092451
#
#
# Mechanical properties :
#
#
# Convention : Reuss Voigt Hill
#
# Bulk Modulus (GPa) = 66.85456 84.46996 75.66226
# Shear Modulus (GPa) = 26.75229 5.62347 16.18788
#
# Velocity S-wave (km/s) = 3.77200 1.72939 2.93417
# Velocity P-wave (km/s) = 7.38421 6.99373 7.19162
#
# Compressibility (1/GPa) = 0.01495784
#
# Stress axis : x y z
#
# Youngs Moduli (GPa) = 85.28204 47.15439 91.36654
#
# Poissons Ratio (x) = 0.09339 0.29277
# Poissons Ratio (y) = 0.16891 0.84743
# Poissons Ratio (z) = 0.27327 0.43736
#
# Static dielectric constant tensor:
#      x y z
#    x 3.591010 0.000000 0.000000 
#    y 0.000000 3.269600 0.000000 
#    z 0.000000 0.000000 3.723320 
# 
# 
# High freq. dielectric constant tensor:
#      x y z
#    x 1.731680 0.000000 0.000000 
#    y 0.000000 1.700560 0.000000 
#    z 0.000000 0.000000 1.744060 
# 
# From -- ./inp_files/20941.got.cif
#   From: 2010.03.12/outbox.cif.g09.slc.cpg/sg51_11_cif.got.tgz:20941.got - 2010.04.16 13:43:02.
