data_PCOD8214885
_publ_section_title
;
Structure prediction by ZEFSAII (Michael W. Deem and Ramdas Pophale) SiO2 
 PCOD8214885
Probable space group: P M M A
;
_chemical_formula_sum "Si O2"
_cell_formula_units_Z 40
_cell_length_a 17.981292
_cell_length_b 9.551078
_cell_length_c 13.878899
_cell_angle_alpha 90.000000
_cell_angle_beta 90.000000
_cell_angle_gamma 90.000000
_cell_volume 2383.572141
_symmetry_space_group_name_H-M "P M M A"
_symmetry_group_IT_number 51
_symmetry_cell_setting 'orthorhombic'
loop_
_space_group_symop_operation_xyz
x,y,z
1/2-x,-y,z
1/2+x,-y,-z
-x,y,-z
-x,-y,-z
1/2+x,y,-z
1/2-x,y,z
x,-y,z
loop_
_atom_site_type_symbol
_atom_site_label
_atom_site_fract_x
_atom_site_fract_y
_atom_site_fract_z
Si Si1 0.668087 0.340569 0.204423
Si Si2 0.166419 0.833661 0.421261
Si Si3 0.387816 0.162124 0.626929
Si Si4 0.018283 0.663634 0.893001
Si Si5 0.042512 0.162492 0.277311
O O1 0.750000 0.319272 0.157637
O O2 0.656610 0.500000 0.238487
O O3 0.662932 0.244482 0.297980
O O4 0.605122 0.301326 0.126307
O O5 0.250000 0.774423 0.408847
O O6 0.130499 0.779052 0.520850
O O7 0.116453 0.783073 0.331466
O O8 0.166494 0.000000 0.423407
O O9 0.474486 0.186751 0.649124
O O10 0.366031 0.000000 0.635886
O O11 0.000489 0.500000 0.880941
O O12 0.966323 0.747424 0.819154
O O13 0.000000 0.716146 0.000000
O O14 0.048234 0.000000 0.247730
#
# Coordination Sequence:
#
# PCOD8214885 Si02
#       5
#     8   8   8   8   8
#     4   9  17  29  45  66  90 113 140 179 224 262
#     4   9  16  26  42  65  93 123 150 175 208 253
#     4   9  16  27  45  67  90 117 148 179 211 252
#     4   9  18  33  50  65  84 113 147 181 220 266
#     4   9  17  29  46  67  89 114 147 184 217 253
#
# _framework density 16.781535999999999
#
# number of rings (size 3 to 8) (size 9 to 14) (size 15 to 20)
#    0.000    3.000    0.000    1.200    0.000    4.000 
#    0.000    2.000    0.000    7.800    0.000    0.000 
#    0.000    0.000    0.000    0.000    0.000    0.000 
#
# Total GULP energy -495910.424008 kJ/mol
# GULP energy per Si atom -12397.760600 kJ/mol
# Density = 1.674334 g / cm^3
# Si number density = 16.781536 Si / 1000 Ang^3
#
#
#
# Elastic Constant Matrix: (Units=GPa)
#
#
# Indices 1 2 3 4 5 6 
#
# 1 114.7542 33.6855 82.4112 0.0000 0.0000 0.0000
# 2 33.6855 38.6111 45.6673 0.0000 0.0000 0.0000
# 3 82.4112 45.6673 148.6442 0.0000 0.0000 0.0000
# 4 0.0000 0.0000 0.0000 19.7038 0.0000 0.0000
# 5 0.0000 0.0000 0.0000 0.0000 18.4903 0.0000
# 6 0.0000 0.0000 0.0000 0.0000 0.0000 16.0024
#
#
#
# Elastic Compliance Matrix: (Units=1/GPa)
#
#
# Indices 1 2 3 4 5 6 
#
# 1 0.015102 -0.005140 -0.006794 0.000000 0.000000 0.000000
# 2 -0.005140 0.042432 -0.010186 0.000000 0.000000 0.000000
# 3 -0.006794 -0.010186 0.013623 0.000000 0.000000 0.000000
# 4 0.000000 0.000000 0.000000 0.050752 0.000000 0.000000
# 5 0.000000 0.000000 0.000000 0.000000 0.054082 0.000000
# 6 0.000000 0.000000 0.000000 0.000000 0.000000 0.062491
#
#
# Mechanical properties :
#
#
# Convention : Reuss Voigt Hill
#
# Bulk Modulus (GPa) = 37.15151 69.50419 53.32785
# Shear Modulus (GPa) = 17.14122 20.18898 18.66510
#
# Velocity S-wave (km/s) = 3.19945 3.47226 3.33864
# Velocity P-wave (km/s) = 5.98624 7.58831 6.83438
#
# Compressibility (1/GPa) = 0.02691680
#
# Stress axis : x y z
#
# Youngs Moduli (GPa) = 66.21607 23.56738 73.40282
#
# Poissons Ratio (x) = 0.12114 0.49867
# Poissons Ratio (y) = 0.34037 0.74769
# Poissons Ratio (z) = 0.44985 0.24006
#
# Static dielectric constant tensor:
#      x y z
#    x 3.361570 0.000000 0.000000 
#    y 0.000000 2.964170 0.000000 
#    z 0.000000 0.000000 3.061690 
# 
# 
# High freq. dielectric constant tensor:
#      x y z
#    x 1.652780 0.000000 0.000000 
#    y 0.000000 1.623280 0.000000 
#    z 0.000000 0.000000 1.631560 
# 
# From -- ./inp_files/9301.got.cif
#   From: 2010.03.12/outbox.cif.g09.slc.cpg/sg51_5_cif.got.tgz:9301.got - 2010.04.16 13:43:02.
