data_PCOD8214794
_publ_section_title
;
Structure prediction by ZEFSAII (Michael W. Deem and Ramdas Pophale) SiO2 
 PCOD8214794
Probable space group: P M M A
;
_chemical_formula_sum "Si O2"
_cell_formula_units_Z 48
_cell_length_a 9.578229
_cell_length_b 13.917659
_cell_length_c 23.822520
_cell_angle_alpha 90.000000
_cell_angle_beta 90.000000
_cell_angle_gamma 90.000000
_cell_volume 3175.697359
_symmetry_space_group_name_H-M "P M M A"
_symmetry_group_IT_number 51
_symmetry_cell_setting 'orthorhombic'
loop_
_space_group_symop_operation_xyz
x,y,z
1/2-x,-y,z
1/2+x,-y,-z
-x,y,-z
-x,-y,-z
1/2+x,y,-z
1/2-x,y,z
x,-y,z
loop_
_atom_site_type_symbol
_atom_site_label
_atom_site_fract_x
_atom_site_fract_y
_atom_site_fract_z
Si Si1 0.096449 0.113739 0.548498
Si Si2 0.914521 0.110515 0.325687
Si Si3 0.584649 0.789469 0.768558
Si Si4 0.084752 0.394078 0.166174
Si Si5 0.915290 0.894417 0.880073
Si Si6 0.584845 0.288514 0.945433
O O1 0.250000 0.158378 0.540465
O O2 0.040621 0.137583 0.610792
O O3 0.000000 0.159637 0.500000
O O4 0.104772 0.000000 0.541437
O O5 0.750000 0.126721 0.316979
O O6 0.001690 0.181598 0.286741
O O7 0.953651 0.000000 0.312482
O O8 0.750000 0.796647 0.757378
O O9 0.538707 0.681081 0.785696
O O10 0.536221 0.859722 0.818706
O O11 0.250000 0.397870 0.165867
O O12 0.021231 0.500000 0.178476
O O13 0.037605 0.359175 0.104566
O O14 0.750000 0.898307 0.879420
O O15 0.961795 0.819687 0.928100
O O16 0.979487 0.000000 0.892556
O O17 0.750000 0.294850 0.957202
O O18 0.500000 0.320324 0.000000
#
# Coordination Sequence:
#
# PCOD8214794 Si02
#       6
#     8   8   8   8   8   8
#     4   8  14  24  36  51  75 109 144 170 192 221
#     4   9  17  27  38  56  86 118 138 159 200 241
#     4   9  16  26  43  63  77  97 136 175 198 229
#     4   8  15  29  46  61  79 103 128 159 205 252
#     4   8  14  25  39  54  75 102 129 159 194 229
#     4   9  17  28  42  59  77  99 127 158 194 236
#
# _framework density 15.114789999999999
#
# number of rings (size 3 to 8) (size 9 to 14) (size 15 to 20)
#    0.000    3.500    0.000    3.500    0.000    2.333 
#    0.000    5.000    0.000    2.500    0.000    0.000 
#    0.000    0.667    0.000    1.500    0.000    2.333 
#
# Total GULP energy -594791.074522 kJ/mol
# GULP energy per Si atom -12391.480719 kJ/mol
# Density = 1.508039 g / cm^3
# Si number density = 15.114790 Si / 1000 Ang^3
#
#
#
# Elastic Constant Matrix: (Units=GPa)
#
#
# Indices 1 2 3 4 5 6 
#
# 1 39.6805 24.6522 46.9899 0.0000 0.0000 0.0000
# 2 24.6522 97.8380 46.1594 0.0000 0.0000 0.0000
# 3 46.9899 46.1594 116.6953 0.0000 0.0000 0.0000
# 4 0.0000 0.0000 0.0000 14.6564 0.0000 0.0000
# 5 0.0000 0.0000 0.0000 0.0000 28.4474 0.0000
# 6 0.0000 0.0000 0.0000 0.0000 0.0000 10.8052
#
#
#
# Elastic Compliance Matrix: (Units=1/GPa)
#
#
# Indices 1 2 3 4 5 6 
#
# 1 0.049269 -0.003755 -0.018354 0.000000 0.000000 0.000000
# 2 -0.003755 0.012852 -0.003572 0.000000 0.000000 0.000000
# 3 -0.018354 -0.003572 0.017373 0.000000 0.000000 0.000000
# 4 0.000000 0.000000 0.000000 0.068230 0.000000 0.000000
# 5 0.000000 0.000000 0.000000 0.000000 0.035153 0.000000
# 6 0.000000 0.000000 0.000000 0.000000 0.000000 0.092548
#
#
# Mechanical properties :
#
#
# Convention : Reuss Voigt Hill
#
# Bulk Modulus (GPa) = 35.54588 54.42409 44.98498
# Shear Modulus (GPa) = 14.87371 19.87593 17.37482
#
# Velocity S-wave (km/s) = 3.14036 3.63023 3.39414
# Velocity P-wave (km/s) = 6.05950 7.32507 6.72214
#
# Compressibility (1/GPa) = 0.02813265
#
# Stress axis : x y z
#
# Youngs Moduli (GPa) = 20.29673 77.80737 57.56146
#
# Poissons Ratio (x) = 0.29217 1.05648
# Poissons Ratio (y) = 0.07622 0.20559
# Poissons Ratio (z) = 0.37252 0.27791
#
# Static dielectric constant tensor:
#      x y z
#    x 2.684900 0.000000 0.000000 
#    y 0.000000 3.199890 0.000000 
#    z 0.000000 0.000000 2.882340 
# 
# 
# High freq. dielectric constant tensor:
#      x y z
#    x 1.549310 0.000000 0.000000 
#    y 0.000000 1.554560 0.000000 
#    z 0.000000 0.000000 1.575160 
# 
# From -- ./inp_files/29048.got.cif
#   From: 2010.03.12/outbox.cif.g09.slc.cpg/sg51_15_cif.got.tgz:29048.got - 2010.04.16 13:43:02.
