data_PCOD8214426
_publ_section_title
;
Structure prediction by ZEFSAII (Michael W. Deem and Ramdas Pophale) SiO2 
 PCOD8214426
Probable space group: P M M A
;
_chemical_formula_sum "Si O2"
_cell_formula_units_Z 56
_cell_length_a 28.494803
_cell_length_b 9.308798
_cell_length_c 13.659830
_cell_angle_alpha 90.000000
_cell_angle_beta 90.000000
_cell_angle_gamma 90.000000
_cell_volume 3623.302215
_symmetry_space_group_name_H-M "P M M A"
_symmetry_group_IT_number 51
_symmetry_cell_setting 'orthorhombic'
loop_
_space_group_symop_operation_xyz
x,y,z
1/2-x,-y,z
1/2+x,-y,-z
-x,y,-z
-x,-y,-z
1/2+x,y,-z
1/2-x,y,z
x,-y,z
loop_
_atom_site_type_symbol
_atom_site_label
_atom_site_fract_x
_atom_site_fract_y
_atom_site_fract_z
Si Si1 0.055155 0.159731 0.907014
Si Si2 0.484249 0.827719 0.605227
Si Si3 0.698219 0.829701 0.216877
Si Si4 0.802162 0.335306 0.017421
Si Si5 0.038157 0.833680 0.205197
Si Si6 0.897599 0.332420 0.924597
Si Si7 0.105962 0.161205 0.701541
O O1 0.086229 0.164845 0.810549
O O2 0.001295 0.191866 0.878060
O O3 0.058732 0.000000 0.954242
O O4 0.073612 0.277607 0.981753
O O5 0.500000 0.767870 0.500000
O O6 0.520400 0.776149 0.689087
O O7 0.431945 0.763685 0.629082
O O8 0.482102 0.000000 0.607726
O O9 0.750000 0.789655 0.257341
O O10 0.658471 0.769662 0.292948
O O11 0.692299 0.000000 0.203896
O O12 0.689721 0.762909 0.111122
O O13 0.750000 0.307917 0.972623
O O14 0.807433 0.500000 0.051715
O O15 0.842015 0.298756 0.937140
O O16 0.084414 0.745878 0.173778
O O17 0.051528 0.000000 0.213598
O O18 0.907310 0.500000 0.913526
O O19 0.111725 0.000000 0.663026
#
# Coordination Sequence:
#
# PCOD8214426 Si02
#       7
#     8   8   8   8   8   8   8
#     4   9  16  27  40  55  81 113 138 161 194 235
#     4   8  14  26  44  63  80 102 137 173 203 242
#     4   9  15  23  38  59  81 106 135 165 199 240
#     4   9  18  30  40  53  78 111 144 173 200 233
#     4   9  18  29  42  60  81 107 137 167 201 241
#     4  11  20  27  39  59  82 109 139 170 201 234
#     4   8  13  22  37  58  82 105 131 166 201 236
#
# _framework density 15.455515
#
# number of rings (size 3 to 8) (size 9 to 14) (size 15 to 20)
#    0.000    3.000    1.429    2.571    0.000    2.857 
#    0.000    0.000    0.000    0.429    0.000    1.000 
#    0.000    3.429    0.000    0.000    0.000    0.000 
#
# Total GULP energy -693782.658578 kJ/mol
# GULP energy per Si atom -12388.976046 kJ/mol
# Density = 1.542034 g / cm^3
# Si number density = 15.455515 Si / 1000 Ang^3
#
#
#
# Elastic Constant Matrix: (Units=GPa)
#
#
# Indices 1 2 3 4 5 6 
#
# 1 142.2123 35.0182 61.4812 0.0000 0.0000 0.0000
# 2 35.0182 37.0641 22.7562 0.0000 0.0000 0.0000
# 3 61.4812 22.7562 67.8976 0.0000 0.0000 0.0000
# 4 0.0000 0.0000 0.0000 1.0814 0.0000 0.0000
# 5 0.0000 0.0000 0.0000 0.0000 18.1219 0.0000
# 6 0.0000 0.0000 0.0000 0.0000 0.0000 18.5947
#
#
#
# Elastic Compliance Matrix: (Units=1/GPa)
#
#
# Indices 1 2 3 4 5 6 
#
# 1 0.012581 -0.006160 -0.009328 0.000000 0.000000 0.000000
# 2 -0.006160 0.036986 -0.006819 0.000000 0.000000 0.000000
# 3 -0.009328 -0.006819 0.025460 0.000000 0.000000 0.000000
# 4 0.000000 0.000000 0.000000 0.924725 0.000000 0.000000
# 5 0.000000 0.000000 0.000000 0.000000 0.055182 0.000000
# 6 0.000000 0.000000 0.000000 0.000000 0.000000 0.053779
#
#
# Mechanical properties :
#
#
# Convention : Reuss Voigt Hill
#
# Bulk Modulus (GPa) = 32.87840 53.96501 43.42170
# Shear Modulus (GPa) = 4.29752 16.08750 10.19251
#
# Velocity S-wave (km/s) = 1.66931 3.22978 2.57081
# Velocity P-wave (km/s) = 5.00346 6.99291 6.08011
#
# Compressibility (1/GPa) = 0.03041510
#
# Stress axis : x y z
#
# Youngs Moduli (GPa) = 79.48470 27.03702 39.27801
#
# Poissons Ratio (x) = 0.16654 0.36637
# Poissons Ratio (y) = 0.48960 0.26782
# Poissons Ratio (z) = 0.74141 0.18435
#
# Static dielectric constant tensor:
#      x y z
#    x 3.414790 0.000000 0.000000 
#    y 0.000000 2.726140 0.000000 
#    z 0.000000 0.000000 2.741670 
# 
# 
# High freq. dielectric constant tensor:
#      x y z
#    x 1.605400 0.000000 0.000000 
#    y 0.000000 1.564610 0.000000 
#    z 0.000000 0.000000 1.547710 
# 
# From -- ./inp_files/26472.got.cif
#   From: 2010.03.12/outbox.cif.g09.slc.cpg/sg51_14_cif.got.tgz:26472.got - 2010.04.16 13:43:02.
