data_PCOD8214686
_publ_section_title
;
Structure prediction by ZEFSAII (Michael W. Deem and Ramdas Pophale) SiO2 
 PCOD8214686
Probable space group: P M M A
;
_chemical_formula_sum "Si O2"
_cell_formula_units_Z 56
_cell_length_a 9.345641
_cell_length_b 14.012169
_cell_length_c 29.461314
_cell_angle_alpha 90.000000
_cell_angle_beta 90.000000
_cell_angle_gamma 90.000000
_cell_volume 3858.038646
_symmetry_space_group_name_H-M "P M M A"
_symmetry_group_IT_number 51
_symmetry_cell_setting 'orthorhombic'
loop_
_space_group_symop_operation_xyz
x,y,z
1/2-x,-y,z
1/2+x,-y,-z
-x,y,-z
-x,-y,-z
1/2+x,y,-z
1/2-x,y,z
x,-y,z
loop_
_atom_site_type_symbol
_atom_site_label
_atom_site_fract_x
_atom_site_fract_y
_atom_site_fract_z
Si Si1 0.580206 0.894767 0.402041
Si Si2 0.411375 0.113827 0.043049
Si Si3 0.909781 0.113635 0.127468
Si Si4 0.419871 0.605421 0.634934
Si Si5 0.579398 0.786608 0.314272
Si Si6 0.579469 0.893169 0.227200
Si Si7 0.581581 0.713023 0.454979
O O1 0.750000 0.898801 0.399926
O O2 0.523715 0.858764 0.353153
O O3 0.534019 0.820652 0.441210
O O4 0.516184 0.000000 0.412358
O O5 0.250000 0.153422 0.040278
O O6 0.484510 0.153900 0.088911
O O7 0.411177 0.000000 0.043254
O O8 0.500000 0.152382 0.000000
O O9 0.750000 0.154211 0.118637
O O10 0.967713 0.144541 0.177324
O O11 0.903499 0.000000 0.125663
O O12 0.250000 0.601709 0.636850
O O13 0.485168 0.500000 0.643809
O O14 0.475274 0.679458 0.673578
O O15 0.465702 0.641634 0.585138
O O16 0.750000 0.787502 0.313485
O O17 0.518261 0.821537 0.265676
O O18 0.750000 0.896925 0.228712
O O19 0.519563 0.000000 0.236162
O O20 0.500000 0.681086 0.500000
O O21 0.750000 0.707153 0.463972
#
# Coordination Sequence:
#
# PCOD8214686 Si02
#       7
#     8   8   8   8   8   8   8
#     4   8  13  21  33  49  69  90 111 137 167 198
#     4   9  15  21  29  40  55  79 113 149 178 201
#     4   8  13  20  28  40  60  82 103 132 170 204
#     4   8  14  24  36  50  69  90 110 135 167 201
#     4   8  12  18  30  48  67  86 109 136 167 202
#     4   8  12  17  27  44  64  83 104 135 172 203
#     4   9  17  27  38  53  71  90 112 137 166 200
#
# _framework density 14.515148
#
# number of rings (size 3 to 8) (size 9 to 14) (size 15 to 20)
#    0.000    3.714    0.000    3.429    0.000    4.000 
#    0.000    0.000    0.000    0.000    0.000    4.000 
#    0.000    4.571    0.000    0.000    0.000    0.714 
#
# Total GULP energy -693786.757917 kJ/mol
# GULP energy per Si atom -12389.049249 kJ/mol
# Density = 1.448211 g / cm^3
# Si number density = 14.515148 Si / 1000 Ang^3
#
#
#
# Elastic Constant Matrix: (Units=GPa)
#
#
# Indices 1 2 3 4 5 6 
#
# 1 35.9889 11.1646 34.7377 0.0000 0.0000 0.0000
# 2 11.1646 79.1295 40.1660 0.0000 0.0000 0.0000
# 3 34.7377 40.1660 129.9045 0.0000 0.0000 0.0000
# 4 0.0000 0.0000 0.0000 10.3633 0.0000 0.0000
# 5 0.0000 0.0000 0.0000 0.0000 16.6635 0.0000
# 6 0.0000 0.0000 0.0000 0.0000 0.0000 3.9442
#
#
#
# Elastic Compliance Matrix: (Units=1/GPa)
#
#
# Indices 1 2 3 4 5 6 
#
# 1 0.037457 -0.000238 -0.009943 0.000000 0.000000 0.000000
# 2 -0.000238 0.014992 -0.004572 0.000000 0.000000 0.000000
# 3 -0.009943 -0.004572 0.011770 0.000000 0.000000 0.000000
# 4 0.000000 0.000000 0.000000 0.096495 0.000000 0.000000
# 5 0.000000 0.000000 0.000000 0.000000 0.060011 0.000000
# 6 0.000000 0.000000 0.000000 0.000000 0.000000 0.253539
#
#
# Mechanical properties :
#
#
# Convention : Reuss Voigt Hill
#
# Bulk Modulus (GPa) = 28.80663 46.35106 37.57884
# Shear Modulus (GPa) = 9.70231 16.79116 13.24674
#
# Velocity S-wave (km/s) = 2.58820 3.40487 3.02423
# Velocity P-wave (km/s) = 5.36849 6.88910 6.17578
#
# Compressibility (1/GPa) = 0.03471424
#
# Stress axis : x y z
#
# Youngs Moduli (GPa) = 26.69698 66.70363 84.95923
#
# Poissons Ratio (x) = 0.01587 0.84474
# Poissons Ratio (y) = 0.00635 0.38841
# Poissons Ratio (z) = 0.26545 0.30495
#
# Static dielectric constant tensor:
#      x y z
#    x 2.429230 0.000000 0.000000 
#    y 0.000000 2.861120 0.000000 
#    z 0.000000 0.000000 3.079510 
# 
# 
# High freq. dielectric constant tensor:
#      x y z
#    x 1.505240 0.000000 0.000000 
#    y 0.000000 1.510700 0.000000 
#    z 0.000000 0.000000 1.560000 
# 
# From -- ./inp_files/37482.got.cif
#   From: 2010.03.12/outbox.cif.g09.slc.cpg/sg51_19_cif.got.tgz:37482.got - 2010.04.16 13:43:02.
