data_PCOD8214968
_publ_section_title
;
Structure prediction by ZEFSAII (Michael W. Deem and Ramdas Pophale) SiO2 
 PCOD8214968
Probable space group: P N N A
;
_chemical_formula_sum "Si O2"
_cell_formula_units_Z 40
_cell_length_a 5.222710
_cell_length_b 8.964357
_cell_length_c 43.184950
_cell_angle_alpha 90.000000
_cell_angle_beta 90.000000
_cell_angle_gamma 90.000000
_cell_volume 2021.843222
_symmetry_space_group_name_H-M "P N N A"
_symmetry_group_IT_number 52
_symmetry_cell_setting 'orthorhombic'
loop_
_space_group_symop_operation_xyz
x,y,z
1/2-x,-y,z
x,1/2-y,1/2-z
1/2-x,1/2+y,1/2-z
-x,-y,-z
1/2+x,y,-z
-x,1/2+y,1/2+z
1/2+x,1/2-y,1/2+z
loop_
_atom_site_type_symbol
_atom_site_label
_atom_site_fract_x
_atom_site_fract_y
_atom_site_fract_z
Si Si1 0.732085 0.321916 0.614610
Si Si2 0.746997 0.674461 0.217352
Si Si3 0.252141 0.175355 0.319888
Si Si4 0.935748 0.833138 0.012302
Si Si5 0.228897 0.168983 0.917151
O O1 0.750000 0.500000 0.613231
O O2 0.698447 0.267381 0.649324
O O3 0.498084 0.257970 0.593418
O O4 0.993053 0.252311 0.600547
O O5 0.750000 0.500000 0.223175
O O6 0.792399 0.750000 0.250000
O O7 0.474283 0.722454 0.203402
O O8 0.976139 0.723707 0.194493
O O9 0.250000 0.000000 0.327406
O O10 0.823177 0.825369 0.046470
O O11 0.714212 0.754056 0.991036
O O12 0.000000 0.000000 0.000000
O O13 0.250000 0.000000 0.905846
#
# Coordination Sequence:
#
# PCOD8214968 Si02
#       5
#     8   8   8   8   8
#     4  10  21  32  49  72 102 138 166 214 256 294
#     4  10  21  36  57  82 105 133 168 216 254 303
#     4  10  21  38  55  75 106 139 176 206 250 305
#     4  10  17  24  41  63  95 139 163 195 265 316
#     4  10  18  29  43  68 103 134 165 210 253 315
#
# _framework density 19.783926000000001
#
# number of rings (size 3 to 8) (size 9 to 14) (size 15 to 20)
#    0.000    2.000    2.000    3.000    5.600    1.600 
#    0.000    0.000    0.000    0.000    0.000    0.000 
#    0.000   16.000    0.000    0.000    0.000    0.000 
#
# Total GULP energy -495669.423140 kJ/mol
# GULP energy per Si atom -12391.735579 kJ/mol
# Density = 1.973890 g / cm^3
# Si number density = 19.783926 Si / 1000 Ang^3
#
#
#
# Elastic Constant Matrix: (Units=GPa)
#
#
# Indices 1 2 3 4 5 6 
#
# 1 197.8393 21.5220 64.2578 0.0000 0.0000 0.0000
# 2 21.5220 10.3443 22.7633 0.0000 0.0000 0.0000
# 3 64.2578 22.7633 134.6430 0.0000 0.0000 0.0000
# 4 0.0000 0.0000 0.0000 14.9681 0.0000 0.0000
# 5 0.0000 0.0000 0.0000 0.0000 40.4867 0.0000
# 6 0.0000 0.0000 0.0000 0.0000 0.0000 9.7105
#
#
#
# Elastic Compliance Matrix: (Units=1/GPa)
#
#
# Indices 1 2 3 4 5 6 
#
# 1 0.006681 -0.010962 -0.001335 0.000000 0.000000 0.000000
# 2 -0.010962 0.171929 -0.023836 0.000000 0.000000 0.000000
# 3 -0.001335 -0.023836 0.012094 0.000000 0.000000 0.000000
# 4 0.000000 0.000000 0.000000 0.066809 0.000000 0.000000
# 5 0.000000 0.000000 0.000000 0.000000 0.024699 0.000000
# 6 0.000000 0.000000 0.000000 0.000000 0.000000 0.102981
#
#
# Mechanical properties :
#
#
# Convention : Reuss Voigt Hill
#
# Bulk Modulus (GPa) = 8.44315 62.21255 35.32785
# Shear Modulus (GPa) = 10.06162 28.65197 19.35680
#
# Velocity S-wave (km/s) = 2.25761 3.80971 3.13135
# Velocity P-wave (km/s) = 3.32756 7.13205 5.56502
#
# Compressibility (1/GPa) = 0.11843915
#
# Stress axis : x y z
#
# Youngs Moduli (GPa) = 149.68450 5.81634 82.68555
#
# Poissons Ratio (x) = 0.06376 0.11040
# Poissons Ratio (y) = 1.64078 1.97087
# Poissons Ratio (z) = 0.19985 0.13864
#
# Static dielectric constant tensor:
#      x y z
#    x 6.937280 0.000000 0.000000 
#    y 0.000000 3.038530 0.000000 
#    z 0.000000 0.000000 3.503760 
# 
# 
# High freq. dielectric constant tensor:
#      x y z
#    x 1.812580 0.000000 0.000000 
#    y 0.000000 1.698390 0.000000 
#    z 0.000000 0.000000 1.779020 
# 
# From -- ./inp_files/41499.got.cif
#   From: 2010.06.25/outbox.cif.g09.slc.cpg/sg52_21_cif.got.tgz:41499.got - 2010.06.26 19:32:48.
