data_PCOD8214943
_publ_section_title
;
Structure prediction by ZEFSAII (Michael W. Deem and Ramdas Pophale) SiO2 
 PCOD8214943
Probable space group: P N N A
;
_chemical_formula_sum "Si O2"
_cell_formula_units_Z 52
_cell_length_a 15.311631
_cell_length_b 12.023130
_cell_length_c 15.372600
_cell_angle_alpha 90.000000
_cell_angle_beta 90.000000
_cell_angle_gamma 90.000000
_cell_volume 2829.999274
_symmetry_space_group_name_H-M "P N N A"
_symmetry_group_IT_number 52
_symmetry_cell_setting 'orthorhombic'
loop_
_space_group_symop_operation_xyz
x,y,z
1/2-x,-y,z
x,1/2-y,1/2-z
1/2-x,1/2+y,1/2-z
-x,-y,-z
1/2+x,y,-z
-x,1/2+y,1/2+z
1/2+x,1/2-y,1/2+z
loop_
_atom_site_type_symbol
_atom_site_label
_atom_site_fract_x
_atom_site_fract_y
_atom_site_fract_z
Si Si1 0.918459 0.829261 0.489806
Si Si2 0.067275 0.566256 0.749040
Si Si3 0.735443 0.681063 0.065389
Si Si4 0.939124 0.244661 0.111855
Si Si5 0.482357 0.143373 0.312432
Si Si6 0.659194 0.963667 0.582636
Si Si7 0.750000 0.500000 0.204477
O O1 0.822813 0.769919 0.480934
O O2 0.991174 0.749985 0.533354
O O3 0.949436 0.854525 0.392019
O O4 0.905659 0.936812 0.552388
O O5 0.060113 0.639235 0.836326
O O6 0.034007 0.639083 0.668478
O O7 0.165860 0.521855 0.735263
O O8 0.003240 0.461873 0.752157
O O9 0.662697 0.775740 0.083931
O O10 0.767502 0.611995 0.149239
O O11 0.683610 0.594192 0.006714
O O12 0.483762 0.250000 0.250000
O O13 0.386430 0.122826 0.352195
O O14 0.750000 0.000000 0.629071
#
# Coordination Sequence:
#
# PCOD8214943 Si02
#       7
#     8   8   8   8   8   8   4
#     4  11  18  35  62  84 110 151 199 239 280 342
#     4  10  21  35  53  90 122 148 179 239 303 348
#     4  10  17  30  57  89 107 147 192 241 288 330
#     4  10  20  34  59  86 121 146 190 242 291 346
#     4  12  23  36  57  87 119 151 192 244 291 339
#     4  10  19  35  60  85 108 148 204 246 277 331
#     4  10  16  30  52  86 118 138 176 244 292 336
#
# _framework density 18.374563999999999
#
# number of rings (size 3 to 8) (size 9 to 14) (size 15 to 20)
#    0.000    1.538    6.923    1.385    0.000    1.231 
#    0.000    3.846    0.000    0.000    0.000    0.000 
#    0.000    0.000    0.000    0.000    0.000    0.000 
#
# Total GULP energy -644352.422049 kJ/mol
# GULP energy per Si atom -12391.392732 kJ/mol
# Density = 1.833274 g / cm^3
# Si number density = 18.374564 Si / 1000 Ang^3
#
#
#
# Elastic Constant Matrix: (Units=GPa)
#
#
# Indices 1 2 3 4 5 6 
#
# 1 115.4555 39.6141 46.3935 0.0000 0.0000 0.0000
# 2 39.6141 77.1178 38.4165 0.0000 0.0000 0.0000
# 3 46.3935 38.4165 57.9733 0.0000 0.0000 0.0000
# 4 0.0000 0.0000 0.0000 14.2901 0.0000 0.0000
# 5 0.0000 0.0000 0.0000 0.0000 0.6415 0.0000
# 6 0.0000 0.0000 0.0000 0.0000 0.0000 19.9595
#
#
#
# Elastic Compliance Matrix: (Units=1/GPa)
#
#
# Indices 1 2 3 4 5 6 
#
# 1 0.013020 -0.002236 -0.008938 0.000000 0.000000 0.000000
# 2 -0.002236 0.019741 -0.011292 0.000000 0.000000 0.000000
# 3 -0.008938 -0.011292 0.031885 0.000000 0.000000 0.000000
# 4 0.000000 0.000000 0.000000 0.069978 0.000000 0.000000
# 5 0.000000 0.000000 0.000000 0.000000 1.558727 0.000000
# 6 0.000000 0.000000 0.000000 0.000000 0.000000 0.050101
#
#
# Mechanical properties :
#
#
# Convention : Reuss Voigt Hill
#
# Bulk Modulus (GPa) = 50.72541 55.48832 53.10687
# Shear Modulus (GPa) = 2.78558 15.38640 9.08599
#
# Velocity S-wave (km/s) = 1.23260 2.89688 2.22612
# Velocity P-wave (km/s) = 5.44903 6.43842 5.96428
#
# Compressibility (1/GPa) = 0.01971398
#
# Stress axis : x y z
#
# Youngs Moduli (GPa) = 76.80541 50.65606 31.36288
#
# Poissons Ratio (x) = 0.11325 0.28031
# Poissons Ratio (y) = 0.17172 0.35416
# Poissons Ratio (z) = 0.68647 0.57203
#
# Static dielectric constant tensor:
#      x y z
#    x 3.891540 0.000000 0.000000 
#    y 0.000000 3.155020 0.000000 
#    z 0.000000 0.000000 3.145120 
# 
# 
# High freq. dielectric constant tensor:
#      x y z
#    x 1.730820 0.000000 0.000000 
#    y 0.000000 1.669320 0.000000 
#    z 0.000000 0.000000 1.685250 
# 
# From -- ./inp_files/33213.got.cif
#   From: 2010.06.25/outbox.cif.g09.slc.cpg/sg52_17_cif.got.tgz:33213.got - 2010.06.26 19:32:48.
