data_PCOD8214041
_publ_section_title
;
Structure prediction by ZEFSAII (Michael W. Deem and Ramdas Pophale) SiO2 
 PCOD8214041
Probable space group: P M M A
;
_chemical_formula_sum "Si O2"
_cell_formula_units_Z 40
_cell_length_a 18.125961
_cell_length_b 8.973153
_cell_length_c 12.396783
_cell_angle_alpha 90.000000
_cell_angle_beta 90.000000
_cell_angle_gamma 90.000000
_cell_volume 2016.299829
_symmetry_space_group_name_H-M "P M M A"
_symmetry_group_IT_number 51
_symmetry_cell_setting 'orthorhombic'
loop_
_space_group_symop_operation_xyz
x,y,z
1/2-x,-y,z
1/2+x,-y,-z
-x,y,-z
-x,-y,-z
1/2+x,y,-z
1/2-x,y,z
x,-y,z
loop_
_atom_site_type_symbol
_atom_site_label
_atom_site_fract_x
_atom_site_fract_y
_atom_site_fract_z
Si Si1 0.416272 0.828139 0.658778
Si Si2 0.076503 0.324128 0.052171
Si Si3 0.835001 0.326980 0.533605
Si Si4 0.917809 0.172494 0.718453
Si Si5 0.835152 0.171628 0.125230
O O1 0.384182 0.726227 0.565587
O O2 0.503625 0.803827 0.661256
O O3 0.382177 0.775364 0.772051
O O4 0.395708 0.000000 0.635288
O O5 0.078980 0.500000 0.063288
O O6 0.085978 0.255198 0.168826
O O7 0.143389 0.270459 0.977236
O O8 0.000000 0.268347 0.000000
O O9 0.750000 0.295762 0.505812
O O10 0.850596 0.500000 0.554038
O O11 0.855161 0.238172 0.641486
O O12 0.901653 0.000000 0.739361
O O13 0.750000 0.197755 0.152546
O O14 0.852308 0.000000 0.097987
#
# Coordination Sequence:
#
# PCOD8214041 Si02
#       5
#     8   8   8   8   8
#     4  10  21  39  64  92 121 155 201 253 301 356
#     4  11  23  39  61  89 123 161 199 245 301 357
#     4  11  25  42  60  87 125 164 201 247 303 361
#     4  11  23  40  66  92 118 157 205 253 301 356
#     4  10  21  38  62  91 123 160 201 249 303 357
#
# _framework density 19.838318000000001
#
# number of rings (size 3 to 8) (size 9 to 14) (size 15 to 20)
#    0.000    1.400    2.000    3.000    0.000    9.200 
#    0.000    0.000    0.000    0.000    0.000    0.000 
#    0.000    0.000    0.000    0.000    0.000    0.000 
#
# Total GULP energy -496304.152870 kJ/mol
# GULP energy per Si atom -12407.603822 kJ/mol
# Density = 1.979317 g / cm^3
# Si number density = 19.838318 Si / 1000 Ang^3
#
#
#
# Elastic Constant Matrix: (Units=GPa)
#
#
# Indices 1 2 3 4 5 6 
#
# 1 48.0989 28.1037 18.1825 0.0000 0.0000 0.0000
# 2 28.1037 72.1585 38.4066 0.0000 0.0000 0.0000
# 3 18.1825 38.4066 106.8874 0.0000 0.0000 0.0000
# 4 0.0000 0.0000 0.0000 -28.4581 0.0000 0.0000
# 5 0.0000 0.0000 0.0000 0.0000 29.9252 0.0000
# 6 0.0000 0.0000 0.0000 0.0000 0.0000 20.0281
#
#
#
# Elastic Compliance Matrix: (Units=1/GPa)
#
#
# Indices 1 2 3 4 5 6 
#
# 1 0.027003 -0.009981 -0.001007 0.000000 0.000000 0.000000
# 2 -0.009981 0.020825 -0.005785 0.000000 0.000000 0.000000
# 3 -0.001007 -0.005785 0.011606 0.000000 0.000000 0.000000
# 4 0.000000 0.000000 0.000000 -0.035139 0.000000 0.000000
# 5 0.000000 0.000000 0.000000 0.000000 0.033417 0.000000
# 6 0.000000 0.000000 0.000000 0.000000 0.000000 0.049930
#
#
# Mechanical properties :
#
#
# Convention : Reuss Voigt Hill
#
# Bulk Modulus (GPa) = 38.62869 44.05893 41.34381
# Shear Modulus (GPa) = 33.37452 13.79585 23.58519
#
# Velocity S-wave (km/s) = 4.10607 2.63993 3.45174
# Velocity P-wave (km/s) = 6.48026 5.61690 6.06396
#
# Compressibility (1/GPa) = 0.02588749
#
# Stress axis : x y z
#
# Youngs Moduli (GPa) = 37.03305 48.02012 86.16562
#
# Poissons Ratio (x) = 0.47928 0.08678
# Poissons Ratio (y) = 0.36962 0.49845
# Poissons Ratio (z) = 0.03730 0.27779
#
# Static dielectric constant tensor:
#      x y z
#    x 3.685940 0.000000 0.000000 
#    y 0.000000 3.622150 0.000000 
#    z 0.000000 0.000000 3.665640 
# 
# 
# High freq. dielectric constant tensor:
#      x y z
#    x 1.777770 0.000000 0.000000 
#    y 0.000000 1.776780 0.000000 
#    z 0.000000 0.000000 1.785310 
# 
# From -- ./inp_files/17053.got.cif
#   From: 2010.03.12/outbox.cif.g09.slc.cpg/sg51_9_cif.got.tgz:17053.got - 2010.04.16 13:43:02.
