data_PCOD8214070
_publ_section_title
;
Structure prediction by ZEFSAII (Michael W. Deem and Ramdas Pophale) SiO2 
 PCOD8214070
Probable space group: P M M A
;
_chemical_formula_sum "Si O2"
_cell_formula_units_Z 52
_cell_length_a 9.485029
_cell_length_b 10.471848
_cell_length_c 28.298868
_cell_angle_alpha 90.000000
_cell_angle_beta 90.000000
_cell_angle_gamma 90.000000
_cell_volume 2810.807193
_symmetry_space_group_name_H-M "P M M A"
_symmetry_group_IT_number 51
_symmetry_cell_setting 'orthorhombic'
loop_
_space_group_symop_operation_xyz
x,y,z
1/2-x,-y,z
1/2+x,-y,-z
-x,y,-z
-x,-y,-z
1/2+x,y,-z
1/2-x,y,z
x,-y,z
loop_
_atom_site_type_symbol
_atom_site_label
_atom_site_fract_x
_atom_site_fract_y
_atom_site_fract_z
Si Si1 0.487393 0.262723 0.098484
Si Si2 0.750000 0.152325 0.967069
Si Si3 0.589659 0.642973 0.800535
Si Si4 0.750000 0.141304 0.072450
Si Si5 0.909926 0.849746 0.366631
Si Si6 0.083518 0.852622 0.273474
Si Si7 0.088433 0.152123 0.454847
Si Si8 0.406246 0.500000 0.954892
O O1 0.384214 0.206722 0.059667
O O2 0.413480 0.298536 0.147141
O O3 0.613914 0.162629 0.105442
O O4 0.567828 0.382913 0.078796
O O5 0.750000 0.000000 0.963404
O O6 0.750000 0.211098 0.020455
O O7 0.750000 0.623484 0.786258
O O8 0.517365 0.500000 0.797020
O O9 0.527053 0.751461 0.765708
O O10 0.750000 0.000000 0.053949
O O11 0.750000 0.792190 0.366198
O O12 0.992995 0.815672 0.319083
O O13 0.003532 0.793499 0.409538
O O14 0.897919 0.000000 0.373155
O O15 0.250000 0.836909 0.284169
O O16 0.053794 0.000000 0.257581
O O17 0.250000 0.204925 0.455848
O O18 0.000000 0.200357 0.500000
O O19 0.094334 0.000000 0.453589
O O20 0.250000 0.500000 0.974682
O O21 0.500000 0.500000 0.000000
#
# Coordination Sequence:
#
# PCOD8214070 Si02
#       8
#     8   4   8   4   8   8   8   4
#     4  12  23  40  61  84 113 144 181 221 271 326
#     4  11  24  41  63  87 115 150 185 219 264 327
#     4  10  21  39  59  82 110 140 178 224 276 330
#     4  11  24  41  57  83 117 148 177 219 268 321
#     4   9  16  27  43  66  98 134 175 224 275 326
#     4   9  18  33  54  76  99 133 180 226 269 321
#     4   9  15  22  35  59  95 140 185 225 269 320
#     4  12  26  40  62  88 112 142 182 222 263 322
#
# _framework density 18.500024
#
# number of rings (size 3 to 8) (size 9 to 14) (size 15 to 20)
#    0.000    1.846    2.308    2.769    1.077    6.154 
#    1.385    0.000    0.000    0.000    0.000    0.000 
#    0.000    0.615    0.000    1.692    0.000    3.077 
#
# Total GULP energy -644317.795063 kJ/mol
# GULP energy per Si atom -12390.726828 kJ/mol
# Density = 1.845792 g / cm^3
# Si number density = 18.500024 Si / 1000 Ang^3
#
#
#
# Elastic Constant Matrix: (Units=GPa)
#
#
# Indices 1 2 3 4 5 6 
#
# 1 106.5838 25.9898 31.8408 0.0000 0.0000 0.0000
# 2 25.9898 69.8388 42.1492 0.0000 0.0000 0.0000
# 3 31.8408 42.1492 110.5298 0.0000 0.0000 0.0000
# 4 0.0000 0.0000 0.0000 18.4534 0.0000 0.0000
# 5 0.0000 0.0000 0.0000 0.0000 26.9398 0.0000
# 6 0.0000 0.0000 0.0000 0.0000 0.0000 12.2289
#
#
#
# Elastic Compliance Matrix: (Units=1/GPa)
#
#
# Indices 1 2 3 4 5 6 
#
# 1 0.010656 -0.002744 -0.002023 0.000000 0.000000 0.000000
# 2 -0.002744 0.019306 -0.006572 0.000000 0.000000 0.000000
# 3 -0.002023 -0.006572 0.012136 0.000000 0.000000 0.000000
# 4 0.000000 0.000000 0.000000 0.054191 0.000000 0.000000
# 5 0.000000 0.000000 0.000000 0.000000 0.037120 0.000000
# 6 0.000000 0.000000 0.000000 0.000000 0.000000 0.081773
#
#
# Mechanical properties :
#
#
# Convention : Reuss Voigt Hill
#
# Bulk Modulus (GPa) = 51.49374 54.10133 52.79754
# Shear Modulus (GPa) = 20.46383 23.98926 22.22654
#
# Velocity S-wave (km/s) = 3.32949 3.60490 3.46993
# Velocity P-wave (km/s) = 6.53265 6.82894 6.68244
#
# Compressibility (1/GPa) = 0.01941984
#
# Stress axis : x y z
#
# Youngs Moduli (GPa) = 93.84474 51.79716 82.39866
#
# Poissons Ratio (x) = 0.14216 0.16670
# Poissons Ratio (y) = 0.25756 0.54149
# Poissons Ratio (z) = 0.18986 0.34039
#
# Static dielectric constant tensor:
#      x y z
#    x 3.579140 0.000000 0.000000 
#    y 0.000000 3.353130 0.000000 
#    z 0.000000 0.000000 3.383580 
# 
# 
# High freq. dielectric constant tensor:
#      x y z
#    x 1.723290 0.000000 0.000000 
#    y 0.000000 1.684640 0.000000 
#    z 0.000000 0.000000 1.712900 
# 
# From -- ./inp_files/36272.got.cif
#   From: 2010.03.12/outbox.cif.g09.slc.cpg/sg51_19_cif.got.tgz:36272.got - 2010.04.16 13:43:02.
