data_PCOD8214031
_publ_section_title
;
Structure prediction by ZEFSAII (Michael W. Deem and Ramdas Pophale) SiO2 
 PCOD8214031
Probable space group: P M M A
;
_chemical_formula_sum "Si O2"
_cell_formula_units_Z 56
_cell_length_a 17.188526
_cell_length_b 18.803189
_cell_length_c 9.070257
_cell_angle_alpha 90.000000
_cell_angle_beta 90.000000
_cell_angle_gamma 90.000000
_cell_volume 2931.498926
_symmetry_space_group_name_H-M "P M M A"
_symmetry_group_IT_number 51
_symmetry_cell_setting 'orthorhombic'
loop_
_space_group_symop_operation_xyz
x,y,z
1/2-x,-y,z
1/2+x,-y,-z
-x,y,-z
-x,-y,-z
1/2+x,y,-z
1/2-x,y,z
x,-y,z
loop_
_atom_site_type_symbol
_atom_site_label
_atom_site_fract_x
_atom_site_fract_y
_atom_site_fract_z
Si Si1 0.077568 0.198523 0.433360
Si Si2 0.157528 0.077475 0.904016
Si Si3 0.034540 0.352443 0.343724
Si Si4 0.341393 0.081123 0.235492
Si Si5 0.660437 0.583517 0.848005
Si Si6 0.072170 0.671603 0.908579
Si Si7 0.658427 0.788650 0.267783
O O1 0.053976 0.267937 0.338498
O O2 0.118175 0.138331 0.338812
O O3 0.131968 0.226128 0.566115
O O4 0.000000 0.163438 0.500000
O O5 0.250000 0.075978 0.907801
O O6 0.127022 0.134371 0.785778
O O7 0.125619 0.000000 0.855507
O O8 0.128787 0.095295 0.069404
O O9 0.113074 0.394334 0.299518
O O10 0.000000 0.377354 0.500000
O O11 0.966193 0.370982 0.227824
O O12 0.250000 0.093972 0.249313
O O13 0.361622 0.000000 0.283098
O O14 0.750000 0.607823 0.828294
O O15 0.654510 0.500000 0.871148
O O16 0.623862 0.619363 0.992628
O O17 0.127276 0.732787 0.849350
O O18 0.000000 0.704853 0.000000
O O19 0.750000 0.784491 0.261920
#
# Coordination Sequence:
#
# PCOD8214031 Si02
#       7
#     8   8   8   8   8   8   8
#     4  11  22  37  54  79 118 153 192 246 295 351
#     4   8  17  33  52  77 107 139 185 242 291 341
#     4  10  21  41  61  87 124 163 196 238 291 360
#     4   9  19  36  56  79 109 150 199 247 302 361
#     4  10  23  42  65  95 124 152 195 246 290 343
#     4  10  21  38  62  85 120 157 193 236 292 352
#     4  11  21  34  57  85 111 149 199 246 294 346
#
# _framework density 19.102855999999999
#
# number of rings (size 3 to 8) (size 9 to 14) (size 15 to 20)
#    0.000    2.143    2.857    1.714    4.000    4.857 
#    0.000    1.429    0.000    3.857    0.000    0.000 
#    0.000    0.000    0.000    0.000    0.000    0.000 
#
# Total GULP energy -694187.925080 kJ/mol
# GULP energy per Si atom -12396.212948 kJ/mol
# Density = 1.905938 g / cm^3
# Si number density = 19.102856 Si / 1000 Ang^3
#
#
#
# Elastic Constant Matrix: (Units=GPa)
#
#
# Indices 1 2 3 4 5 6 
#
# 1 105.7770 42.8515 48.3473 0.0000 0.0000 0.0000
# 2 42.8515 72.5287 31.2060 0.0000 0.0000 0.0000
# 3 48.3473 31.2060 99.8626 0.0000 0.0000 0.0000
# 4 0.0000 0.0000 0.0000 28.6265 0.0000 0.0000
# 5 0.0000 0.0000 0.0000 0.0000 30.8293 0.0000
# 6 0.0000 0.0000 0.0000 0.0000 0.0000 24.2612
#
#
#
# Elastic Compliance Matrix: (Units=1/GPa)
#
#
# Indices 1 2 3 4 5 6 
#
# 1 0.014263 -0.006304 -0.004936 0.000000 0.000000 0.000000
# 2 -0.006304 0.018715 -0.002797 0.000000 0.000000 0.000000
# 3 -0.004936 -0.002797 0.013277 0.000000 0.000000 0.000000
# 4 0.000000 0.000000 0.000000 0.034933 0.000000 0.000000
# 5 0.000000 0.000000 0.000000 0.000000 0.032437 0.000000
# 6 0.000000 0.000000 0.000000 0.000000 0.000000 0.041218
#
#
# Mechanical properties :
#
#
# Convention : Reuss Voigt Hill
#
# Bulk Modulus (GPa) = 54.99246 58.10867 56.55057
# Shear Modulus (GPa) = 26.45838 27.12762 26.79300
#
# Velocity S-wave (km/s) = 3.72566 3.77249 3.74915
# Velocity P-wave (km/s) = 6.88168 7.03281 6.95765
#
# Compressibility (1/GPa) = 0.01818431
#
# Stress axis : x y z
#
# Youngs Moduli (GPa) = 70.10934 53.43276 75.31711
#
# Poissons Ratio (x) = 0.33681 0.37174
# Poissons Ratio (y) = 0.44194 0.21062
# Poissons Ratio (z) = 0.34604 0.14943
#
# Static dielectric constant tensor:
#      x y z
#    x 3.556140 0.000000 0.000000 
#    y 0.000000 3.452090 0.000000 
#    z 0.000000 0.000000 3.745240 
# 
# 
# High freq. dielectric constant tensor:
#      x y z
#    x 1.743200 0.000000 0.000000 
#    y 0.000000 1.731720 0.000000 
#    z 0.000000 0.000000 1.748340 
# 
# From -- ./inp_files/8591.got.cif
#   From: 2010.03.12/outbox.cif.g09.slc.cpg/sg51_5_cif.got.tgz:8591.got - 2010.04.16 13:43:02.
