data_PCOD8214379
_publ_section_title
;
Structure prediction by ZEFSAII (Michael W. Deem and Ramdas Pophale) SiO2 
 PCOD8214379
Probable space group: P M M A
;
_chemical_formula_sum "Si O2"
_cell_formula_units_Z 48
_cell_length_a 20.051101
_cell_length_b 13.828530
_cell_length_c 9.104744
_cell_angle_alpha 90.000000
_cell_angle_beta 90.000000
_cell_angle_gamma 90.000000
_cell_volume 2524.538394
_symmetry_space_group_name_H-M "P M M A"
_symmetry_group_IT_number 51
_symmetry_cell_setting 'orthorhombic'
loop_
_space_group_symop_operation_xyz
x,y,z
1/2-x,-y,z
1/2+x,-y,-z
-x,y,-z
-x,-y,-z
1/2+x,y,-z
1/2-x,y,z
x,-y,z
loop_
_atom_site_type_symbol
_atom_site_label
_atom_site_fract_x
_atom_site_fract_y
_atom_site_fract_z
Si Si1 0.435578 0.612772 0.587411
Si Si2 0.937801 0.295584 0.103515
Si Si3 0.958898 0.891337 0.273683
Si Si4 0.827265 0.611605 0.914483
Si Si5 0.173494 0.296457 0.394337
Si Si6 0.899545 0.108686 0.591315
O O1 0.500000 0.652048 0.500000
O O2 0.425653 0.500000 0.562722
O O3 0.446663 0.635600 0.756955
O O4 0.370064 0.666585 0.530013
O O5 0.934769 0.182973 0.149422
O O6 0.869243 0.320856 0.022458
O O7 0.000000 0.317586 0.000000
O O8 0.918392 0.872837 0.422365
O O9 0.036867 0.875229 0.304700
O O10 0.946030 0.000000 0.215441
O O11 0.750000 0.630004 0.951122
O O12 0.847009 0.500000 0.937924
O O13 0.843076 0.638975 0.746989
O O14 0.250000 0.306110 0.441100
O O15 0.157035 0.184255 0.360301
O O16 0.871748 0.000000 0.611188
#
# Coordination Sequence:
#
# PCOD8214379 Si02
#       6
#     8   8   8   8   8   8
#     4  11  23  38  58  85 116 149 196 250 295 345
#     4  12  23  36  60  87 119 153 193 241 291 349
#     4   9  18  34  59  88 118 152 191 237 288 343
#     4  10  23  42  59  79 115 160 200 239 294 360
#     4  11  22  38  62  88 115 152 198 250 300 347
#     4   9  17  34  60  88 119 151 187 237 294 347
#
# _framework density 19.013376999999998
#
# number of rings (size 3 to 8) (size 9 to 14) (size 15 to 20)
#    0.000    1.667    1.667    5.000    0.000    5.000 
#    0.000    0.833    0.000    1.500    0.000    0.000 
#    0.000    0.000    0.000    0.000    0.000    0.000 
#
# Total GULP energy -595394.124749 kJ/mol
# GULP energy per Si atom -12404.044266 kJ/mol
# Density = 1.897010 g / cm^3
# Si number density = 19.013377 Si / 1000 Ang^3
#
#
#
# Elastic Constant Matrix: (Units=GPa)
#
#
# Indices 1 2 3 4 5 6 
#
# 1 97.5798 61.6043 55.9164 0.0000 0.0000 0.0000
# 2 61.6043 118.2246 48.9470 0.0000 0.0000 0.0000
# 3 55.9164 48.9470 90.1183 0.0000 0.0000 0.0000
# 4 0.0000 0.0000 0.0000 38.0152 0.0000 0.0000
# 5 0.0000 0.0000 0.0000 0.0000 31.2719 0.0000
# 6 0.0000 0.0000 0.0000 0.0000 0.0000 17.9013
#
#
#
# Elastic Compliance Matrix: (Units=1/GPa)
#
#
# Indices 1 2 3 4 5 6 
#
# 1 0.019143 -0.006524 -0.008334 0.000000 0.000000 0.000000
# 2 -0.006524 0.013136 -0.003086 0.000000 0.000000 0.000000
# 3 -0.008334 -0.003086 0.017944 0.000000 0.000000 0.000000
# 4 0.000000 0.000000 0.000000 0.026305 0.000000 0.000000
# 5 0.000000 0.000000 0.000000 0.000000 0.031978 0.000000
# 6 0.000000 0.000000 0.000000 0.000000 0.000000 0.055862
#
#
# Mechanical properties :
#
#
# Convention : Reuss Voigt Hill
#
# Bulk Modulus (GPa) = 69.76900 70.98423 70.37662
# Shear Modulus (GPa) = 24.38610 26.73466 25.56038
#
# Velocity S-wave (km/s) = 3.58519 3.75386 3.67050
# Velocity P-wave (km/s) = 7.34251 7.49690 7.42011
#
# Compressibility (1/GPa) = 0.01433301
#
# Stress axis : x y z
#
# Youngs Moduli (GPa) = 52.23940 76.12626 55.72926
#
# Poissons Ratio (x) = 0.49668 0.46444
# Poissons Ratio (y) = 0.34083 0.17201
# Poissons Ratio (z) = 0.43536 0.23496
#
# Static dielectric constant tensor:
#      x y z
#    x 3.347100 0.000000 0.000000 
#    y 0.000000 3.685580 0.000000 
#    z 0.000000 0.000000 3.351690 
# 
# 
# High freq. dielectric constant tensor:
#      x y z
#    x 1.725000 0.000000 0.000000 
#    y 0.000000 1.758050 0.000000 
#    z 0.000000 0.000000 1.730820 
# 
# From -- ./inp_files/9668.got.cif
#   From: 2010.03.12/outbox.cif.g09.slc.cpg/sg51_5_cif.got.tgz:9668.got - 2010.04.16 13:43:02.
