data_PCOD8214444
_publ_section_title
;
Structure prediction by ZEFSAII (Michael W. Deem and Ramdas Pophale) SiO2 
 PCOD8214444
Probable space group: P M M A
;
_chemical_formula_sum "Si O2"
_cell_formula_units_Z 48
_cell_length_a 18.255882
_cell_length_b 11.865732
_cell_length_c 12.817779
_cell_angle_alpha 90.000000
_cell_angle_beta 90.000000
_cell_angle_gamma 90.000000
_cell_volume 2776.579638
_symmetry_space_group_name_H-M "P M M A"
_symmetry_group_IT_number 51
_symmetry_cell_setting 'orthorhombic'
loop_
_space_group_symop_operation_xyz
x,y,z
1/2-x,-y,z
1/2+x,-y,-z
-x,y,-z
-x,-y,-z
1/2+x,y,-z
1/2-x,y,z
x,-y,z
loop_
_atom_site_type_symbol
_atom_site_label
_atom_site_fract_x
_atom_site_fract_y
_atom_site_fract_z
Si Si1 0.662634 0.875888 0.085483
Si Si2 0.335486 0.131769 0.679645
Si Si3 0.545310 0.500000 0.291238
Si Si4 0.926350 0.310784 0.447245
Si Si5 0.669265 0.500000 0.133838
Si Si6 0.106241 0.500000 0.199684
Si Si7 0.662863 0.500000 0.568201
Si Si8 0.665686 0.673819 0.957299
O O1 0.750000 0.875027 0.085603
O O2 0.637968 0.839028 0.202173
O O3 0.632062 0.000000 0.060355
O O4 0.634263 0.796494 0.990337
O O5 0.250000 0.160595 0.666049
O O6 0.380519 0.206449 0.597709
O O7 0.349619 0.000000 0.656070
O O8 0.539238 0.611913 0.358213
O O9 0.622544 0.500000 0.236454
O O10 0.480486 0.500000 0.208473
O O11 0.874178 0.387317 0.521004
O O12 0.000000 0.261051 0.500000
O O13 0.750000 0.500000 0.180410
O O14 0.654893 0.608678 0.064820
O O15 0.149413 0.500000 0.308038
O O16 0.123995 0.385429 0.137117
O O17 0.750000 0.500000 0.545448
O O18 0.750000 0.677153 0.922814
#
# Coordination Sequence:
#
# PCOD8214444 Si02
#       8
#     8   8   4   8   4   4   4   8
#     4   8  14  27  48  75 104 129 157 205 261 302
#     4   9  18  33  56  83 104 128 169 213 256 314
#     4  11  21  34  51  72 108 134 169 214 259 316
#     4  11  21  36  51  74 107 136 167 218 267 312
#     4   9  18  30  47  73  99 123 157 209 259 302
#     4  11  20  34  48  70 104 145 173 210 246 295
#     4  11  21  36  56  75  99 142 182 216 257 298
#     4   9  17  29  47  73 101 131 173 210 244 302
#
# _framework density 17.287457
#
# number of rings (size 3 to 8) (size 9 to 14) (size 15 to 20)
#    0.000    2.333    1.667    4.250    0.000    5.000 
#    0.000    0.000    0.000    2.000    0.000    5.833 
#    0.000    0.000    0.000    0.000    0.000    0.000 
#
# Total GULP energy -594829.591847 kJ/mol
# GULP energy per Si atom -12392.283163 kJ/mol
# Density = 1.724811 g / cm^3
# Si number density = 17.287457 Si / 1000 Ang^3
#
#
#
# Elastic Constant Matrix: (Units=GPa)
#
#
# Indices 1 2 3 4 5 6 
#
# 1 83.9257 47.3971 50.8875 0.0000 0.0000 0.0000
# 2 47.3971 113.3360 64.7124 0.0000 0.0000 0.0000
# 3 50.8875 64.7124 106.2629 0.0000 0.0000 0.0000
# 4 0.0000 0.0000 0.0000 23.6816 0.0000 0.0000
# 5 0.0000 0.0000 0.0000 0.0000 34.1750 0.0000
# 6 0.0000 0.0000 0.0000 0.0000 0.0000 49.3163
#
#
#
# Elastic Compliance Matrix: (Units=1/GPa)
#
#
# Indices 1 2 3 4 5 6 
#
# 1 0.017884 -0.003969 -0.006147 0.000000 0.000000 0.000000
# 2 -0.003969 0.014408 -0.006873 0.000000 0.000000 0.000000
# 3 -0.006147 -0.006873 0.016540 0.000000 0.000000 0.000000
# 4 0.000000 0.000000 0.000000 0.042227 0.000000 0.000000
# 5 0.000000 0.000000 0.000000 0.000000 0.029261 0.000000
# 6 0.000000 0.000000 0.000000 0.000000 0.000000 0.020277
#
#
# Mechanical properties :
#
#
# Convention : Reuss Voigt Hill
#
# Bulk Modulus (GPa) = 67.32833 69.94652 68.63742
# Shear Modulus (GPa) = 27.85081 30.80308 29.32695
#
# Velocity S-wave (km/s) = 4.01813 4.22574 4.12324
# Velocity P-wave (km/s) = 7.78191 8.02233 7.90303
#
# Compressibility (1/GPa) = 0.01485259
#
# Stress axis : x y z
#
# Youngs Moduli (GPa) = 55.91513 69.40700 60.45888
#
# Poissons Ratio (x) = 0.27549 0.37166
# Poissons Ratio (y) = 0.22194 0.41555
# Poissons Ratio (z) = 0.34372 0.47706
#
# Static dielectric constant tensor:
#      x y z
#    x 3.060740 0.000000 0.000000 
#    y 0.000000 3.419180 0.000000 
#    z 0.000000 0.000000 3.166870 
# 
# 
# High freq. dielectric constant tensor:
#      x y z
#    x 1.651360 0.000000 0.000000 
#    y 0.000000 1.666770 0.000000 
#    z 0.000000 0.000000 1.661990 
# 
# From -- ./inp_files/18189.got.cif
#   From: 2010.03.12/outbox.cif.g09.slc.cpg/sg51_10_cif.got.tgz:18189.got - 2010.04.16 13:43:02.
