data_PCOD8214792
_publ_section_title
;
Structure prediction by ZEFSAII (Michael W. Deem and Ramdas Pophale) SiO2 
 PCOD8214792
Probable space group: P M M A
;
_chemical_formula_sum "Si O2"
_cell_formula_units_Z 64
_cell_length_a 22.969835
_cell_length_b 9.612090
_cell_length_c 19.989007
_cell_angle_alpha 90.000000
_cell_angle_beta 90.000000
_cell_angle_gamma 90.000000
_cell_volume 4413.335302
_symmetry_space_group_name_H-M "P M M A"
_symmetry_group_IT_number 51
_symmetry_cell_setting 'orthorhombic'
loop_
_space_group_symop_operation_xyz
x,y,z
1/2-x,-y,z
1/2+x,-y,-z
-x,y,-z
-x,-y,-z
1/2+x,y,-z
1/2-x,y,z
x,-y,z
loop_
_atom_site_type_symbol
_atom_site_label
_atom_site_fract_x
_atom_site_fract_y
_atom_site_fract_z
Si Si1 0.065542 0.341957 0.474328
Si Si2 0.976485 0.159775 0.793483
Si Si3 0.608126 0.837779 0.169779
Si Si4 0.315444 0.165403 0.708238
Si Si5 0.551212 0.656369 0.909035
Si Si6 0.582939 0.343082 0.051870
Si Si7 0.470363 0.840894 0.358312
Si Si8 0.899797 0.160856 0.407764
O O1 0.088672 0.500000 0.466355
O O2 0.068160 0.262614 0.403377
O O3 0.105211 0.257339 0.526712
O O4 0.000000 0.341445 0.500000
O O5 0.936606 0.246216 0.845200
O O6 0.957068 0.197059 0.718427
O O7 0.044464 0.194978 0.801183
O O8 0.964896 0.000000 0.809910
O O9 0.654059 0.780331 0.224068
O O10 0.619752 0.758120 0.099925
O O11 0.616722 0.000000 0.155351
O O12 0.250000 0.224759 0.704814
O O13 0.350444 0.215618 0.642934
O O14 0.316428 0.000000 0.709576
O O15 0.568605 0.500000 0.889060
O O16 0.483991 0.664581 0.927860
O O17 0.588717 0.704126 0.974039
O O18 0.606349 0.500000 0.060441
O O19 0.538658 0.820837 0.371306
O O20 0.452700 0.000000 0.374591
O O21 0.890256 0.000000 0.428621
#
# Coordination Sequence:
#
# PCOD8214792 Si02
#       8
#     8   8   8   8   8   8   8   8
#     4   9  17  26  36  53  73  92 120 156 189 223
#     4   9  15  22  34  52  74  96 122 154 184 215
#     4   9  15  24  37  53  70  92 124 159 190 219
#     4   9  16  26  41  59  76  96 127 165 198 227
#     4   8  14  23  33  47  68  94 123 150 178 215
#     4   8  14  24  35  47  66  93 123 152 182 217
#     4   9  15  24  37  53  73  98 125 152 184 225
#     4   9  15  26  41  53  69  96 126 155 189 227
#
# _framework density 14.501504000000001
#
# number of rings (size 3 to 8) (size 9 to 14) (size 15 to 20)
#    0.000    3.250    1.250    1.125    0.000    2.500 
#    0.000    3.125    0.000    1.500    0.000    0.000 
#    0.000    0.000    0.000    1.125    0.000   21.750 
#
# Total GULP energy -793231.297750 kJ/mol
# GULP energy per Si atom -12394.239027 kJ/mol
# Density = 1.446850 g / cm^3
# Si number density = 14.501504 Si / 1000 Ang^3
#
#
#
# Elastic Constant Matrix: (Units=GPa)
#
#
# Indices 1 2 3 4 5 6 
#
# 1 35.0814 23.3712 38.9032 0.0000 0.0000 0.0000
# 2 23.3712 76.6702 73.1531 0.0000 0.0000 0.0000
# 3 38.9032 73.1531 143.0313 0.0000 0.0000 0.0000
# 4 0.0000 0.0000 0.0000 20.5537 0.0000 0.0000
# 5 0.0000 0.0000 0.0000 0.0000 12.3876 0.0000
# 6 0.0000 0.0000 0.0000 0.0000 0.0000 6.5566
#
#
#
# Elastic Compliance Matrix: (Units=1/GPa)
#
#
# Indices 1 2 3 4 5 6 
#
# 1 0.041335 -0.003658 -0.009372 0.000000 0.000000 0.000000
# 2 -0.003658 0.025797 -0.012199 0.000000 0.000000 0.000000
# 3 -0.009372 -0.012199 0.015780 0.000000 0.000000 0.000000
# 4 0.000000 0.000000 0.000000 0.048653 0.000000 0.000000
# 5 0.000000 0.000000 0.000000 0.000000 0.080726 0.000000
# 6 0.000000 0.000000 0.000000 0.000000 0.000000 0.152518
#
#
# Mechanical properties :
#
#
# Convention : Reuss Voigt Hill
#
# Bulk Modulus (GPa) = 30.81281 58.40422 44.60852
# Shear Modulus (GPa) = 11.73473 15.85660 13.79567
#
# Velocity S-wave (km/s) = 2.84774 3.31032 3.08770
# Velocity P-wave (km/s) = 5.66630 7.41437 6.59848
#
# Compressibility (1/GPa) = 0.03245403
#
# Stress axis : x y z
#
# Youngs Moduli (GPa) = 24.19262 38.76347 63.37262
#
# Poissons Ratio (x) = 0.14181 0.59391
# Poissons Ratio (y) = 0.08850 0.77309
# Poissons Ratio (z) = 0.22673 0.47288
#
# Static dielectric constant tensor:
#      x y z
#    x 2.378500 0.000000 0.000000 
#    y 0.000000 2.845540 0.000000 
#    z 0.000000 0.000000 3.095320 
# 
# 
# High freq. dielectric constant tensor:
#      x y z
#    x 1.481220 0.000000 0.000000 
#    y 0.000000 1.546890 0.000000 
#    z 0.000000 0.000000 1.565400 
# 
# From -- ./inp_files/34110.got.cif
#   From: 2010.03.12/outbox.cif.g09.slc.cpg/sg51_18_cif.got.tgz:34110.got - 2010.04.16 13:43:02.
