data_PCOD8214126
_publ_section_title
;
Structure prediction by ZEFSAII (Michael W. Deem and Ramdas Pophale) SiO2 
 PCOD8214126
Probable space group: P M M A
;
_chemical_formula_sum "Si O2"
_cell_formula_units_Z 40
_cell_length_a 8.596440
_cell_length_b 25.126970
_cell_length_c 9.230911
_cell_angle_alpha 90.000000
_cell_angle_beta 90.000000
_cell_angle_gamma 90.000000
_cell_volume 1993.899761
_symmetry_space_group_name_H-M "P M M A"
_symmetry_group_IT_number 51
_symmetry_cell_setting 'orthorhombic'
loop_
_space_group_symop_operation_xyz
x,y,z
1/2-x,-y,z
1/2+x,-y,-z
-x,y,-z
-x,-y,-z
1/2+x,y,-z
1/2-x,y,z
x,-y,z
loop_
_atom_site_type_symbol
_atom_site_label
_atom_site_fract_x
_atom_site_fract_y
_atom_site_fract_z
Si Si1 0.932894 0.059265 0.348085
Si Si2 0.934296 0.157294 0.159264
Si Si3 0.434100 0.746402 0.340461
Si Si4 0.568134 0.438197 0.653559
Si Si5 0.933673 0.650389 0.158534
O O1 0.750000 0.058097 0.365055
O O2 0.983008 0.099733 0.222218
O O3 0.000000 0.079824 0.500000
O O4 0.996799 0.000000 0.310324
O O5 0.750000 0.166204 0.160427
O O6 0.015518 0.201965 0.253419
O O7 0.000000 0.161338 0.000000
O O8 0.500000 0.751480 0.500000
O O9 0.250000 0.742101 0.345272
O O10 0.501526 0.693989 0.267422
O O11 0.500000 0.418992 0.500000
O O12 0.750000 0.425589 0.655070
O O13 0.532083 0.500000 0.679083
O O14 0.484981 0.407347 0.783964
O O15 0.750000 0.654227 0.151133
O O16 0.000000 0.660845 0.000000
#
# Coordination Sequence:
#
# PCOD8214126 Si02
#       5
#     8   8   8   8   8
#     4   9  19  36  58  84 115 152 195 242 291 346
#     4  11  23  39  59  86 120 156 196 242 295 351
#     4  12  25  43  65  89 118 153 196 242 293 351
#     4  10  21  39  63  91 123 160 202 246 293 347
#     4  12  25  42  63  89 122 158 198 244 297 352
#
# _framework density 20.061188999999999
#
# number of rings (size 3 to 8) (size 9 to 14) (size 15 to 20)
#    0.000    1.200    0.000    6.600    0.000    5.200 
#    0.000    0.000    0.000    0.000    0.000    0.000 
#    0.000    0.000    0.000    0.000    0.000    0.000 
#
# Total GULP energy -496214.361437 kJ/mol
# GULP energy per Si atom -12405.359036 kJ/mol
# Density = 2.001553 g / cm^3
# Si number density = 20.061189 Si / 1000 Ang^3
#
#
#
# Elastic Constant Matrix: (Units=GPa)
#
#
# Indices 1 2 3 4 5 6 
#
# 1 136.6416 51.7829 53.5124 0.0000 0.0000 0.0000
# 2 51.7829 107.0818 64.7642 0.0000 0.0000 0.0000
# 3 53.5124 64.7642 152.4436 0.0000 0.0000 0.0000
# 4 0.0000 0.0000 0.0000 37.1543 0.0000 0.0000
# 5 0.0000 0.0000 0.0000 0.0000 41.1730 0.0000
# 6 0.0000 0.0000 0.0000 0.0000 0.0000 24.6679
#
#
#
# Elastic Compliance Matrix: (Units=1/GPa)
#
#
# Indices 1 2 3 4 5 6 
#
# 1 0.009324 -0.003404 -0.001827 0.000000 0.000000 0.000000
# 2 -0.003404 0.013811 -0.004672 0.000000 0.000000 0.000000
# 3 -0.001827 -0.004672 0.009186 0.000000 0.000000 0.000000
# 4 0.000000 0.000000 0.000000 0.026915 0.000000 0.000000
# 5 0.000000 0.000000 0.000000 0.000000 0.024288 0.000000
# 6 0.000000 0.000000 0.000000 0.000000 0.000000 0.040539
#
#
# Mechanical properties :
#
#
# Convention : Reuss Voigt Hill
#
# Bulk Modulus (GPa) = 79.90924 81.80957 80.85940
# Shear Modulus (GPa) = 33.77477 35.67289 34.72383
#
# Velocity S-wave (km/s) = 4.10761 4.22145 4.16492
# Velocity P-wave (km/s) = 7.90037 8.03924 7.97011
#
# Compressibility (1/GPa) = 0.01251420
#
# Stress axis : x y z
#
# Youngs Moduli (GPa) = 107.25196 72.40770 108.86005
#
# Poissons Ratio (x) = 0.24647 0.19887
# Poissons Ratio (y) = 0.36508 0.50864
# Poissons Ratio (z) = 0.19593 0.33832
#
# Static dielectric constant tensor:
#      x y z
#    x 3.807310 0.000000 0.000000 
#    y 0.000000 4.096610 0.000000 
#    z 0.000000 0.000000 3.708680 
# 
# 
# High freq. dielectric constant tensor:
#      x y z
#    x 1.797270 0.000000 0.000000 
#    y 0.000000 1.799670 0.000000 
#    z 0.000000 0.000000 1.790520 
# 
# From -- ./inp_files/5212.got.cif
#   From: 2010.03.12/outbox.cif.g09.slc.cpg/sg51_3_cif.got.tgz:5212.got - 2010.04.16 13:43:02.
