data_PCOD8214674
_publ_section_title
;
Structure prediction by ZEFSAII (Michael W. Deem and Ramdas Pophale) SiO2 
 PCOD8214674
Probable space group: P M M A
;
_chemical_formula_sum "Si O2"
_cell_formula_units_Z 40
_cell_length_a 13.959372
_cell_length_b 10.270214
_cell_length_c 15.650309
_cell_angle_alpha 90.000000
_cell_angle_beta 90.000000
_cell_angle_gamma 90.000000
_cell_volume 2243.718096
_symmetry_space_group_name_H-M "P M M A"
_symmetry_group_IT_number 51
_symmetry_cell_setting 'orthorhombic'
loop_
_space_group_symop_operation_xyz
x,y,z
1/2-x,-y,z
1/2+x,-y,-z
-x,y,-z
-x,-y,-z
1/2+x,y,-z
1/2-x,y,z
x,-y,z
loop_
_atom_site_type_symbol
_atom_site_label
_atom_site_fract_x
_atom_site_fract_y
_atom_site_fract_z
Si Si1 0.355149 0.653901 0.975034
Si Si2 0.750000 0.500000 0.468695
Si Si3 0.951114 0.251657 0.677313
Si Si4 0.041585 0.000000 0.595346
Si Si5 0.750000 0.000000 0.467510
Si Si6 0.456943 0.500000 0.593607
Si Si7 0.471670 0.654228 0.138006
Si Si8 0.750000 0.750367 0.586762
O O1 0.250000 0.715783 0.960935
O O2 0.349745 0.500000 0.979351
O O3 0.422470 0.692327 0.895627
O O4 0.396943 0.700452 0.065782
O O5 0.842071 0.500000 0.407739
O O6 0.750000 0.624789 0.528240
O O7 0.949686 0.259603 0.779388
O O8 0.842313 0.250430 0.646450
O O9 0.006173 0.124645 0.646514
O O10 0.008821 0.373468 0.642180
O O11 0.156761 0.000000 0.592633
O O12 0.000000 0.000000 0.500000
O O13 0.750000 0.875170 0.527364
O O14 0.500000 0.500000 0.500000
O O15 0.463169 0.500000 0.157892
#
# Coordination Sequence:
#
# PCOD8214674 Si02
#       8
#     8   2   8   4   2   4   8   4
#     4   8  15  31  54  78 113 154 183 218 280 349
#     4  12  24  36  56  80 110 154 186 232 310 348
#     4  12  23  38  59  86 116 148 191 249 283 340
#     4  12  24  44  62  79 112 157 198 238 286 341
#     4  12  24  44  64  76 102 160 212 230 284 348
#     4  12  22  40  54  81 118 147 186 240 302 337
#     4   9  18  33  52  84 119 145 183 234 284 334
#     4  12  22  36  60  84 108 147 199 241 291 338
#
# _framework density 17.827552000000001
#
# number of rings (size 3 to 8) (size 9 to 14) (size 15 to 20)
#    0.000    1.400    5.000    3.000    1.400    0.000 
#    3.600    0.000    0.000    2.400    0.000    1.400 
#    0.000    0.000    0.000    0.000    0.000    0.000 
#
# Total GULP energy -496007.428380 kJ/mol
# GULP energy per Si atom -12400.185710 kJ/mol
# Density = 1.778698 g / cm^3
# Si number density = 17.827552 Si / 1000 Ang^3
#
#
#
# Elastic Constant Matrix: (Units=GPa)
#
#
# Indices 1 2 3 4 5 6 
#
# 1 186.4848 45.4677 55.3868 0.0000 0.0000 0.0000
# 2 45.4677 110.9548 49.3308 0.0000 0.0000 0.0000
# 3 55.3868 49.3308 103.5669 0.0000 0.0000 0.0000
# 4 0.0000 0.0000 0.0000 29.9655 0.0000 0.0000
# 5 0.0000 0.0000 0.0000 0.0000 15.5747 0.0000
# 6 0.0000 0.0000 0.0000 0.0000 0.0000 25.1821
#
#
#
# Elastic Compliance Matrix: (Units=1/GPa)
#
#
# Indices 1 2 3 4 5 6 
#
# 1 0.006549 -0.001429 -0.002822 0.000000 0.000000 0.000000
# 2 -0.001429 0.011746 -0.004831 0.000000 0.000000 0.000000
# 3 -0.002822 -0.004831 0.013465 0.000000 0.000000 0.000000
# 4 0.000000 0.000000 0.000000 0.033372 0.000000 0.000000
# 5 0.000000 0.000000 0.000000 0.000000 0.064207 0.000000
# 6 0.000000 0.000000 0.000000 0.000000 0.000000 0.039711
#
#
# Mechanical properties :
#
#
# Convention : Reuss Voigt Hill
#
# Bulk Modulus (GPa) = 73.54136 77.93078 75.73607
# Shear Modulus (GPa) = 26.07637 30.86588 28.47112
#
# Velocity S-wave (km/s) = 3.82868 4.16547 4.00062
# Velocity P-wave (km/s) = 7.80295 8.18190 7.99467
#
# Compressibility (1/GPa) = 0.01359779
#
# Stress axis : x y z
#
# Youngs Moduli (GPa) = 152.69920 85.13541 74.26438
#
# Poissons Ratio (x) = 0.12167 0.20954
# Poissons Ratio (y) = 0.21823 0.35874
# Poissons Ratio (z) = 0.43085 0.41125
#
# Static dielectric constant tensor:
#      x y z
#    x 4.294400 0.000000 0.000000 
#    y 0.000000 3.107890 0.000000 
#    z 0.000000 0.000000 3.289540 
# 
# 
# High freq. dielectric constant tensor:
#      x y z
#    x 1.709720 0.000000 0.000000 
#    y 0.000000 1.664250 0.000000 
#    z 0.000000 0.000000 1.687770 
# 
# From -- ./inp_files/23897.got.cif
#   From: 2010.03.12/outbox.cif.g09.slc.cpg/sg51_12_cif.got.tgz:23897.got - 2010.04.16 13:43:02.
