data_PCOD8214886
_publ_section_title
;
Structure prediction by ZEFSAII (Michael W. Deem and Ramdas Pophale) SiO2 
 PCOD8214886
Probable space group: P M M A
;
_chemical_formula_sum "Si O2"
_cell_formula_units_Z 48
_cell_length_a 9.295504
_cell_length_b 9.359692
_cell_length_c 30.995100
_cell_angle_alpha 90.000000
_cell_angle_beta 90.000000
_cell_angle_gamma 90.000000
_cell_volume 2696.668372
_symmetry_space_group_name_H-M "P M M A"
_symmetry_group_IT_number 51
_symmetry_cell_setting 'orthorhombic'
loop_
_space_group_symop_operation_xyz
x,y,z
1/2-x,-y,z
1/2+x,-y,-z
-x,y,-z
-x,-y,-z
1/2+x,y,-z
1/2-x,y,z
x,-y,z
loop_
_atom_site_type_symbol
_atom_site_label
_atom_site_fract_x
_atom_site_fract_y
_atom_site_fract_z
Si Si1 0.083329 0.165793 0.374841
Si Si2 0.578970 0.661424 0.208060
Si Si3 0.582795 0.334342 0.541952
Si Si4 0.417552 0.833670 0.874948
Si Si5 0.418571 0.835057 0.709800
Si Si6 0.912644 0.169957 0.959118
O O1 0.250000 0.198995 0.366530
O O2 0.025288 0.250487 0.416334
O O3 0.997022 0.219636 0.333161
O O4 0.054552 0.000000 0.383556
O O5 0.750000 0.663120 0.208632
O O6 0.518870 0.500000 0.207547
O O7 0.524586 0.744519 0.165774
O O8 0.521072 0.742319 0.250425
O O9 0.500000 0.276734 0.500000
O O10 0.750000 0.304059 0.534310
O O11 0.549717 0.500000 0.549791
O O12 0.250000 0.804824 0.884441
O O13 0.507543 0.779092 0.915885
O O14 0.444605 0.000000 0.865160
O O15 0.250000 0.811807 0.703028
O O16 0.455101 0.000000 0.719450
O O17 0.750000 0.230300 0.959763
O O18 0.910796 0.000000 0.961287
O O19 0.000000 0.231880 0.000000
#
# Coordination Sequence:
#
# PCOD8214886 Si02
#       6
#     8   8   8   8   8   8
#     4   9  18  32  48  67  92 120 148 181 224 270
#     4   9  17  29  46  68  92 118 150 187 224 263
#     4   9  18  32  48  66  90 120 152 185 222 265
#     4   9  16  27  45  67  90 118 150 183 222 266
#     4   9  17  30  48  69  92 118 150 187 224 264
#     4   9  16  26  42  66  94 120 148 185 226 266
#
# _framework density 17.799742999999999
#
# number of rings (size 3 to 8) (size 9 to 14) (size 15 to 20)
#    0.000    3.000    0.000    1.000    0.000    5.667 
#    0.000    0.833    0.000    6.000    0.000    0.000 
#    0.000    0.000    0.000    0.000    0.000    0.000 
#
# Total GULP energy -595223.200425 kJ/mol
# GULP energy per Si atom -12400.483342 kJ/mol
# Density = 1.775923 g / cm^3
# Si number density = 17.799743 Si / 1000 Ang^3
#
#
#
# Elastic Constant Matrix: (Units=GPa)
#
#
# Indices 1 2 3 4 5 6 
#
# 1 62.4684 31.0180 69.6236 0.0000 0.0000 0.0000
# 2 31.0180 67.4450 76.3756 0.0000 0.0000 0.0000
# 3 69.6236 76.3756 208.0289 0.0000 0.0000 0.0000
# 4 0.0000 0.0000 0.0000 11.0028 0.0000 0.0000
# 5 0.0000 0.0000 0.0000 0.0000 33.3619 0.0000
# 6 0.0000 0.0000 0.0000 0.0000 0.0000 13.0845
#
#
#
# Elastic Compliance Matrix: (Units=1/GPa)
#
#
# Indices 1 2 3 4 5 6 
#
# 1 0.026034 -0.003605 -0.007390 0.000000 0.000000 0.000000
# 2 -0.003605 0.025877 -0.008294 0.000000 0.000000 0.000000
# 3 -0.007390 -0.008294 0.010325 0.000000 0.000000 0.000000
# 4 0.000000 0.000000 0.000000 0.090886 0.000000 0.000000
# 5 0.000000 0.000000 0.000000 0.000000 0.029974 0.000000
# 6 0.000000 0.000000 0.000000 0.000000 0.000000 0.076427
#
#
# Mechanical properties :
#
#
# Convention : Reuss Voigt Hill
#
# Bulk Modulus (GPa) = 42.26677 76.88632 59.57654
# Shear Modulus (GPa) = 16.34058 22.21818 19.27938
#
# Velocity S-wave (km/s) = 3.03318 3.53686 3.29466
# Velocity P-wave (km/s) = 6.00534 7.74391 6.92937
#
# Compressibility (1/GPa) = 0.02365925
#
# Stress axis : x y z
#
# Youngs Moduli (GPa) = 38.41105 38.64438 96.85005
#
# Poissons Ratio (x) = 0.13931 0.71569
# Poissons Ratio (y) = 0.13847 0.80327
# Poissons Ratio (z) = 0.28384 0.32051
#
# Static dielectric constant tensor:
#      x y z
#    x 3.130550 0.000000 0.000000 
#    y 0.000000 3.136140 0.000000 
#    z 0.000000 0.000000 3.517730 
# 
# 
# High freq. dielectric constant tensor:
#      x y z
#    x 1.666470 0.000000 0.000000 
#    y 0.000000 1.663880 0.000000 
#    z 0.000000 0.000000 1.703050 
# 
# From -- ./inp_files/35301.got.cif
#   From: 2010.03.12/outbox.cif.g09.slc.cpg/sg51_18_cif.got.tgz:35301.got - 2010.04.16 13:43:02.
