data_PCOD8214106
_publ_section_title
;
Structure prediction by ZEFSAII (Michael W. Deem and Ramdas Pophale) SiO2 
 PCOD8214106
Probable space group: P M M A
;
_chemical_formula_sum "Si O2"
_cell_formula_units_Z 48
_cell_length_a 30.739823
_cell_length_b 8.754541
_cell_length_c 8.889497
_cell_angle_alpha 90.000000
_cell_angle_beta 90.000000
_cell_angle_gamma 90.000000
_cell_volume 2392.279569
_symmetry_space_group_name_H-M "P M M A"
_symmetry_group_IT_number 51
_symmetry_cell_setting 'orthorhombic'
loop_
_space_group_symop_operation_xyz
x,y,z
1/2-x,-y,z
1/2+x,-y,-z
-x,y,-z
-x,-y,-z
1/2+x,y,-z
1/2-x,y,z
x,-y,z
loop_
_atom_site_type_symbol
_atom_site_label
_atom_site_fract_x
_atom_site_fract_y
_atom_site_fract_z
Si Si1 0.832793 0.178894 0.674448
Si Si2 0.831775 0.177914 0.328972
Si Si3 0.582482 0.176218 0.146409
Si Si4 0.495190 0.824174 0.326563
Si Si5 0.414851 0.322563 0.171443
Si Si6 0.750000 0.680490 0.831212
Si Si7 0.250000 0.320239 0.830390
O O1 0.837388 0.227824 0.501327
O O2 0.876465 0.222480 0.760020
O O3 0.792441 0.265147 0.745368
O O4 0.824694 0.000000 0.691740
O O5 0.875704 0.221677 0.243407
O O6 0.792506 0.268720 0.256859
O O7 0.821107 0.000000 0.315872
O O8 0.540810 0.208160 0.247985
O O9 0.584290 0.000000 0.094423
O O10 0.580033 0.284643 0.003338
O O11 0.500000 0.781485 0.500000
O O12 0.459511 0.714823 0.254918
O O13 0.480600 0.000000 0.305996
O O14 0.403782 0.500000 0.190844
O O15 0.750000 0.500000 0.834730
O O16 0.750000 0.747926 0.000631
O O17 0.250000 0.500000 0.838156
#
# Coordination Sequence:
#
# PCOD8214106 Si02
#       7
#     8   8   8   8   8   4   4
#     4  11  23  41  64  89 117 155 202 247 293 349
#     4  10  22  40  63  89 115 148 197 249 292 342
#     4  10  21  39  63  88 116 154 198 245 295 348
#     4  10  21  40  65  90 117 153 199 247 294 351
#     4  12  25  39  58  88 124 159 196 242 295 352
#     4  11  24  41  60  90 126 157 194 241 296 354
#     4  11  24  39  58  86 122 159 192 233 290 354
#
# _framework density 20.064543
#
# number of rings (size 3 to 8) (size 9 to 14) (size 15 to 20)
#    0.000    1.333    0.000    5.500    0.000   13.667 
#    0.000    1.667    0.000    0.000    0.000    0.000 
#    0.000    0.000    0.000    0.000    0.000    0.000 
#
# Total GULP energy -595526.476013 kJ/mol
# GULP energy per Si atom -12406.801584 kJ/mol
# Density = 2.001888 g / cm^3
# Si number density = 20.064543 Si / 1000 Ang^3
#
#
#
# Elastic Constant Matrix: (Units=GPa)
#
#
# Indices 1 2 3 4 5 6 
#
# 1 137.3087 28.8418 53.2028 0.0000 0.0000 0.0000
# 2 28.8418 57.0602 41.1589 0.0000 0.0000 0.0000
# 3 53.2028 41.1589 151.9180 0.0000 0.0000 0.0000
# 4 0.0000 0.0000 0.0000 4.2338 0.0000 0.0000
# 5 0.0000 0.0000 0.0000 0.0000 39.9085 0.0000
# 6 0.0000 0.0000 0.0000 0.0000 0.0000 -8.6560
#
#
#
# Elastic Compliance Matrix: (Units=1/GPa)
#
#
# Indices 1 2 3 4 5 6 
#
# 1 0.008761 -0.002753 -0.002322 0.000000 0.000000 0.000000
# 2 -0.002753 0.022647 -0.005172 0.000000 0.000000 0.000000
# 3 -0.002322 -0.005172 0.008797 0.000000 0.000000 0.000000
# 4 0.000000 0.000000 0.000000 0.236196 0.000000 0.000000
# 5 0.000000 0.000000 0.000000 0.000000 0.025057 0.000000
# 6 0.000000 0.000000 0.000000 0.000000 0.000000 -0.115526
#
#
# Mechanical properties :
#
#
# Convention : Reuss Voigt Hill
#
# Bulk Modulus (GPa) = 50.73286 65.85487 58.29386
# Shear Modulus (GPa) = 23.47454 21.96947 22.72200
#
# Velocity S-wave (km/s) = 3.42417 3.31258 3.36883
# Velocity P-wave (km/s) = 6.40101 6.89374 6.65194
#
# Compressibility (1/GPa) = 0.01971109
#
# Stress axis : x y z
#
# Youngs Moduli (GPa) = 114.14257 44.15508 113.67647
#
# Poissons Ratio (x) = 0.12157 0.26398
# Poissons Ratio (y) = 0.31427 0.58789
# Poissons Ratio (z) = 0.26506 0.22835
#
# Static dielectric constant tensor:
#      x y z
#    x 3.559370 0.000000 0.000000 
#    y 0.000000 3.563860 0.000000 
#    z 0.000000 0.000000 3.939060 
# 
# 
# High freq. dielectric constant tensor:
#      x y z
#    x 1.802140 0.000000 0.000000 
#    y 0.000000 1.776800 0.000000 
#    z 0.000000 0.000000 1.803920 
# 
# From -- ./inp_files/12965.got.cif
#   From: 2010.03.12/outbox.cif.g09.slc.cpg/sg51_7_cif.got.tgz:12965.got - 2010.04.16 13:43:02.
