data_PCOD8214675
_publ_section_title
;
Structure prediction by ZEFSAII (Michael W. Deem and Ramdas Pophale) SiO2 
 PCOD8214675
Probable space group: P M M A
;
_chemical_formula_sum "Si O2"
_cell_formula_units_Z 52
_cell_length_a 9.403110
_cell_length_b 15.204818
_cell_length_c 23.438661
_cell_angle_alpha 90.000000
_cell_angle_beta 90.000000
_cell_angle_gamma 90.000000
_cell_volume 3351.085745
_symmetry_space_group_name_H-M "P M M A"
_symmetry_group_IT_number 51
_symmetry_cell_setting 'orthorhombic'
loop_
_space_group_symop_operation_xyz
x,y,z
1/2-x,-y,z
1/2+x,-y,-z
-x,y,-z
-x,-y,-z
1/2+x,y,-z
1/2-x,y,z
x,-y,z
loop_
_atom_site_type_symbol
_atom_site_label
_atom_site_fract_x
_atom_site_fract_y
_atom_site_fract_z
Si Si1 0.081446 0.500000 0.058987
Si Si2 0.091615 0.653329 0.894691
Si Si3 0.419358 0.097274 0.823542
Si Si4 0.911993 0.270153 0.229590
Si Si5 0.079639 0.401253 0.676954
Si Si6 0.586965 0.840448 0.055230
Si Si7 0.593164 0.395782 0.449061
O O1 0.250000 0.500000 0.050126
O O2 0.033960 0.585547 0.093514
O O3 0.000000 0.500000 0.000000
O O4 0.250000 0.613310 0.905273
O O5 0.076817 0.678241 0.829131
O O6 0.070915 0.736205 0.936008
O O7 0.250000 0.109691 0.825874
O O8 0.480953 0.172371 0.780294
O O9 0.474652 0.111179 0.888289
O O10 0.463841 0.000000 0.801904
O O11 0.750000 0.257140 0.248607
O O12 0.986185 0.329451 0.278828
O O13 0.250000 0.402877 0.679015
O O14 0.024361 0.500000 0.692159
O O15 0.028420 0.373576 0.613384
O O16 0.750000 0.867113 0.044844
O O17 0.500000 0.871465 0.000000
O O18 0.500000 0.354094 0.500000
O O19 0.750000 0.354513 0.454781
O O20 0.602096 0.500000 0.455748
#
# Coordination Sequence:
#
# PCOD8214675 Si02
#       7
#     4   8   8   8   8   8   8
#     4  12  24  34  44  58  76 100 133 168 203 240
#     4   9  18  31  45  60  77 100 131 164 198 237
#     4   8  14  25  39  56  80 104 124 154 198 244
#     4   8  14  24  40  61  80 102 133 164 198 236
#     4   8  13  20  33  56  80 102 132 170 198 221
#     4   9  17  28  42  60  79  99 124 154 192 239
#     4   8  13  21  33  51  77 106 135 164 194 224
#
# _framework density 15.517358
#
# number of rings (size 3 to 8) (size 9 to 14) (size 15 to 20)
#    0.000    3.385    0.000    3.923    1.077    2.154 
#    0.000    0.000    0.000    0.923    0.000    0.000 
#    0.000    0.615    0.000    0.462    0.000    0.923 
#
# Total GULP energy -644213.506638 kJ/mol
# GULP energy per Si atom -12388.721281 kJ/mol
# Density = 1.548204 g / cm^3
# Si number density = 15.517358 Si / 1000 Ang^3
#
#
#
# Elastic Constant Matrix: (Units=GPa)
#
#
# Indices 1 2 3 4 5 6 
#
# 1 41.5665 22.0570 20.9226 0.0000 0.0000 0.0000
# 2 22.0570 94.0038 52.4162 0.0000 0.0000 0.0000
# 3 20.9226 52.4162 104.4807 0.0000 0.0000 0.0000
# 4 0.0000 0.0000 0.0000 12.5962 0.0000 0.0000
# 5 0.0000 0.0000 0.0000 0.0000 17.3908 0.0000
# 6 0.0000 0.0000 0.0000 0.0000 0.0000 7.6535
#
#
#
# Elastic Compliance Matrix: (Units=1/GPa)
#
#
# Indices 1 2 3 4 5 6 
#
# 1 0.028246 -0.004823 -0.003237 0.000000 0.000000 0.000000
# 2 -0.004823 0.015593 -0.006857 0.000000 0.000000 0.000000
# 3 -0.003237 -0.006857 0.013659 0.000000 0.000000 0.000000
# 4 0.000000 0.000000 0.000000 0.079389 0.000000 0.000000
# 5 0.000000 0.000000 0.000000 0.000000 0.057502 0.000000
# 6 0.000000 0.000000 0.000000 0.000000 0.000000 0.130658
#
#
# Mechanical properties :
#
#
# Convention : Reuss Voigt Hill
#
# Bulk Modulus (GPa) = 36.14635 47.87141 42.00888
# Shear Modulus (GPa) = 13.73240 17.17180 15.45210
#
# Velocity S-wave (km/s) = 2.97807 3.33020 3.15904
# Velocity P-wave (km/s) = 5.93042 6.76048 6.35901
#
# Compressibility (1/GPa) = 0.02766531
#
# Stress axis : x y z
#
# Youngs Moduli (GPa) = 35.40282 64.13192 73.20999
#
# Poissons Ratio (x) = 0.30930 0.23697
# Poissons Ratio (y) = 0.17074 0.50199
# Poissons Ratio (z) = 0.11460 0.43975
#
# Static dielectric constant tensor:
#      x y z
#    x 2.676990 0.000000 0.000000 
#    y 0.000000 2.986820 0.000000 
#    z 0.000000 0.000000 3.066880 
# 
# 
# High freq. dielectric constant tensor:
#      x y z
#    x 1.546260 0.000000 0.000000 
#    y 0.000000 1.576420 0.000000 
#    z 0.000000 0.000000 1.586230 
# 
# From -- ./inp_files/34711.got.cif
#   From: 2010.03.12/outbox.cif.g09.slc.cpg/sg51_18_cif.got.tgz:34711.got - 2010.04.16 13:43:02.
