data_PCOD8214518
_publ_section_title
;
Structure prediction by ZEFSAII (Michael W. Deem and Ramdas Pophale) SiO2 
 PCOD8214518
Probable space group: P M M A
;
_chemical_formula_sum "Si O2"
_cell_formula_units_Z 64
_cell_length_a 17.608854
_cell_length_b 15.317714
_cell_length_c 11.710721
_cell_angle_alpha 90.000000
_cell_angle_beta 90.000000
_cell_angle_gamma 90.000000
_cell_volume 3158.702204
_symmetry_space_group_name_H-M "P M M A"
_symmetry_group_IT_number 51
_symmetry_cell_setting 'orthorhombic'
loop_
_space_group_symop_operation_xyz
x,y,z
1/2-x,-y,z
1/2+x,-y,-z
-x,y,-z
-x,-y,-z
1/2+x,y,-z
1/2-x,y,z
x,-y,z
loop_
_atom_site_type_symbol
_atom_site_label
_atom_site_fract_x
_atom_site_fract_y
_atom_site_fract_z
Si Si1 0.578888 0.399649 0.941206
Si Si2 0.336033 0.597346 0.510774
Si Si3 0.840104 0.904397 0.934861
Si Si4 0.405861 0.266023 0.674580
Si Si5 0.339220 0.741227 0.921691
Si Si6 0.839381 0.844882 0.693075
Si Si7 0.585744 0.902359 0.466781
Si Si8 0.574083 0.331283 0.690245
O O1 0.600226 0.500000 0.965047
O O2 0.570900 0.384871 0.806730
O O3 0.500000 0.373758 0.000000
O O4 0.645018 0.340015 0.994466
O O5 0.250000 0.612663 0.466322
O O6 0.344649 0.500000 0.562124
O O7 0.352144 0.665977 0.610446
O O8 0.396299 0.604840 0.408317
O O9 0.750000 0.897725 0.930751
O O10 0.872394 0.891202 0.806767
O O11 0.866486 0.000000 0.978905
O O12 0.870711 0.829636 0.019148
O O13 0.386303 0.269410 0.806907
O O14 0.389007 0.168920 0.626640
O O15 0.492807 0.292552 0.655525
O O16 0.250000 0.745795 0.895498
O O17 0.750000 0.845774 0.694812
O O18 0.865411 0.895989 0.581375
O O19 0.865705 0.745805 0.695397
O O20 0.500000 0.883400 0.500000
O O21 0.596501 0.000000 0.415557
#
# Coordination Sequence:
#
# PCOD8214518 Si02
#       8
#     8   8   8   8   8   8   8   8
#     4  11  24  43  67  94 126 164 208 260 318 385
#     4  11  25  43  65  95 127 161 208 265 318 371
#     4   9  19  37  62  92 123 156 200 255 313 370
#     4  12  24  42  64  90 131 176 212 253 314 386
#     4  11  24  41  64  93 128 168 209 259 316 379
#     4  11  21  37  65  94 122 161 208 262 322 373
#     4  11  23  40  62  93 129 166 211 263 320 379
#     4  12  22  40  68  95 125 165 211 261 318 376
#
# _framework density 20.261485
#
# number of rings (size 3 to 8) (size 9 to 14) (size 15 to 20)
#    0.000    1.000    5.000    1.875    0.000    4.500 
#    0.000    0.000    0.000    1.125    0.000    0.000 
#    0.000    0.000    0.000    0.000    0.000    0.000 
#
# Total GULP energy -793781.603232 kJ/mol
# GULP energy per Si atom -12402.837551 kJ/mol
# Density = 2.021537 g / cm^3
# Si number density = 20.261485 Si / 1000 Ang^3
#
#
#
# Elastic Constant Matrix: (Units=GPa)
#
#
# Indices 1 2 3 4 5 6 
#
# 1 75.4961 31.0097 28.9183 0.0000 0.0000 0.0000
# 2 31.0097 147.8306 45.0507 0.0000 0.0000 0.0000
# 3 28.9183 45.0507 101.7629 0.0000 0.0000 0.0000
# 4 0.0000 0.0000 0.0000 22.5819 0.0000 0.0000
# 5 0.0000 0.0000 0.0000 0.0000 27.6925 0.0000
# 6 0.0000 0.0000 0.0000 0.0000 0.0000 42.9949
#
#
#
# Elastic Compliance Matrix: (Units=1/GPa)
#
#
# Indices 1 2 3 4 5 6 
#
# 1 0.015459 -0.002201 -0.003419 0.000000 0.000000 0.000000
# 2 -0.002201 0.008133 -0.002975 0.000000 0.000000 0.000000
# 3 -0.003419 -0.002975 0.012115 0.000000 0.000000 0.000000
# 4 0.000000 0.000000 0.000000 0.044283 0.000000 0.000000
# 5 0.000000 0.000000 0.000000 0.000000 0.036111 0.000000
# 6 0.000000 0.000000 0.000000 0.000000 0.000000 0.023259
#
#
# Mechanical properties :
#
#
# Convention : Reuss Voigt Hill
#
# Bulk Modulus (GPa) = 54.00138 59.44968 56.72553
# Shear Modulus (GPa) = 30.72724 33.32792 32.02758
#
# Velocity S-wave (km/s) = 3.89850 4.06012 3.98013
# Velocity P-wave (km/s) = 6.85379 7.16829 7.01280
#
# Compressibility (1/GPa) = 0.01851804
#
# Stress axis : x y z
#
# Youngs Moduli (GPa) = 64.68607 122.95901 82.54030
#
# Poissons Ratio (x) = 0.27063 0.28218
# Poissons Ratio (y) = 0.14237 0.24555
# Poissons Ratio (z) = 0.22114 0.36580
#
# Static dielectric constant tensor:
#      x y z
#    x 3.592820 0.000000 0.000000 
#    y 0.000000 3.872730 0.000000 
#    z 0.000000 0.000000 3.707650 
# 
# 
# High freq. dielectric constant tensor:
#      x y z
#    x 1.783080 0.000000 0.000000 
#    y 0.000000 1.805950 0.000000 
#    z 0.000000 0.000000 1.792260 
# 
# From -- ./inp_files/17589.got.cif
#   From: 2010.03.12/outbox.cif.g09.slc.cpg/sg51_9_cif.got.tgz:17589.got - 2010.04.16 13:43:02.
