data_PCOD8214615
_publ_section_title
;
Structure prediction by ZEFSAII (Michael W. Deem and Ramdas Pophale) SiO2 
 PCOD8214615
Probable space group: P M M A
;
_chemical_formula_sum "Si O2"
_cell_formula_units_Z 40
_cell_length_a 8.834430
_cell_length_b 26.067869
_cell_length_c 9.280462
_cell_angle_alpha 90.000000
_cell_angle_beta 90.000000
_cell_angle_gamma 90.000000
_cell_volume 2137.241805
_symmetry_space_group_name_H-M "P M M A"
_symmetry_group_IT_number 51
_symmetry_cell_setting 'orthorhombic'
loop_
_space_group_symop_operation_xyz
x,y,z
1/2-x,-y,z
1/2+x,-y,-z
-x,y,-z
-x,-y,-z
1/2+x,y,-z
1/2-x,y,z
x,-y,z
loop_
_atom_site_type_symbol
_atom_site_label
_atom_site_fract_x
_atom_site_fract_y
_atom_site_fract_z
Si Si1 0.927049 0.442545 0.647491
Si Si2 0.572333 0.945889 0.154925
Si Si3 0.928304 0.835012 0.155990
Si Si4 0.429027 0.349770 0.156246
Si Si5 0.569888 0.739669 0.343217
O O1 0.750000 0.442342 0.620600
O O2 0.985648 0.500000 0.684673
O O3 0.970674 0.405419 0.778822
O O4 0.000000 0.421976 0.500000
O O5 0.750000 0.945306 0.133291
O O6 0.524271 0.891080 0.224936
O O7 0.525854 0.000000 0.237014
O O8 0.500000 0.947479 0.000000
O O9 0.750000 0.830963 0.134123
O O10 0.984857 0.791904 0.266022
O O11 0.000000 0.825689 0.000000
O O12 0.250000 0.340632 0.148210
O O13 0.504285 0.307647 0.256167
O O14 0.500000 0.345879 0.000000
O O15 0.500000 0.739381 0.500000
O O16 0.750000 0.735278 0.352163
#
# Coordination Sequence:
#
# PCOD8214615 Si02
#       5
#     8   8   8   8   8
#     4   9  19  36  57  81 109 141 176 213 254 302
#     4   8  13  23  41  66  95 125 158 198 245 296
#     4   9  18  31  49  74 101 130 165 207 254 303
#     4  11  23  38  57  81 109 139 174 216 261 308
#     4  11  23  38  55  75 102 136 175 216 261 313
#
# _framework density 18.715710999999999
#
# number of rings (size 3 to 8) (size 9 to 14) (size 15 to 20)
#    0.000    2.400    0.000    2.400    0.000    6.800 
#    0.000    0.000    0.000    0.600    0.000    0.000 
#    0.000    0.000    0.000    0.000    0.000    0.200 
#
# Total GULP energy -495575.750224 kJ/mol
# GULP energy per Si atom -12389.393756 kJ/mol
# Density = 1.867311 g / cm^3
# Si number density = 18.715711 Si / 1000 Ang^3
#
#
#
# Elastic Constant Matrix: (Units=GPa)
#
#
# Indices 1 2 3 4 5 6 
#
# 1 47.6694 48.4255 39.4359 0.0000 0.0000 0.0000
# 2 48.4255 166.3894 83.0475 0.0000 0.0000 0.0000
# 3 39.4359 83.0475 127.7008 0.0000 0.0000 0.0000
# 4 0.0000 0.0000 0.0000 -9.3040 0.0000 0.0000
# 5 0.0000 0.0000 0.0000 0.0000 30.3723 0.0000
# 6 0.0000 0.0000 0.0000 0.0000 0.0000 259.8409
#
#
#
# Elastic Compliance Matrix: (Units=1/GPa)
#
#
# Indices 1 2 3 4 5 6 
#
# 1 0.032390 -0.006565 -0.005733 0.000000 0.000000 0.000000
# 2 -0.006565 0.010229 -0.004625 0.000000 0.000000 0.000000
# 3 -0.005733 -0.004625 0.012609 0.000000 0.000000 0.000000
# 4 0.000000 0.000000 0.000000 -0.107481 0.000000 0.000000
# 5 0.000000 0.000000 0.000000 0.000000 0.032925 0.000000
# 6 0.000000 0.000000 0.000000 0.000000 0.000000 0.003849
#
#
# Mechanical properties :
#
#
# Convention : Reuss Voigt Hill
#
# Bulk Modulus (GPa) = 46.76859 75.95304 61.36081
# Shear Modulus (GPa) = 196.12918 67.57189 131.85054
#
# Velocity S-wave (km/s) = 10.24799 6.01521 8.40250
# Velocity P-wave (km/s) = 12.84802 9.42944 11.26912
#
# Compressibility (1/GPa) = 0.02138187
#
# Stress axis : x y z
#
# Youngs Moduli (GPa) = 30.87382 97.76079 79.30949
#
# Poissons Ratio (x) = 0.64183 0.45467
# Poissons Ratio (y) = 0.20270 0.36679
# Poissons Ratio (z) = 0.17700 0.45212
#
# Static dielectric constant tensor:
#      x y z
#    x 3.481320 0.000000 0.000000 
#    y 0.000000 4.503380 0.000000 
#    z 0.000000 0.000000 3.192470 
# 
# 
# High freq. dielectric constant tensor:
#      x y z
#    x 1.727730 0.000000 0.000000 
#    y 0.000000 1.760310 0.000000 
#    z 0.000000 0.000000 1.693170 
# 
# From -- ./inp_files/5216.got.cif
#   From: 2010.03.12/outbox.cif.g09.slc.cpg/sg51_3_cif.got.tgz:5216.got - 2010.04.16 13:43:02.
