data_PCOD8214535
_publ_section_title
;
Structure prediction by ZEFSAII (Michael W. Deem and Ramdas Pophale) SiO2 
 PCOD8214535
Probable space group: P M M A
;
_chemical_formula_sum "Si O2"
_cell_formula_units_Z 64
_cell_length_a 9.082546
_cell_length_b 14.114957
_cell_length_c 25.967062
_cell_angle_alpha 90.000000
_cell_angle_beta 90.000000
_cell_angle_gamma 90.000000
_cell_volume 3328.970759
_symmetry_space_group_name_H-M "P M M A"
_symmetry_group_IT_number 51
_symmetry_cell_setting 'orthorhombic'
loop_
_space_group_symop_operation_xyz
x,y,z
1/2-x,-y,z
1/2+x,-y,-z
-x,y,-z
-x,-y,-z
1/2+x,y,-z
1/2-x,y,z
x,-y,z
loop_
_atom_site_type_symbol
_atom_site_label
_atom_site_fract_x
_atom_site_fract_y
_atom_site_fract_z
Si Si1 0.921677 0.111059 0.089765
Si Si2 0.076015 0.716768 0.050478
Si Si3 0.078016 0.890100 0.686874
Si Si4 0.577278 0.391232 0.551000
Si Si5 0.917719 0.612081 0.140971
Si Si6 0.576157 0.717884 0.651548
Si Si7 0.577411 0.102797 0.201532
Si Si8 0.080660 0.611152 0.742336
O O1 0.750000 0.127101 0.077032
O O2 0.961388 0.152815 0.147337
O O3 0.022054 0.173542 0.052350
O O4 0.961861 0.000000 0.084558
O O5 0.250000 0.712319 0.044519
O O6 0.028073 0.660127 0.101056
O O7 0.000000 0.670375 0.000000
O O8 0.250000 0.878193 0.675544
O O9 0.035498 0.848154 0.744225
O O10 0.986628 0.824928 0.647895
O O11 0.031748 0.000000 0.681106
O O12 0.500000 0.349912 0.500000
O O13 0.750000 0.378947 0.543696
O O14 0.531965 0.500000 0.559461
O O15 0.519047 0.335011 0.600614
O O16 0.750000 0.642298 0.127997
O O17 0.935497 0.500000 0.136559
O O18 0.956359 0.644794 0.199306
O O19 0.750000 0.721359 0.653301
O O20 0.521683 0.664374 0.702176
O O21 0.750000 0.085171 0.202353
O O22 0.499758 0.000000 0.200961
O O23 0.250000 0.635528 0.729926
O O24 0.050931 0.500000 0.737136
#
# Coordination Sequence:
#
# PCOD8214535 Si02
#       8
#     8   8   8   8   8   8   8   8
#     4   9  18  35  59  83 108 141 179 222 273 325
#     4  12  26  41  58  81 109 141 180 225 274 331
#     4   9  18  33  52  76 108 149 196 236 269 316
#     4   9  19  36  56  79 110 149 190 233 280 329
#     4   9  20  41  65  85 108 140 179 225 274 324
#     4  11  22  33  51  83 121 154 183 225 284 337
#     4   7  12  26  49  74  98 130 173 216 259 308
#     4   9  19  36  58  84 113 147 185 220 261 325
#
# _framework density 19.225161
#
# number of rings (size 3 to 8) (size 9 to 14) (size 15 to 20)
#    0.000    2.625    0.000    4.125    1.750    3.500 
#    0.000    2.500    0.000    2.625    0.000    0.000 
#    0.000    0.000    0.000    0.000    0.000    0.000 
#
# Total GULP energy -793141.470586 kJ/mol
# GULP energy per Si atom -12392.835478 kJ/mol
# Density = 1.918140 g / cm^3
# Si number density = 19.225161 Si / 1000 Ang^3
#
#
#
# Elastic Constant Matrix: (Units=GPa)
#
#
# Indices 1 2 3 4 5 6 
#
# 1 83.4396 40.5273 56.1340 0.0000 0.0000 0.0000
# 2 40.5273 59.9334 56.9309 0.0000 0.0000 0.0000
# 3 56.1340 56.9309 126.2961 0.0000 0.0000 0.0000
# 4 0.0000 0.0000 0.0000 23.6543 0.0000 0.0000
# 5 0.0000 0.0000 0.0000 0.0000 31.4163 0.0000
# 6 0.0000 0.0000 0.0000 0.0000 0.0000 27.8269
#
#
#
# Elastic Compliance Matrix: (Units=1/GPa)
#
#
# Indices 1 2 3 4 5 6 
#
# 1 0.019332 -0.008588 -0.004721 0.000000 0.000000 0.000000
# 2 -0.008588 0.032995 -0.011056 0.000000 0.000000 0.000000
# 3 -0.004721 -0.011056 0.015000 0.000000 0.000000 0.000000
# 4 0.000000 0.000000 0.000000 0.042276 0.000000 0.000000
# 5 0.000000 0.000000 0.000000 0.000000 0.031831 0.000000
# 6 0.000000 0.000000 0.000000 0.000000 0.000000 0.035936
#
#
# Mechanical properties :
#
#
# Convention : Reuss Voigt Hill
#
# Bulk Modulus (GPa) = 53.77357 64.09483 58.93420
# Shear Modulus (GPa) = 21.52403 24.31797 22.92100
#
# Velocity S-wave (km/s) = 3.34964 3.56041 3.45663
# Velocity P-wave (km/s) = 6.55677 7.09319 6.83025
#
# Compressibility (1/GPa) = 0.01859650
#
# Stress axis : x y z
#
# Youngs Moduli (GPa) = 51.72746 30.30807 66.66607
#
# Poissons Ratio (x) = 0.26028 0.31475
# Poissons Ratio (y) = 0.44422 0.73707
# Poissons Ratio (z) = 0.24422 0.33509
#
# Static dielectric constant tensor:
#      x y z
#    x 3.190260 0.000000 0.000000 
#    y 0.000000 3.504090 0.000000 
#    z 0.000000 0.000000 3.701250 
# 
# 
# High freq. dielectric constant tensor:
#      x y z
#    x 1.719670 0.000000 0.000000 
#    y 0.000000 1.748450 0.000000 
#    z 0.000000 0.000000 1.744330 
# 
# From -- ./inp_files/34845.got.cif
#   From: 2010.03.12/outbox.cif.g09.slc.cpg/sg51_18_cif.got.tgz:34845.got - 2010.04.16 13:43:02.
