data_PCOD8214000
_publ_section_title
;
Structure prediction by ZEFSAII (Michael W. Deem and Ramdas Pophale) SiO2 
 PCOD8214000
Probable space group: P M M A
;
_chemical_formula_sum "Si O2"
_cell_formula_units_Z 48
_cell_length_a 8.929233
_cell_length_b 30.068557
_cell_length_c 9.122297
_cell_angle_alpha 90.000000
_cell_angle_beta 90.000000
_cell_angle_gamma 90.000000
_cell_volume 2449.237781
_symmetry_space_group_name_H-M "P M M A"
_symmetry_group_IT_number 51
_symmetry_cell_setting 'orthorhombic'
loop_
_space_group_symop_operation_xyz
x,y,z
1/2-x,-y,z
1/2+x,-y,-z
-x,y,-z
-x,-y,-z
1/2+x,y,-z
1/2-x,y,z
x,-y,z
loop_
_atom_site_type_symbol
_atom_site_label
_atom_site_fract_x
_atom_site_fract_y
_atom_site_fract_z
Si Si1 0.077045 0.379009 0.151107
Si Si2 0.426594 0.215643 0.842083
Si Si3 0.923730 0.707461 0.656194
Si Si4 0.073821 0.949925 0.847529
Si Si5 0.576530 0.551930 0.348933
Si Si6 0.075093 0.130302 0.654064
O O1 0.250000 0.389609 0.121808
O O2 0.055366 0.339269 0.264361
O O3 0.999054 0.423011 0.213733
O O4 0.000000 0.364908 0.000000
O O5 0.250000 0.222627 0.857894
O O6 0.493568 0.255031 0.747350
O O7 0.467685 0.169271 0.765595
O O8 0.500000 0.215906 0.000000
O O9 0.750000 0.720267 0.638383
O O10 0.000000 0.703310 0.500000
O O11 0.250000 0.945429 0.870066
O O12 0.017014 0.916351 0.721864
O O13 0.027387 0.000000 0.801490
O O14 0.000000 0.936066 0.000000
O O15 0.500000 0.566993 0.500000
O O16 0.750000 0.564826 0.359203
O O17 0.552321 0.500000 0.319993
O O18 0.250000 0.128465 0.625126
O O19 0.000000 0.139786 0.500000
#
# Coordination Sequence:
#
# PCOD8214000 Si02
#       6
#     8   8   8   8   8   8
#     4  11  24  40  60  86 117 153 192 236 284 336
#     4  11  23  39  60  85 114 148 187 232 282 336
#     4  11  24  41  62  88 117 150 189 233 282 336
#     4   9  18  34  55  79 108 142 182 228 277 330
#     4  10  21  38  61  88 118 153 193 237 285 338
#     4  10  22  37  54  80 112 146 185 229 277 331
#
# _framework density 19.597933000000001
#
# number of rings (size 3 to 8) (size 9 to 14) (size 15 to 20)
#    0.000    1.667    0.000    4.000    0.000   10.333 
#    0.000    0.000    0.000    0.000    0.000    0.000 
#    0.000    0.000    0.000    0.000    0.000    0.000 
#
# Total GULP energy -595455.866518 kJ/mol
# GULP energy per Si atom -12405.330552 kJ/mol
# Density = 1.955333 g / cm^3
# Si number density = 19.597933 Si / 1000 Ang^3
#
#
#
# Elastic Constant Matrix: (Units=GPa)
#
#
# Indices 1 2 3 4 5 6 
#
# 1 110.5451 62.6571 77.6316 0.0000 0.0000 0.0000
# 2 62.6571 95.0968 57.5098 0.0000 0.0000 0.0000
# 3 77.6316 57.5098 153.8393 0.0000 0.0000 0.0000
# 4 0.0000 0.0000 0.0000 39.7096 0.0000 0.0000
# 5 0.0000 0.0000 0.0000 0.0000 41.7249 0.0000
# 6 0.0000 0.0000 0.0000 0.0000 0.0000 29.3450
#
#
#
# Elastic Compliance Matrix: (Units=1/GPa)
#
#
# Indices 1 2 3 4 5 6 
#
# 1 0.017858 -0.008162 -0.005961 0.000000 0.000000 0.000000
# 2 -0.008162 0.017317 -0.002355 0.000000 0.000000 0.000000
# 3 -0.005961 -0.002355 0.010389 0.000000 0.000000 0.000000
# 4 0.000000 0.000000 0.000000 0.025183 0.000000 0.000000
# 5 0.000000 0.000000 0.000000 0.000000 0.023967 0.000000
# 6 0.000000 0.000000 0.000000 0.000000 0.000000 0.034077
#
#
# Mechanical properties :
#
#
# Convention : Reuss Voigt Hill
#
# Bulk Modulus (GPa) = 79.30683 83.89758 81.60220
# Shear Modulus (GPa) = 30.12984 32.93473 31.53228
#
# Velocity S-wave (km/s) = 3.92522 4.10386 4.01554
# Velocity P-wave (km/s) = 7.81652 8.08442 7.95160
#
# Compressibility (1/GPa) = 0.01260925
#
# Stress axis : x y z
#
# Youngs Moduli (GPa) = 55.99745 57.74548 96.25913
#
# Poissons Ratio (x) = 0.47129 0.57376
# Poissons Ratio (y) = 0.45703 0.22671
# Poissons Ratio (z) = 0.33378 0.13600
#
# Static dielectric constant tensor:
#      x y z
#    x 3.707410 0.000000 0.000000 
#    y 0.000000 3.801900 0.000000 
#    z 0.000000 0.000000 3.622090 
# 
# 
# High freq. dielectric constant tensor:
#      x y z
#    x 1.772490 0.000000 0.000000 
#    y 0.000000 1.777400 0.000000 
#    z 0.000000 0.000000 1.771150 
# 
# From -- ./inp_files/6015.got.cif
#   From: 2010.03.12/outbox.cif.g09.slc.cpg/sg51_4_cif.got.tgz:6015.got - 2010.04.16 13:43:02.
