data_PCOD8214963
_publ_section_title
;
Structure prediction by ZEFSAII (Michael W. Deem and Ramdas Pophale) SiO2 
 PCOD8214963
Probable space group: P N N A
;
_chemical_formula_sum "Si O2"
_cell_formula_units_Z 44
_cell_length_a 15.645755
_cell_length_b 16.717356
_cell_length_c 8.391449
_cell_angle_alpha 90.000000
_cell_angle_beta 90.000000
_cell_angle_gamma 90.000000
_cell_volume 2194.830950
_symmetry_space_group_name_H-M "P N N A"
_symmetry_group_IT_number 52
_symmetry_cell_setting 'orthorhombic'
loop_
_space_group_symop_operation_xyz
x,y,z
1/2-x,-y,z
x,1/2-y,1/2-z
1/2-x,1/2+y,1/2-z
-x,-y,-z
1/2+x,y,-z
-x,1/2+y,1/2+z
1/2+x,1/2-y,1/2+z
loop_
_atom_site_type_symbol
_atom_site_label
_atom_site_fract_x
_atom_site_fract_y
_atom_site_fract_z
Si Si1 0.970114 0.068993 0.618787
Si Si2 0.750000 0.500000 0.101851
Si Si3 0.836171 0.344596 0.063453
Si Si4 0.291545 0.329020 0.585274
Si Si5 0.844828 0.027188 0.884147
Si Si6 0.627040 0.078804 0.169087
O O1 0.928809 0.142137 0.518103
O O2 0.897800 0.026572 0.723373
O O3 0.041991 0.106727 0.736754
O O4 0.000000 0.000000 0.500000
O O5 0.773652 0.418516 0.006085
O O6 0.669317 0.486630 0.215819
O O7 0.846821 0.340112 0.254169
O O8 0.794758 0.260191 0.011100
O O9 0.336229 0.384246 0.455239
O O10 0.192537 0.348847 0.630344
O O11 0.750000 0.000000 0.842506
O O12 0.893387 0.966956 0.004933
#
# Coordination Sequence:
#
# PCOD8214963 Si02
#       6
#     8   4   8   8   8   8
#     4  12  23  33  60  96 124 152 209 271 311 359
#     4  10  16  36  60  80 118 160 204 240 310 386
#     4  10  20  35  61  87 118 159 204 247 318 360
#     4   9  19  40  61  81 117 170 204 242 307 385
#     4  10  20  37  62  87 119 163 205 242 310 381
#     4  10  18  38  62  87 117 160 210 245 303 378
#
# _framework density 20.047101999999999
#
# number of rings (size 3 to 8) (size 9 to 14) (size 15 to 20)
#    0.000    1.818    6.364    0.545    1.273    0.727 
#    0.000    7.273    0.000    6.545    0.000    0.000 
#    0.000    0.000    0.000    0.000    0.000    0.000 
#
# Total GULP energy -545215.424924 kJ/mol
# GULP energy per Si atom -12391.259657 kJ/mol
# Density = 2.000147 g / cm^3
# Si number density = 20.047102 Si / 1000 Ang^3
#
#
#
# Elastic Constant Matrix: (Units=GPa)
#
#
# Indices 1 2 3 4 5 6 
#
# 1 102.8769 56.3014 60.7336 0.0000 0.0000 0.0000
# 2 56.3014 158.0114 48.7021 0.0000 0.0000 0.0000
# 3 60.7336 48.7021 93.2934 0.0000 0.0000 0.0000
# 4 0.0000 0.0000 0.0000 18.5927 0.0000 0.0000
# 5 0.0000 0.0000 0.0000 0.0000 45.9191 0.0000
# 6 0.0000 0.0000 0.0000 0.0000 0.0000 26.5211
#
#
#
# Elastic Compliance Matrix: (Units=1/GPa)
#
#
# Indices 1 2 3 4 5 6 
#
# 1 0.017014 -0.003156 -0.009428 0.000000 0.000000 0.000000
# 2 -0.003156 0.008128 -0.002188 0.000000 0.000000 0.000000
# 3 -0.009428 -0.002188 0.017999 0.000000 0.000000 0.000000
# 4 0.000000 0.000000 0.000000 0.053785 0.000000 0.000000
# 5 0.000000 0.000000 0.000000 0.000000 0.021777 0.000000
# 6 0.000000 0.000000 0.000000 0.000000 0.000000 0.037706
#
#
# Mechanical properties :
#
#
# Convention : Reuss Voigt Hill
#
# Bulk Modulus (GPa) = 73.55645 76.18400 74.87022
# Shear Modulus (GPa) = 26.24880 30.76954 28.50917
#
# Velocity S-wave (km/s) = 3.62243 3.92198 3.77518
# Velocity P-wave (km/s) = 7.36664 7.65469 7.51205
#
# Compressibility (1/GPa) = 0.01359500
#
# Stress axis : x y z
#
# Youngs Moduli (GPa) = 58.77656 123.03582 55.55900
#
# Poissons Ratio (x) = 0.38833 0.52382
# Poissons Ratio (y) = 0.18551 0.12158
# Poissons Ratio (z) = 0.55415 0.26923
#
# Static dielectric constant tensor:
#      x y z
#    x 3.921830 0.000000 0.000000 
#    y 0.000000 3.699640 0.000000 
#    z 0.000000 0.000000 3.612340 
# 
# 
# High freq. dielectric constant tensor:
#      x y z
#    x 1.767240 0.000000 0.000000 
#    y 0.000000 1.770710 0.000000 
#    z 0.000000 0.000000 1.780850 
# 
# From -- ./inp_files/10372.got.cif
#   From: 2010.06.25/outbox.cif.g09.slc.cpg/sg52_6_cif.got.tgz:10372.got - 2010.06.26 19:32:48.
