data_PCOD8214337
_publ_section_title
;
Structure prediction by ZEFSAII (Michael W. Deem and Ramdas Pophale) SiO2 
 PCOD8214337
Probable space group: P M M A
;
_chemical_formula_sum "Si O2"
_cell_formula_units_Z 48
_cell_length_a 16.971299
_cell_length_b 15.608447
_cell_length_c 8.901059
_cell_angle_alpha 90.000000
_cell_angle_beta 90.000000
_cell_angle_gamma 90.000000
_cell_volume 2357.851551
_symmetry_space_group_name_H-M "P M M A"
_symmetry_group_IT_number 51
_symmetry_cell_setting 'orthorhombic'
loop_
_space_group_symop_operation_xyz
x,y,z
1/2-x,-y,z
1/2+x,-y,-z
-x,y,-z
-x,-y,-z
1/2+x,y,-z
1/2-x,y,z
x,-y,z
loop_
_atom_site_type_symbol
_atom_site_label
_atom_site_fract_x
_atom_site_fract_y
_atom_site_fract_z
Si Si1 0.089656 0.907057 0.060493
Si Si2 0.584283 0.757840 0.436564
Si Si3 0.657296 0.593497 0.927807
Si Si4 0.842588 0.598392 0.590694
Si Si5 0.159556 0.096293 0.378884
Si Si6 0.082693 0.744656 0.914572
O O1 0.099474 0.891472 0.239063
O O2 0.127601 0.000000 0.020345
O O3 0.131372 0.827129 0.978076
O O4 0.000000 0.906431 0.000000
O O5 0.500000 0.779988 0.500000
O O6 0.612513 0.663143 0.482055
O O7 0.642426 0.832898 0.493647
O O8 0.574526 0.759005 0.259818
O O9 0.750000 0.586940 0.927706
O O10 0.621693 0.500000 0.967200
O O11 0.630017 0.620830 0.760521
O O12 0.630996 0.659018 0.054715
O O13 0.750000 0.612379 0.570469
O O14 0.865040 0.500000 0.551112
O O15 0.250000 0.108693 0.324277
O O16 0.148243 0.000000 0.445440
O O17 0.000000 0.735865 0.000000
#
# Coordination Sequence:
#
# PCOD8214337 Si02
#       6
#     8   8   8   8   8   8
#     4   9  18  36  61  86 115 152 194 238 286 346
#     4  12  24  37  58  86 118 157 198 245 299 357
#     4   9  19  37  60  83 109 146 189 233 287 349
#     4   9  19  38  62  85 113 151 193 240 296 356
#     4  10  22  41  64  90 121 158 200 247 300 357
#     4  11  23  37  55  82 115 151 191 237 288 343
#
# _framework density 20.357514999999999
#
# number of rings (size 3 to 8) (size 9 to 14) (size 15 to 20)
#    0.000    2.000    0.000    5.500    0.000    5.667 
#    0.000    1.667    0.000    2.000    0.000    0.000 
#    0.000    0.000    0.000    0.000    0.000    0.000 
#
# Total GULP energy -594863.955673 kJ/mol
# GULP energy per Si atom -12392.999077 kJ/mol
# Density = 2.031118 g / cm^3
# Si number density = 20.357515 Si / 1000 Ang^3
#
#
#
# Elastic Constant Matrix: (Units=GPa)
#
#
# Indices 1 2 3 4 5 6 
#
# 1 50.0658 29.7626 31.7585 0.0000 0.0000 0.0000
# 2 29.7626 154.4751 67.6876 0.0000 0.0000 0.0000
# 3 31.7585 67.6876 135.4163 0.0000 0.0000 0.0000
# 4 0.0000 0.0000 0.0000 37.3796 0.0000 0.0000
# 5 0.0000 0.0000 0.0000 0.0000 29.2278 0.0000
# 6 0.0000 0.0000 0.0000 0.0000 0.0000 24.4671
#
#
#
# Elastic Compliance Matrix: (Units=1/GPa)
#
#
# Indices 1 2 3 4 5 6 
#
# 1 0.024379 -0.002807 -0.004315 0.000000 0.000000 0.000000
# 2 -0.002807 0.008612 -0.003647 0.000000 0.000000 0.000000
# 3 -0.004315 -0.003647 0.010219 0.000000 0.000000 0.000000
# 4 0.000000 0.000000 0.000000 0.026753 0.000000 0.000000
# 5 0.000000 0.000000 0.000000 0.000000 0.034214 0.000000
# 6 0.000000 0.000000 0.000000 0.000000 0.000000 0.040871
#
#
# Mechanical properties :
#
#
# Convention : Reuss Voigt Hill
#
# Bulk Modulus (GPa) = 46.13618 66.48607 56.31113
# Shear Modulus (GPa) = 28.76728 32.26479 30.51603
#
# Velocity S-wave (km/s) = 3.76320 3.98541 3.87590
# Velocity P-wave (km/s) = 6.44938 7.34221 6.91023
#
# Compressibility (1/GPa) = 0.02167496
#
# Stress axis : x y z
#
# Youngs Moduli (GPa) = 41.01881 116.11572 97.85449
#
# Poissons Ratio (x) = 0.32588 0.42221
# Poissons Ratio (y) = 0.11512 0.35683
# Poissons Ratio (z) = 0.17698 0.42342
#
# Static dielectric constant tensor:
#      x y z
#    x 3.494510 0.000000 0.000000 
#    y 0.000000 4.660250 0.000000 
#    z 0.000000 0.000000 3.781620 
# 
# 
# High freq. dielectric constant tensor:
#      x y z
#    x 1.773110 0.000000 0.000000 
#    y 0.000000 1.825500 0.000000 
#    z 0.000000 0.000000 1.782180 
# 
# From -- ./inp_files/9559.got.cif
#   From: 2010.03.12/outbox.cif.g09.slc.cpg/sg51_5_cif.got.tgz:9559.got - 2010.04.16 13:43:02.
