data_PCOD8214355
_publ_section_title
;
Structure prediction by ZEFSAII (Michael W. Deem and Ramdas Pophale) SiO2 
 PCOD8214355
Probable space group: P M M A
;
_chemical_formula_sum "Si O2"
_cell_formula_units_Z 32
_cell_length_a 14.930815
_cell_length_b 10.255718
_cell_length_c 10.429517
_cell_angle_alpha 90.000000
_cell_angle_beta 90.000000
_cell_angle_gamma 90.000000
_cell_volume 1597.032600
_symmetry_space_group_name_H-M "P M M A"
_symmetry_group_IT_number 51
_symmetry_cell_setting 'orthorhombic'
loop_
_space_group_symop_operation_xyz
x,y,z
1/2-x,-y,z
1/2+x,-y,-z
-x,y,-z
-x,-y,-z
1/2+x,y,-z
1/2-x,y,z
x,-y,z
loop_
_atom_site_type_symbol
_atom_site_label
_atom_site_fract_x
_atom_site_fract_y
_atom_site_fract_z
Si Si1 0.902249 0.350181 0.442703
Si Si2 0.106476 0.500000 0.990128
Si Si3 0.750000 0.000000 0.792132
Si Si4 0.349002 0.000000 0.957293
Si Si5 0.250000 0.255486 0.381162
Si Si6 0.646882 0.745627 0.175806
Si Si7 0.750000 0.500000 0.799389
O O1 0.867145 0.500000 0.432221
O O2 0.837569 0.263338 0.530193
O O3 0.909013 0.283942 0.303409
O O4 0.000000 0.347094 0.500000
O O5 0.140811 0.373588 0.919378
O O6 0.156034 0.500000 0.125874
O O7 0.000000 0.500000 0.000000
O O8 0.750000 0.876219 0.700178
O O9 0.838607 0.000000 0.886192
O O10 0.395937 0.129769 0.899887
O O11 0.250000 0.000000 0.897155
O O12 0.250000 0.372700 0.284131
O O13 0.750000 0.766541 0.214534
#
# Coordination Sequence:
#
# PCOD8214355 Si02
#       7
#     8   4   2   4   4   8   2
#     4  11  24  41  65  99 132 165 215 272 321 374
#     4  12  26  37  64  98 126 165 219 269 319 376
#     4  10  22  42  62  94 134 166 216 262 326 382
#     4   8  20  41  65  93 121 170 214 264 310 377
#     4  12  24  40  67  91 129 175 206 262 331 379
#     4  11  20  42  68  90 125 169 222 264 311 380
#     4  12  24  40  62  92 124 164 220 260 318 386
#
# _framework density 20.03716
#
# number of rings (size 3 to 8) (size 9 to 14) (size 15 to 20)
#    0.375    0.750    5.000    1.500    3.500    1.000 
#    0.000    3.125    0.000    0.000    0.000    0.000 
#    0.000    0.000    0.000    0.000    0.000    0.000 
#
# Total GULP energy -396689.250579 kJ/mol
# GULP energy per Si atom -12396.539081 kJ/mol
# Density = 1.999155 g / cm^3
# Si number density = 20.037160 Si / 1000 Ang^3
#
#
#
# Elastic Constant Matrix: (Units=GPa)
#
#
# Indices 1 2 3 4 5 6 
#
# 1 65.1317 4.1617 11.5028 0.0000 0.0000 0.0000
# 2 4.1617 166.7277 64.3333 0.0000 0.0000 0.0000
# 3 11.5028 64.3333 119.7310 0.0000 0.0000 0.0000
# 4 0.0000 0.0000 0.0000 50.5364 0.0000 0.0000
# 5 0.0000 0.0000 0.0000 0.0000 22.5733 0.0000
# 6 0.0000 0.0000 0.0000 0.0000 0.0000 -42.0515
#
#
#
# Elastic Compliance Matrix: (Units=1/GPa)
#
#
# Indices 1 2 3 4 5 6 
#
# 1 0.015626 0.000239 -0.001629 0.000000 0.000000 0.000000
# 2 0.000239 0.007570 -0.004091 0.000000 0.000000 0.000000
# 3 -0.001629 -0.004091 0.010707 0.000000 0.000000 0.000000
# 4 0.000000 0.000000 0.000000 0.019788 0.000000 0.000000
# 5 0.000000 0.000000 0.000000 0.000000 0.044300 0.000000
# 6 0.000000 0.000000 0.000000 0.000000 0.000000 -0.023780
#
#
# Mechanical properties :
#
#
# Convention : Reuss Voigt Hill
#
# Bulk Modulus (GPa) = 43.59168 56.84287 50.21727
# Shear Modulus (GPa) = 53.86800 24.31783 39.09291
#
# Velocity S-wave (km/s) = 5.19061 3.48751 4.42183
# Velocity P-wave (km/s) = 7.59775 6.68186 7.15448
#
# Compressibility (1/GPa) = 0.02294016
#
# Stress axis : x y z
#
# Youngs Moduli (GPa) = 63.99574 132.09675 93.40118
#
# Poissons Ratio (x) = -0.03153 0.15220
# Poissons Ratio (y) = -0.01528 0.38206
# Poissons Ratio (z) = 0.10428 0.54034
#
# Static dielectric constant tensor:
#      x y z
#    x 3.567880 0.000000 0.000000 
#    y 0.000000 3.785060 0.000000 
#    z 0.000000 0.000000 3.802040 
# 
# 
# High freq. dielectric constant tensor:
#      x y z
#    x 1.760870 0.000000 0.000000 
#    y 0.000000 1.788800 0.000000 
#    z 0.000000 0.000000 1.795420 
# 
# From -- ./inp_files/16025.got.cif
#   From: 2010.03.12/outbox.cif.g09.slc.cpg/sg51_9_cif.got.tgz:16025.got - 2010.04.16 13:43:02.
