data_PCOD8214511
_publ_section_title
;
Structure prediction by ZEFSAII (Michael W. Deem and Ramdas Pophale) SiO2 
 PCOD8214511
Probable space group: P M M A
;
_chemical_formula_sum "Si O2"
_cell_formula_units_Z 48
_cell_length_a 18.997568
_cell_length_b 8.469296
_cell_length_c 14.958773
_cell_angle_alpha 90.000000
_cell_angle_beta 90.000000
_cell_angle_gamma 90.000000
_cell_volume 2406.807140
_symmetry_space_group_name_H-M "P M M A"
_symmetry_group_IT_number 51
_symmetry_cell_setting 'orthorhombic'
loop_
_space_group_symop_operation_xyz
x,y,z
1/2-x,-y,z
1/2+x,-y,-z
-x,y,-z
-x,-y,-z
1/2+x,y,-z
1/2-x,y,z
x,-y,z
loop_
_atom_site_type_symbol
_atom_site_label
_atom_site_fract_x
_atom_site_fract_y
_atom_site_fract_z
Si Si1 0.172190 0.312606 0.435160
Si Si2 0.079575 0.315436 0.272679
Si Si3 0.932490 0.180749 0.222923
Si Si4 0.923423 0.316846 0.032703
Si Si5 0.331325 0.817071 0.115263
Si Si6 0.167312 0.319150 0.635017
O O1 0.250000 0.242590 0.414836
O O2 0.176840 0.500000 0.429968
O O3 0.117729 0.248851 0.361589
O O4 0.147742 0.262988 0.534529
O O5 0.062180 0.500000 0.280374
O O6 0.129426 0.289330 0.187886
O O7 0.007880 0.220333 0.264269
O O8 0.915858 0.289313 0.137981
O O9 0.873114 0.207393 0.296874
O O10 0.931545 0.000000 0.192044
O O11 0.912164 0.500000 0.010927
O O12 0.864178 0.216793 0.981789
O O13 0.000000 0.259529 0.000000
O O14 0.250000 0.767728 0.113183
O O15 0.340952 0.000000 0.139589
O O16 0.250000 0.300791 0.651670
O O17 0.143640 0.500000 0.649734
#
# Coordination Sequence:
#
# PCOD8214511 Si02
#       6
#     8   8   8   8   8   8
#     4   8  16  33  59  88 116 151 196 247 297 339
#     4  11  21  36  60  89 120 156 201 246 289 343
#     4  12  25  39  59  86 121 159 193 238 299 360
#     4  11  23  41  65  88 111 150 201 246 289 344
#     4  11  24  40  60  90 125 158 192 235 293 357
#     4   9  19  39  64  87 114 151 199 250 294 344
#
# _framework density 19.943434
#
# number of rings (size 3 to 8) (size 9 to 14) (size 15 to 20)
#    0.000    1.667    1.667    4.500    0.000    4.333 
#    0.000    5.000    0.000    2.000    0.000    0.000 
#    0.000    0.000    0.000    0.000    0.000    0.000 
#
# Total GULP energy -595414.829644 kJ/mol
# GULP energy per Si atom -12404.475618 kJ/mol
# Density = 1.989804 g / cm^3
# Si number density = 19.943434 Si / 1000 Ang^3
#
#
#
# Elastic Constant Matrix: (Units=GPa)
#
#
# Indices 1 2 3 4 5 6 
#
# 1 94.5165 20.8487 51.2403 0.0000 0.0000 0.0000
# 2 20.8487 50.2222 7.8425 0.0000 0.0000 0.0000
# 3 51.2403 7.8425 127.7897 0.0000 0.0000 0.0000
# 4 0.0000 0.0000 0.0000 16.7288 0.0000 0.0000
# 5 0.0000 0.0000 0.0000 0.0000 38.2542 0.0000
# 6 0.0000 0.0000 0.0000 0.0000 0.0000 29.0324
#
#
#
# Elastic Compliance Matrix: (Units=1/GPa)
#
#
# Indices 1 2 3 4 5 6 
#
# 1 0.014778 -0.005260 -0.005603 0.000000 0.000000 0.000000
# 2 -0.005260 0.021976 0.000760 0.000000 0.000000 0.000000
# 3 -0.005603 0.000760 0.010025 0.000000 0.000000 0.000000
# 4 0.000000 0.000000 0.000000 0.059777 0.000000 0.000000
# 5 0.000000 0.000000 0.000000 0.000000 0.026141 0.000000
# 6 0.000000 0.000000 0.000000 0.000000 0.000000 0.034444
#
#
# Mechanical properties :
#
#
# Convention : Reuss Voigt Hill
#
# Bulk Modulus (GPa) = 37.62937 48.04351 42.83644
# Shear Modulus (GPa) = 25.48366 29.64287 27.56327
#
# Velocity S-wave (km/s) = 3.57851 3.85950 3.72166
# Velocity P-wave (km/s) = 5.99861 6.63349 6.32402
#
# Compressibility (1/GPa) = 0.02657498
#
# Stress axis : x y z
#
# Youngs Moduli (GPa) = 67.66917 45.50356 99.74836
#
# Poissons Ratio (x) = 0.23934 0.55886
# Poissons Ratio (y) = 0.35593 -0.07584
# Poissons Ratio (z) = 0.37913 -0.03460
#
# Static dielectric constant tensor:
#      x y z
#    x 3.816630 0.000000 0.000000 
#    y 0.000000 3.398340 0.000000 
#    z 0.000000 0.000000 3.744110 
# 
# 
# High freq. dielectric constant tensor:
#      x y z
#    x 1.779900 0.000000 0.000000 
#    y 0.000000 1.762890 0.000000 
#    z 0.000000 0.000000 1.787830 
# 
# From -- ./inp_files/24687.got.cif
#   From: 2010.03.12/outbox.cif.g09.slc.cpg/sg51_13_cif.got.tgz:24687.got - 2010.04.16 13:43:02.
