data_PCOD8214492
_publ_section_title
;
Structure prediction by ZEFSAII (Michael W. Deem and Ramdas Pophale) SiO2 
 PCOD8214492
Probable space group: P M M A
;
_chemical_formula_sum "Si O2"
_cell_formula_units_Z 48
_cell_length_a 18.754074
_cell_length_b 15.306472
_cell_length_c 8.723627
_cell_angle_alpha 90.000000
_cell_angle_beta 90.000000
_cell_angle_gamma 90.000000
_cell_volume 2504.193101
_symmetry_space_group_name_H-M "P M M A"
_symmetry_group_IT_number 51
_symmetry_cell_setting 'orthorhombic'
loop_
_space_group_symop_operation_xyz
x,y,z
1/2-x,-y,z
1/2+x,-y,-z
-x,y,-z
-x,-y,-z
1/2+x,y,-z
1/2-x,y,z
x,-y,z
loop_
_atom_site_type_symbol
_atom_site_label
_atom_site_fract_x
_atom_site_fract_y
_atom_site_fract_z
Si Si1 0.668518 0.099884 0.683020
Si Si2 0.116365 0.500000 0.940537
Si Si3 0.045881 0.319449 0.361667
Si Si4 0.832743 0.691300 0.130806
Si Si5 0.669028 0.254542 0.468023
Si Si6 0.067573 0.800493 0.092290
Si Si7 0.030905 0.500000 0.227436
O O1 0.750000 0.112686 0.742209
O O2 0.657188 0.154290 0.524951
O O3 0.613619 0.126900 0.817913
O O4 0.653073 0.000000 0.640112
O O5 0.157875 0.586723 0.885819
O O6 0.038060 0.500000 0.875474
O O7 0.103567 0.500000 0.124979
O O8 0.128695 0.314547 0.408864
O O9 0.029587 0.265935 0.208718
O O10 0.026351 0.418886 0.339611
O O11 0.000000 0.278112 0.500000
O O12 0.750000 0.714214 0.104559
O O13 0.858842 0.726980 0.296478
O O14 0.879189 0.743607 0.009503
O O15 0.750000 0.284262 0.478626
O O16 0.000000 0.842365 0.000000
#
# Coordination Sequence:
#
# PCOD8214492 Si02
#       7
#     8   4   8   8   8   8   4
#     4   9  19  38  61  84 113 148 186 232 288 346
#     4  11  21  36  53  79 117 149 189 234 280 324
#     4  11  21  35  55  80 110 150 194 235 281 332
#     4  11  22  38  58  82 114 153 193 234 281 332
#     4   9  20  37  57  80 108 145 188 234 284 340
#     4  11  21  35  58  85 116 149 188 235 282 341
#     4  11  21  34  53  79 111 149 192 238 276 327
#
# _framework density 19.167850999999999
#
# number of rings (size 3 to 8) (size 9 to 14) (size 15 to 20)
#    0.000    1.667    1.667    4.000    0.000    1.667 
#    0.000    2.083    0.000   20.000    0.000    0.000 
#    0.000    0.000    0.000    0.000    0.000    0.000 
#
# Total GULP energy -595027.780791 kJ/mol
# GULP energy per Si atom -12396.412100 kJ/mol
# Density = 1.912422 g / cm^3
# Si number density = 19.167851 Si / 1000 Ang^3
#
#
#
# Elastic Constant Matrix: (Units=GPa)
#
#
# Indices 1 2 3 4 5 6 
#
# 1 65.5697 22.8094 35.3282 0.0000 0.0000 0.0000
# 2 22.8094 67.7269 22.2048 0.0000 0.0000 0.0000
# 3 35.3282 22.2048 99.7753 0.0000 0.0000 0.0000
# 4 0.0000 0.0000 0.0000 25.8646 0.0000 0.0000
# 5 0.0000 0.0000 0.0000 0.0000 39.5085 0.0000
# 6 0.0000 0.0000 0.0000 0.0000 0.0000 23.6160
#
#
#
# Elastic Compliance Matrix: (Units=1/GPa)
#
#
# Indices 1 2 3 4 5 6 
#
# 1 0.020201 -0.004809 -0.006082 0.000000 0.000000 0.000000
# 2 -0.004809 0.017072 -0.002097 0.000000 0.000000 0.000000
# 3 -0.006082 -0.002097 0.012643 0.000000 0.000000 0.000000
# 4 0.000000 0.000000 0.000000 0.038663 0.000000 0.000000
# 5 0.000000 0.000000 0.000000 0.000000 0.025311 0.000000
# 6 0.000000 0.000000 0.000000 0.000000 0.000000 0.042344
#
#
# Mechanical properties :
#
#
# Convention : Reuss Voigt Hill
#
# Bulk Modulus (GPa) = 41.77185 43.75075 42.76130
# Shear Modulus (GPa) = 26.28942 27.97977 27.13460
#
# Velocity S-wave (km/s) = 3.70744 3.82478 3.76657
# Velocity P-wave (km/s) = 6.33773 6.50998 6.42443
#
# Compressibility (1/GPa) = 0.02393957
#
# Stress axis : x y z
#
# Youngs Moduli (GPa) = 49.50235 58.57468 79.09663
#
# Poissons Ratio (x) = 0.28170 0.48110
# Poissons Ratio (y) = 0.23807 0.16583
# Poissons Ratio (z) = 0.30110 0.12280
#
# Static dielectric constant tensor:
#      x y z
#    x 3.645970 0.000000 0.000000 
#    y 0.000000 3.225550 0.000000 
#    z 0.000000 0.000000 3.733210 
# 
# 
# High freq. dielectric constant tensor:
#      x y z
#    x 1.758430 0.000000 0.000000 
#    y 0.000000 1.724700 0.000000 
#    z 0.000000 0.000000 1.752770 
# 
# From -- ./inp_files/9676.got.cif
#   From: 2010.03.12/outbox.cif.g09.slc.cpg/sg51_5_cif.got.tgz:9676.got - 2010.04.16 13:43:02.
