data_PCOD8214117
_publ_section_title
;
Structure prediction by ZEFSAII (Michael W. Deem and Ramdas Pophale) SiO2 
 PCOD8214117
Probable space group: P M M A
;
_chemical_formula_sum "Si O2"
_cell_formula_units_Z 28
_cell_length_a 8.856872
_cell_length_b 7.402246
_cell_length_c 19.987604
_cell_angle_alpha 90.000000
_cell_angle_beta 90.000000
_cell_angle_gamma 90.000000
_cell_volume 1310.402216
_symmetry_space_group_name_H-M "P M M A"
_symmetry_group_IT_number 51
_symmetry_cell_setting 'orthorhombic'
loop_
_space_group_symop_operation_xyz
x,y,z
1/2-x,-y,z
1/2+x,-y,-z
-x,y,-z
-x,-y,-z
1/2+x,y,-z
1/2-x,y,z
x,-y,z
loop_
_atom_site_type_symbol
_atom_site_label
_atom_site_fract_x
_atom_site_fract_y
_atom_site_fract_z
Si Si1 0.919147 0.714179 0.198716
Si Si2 0.570824 0.000000 0.427383
Si Si3 0.426113 0.711111 0.334575
Si Si4 0.420008 0.284681 0.066591
O O1 0.750000 0.792015 0.205919
O O2 0.915437 0.500000 0.194425
O O3 0.017542 0.776578 0.261964
O O4 0.993543 0.793060 0.131360
O O5 0.500000 0.000000 0.500000
O O6 0.516809 0.180744 0.390419
O O7 0.750000 0.000000 0.432414
O O8 0.250000 0.755876 0.340323
O O9 0.459292 0.500000 0.345818
O O10 0.250000 0.210900 0.067979
O O11 0.422010 0.500000 0.067124
O O12 0.500000 0.209882 0.000000
#
# Coordination Sequence:
#
# PCOD8214117 Si02
#       4
#     8   4   8   8
#     4   9  16  27  45  71 104 143 188 236 286 342
#     4  12  26  44  66  92 123 156 193 238 288 348
#     4  10  21  39  63  90 121 157 197 242 292 347
#     4   9  15  22  34  57  93 137 184 235 289 341
#
# _framework density 21.367486
#
# number of rings (size 3 to 8) (size 9 to 14) (size 15 to 20)
#    0.000    2.286    0.000    3.857    0.000    9.143 
#    0.000    0.000    0.000    0.000    0.000    1.000 
#    0.000    0.000    0.000    0.000    0.000    0.000 
#
# Total GULP energy -347237.936238 kJ/mol
# GULP energy per Si atom -12401.354866 kJ/mol
# Density = 2.131885 g / cm^3
# Si number density = 21.367486 Si / 1000 Ang^3
#
#
#
# Elastic Constant Matrix: (Units=GPa)
#
#
# Indices 1 2 3 4 5 6 
#
# 1 203.7258 37.4308 99.6832 0.0000 0.0000 0.0000
# 2 37.4308 60.1363 44.1524 0.0000 0.0000 0.0000
# 3 99.6832 44.1524 208.2287 0.0000 0.0000 0.0000
# 4 0.0000 0.0000 0.0000 -369.4641 0.0000 0.0000
# 5 0.0000 0.0000 0.0000 0.0000 48.8132 0.0000
# 6 0.0000 0.0000 0.0000 0.0000 0.0000 14.9955
#
#
#
# Elastic Compliance Matrix: (Units=1/GPa)
#
#
# Indices 1 2 3 4 5 6 
#
# 1 0.006632 -0.002128 -0.002724 0.000000 0.000000 0.000000
# 2 -0.002128 0.020378 -0.003302 0.000000 0.000000 0.000000
# 3 -0.002724 -0.003302 0.006806 0.000000 0.000000 0.000000
# 4 0.000000 0.000000 0.000000 -0.002707 0.000000 0.000000
# 5 0.000000 0.000000 0.000000 0.000000 0.020486 0.000000
# 6 0.000000 0.000000 0.000000 0.000000 0.000000 0.066687
#
#
# Mechanical properties :
#
#
# Convention : Reuss Voigt Hill
#
# Bulk Modulus (GPa) = 57.11498 92.73595 74.92547
# Shear Modulus (GPa) = 35.60557 -41.74277 -3.06860
#
# Velocity S-wave (km/s) = 4.08652 -4.42471 -1.19968
# Velocity P-wave (km/s) = 7.00386 4.17021 5.76388
#
# Compressibility (1/GPa) = 0.01750854
#
# Stress axis : x y z
#
# Youngs Moduli (GPa) = 150.77648 49.07250 146.91913
#
# Poissons Ratio (x) = 0.10445 0.40017
# Poissons Ratio (y) = 0.32091 0.48513
# Poissons Ratio (z) = 0.41067 0.16204
#
# Static dielectric constant tensor:
#      x y z
#    x 4.075130 0.000000 0.000000 
#    y 0.000000 3.483370 0.000000 
#    z 0.000000 0.000000 4.047040 
# 
# 
# High freq. dielectric constant tensor:
#      x y z
#    x 1.853900 0.000000 0.000000 
#    y 0.000000 1.815750 0.000000 
#    z 0.000000 0.000000 1.843230 
# 
# From -- ./inp_files/26864.got.cif
#   From: 2010.03.12/outbox.cif.g09.slc.cpg/sg51_14_cif.got.tgz:26864.got - 2010.04.16 13:43:02.
