data_PCOD8214901
_publ_section_title
;
Structure prediction by ZEFSAII (Michael W. Deem and Ramdas Pophale) SiO2 
 PCOD8214901
Probable space group: P M M A
;
_chemical_formula_sum "Si O2"
_cell_formula_units_Z 52
_cell_length_a 9.000000
_cell_length_b 18.000000
_cell_length_c 18.000000
_cell_angle_alpha 90.000000
_cell_angle_beta 90.000000
_cell_angle_gamma 90.000000
_cell_volume 2916.000000
_symmetry_space_group_name_H-M "P M M A"
_symmetry_group_IT_number 51
_symmetry_cell_setting 'orthorhombic'
loop_
_space_group_symop_operation_xyz
x,y,z
1/2-x,-y,z
1/2+x,-y,-z
-x,y,-z
-x,-y,-z
1/2+x,y,-z
1/2-x,y,z
x,-y,z
loop_
_atom_site_type_symbol
_atom_site_label
_atom_site_fract_x
_atom_site_fract_y
_atom_site_fract_z
Si Si1 0.076884 0.724436 0.691984
Si Si2 0.920734 0.213053 0.145703
Si Si3 0.424722 0.414121 0.235563
Si Si4 0.920828 0.084854 0.922514
Si Si5 0.932118 0.844667 0.582524
Si Si6 0.925904 0.650533 0.923598
Si Si7 0.067623 0.000000 0.581591
O O1 0.250000 0.716517 0.667528
O O2 0.062498 0.767147 0.768844
O O3 0.008901 0.641435 0.706690
O O4 0.985830 0.773293 0.631332
O O5 0.750000 0.213055 0.120147
O O6 0.993761 0.132078 0.139437
O O7 0.010892 0.267462 0.091252
O O8 0.250000 0.400272 0.246387
O O9 0.467170 0.500000 0.253887
O O10 0.468016 0.399141 0.148891
O O11 0.750000 0.109303 0.929015
O O12 0.935506 0.000000 0.897346
O O13 0.000000 0.099826 0.000000
O O14 0.750000 0.847979 0.580725
O O15 0.000000 0.833257 0.500000
O O16 0.001184 0.922576 0.616692
O O17 0.750000 0.653230 0.935518
O O18 0.000000 0.618805 0.000000
O O19 0.000000 0.000000 0.500000
O O20 0.250000 0.000000 0.583528
#
# Coordination Sequence:
#
# PCOD8214901 Si02
#       7
#     8   8   8   8   8   8   4
#     4  10  21  37  56  81 109 141 180 221 267 322
#     4  10  20  34  51  70  97 132 171 216 264 316
#     4   9  19  36  56  78 106 142 181 223 273 328
#     4  10  20  33  49  68  92 126 169 218 266 315
#     4  11  21  36  59  86 116 150 185 223 266 316
#     4  10  19  31  49  73 102 135 173 219 267 320
#     4  10  18  32  54  82 116 148 181 218 259 308
#
# _framework density 17.832647000000001
#
# number of rings (size 3 to 8) (size 9 to 14) (size 15 to 20)
#    0.000    2.000    0.000    5.308    0.000    4.000 
#    1.385    0.000    0.000    0.462    0.000    0.000 
#    0.000    0.000    0.000    0.000    0.000    0.000 
#
# Total GULP energy -644486.431699 kJ/mol
# GULP energy per Si atom -12393.969840 kJ/mol
# Density = 1.779206 g / cm^3
# Si number density = 17.832647 Si / 1000 Ang^3
#
#
#
# Elastic Constant Matrix: (Units=GPa)
#
#
# Indices 1 2 3 4 5 6 
#
# 1 153.0843 60.8431 38.6516 0.0000 0.0000 0.0000
# 2 60.8431 140.5589 47.0072 0.0000 0.0000 0.0000
# 3 38.6516 47.0072 65.6466 0.0000 0.0000 0.0000
# 4 0.0000 0.0000 0.0000 34.0509 0.0000 0.0000
# 5 0.0000 0.0000 0.0000 0.0000 33.6936 0.0000
# 6 0.0000 0.0000 0.0000 0.0000 0.0000 36.0402
#
#
#
# Elastic Compliance Matrix: (Units=1/GPa)
#
#
# Indices 1 2 3 4 5 6 
#
# 1 0.008331 -0.002585 -0.003054 0.000000 0.000000 0.000000
# 2 -0.002585 0.010157 -0.005751 0.000000 0.000000 0.000000
# 3 -0.003054 -0.005751 0.021149 0.000000 0.000000 0.000000
# 4 0.000000 0.000000 0.000000 0.029368 0.000000 0.000000
# 5 0.000000 0.000000 0.000000 0.000000 0.029679 0.000000
# 6 0.000000 0.000000 0.000000 0.000000 0.000000 0.027747
#
#
# Mechanical properties :
#
#
# Convention : Reuss Voigt Hill
#
# Bulk Modulus (GPa) = 59.32233 72.47706 65.89969
# Shear Modulus (GPa) = 32.29364 34.94280 33.61822
#
# Velocity S-wave (km/s) = 4.26012 4.43141 4.34661
# Velocity P-wave (km/s) = 7.58528 8.18012 7.88831
#
# Compressibility (1/GPa) = 0.01685706
#
# Stress axis : x y z
#
# Youngs Moduli (GPa) = 120.03692 98.45850 47.28268
#
# Poissons Ratio (x) = 0.25448 0.14441
# Poissons Ratio (y) = 0.31026 0.27192
# Poissons Ratio (z) = 0.36662 0.56623
#
# Static dielectric constant tensor:
#      x y z
#    x 3.712890 0.000000 0.000000 
#    y 0.000000 3.635500 0.000000 
#    z 0.000000 0.000000 3.211170 
# 
# 
# High freq. dielectric constant tensor:
#      x y z
#    x 1.721850 0.000000 0.000000 
#    y 0.000000 1.704330 0.000000 
#    z 0.000000 0.000000 1.672540 
# 
# From -- ./inp_files/27948.got.cif
#   From: 2010.03.12/outbox.ucp.g09.slc.cvg/sg51_14_cif.got.tgz:27948.got - 2010.05.04 19:16:16.
