data_PCOD8214283
_publ_section_title
;
Structure prediction by ZEFSAII (Michael W. Deem and Ramdas Pophale) SiO2 
 PCOD8214283
Probable space group: P M M A
;
_chemical_formula_sum "Si O2"
_cell_formula_units_Z 40
_cell_length_a 13.873642
_cell_length_b 14.237283
_cell_length_c 9.543779
_cell_angle_alpha 90.000000
_cell_angle_beta 90.000000
_cell_angle_gamma 90.000000
_cell_volume 1885.115548
_symmetry_space_group_name_H-M "P M M A"
_symmetry_group_IT_number 51
_symmetry_cell_setting 'orthorhombic'
loop_
_space_group_symop_operation_xyz
x,y,z
1/2-x,-y,z
1/2+x,-y,-z
-x,y,-z
-x,-y,-z
1/2+x,y,-z
1/2-x,y,z
x,-y,z
loop_
_atom_site_type_symbol
_atom_site_label
_atom_site_fract_x
_atom_site_fract_y
_atom_site_fract_z
Si Si1 0.458049 0.890506 0.278481
Si Si2 0.636898 0.271594 0.855513
Si Si3 0.980221 0.608659 0.655936
Si Si4 0.860289 0.393083 0.119748
Si Si5 0.355915 0.110397 0.567071
O O1 0.418513 0.828684 0.149317
O O2 0.565369 0.853745 0.319923
O O3 0.388164 0.869110 0.409011
O O4 0.456759 0.000000 0.235933
O O5 0.750000 0.253630 0.853512
O O6 0.608195 0.333519 0.720634
O O7 0.604331 0.325703 0.995259
O O8 0.949932 0.500000 0.653382
O O9 0.000000 0.646442 0.500000
O O10 0.077189 0.626954 0.743398
O O11 0.750000 0.373407 0.160866
O O12 0.874079 0.500000 0.066629
O O13 0.250000 0.155503 0.595082
O O14 0.350845 0.000000 0.587225
#
# Coordination Sequence:
#
# PCOD8214283 Si02
#       5
#     8   8   8   8   8
#     4   9  18  31  49  79 117 156 203 253 300 354
#     4  11  22  34  55  86 119 159 202 242 292 357
#     4  10  22  39  61  89 118 148 189 246 303 354
#     4   9  19  39  65  89 116 153 194 237 293 361
#     4   8  14  27  48  72 105 153 203 252 307 359
#
# _framework density 21.218857
#
# number of rings (size 3 to 8) (size 9 to 14) (size 15 to 20)
#    0.000    2.600    0.000    3.000    2.800    4.800 
#    0.000    3.000    0.000    3.600    0.000    0.000 
#    0.000    3.200    0.000    0.000    0.000    0.000 
#
# Total GULP energy -495960.150708 kJ/mol
# GULP energy per Si atom -12399.003768 kJ/mol
# Density = 2.117056 g / cm^3
# Si number density = 21.218857 Si / 1000 Ang^3
#
#
#
# Elastic Constant Matrix: (Units=GPa)
#
#
# Indices 1 2 3 4 5 6 
#
# 1 138.4504 42.8014 49.0408 0.0000 0.0000 0.0000
# 2 42.8014 95.3835 53.4923 0.0000 0.0000 0.0000
# 3 49.0408 53.4923 116.9274 0.0000 0.0000 0.0000
# 4 0.0000 0.0000 0.0000 12.9255 0.0000 0.0000
# 5 0.0000 0.0000 0.0000 0.0000 26.9971 0.0000
# 6 0.0000 0.0000 0.0000 0.0000 0.0000 31.1531
#
#
#
# Elastic Compliance Matrix: (Units=1/GPa)
#
#
# Indices 1 2 3 4 5 6 
#
# 1 0.008926 -0.002564 -0.002571 0.000000 0.000000 0.000000
# 2 -0.002564 0.014838 -0.005713 0.000000 0.000000 0.000000
# 3 -0.002571 -0.005713 0.012244 0.000000 0.000000 0.000000
# 4 0.000000 0.000000 0.000000 0.077366 0.000000 0.000000
# 5 0.000000 0.000000 0.000000 0.000000 0.037041 0.000000
# 6 0.000000 0.000000 0.000000 0.000000 0.000000 0.032099
#
#
# Mechanical properties :
#
#
# Convention : Reuss Voigt Hill
#
# Bulk Modulus (GPa) = 69.86442 71.27004 70.56723
# Shear Modulus (GPa) = 23.92557 27.91027 25.91792
#
# Velocity S-wave (km/s) = 3.36156 3.63071 3.49873
# Velocity P-wave (km/s) = 6.93281 7.15801 7.04631
#
# Compressibility (1/GPa) = 0.01431344
#
# Stress axis : x y z
#
# Youngs Moduli (GPa) = 112.03287 67.39316 81.67122
#
# Poissons Ratio (x) = 0.17277 0.20997
# Poissons Ratio (y) = 0.28720 0.46659
# Poissons Ratio (z) = 0.28802 0.38502
#
# Static dielectric constant tensor:
#      x y z
#    x 4.299040 0.000000 0.000000 
#    y 0.000000 3.801960 0.000000 
#    z 0.000000 0.000000 3.603190 
# 
# 
# High freq. dielectric constant tensor:
#      x y z
#    x 1.841120 0.000000 0.000000 
#    y 0.000000 1.830050 0.000000 
#    z 0.000000 0.000000 1.805570 
# 
# From -- ./inp_files/7929.got.cif
#   From: 2010.03.12/outbox.cif.g09.slc.cpg/sg51_4_cif.got.tgz:7929.got - 2010.04.16 13:43:02.
