data_PCOD8214678
_publ_section_title
;
Structure prediction by ZEFSAII (Michael W. Deem and Ramdas Pophale) SiO2 
 PCOD8214678
Probable space group: P M M A
;
_chemical_formula_sum "Si O2"
_cell_formula_units_Z 56
_cell_length_a 14.482656
_cell_length_b 8.946667
_cell_length_c 21.290360
_cell_angle_alpha 90.000000
_cell_angle_beta 90.000000
_cell_angle_gamma 90.000000
_cell_volume 2758.623892
_symmetry_space_group_name_H-M "P M M A"
_symmetry_group_IT_number 51
_symmetry_cell_setting 'orthorhombic'
loop_
_space_group_symop_operation_xyz
x,y,z
1/2-x,-y,z
1/2+x,-y,-z
-x,y,-z
-x,-y,-z
1/2+x,y,-z
1/2-x,y,z
x,-y,z
loop_
_atom_site_type_symbol
_atom_site_label
_atom_site_fract_x
_atom_site_fract_y
_atom_site_fract_z
Si Si1 0.522254 0.824022 0.719654
Si Si2 0.142199 0.674856 0.657376
Si Si3 0.857892 0.169406 0.947955
Si Si4 0.021121 0.674976 0.152432
Si Si5 0.860349 0.671575 0.614911
Si Si6 0.850820 0.323577 0.479250
Si Si7 0.144652 0.173287 0.907917
O O1 0.418229 0.767292 0.706570
O O2 0.557533 0.755035 0.784885
O O3 0.593499 0.777141 0.665828
O O4 0.521464 0.000000 0.725652
O O5 0.250000 0.717764 0.664241
O O6 0.127963 0.500000 0.670516
O O7 0.102138 0.718636 0.587453
O O8 0.750000 0.189940 0.935829
O O9 0.911973 0.284360 0.904724
O O10 0.888427 0.000000 0.931856
O O11 0.882252 0.205219 0.019988
O O12 0.022937 0.500000 0.163850
O O13 0.917237 0.726323 0.137324
O O14 0.750000 0.690813 0.616654
O O15 0.888000 0.500000 0.629098
O O16 0.899930 0.720778 0.545254
O O17 0.750000 0.247816 0.478615
O O18 0.837640 0.500000 0.480562
O O19 0.250000 0.218787 0.895273
O O20 0.128286 0.000000 0.892090
#
# Coordination Sequence:
#
# PCOD8214678 Si02
#       7
#     8   8   8   8   8   8   8
#     4  12  26  40  54  76 111 154 194 229 274 336
#     4   9  18  36  61  85 110 141 182 232 280 330
#     4   9  19  38  64  91 118 149 183 220 269 330
#     4  12  25  39  57  82 114 151 191 235 278 321
#     4   9  18  36  61  85 110 141 182 232 280 330
#     4   7  12  27  55  86 109 135 174 222 279 335
#     4   9  19  38  64  91 118 149 183 220 269 330
#
# _framework density 20.299976999999998
#
# number of rings (size 3 to 8) (size 9 to 14) (size 15 to 20)
#    0.000    2.429    0.000    5.571    0.000    5.143 
#    0.000    5.000    0.000    2.571    0.000    0.000 
#    0.000    0.000    0.000    0.000    0.000    0.000 
#
# Total GULP energy -694119.380709 kJ/mol
# GULP energy per Si atom -12394.988941 kJ/mol
# Density = 2.025377 g / cm^3
# Si number density = 20.299977 Si / 1000 Ang^3
#
#
#
# Elastic Constant Matrix: (Units=GPa)
#
#
# Indices 1 2 3 4 5 6 
#
# 1 29.5173 16.9170 6.0072 0.0000 0.0000 0.0000
# 2 16.9170 103.3748 35.9015 0.0000 0.0000 0.0000
# 3 6.0072 35.9015 71.0683 0.0000 0.0000 0.0000
# 4 0.0000 0.0000 0.0000 15.1839 0.0000 0.0000
# 5 0.0000 0.0000 0.0000 0.0000 21.1113 0.0000
# 6 0.0000 0.0000 0.0000 0.0000 0.0000 30.6462
#
#
#
# Elastic Compliance Matrix: (Units=1/GPa)
#
#
# Indices 1 2 3 4 5 6 
#
# 1 0.037385 -0.006089 -0.000084 0.000000 0.000000 0.000000
# 2 -0.006089 0.012723 -0.005913 0.000000 0.000000 0.000000
# 3 -0.000084 -0.005913 0.017065 0.000000 0.000000 0.000000
# 4 0.000000 0.000000 0.000000 0.065859 0.000000 0.000000
# 5 0.000000 0.000000 0.000000 0.000000 0.047368 0.000000
# 6 0.000000 0.000000 0.000000 0.000000 0.000000 0.032630
#
#
# Mechanical properties :
#
#
# Convention : Reuss Voigt Hill
#
# Bulk Modulus (GPa) = 23.25466 35.73464 29.49465
# Shear Modulus (GPa) = 19.87780 23.06393 21.47087
#
# Velocity S-wave (km/s) = 3.13262 3.37435 3.25573
# Velocity P-wave (km/s) = 4.95629 5.72915 5.35667
#
# Compressibility (1/GPa) = 0.04300213
#
# Stress axis : x y z
#
# Youngs Moduli (GPa) = 26.74855 78.59516 58.59929
#
# Poissons Ratio (x) = 0.47854 0.00494
# Poissons Ratio (y) = 0.16286 0.34649
# Poissons Ratio (z) = 0.00225 0.46472
#
# Static dielectric constant tensor:
#      x y z
#    x 3.583290 0.000000 0.000000 
#    y 0.000000 3.307780 0.000000 
#    z 0.000000 0.000000 3.882990 
# 
# 
# High freq. dielectric constant tensor:
#      x y z
#    x 1.792120 0.000000 0.000000 
#    y 0.000000 1.758670 0.000000 
#    z 0.000000 0.000000 1.803890 
# 
# From -- ./inp_files/33462.got.cif
#   From: 2010.03.12/outbox.cif.g09.slc.cpg/sg51_17_cif.got.tgz:33462.got - 2010.04.16 13:43:02.
