data_PCOD8214465
_publ_section_title
;
Structure prediction by ZEFSAII (Michael W. Deem and Ramdas Pophale) SiO2 
 PCOD8214465
Probable space group: P M M A
;
_chemical_formula_sum "Si O2"
_cell_formula_units_Z 56
_cell_length_a 9.082409
_cell_length_b 14.502399
_cell_length_c 22.834935
_cell_angle_alpha 90.000000
_cell_angle_beta 90.000000
_cell_angle_gamma 90.000000
_cell_volume 3007.742721
_symmetry_space_group_name_H-M "P M M A"
_symmetry_group_IT_number 51
_symmetry_cell_setting 'orthorhombic'
loop_
_space_group_symop_operation_xyz
x,y,z
1/2-x,-y,z
1/2+x,-y,-z
-x,y,-z
-x,-y,-z
1/2+x,y,-z
1/2-x,y,z
x,-y,z
loop_
_atom_site_type_symbol
_atom_site_label
_atom_site_fract_x
_atom_site_fract_y
_atom_site_fract_z
Si Si1 0.082470 0.107324 0.153737
Si Si2 0.081036 0.394957 0.102237
Si Si3 0.076396 0.724375 0.668789
Si Si4 0.417441 0.605803 0.238466
Si Si5 0.077822 0.896030 0.288476
Si Si6 0.576300 0.776398 0.058139
Si Si7 0.423171 0.605323 0.559190
O O1 0.250000 0.139587 0.141491
O O2 0.041014 0.126921 0.221012
O O3 0.971411 0.163972 0.113791
O O4 0.065188 0.000000 0.139286
O O5 0.250000 0.376651 0.084121
O O6 0.036477 0.500000 0.088450
O O7 0.059792 0.373057 0.170465
O O8 0.974279 0.329441 0.065473
O O9 0.250000 0.732804 0.668877
O O10 0.019824 0.669979 0.611613
O O11 0.027964 0.669756 0.726346
O O12 0.008621 0.826734 0.669032
O O13 0.250000 0.628640 0.256858
O O14 0.454842 0.500000 0.252378
O O15 0.250000 0.884580 0.299852
O O16 0.027398 0.000000 0.303499
O O17 0.750000 0.781360 0.050866
O O18 0.500000 0.817729 0.000000
O O19 0.500000 0.639693 0.500000
O O20 0.250000 0.614231 0.550428
O O21 0.468408 0.500000 0.573752
#
# Coordination Sequence:
#
# PCOD8214465 Si02
#       7
#     8   8   8   8   8   8   8
#     4   9  19  38  61  81 104 134 167 208 258 308
#     4   9  19  37  57  75 100 134 171 213 257 302
#     4  11  21  31  49  79 112 141 170 214 267 310
#     4   9  18  32  51  76 105 138 173 206 248 308
#     4   9  19  36  57  80 106 138 174 210 252 307
#     4  12  25  38  54  76 102 133 170 212 257 309
#     4   9  19  35  52  73 105 144 183 220 258 301
#
# _framework density 18.618614000000001
#
# number of rings (size 3 to 8) (size 9 to 14) (size 15 to 20)
#    0.000    2.286    0.000    4.714    0.000    8.000 
#    0.000    4.286    0.000    0.429    0.000    0.000 
#    0.000    0.000    0.000    0.000    0.000    0.000 
#
# Total GULP energy -694544.002530 kJ/mol
# GULP energy per Si atom -12402.571474 kJ/mol
# Density = 1.857624 g / cm^3
# Si number density = 18.618614 Si / 1000 Ang^3
#
#
#
# Elastic Constant Matrix: (Units=GPa)
#
#
# Indices 1 2 3 4 5 6 
#
# 1 83.6765 46.7079 43.0354 0.0000 0.0000 0.0000
# 2 46.7079 96.0659 53.8036 0.0000 0.0000 0.0000
# 3 43.0354 53.8036 71.1129 0.0000 0.0000 0.0000
# 4 0.0000 0.0000 0.0000 23.9366 0.0000 0.0000
# 5 0.0000 0.0000 0.0000 0.0000 31.1327 0.0000
# 6 0.0000 0.0000 0.0000 0.0000 0.0000 32.1038
#
#
#
# Elastic Compliance Matrix: (Units=1/GPa)
#
#
# Indices 1 2 3 4 5 6 
#
# 1 0.018513 -0.004731 -0.007624 0.000000 0.000000 0.000000
# 2 -0.004731 0.019273 -0.011719 0.000000 0.000000 0.000000
# 3 -0.007624 -0.011719 0.027542 0.000000 0.000000 0.000000
# 4 0.000000 0.000000 0.000000 0.041777 0.000000 0.000000
# 5 0.000000 0.000000 0.000000 0.000000 0.032121 0.000000
# 6 0.000000 0.000000 0.000000 0.000000 0.000000 0.031149
#
#
# Mechanical properties :
#
#
# Convention : Reuss Voigt Hill
#
# Bulk Modulus (GPa) = 58.20522 59.77215 58.98868
# Shear Modulus (GPa) = 22.29663 24.58850 23.44257
#
# Velocity S-wave (km/s) = 3.46431 3.63800 3.55222
# Velocity P-wave (km/s) = 6.87980 7.05832 6.96963
#
# Compressibility (1/GPa) = 0.01718059
#
# Stress axis : x y z
#
# Youngs Moduli (GPa) = 54.01709 51.88545 36.30789
#
# Poissons Ratio (x) = 0.24548 0.27680
# Poissons Ratio (y) = 0.25556 0.42549
# Poissons Ratio (z) = 0.41181 0.60804
#
# Static dielectric constant tensor:
#      x y z
#    x 3.256900 0.000000 0.000000 
#    y 0.000000 3.525230 0.000000 
#    z 0.000000 0.000000 3.333220 
# 
# 
# High freq. dielectric constant tensor:
#      x y z
#    x 1.714190 0.000000 0.000000 
#    y 0.000000 1.728650 0.000000 
#    z 0.000000 0.000000 1.708250 
# 
# From -- ./inp_files/31865.got.cif
#   From: 2010.03.12/outbox.cif.g09.slc.cpg/sg51_16_cif.got.tgz:31865.got - 2010.04.16 13:43:02.
