data_PCOD8214360
_publ_section_title
;
Structure prediction by ZEFSAII (Michael W. Deem and Ramdas Pophale) SiO2 
 PCOD8214360
Probable space group: P M M A
;
_chemical_formula_sum "Si O2"
_cell_formula_units_Z 56
_cell_length_a 19.976195
_cell_length_b 15.568369
_cell_length_c 9.544202
_cell_angle_alpha 90.000000
_cell_angle_beta 90.000000
_cell_angle_gamma 90.000000
_cell_volume 2968.216042
_symmetry_space_group_name_H-M "P M M A"
_symmetry_group_IT_number 51
_symmetry_cell_setting 'orthorhombic'
loop_
_space_group_symop_operation_xyz
x,y,z
1/2-x,-y,z
1/2+x,-y,-z
-x,y,-z
-x,-y,-z
1/2+x,y,-z
1/2-x,y,z
x,-y,z
loop_
_atom_site_type_symbol
_atom_site_label
_atom_site_fract_x
_atom_site_fract_y
_atom_site_fract_z
Si Si1 0.673940 0.724151 0.528179
Si Si2 0.481867 0.278391 0.161267
Si Si3 0.676590 0.905041 0.060941
Si Si4 0.168477 0.000000 0.390165
Si Si5 0.359863 0.835542 0.223414
Si Si6 0.938627 0.000000 0.396154
Si Si7 0.903756 0.177580 0.291730
Si Si8 0.438441 0.399978 0.396551
O O1 0.750000 0.702246 0.480252
O O2 0.676966 0.763223 0.684523
O O3 0.640373 0.794278 0.425146
O O4 0.628500 0.638917 0.532342
O O5 0.431482 0.197714 0.167702
O O6 0.546393 0.253895 0.252340
O O7 0.450944 0.360426 0.241742
O O8 0.500000 0.301185 0.000000
O O9 0.750000 0.918717 0.121953
O O10 0.641653 0.835472 0.157032
O O11 0.641215 0.000000 0.056452
O O12 0.683862 0.863014 0.908567
O O13 0.133577 0.080887 0.318569
O O14 0.250000 0.000000 0.389146
O O15 0.138217 0.000000 0.545945
O O16 0.944533 0.911223 0.311557
O O17 0.000000 0.000000 0.500000
O O18 0.500000 0.380758 0.500000
O O19 0.426124 0.500000 0.375095
#
# Coordination Sequence:
#
# PCOD8214360 Si02
#       8
#     8   8   8   4   8   4   8   8
#     4  11  23  39  64  91 120 155 198 250 301 360
#     4  11  23  40  62  88 121 156 198 247 300 365
#     4  11  22  36  52  77 116 162 210 255 295 342
#     4  12  22  35  55  79 115 162 213 258 301 353
#     4  11  22  36  56  84 117 157 206 251 298 344
#     4  12  26  37  55  82 123 164 207 262 304 343
#     4  12  23  39  55  86 118 161 206 248 300 345
#     4  10  22  42  69  96 121 149 188 241 305 372
#
# _framework density 18.86655
#
# number of rings (size 3 to 8) (size 9 to 14) (size 15 to 20)
#    0.000    0.857    5.714    2.571    2.000    1.143 
#    0.000    1.429    0.000    0.000    0.000    0.000 
#    0.000    0.000    0.000    0.000    0.000    0.000 
#
# Total GULP energy -694107.099372 kJ/mol
# GULP energy per Si atom -12394.769632 kJ/mol
# Density = 1.882361 g / cm^3
# Si number density = 18.866550 Si / 1000 Ang^3
#
#
#
# Elastic Constant Matrix: (Units=GPa)
#
#
# Indices 1 2 3 4 5 6 
#
# 1 95.2823 39.2609 21.6490 0.0000 0.0000 0.0000
# 2 39.2609 109.5506 28.6306 0.0000 0.0000 0.0000
# 3 21.6490 28.6306 76.5566 0.0000 0.0000 0.0000
# 4 0.0000 0.0000 0.0000 23.8405 0.0000 0.0000
# 5 0.0000 0.0000 0.0000 0.0000 18.8856 0.0000
# 6 0.0000 0.0000 0.0000 0.0000 0.0000 -27.1202
#
#
#
# Elastic Compliance Matrix: (Units=1/GPa)
#
#
# Indices 1 2 3 4 5 6 
#
# 1 0.012605 -0.003974 -0.002078 0.000000 0.000000 0.000000
# 2 -0.003974 0.011370 -0.003128 0.000000 0.000000 0.000000
# 3 -0.002078 -0.003128 0.014820 0.000000 0.000000 0.000000
# 4 0.000000 0.000000 0.000000 0.041945 0.000000 0.000000
# 5 0.000000 0.000000 0.000000 0.000000 0.052950 0.000000
# 6 0.000000 0.000000 0.000000 0.000000 0.000000 -0.036873
#
#
# Mechanical properties :
#
#
# Convention : Reuss Voigt Hill
#
# Bulk Modulus (GPa) = 48.93969 51.16339 50.05154
# Shear Modulus (GPa) = 40.98684 15.91110 28.44897
#
# Velocity S-wave (km/s) = 4.66602 2.90720 3.88739
# Velocity P-wave (km/s) = 7.41790 6.20053 6.83637
#
# Compressibility (1/GPa) = 0.02043331
#
# Stress axis : x y z
#
# Youngs Moduli (GPa) = 79.33432 87.95028 67.47711
#
# Poissons Ratio (x) = 0.34953 0.14023
# Poissons Ratio (y) = 0.31529 0.21109
# Poissons Ratio (z) = 0.16487 0.27514
#
# Static dielectric constant tensor:
#      x y z
#    x 3.537730 0.000000 0.000000 
#    y 0.000000 3.300060 0.000000 
#    z 0.000000 0.000000 3.483200 
# 
# 
# High freq. dielectric constant tensor:
#      x y z
#    x 1.734870 0.000000 0.000000 
#    y 0.000000 1.714600 0.000000 
#    z 0.000000 0.000000 1.737130 
# 
# From -- ./inp_files/11046.got.cif
#   From: 2010.03.12/outbox.cif.g09.slc.cpg/sg51_6_cif.got.tgz:11046.got - 2010.04.16 13:43:02.
