data_PCOD8214238
_publ_section_title
;
Structure prediction by ZEFSAII (Michael W. Deem and Ramdas Pophale) SiO2 
 PCOD8214238
Probable space group: P M M A
;
_chemical_formula_sum "Si O2"
_cell_formula_units_Z 56
_cell_length_a 14.672238
_cell_length_b 19.240905
_cell_length_c 9.986553
_cell_angle_alpha 90.000000
_cell_angle_beta 90.000000
_cell_angle_gamma 90.000000
_cell_volume 2819.275191
_symmetry_space_group_name_H-M "P M M A"
_symmetry_group_IT_number 51
_symmetry_cell_setting 'orthorhombic'
loop_
_space_group_symop_operation_xyz
x,y,z
1/2-x,-y,z
1/2+x,-y,-z
-x,y,-z
-x,-y,-z
1/2+x,y,-z
1/2-x,y,z
x,-y,z
loop_
_atom_site_type_symbol
_atom_site_label
_atom_site_fract_x
_atom_site_fract_y
_atom_site_fract_z
Si Si1 0.511370 0.423868 0.657428
Si Si2 0.853525 0.075581 0.166901
Si Si3 0.645298 0.811901 0.768316
Si Si4 0.352490 0.313156 0.419314
Si Si5 0.143907 0.220130 0.945265
Si Si6 0.642184 0.329591 0.275106
Si Si7 0.015865 0.078164 0.354333
O O1 0.500000 0.432667 0.500000
O O2 0.537428 0.500000 0.717201
O O3 0.590703 0.366893 0.672188
O O4 0.419350 0.399225 0.735955
O O5 0.750000 0.086162 0.215541
O O6 0.884246 0.139636 0.074893
O O7 0.914412 0.076856 0.297599
O O8 0.864703 0.000000 0.092786
O O9 0.750000 0.836355 0.791535
O O10 0.636854 0.762796 0.641155
O O11 0.583701 0.878730 0.740247
O O12 0.611979 0.768427 0.900954
O O13 0.250000 0.341370 0.411040
O O14 0.381001 0.302921 0.574611
O O15 0.250000 0.231770 0.929148
O O16 0.103543 0.273515 0.834060
O O17 0.750000 0.346426 0.256820
O O18 0.000000 0.111698 0.500000
O O19 0.056131 0.000000 0.364606
#
# Coordination Sequence:
#
# PCOD8214238 Si02
#       7
#     8   8   8   8   8   8   8
#     4   9  18  32  53  82 111 140 178 225 276 327
#     4   9  19  36  56  77 105 142 184 229 275 325
#     4  10  22  38  57  81 111 146 184 229 279 329
#     4   9  19  34  53  79 109 144 183 223 273 330
#     4   9  19  35  55  81 108 141 185 229 276 327
#     4   9  18  33  55  81 109 142 181 225 274 332
#     4  10  23  38  54  81 113 146 187 233 281 334
#
# _framework density 19.863261000000001
#
# number of rings (size 3 to 8) (size 9 to 14) (size 15 to 20)
#    0.000    2.714    0.000    0.000    4.000    3.143 
#    0.000    7.143    0.000    1.714    0.000    4.000 
#    0.000    0.000    0.000    0.000    0.000    0.000 
#
# Total GULP energy -693738.725660 kJ/mol
# GULP energy per Si atom -12388.191530 kJ/mol
# Density = 1.981805 g / cm^3
# Si number density = 19.863261 Si / 1000 Ang^3
#
#
#
# Elastic Constant Matrix: (Units=GPa)
#
#
# Indices 1 2 3 4 5 6 
#
# 1 67.4624 38.8012 26.1925 0.0000 0.0000 0.0000
# 2 38.8012 98.5838 35.7311 0.0000 0.0000 0.0000
# 3 26.1925 35.7311 87.3876 0.0000 0.0000 0.0000
# 4 0.0000 0.0000 0.0000 8.3085 0.0000 0.0000
# 5 0.0000 0.0000 0.0000 0.0000 22.0174 0.0000
# 6 0.0000 0.0000 0.0000 0.0000 0.0000 25.2369
#
#
#
# Elastic Compliance Matrix: (Units=1/GPa)
#
#
# Indices 1 2 3 4 5 6 
#
# 1 0.019915 -0.006662 -0.003245 0.000000 0.000000 0.000000
# 2 -0.006662 0.014137 -0.003784 0.000000 0.000000 0.000000
# 3 -0.003245 -0.003784 0.013963 0.000000 0.000000 0.000000
# 4 0.000000 0.000000 0.000000 0.120358 0.000000 0.000000
# 5 0.000000 0.000000 0.000000 0.000000 0.045419 0.000000
# 6 0.000000 0.000000 0.000000 0.000000 0.000000 0.039624
#
#
# Mechanical properties :
#
#
# Convention : Reuss Voigt Hill
#
# Bulk Modulus (GPa) = 48.46502 50.54261 49.50382
# Shear Modulus (GPa) = 17.38072 21.29316 19.33694
#
# Velocity S-wave (km/s) = 2.96128 3.27767 3.12349
# Velocity P-wave (km/s) = 6.01203 6.31068 6.16317
#
# Compressibility (1/GPa) = 0.02063344
#
# Stress axis : x y z
#
# Youngs Moduli (GPa) = 50.21439 70.73614 71.61816
#
# Poissons Ratio (x) = 0.47124 0.23240
# Poissons Ratio (y) = 0.33453 0.27097
# Poissons Ratio (z) = 0.16295 0.26764
#
# Static dielectric constant tensor:
#      x y z
#    x 3.629650 0.000000 0.000000 
#    y 0.000000 3.770950 0.000000 
#    z 0.000000 0.000000 3.544410 
# 
# 
# High freq. dielectric constant tensor:
#      x y z
#    x 1.774820 0.000000 0.000000 
#    y 0.000000 1.764090 0.000000 
#    z 0.000000 0.000000 1.754720 
# 
# From -- ./inp_files/8481.got.cif
#   From: 2010.03.12/outbox.cif.g09.slc.cpg/sg51_5_cif.got.tgz:8481.got - 2010.04.16 13:43:02.
