data_PCOD8214226
_publ_section_title
;
Structure prediction by ZEFSAII (Michael W. Deem and Ramdas Pophale) SiO2 
 PCOD8214226
Probable space group: P M M A
;
_chemical_formula_sum "Si O2"
_cell_formula_units_Z 40
_cell_length_a 15.809509
_cell_length_b 7.496618
_cell_length_c 17.397082
_cell_angle_alpha 90.000000
_cell_angle_beta 90.000000
_cell_angle_gamma 90.000000
_cell_volume 2061.864750
_symmetry_space_group_name_H-M "P M M A"
_symmetry_group_IT_number 51
_symmetry_cell_setting 'orthorhombic'
loop_
_space_group_symop_operation_xyz
x,y,z
1/2-x,-y,z
1/2+x,-y,-z
-x,y,-z
-x,-y,-z
1/2+x,y,-z
1/2-x,y,z
x,-y,z
loop_
_atom_site_type_symbol
_atom_site_label
_atom_site_fract_x
_atom_site_fract_y
_atom_site_fract_z
Si Si1 0.079033 0.704994 0.306574
Si Si2 0.913850 0.288205 0.035690
Si Si3 0.843381 0.000000 0.312593
Si Si4 0.494633 0.000000 0.409461
Si Si5 0.414733 0.295841 0.789559
Si Si6 0.250000 0.711130 0.227190
Si Si7 0.750000 0.712969 0.945867
O O1 0.085215 0.500000 0.334408
O O2 0.167536 0.776707 0.273085
O O3 0.011296 0.726379 0.238280
O O4 0.053680 0.823799 0.379778
O O5 0.916092 0.500000 0.030873
O O6 0.908279 0.225973 0.123653
O O7 0.833141 0.213363 0.989302
O O8 0.000000 0.208470 0.000000
O O9 0.853158 0.823348 0.261404
O O10 0.750000 0.000000 0.348741
O O11 0.908880 0.000000 0.381973
O O12 0.500000 0.000000 0.500000
O O13 0.384443 0.500000 0.782034
O O14 0.250000 0.500000 0.220868
O O15 0.250000 0.789616 0.140865
O O16 0.750000 0.500000 0.946192
#
# Coordination Sequence:
#
# PCOD8214226 Si02
#       7
#     8   8   4   4   8   4   4
#     4   9  18  34  57  83 110 145 180 215 263 319
#     4   9  16  26  43  71 104 140 183 226 267 306
#     4  10  22  38  56  79 106 136 176 221 266 321
#     4  10  22  41  60  84 109 136 169 213 273 331
#     4   9  18  33  54  76 106 147 187 223 264 314
#     4   9  16  29  51  81 114 144 184 226 260 311
#     4   9  16  24  41  71 105 141 182 227 267 301
#
# _framework density 19.399915
#
# number of rings (size 3 to 8) (size 9 to 14) (size 15 to 20)
#    0.000    2.800    0.000    1.200    1.400    6.000 
#    1.800    0.500    0.000    2.400    0.000    0.000 
#    0.000    0.000    0.000    0.000    0.000    0.000 
#
# Total GULP energy -495994.626085 kJ/mol
# GULP energy per Si atom -12399.865652 kJ/mol
# Density = 1.935576 g / cm^3
# Si number density = 19.399915 Si / 1000 Ang^3
#
#
#
# Elastic Constant Matrix: (Units=GPa)
#
#
# Indices 1 2 3 4 5 6 
#
# 1 162.3603 33.0661 76.5239 0.0000 0.0000 0.0000
# 2 33.0661 72.9018 46.0800 0.0000 0.0000 0.0000
# 3 76.5239 46.0800 171.5277 0.0000 0.0000 0.0000
# 4 0.0000 0.0000 0.0000 -13.7246 0.0000 0.0000
# 5 0.0000 0.0000 0.0000 0.0000 18.2743 0.0000
# 6 0.0000 0.0000 0.0000 0.0000 0.0000 7.4116
#
#
#
# Elastic Compliance Matrix: (Units=1/GPa)
#
#
# Indices 1 2 3 4 5 6 
#
# 1 0.007960 -0.001645 -0.003109 0.000000 0.000000 0.000000
# 2 -0.001645 0.016863 -0.003796 0.000000 0.000000 0.000000
# 3 -0.003109 -0.003796 0.008237 0.000000 0.000000 0.000000
# 4 0.000000 0.000000 0.000000 -0.072862 0.000000 0.000000
# 5 0.000000 0.000000 0.000000 0.000000 0.054722 0.000000
# 6 0.000000 0.000000 0.000000 0.000000 0.000000 0.134924
#
#
# Mechanical properties :
#
#
# Convention : Reuss Voigt Hill
#
# Bulk Modulus (GPa) = 62.66233 79.79219 71.22726
# Shear Modulus (GPa) = 29.02550 19.13359 24.07954
#
# Velocity S-wave (km/s) = 3.87223 3.14390 3.52692
# Velocity P-wave (km/s) = 7.23620 7.37552 7.30619
#
# Compressibility (1/GPa) = 0.01595855
#
# Stress axis : x y z
#
# Youngs Moduli (GPa) = 125.63539 59.30237 121.40570
#
# Poissons Ratio (x) = 0.09755 0.37746
# Poissons Ratio (y) = 0.20667 0.46088
# Poissons Ratio (z) = 0.39061 0.22512
#
# Static dielectric constant tensor:
#      x y z
#    x 3.683990 0.000000 0.000000 
#    y 0.000000 3.471480 0.000000 
#    z 0.000000 0.000000 3.269470 
# 
# 
# High freq. dielectric constant tensor:
#      x y z
#    x 1.762000 0.000000 0.000000 
#    y 0.000000 1.746270 0.000000 
#    z 0.000000 0.000000 1.730590 
# 
# From -- ./inp_files/23849.got.cif
#   From: 2010.03.12/outbox.cif.g09.slc.cpg/sg51_12_cif.got.tgz:23849.got - 2010.04.16 13:43:02.
