data_PCOD8214688
_publ_section_title
;
Structure prediction by ZEFSAII (Michael W. Deem and Ramdas Pophale) SiO2 
 PCOD8214688
Probable space group: P M M A
;
_chemical_formula_sum "Si O2"
_cell_formula_units_Z 56
_cell_length_a 18.697700
_cell_length_b 14.560769
_cell_length_c 13.830562
_cell_angle_alpha 90.000000
_cell_angle_beta 90.000000
_cell_angle_gamma 90.000000
_cell_volume 3765.410482
_symmetry_space_group_name_H-M "P M M A"
_symmetry_group_IT_number 51
_symmetry_cell_setting 'orthorhombic'
loop_
_space_group_symop_operation_xyz
x,y,z
1/2-x,-y,z
1/2+x,-y,-z
-x,y,-z
-x,-y,-z
1/2+x,y,-z
1/2-x,y,z
x,-y,z
loop_
_atom_site_type_symbol
_atom_site_label
_atom_site_fract_x
_atom_site_fract_y
_atom_site_fract_z
Si Si1 0.891986 0.600000 0.060384
Si Si2 0.469238 0.789108 0.215483
Si Si3 0.372875 0.211768 0.868665
Si Si4 0.079550 0.896617 0.041965
Si Si5 0.172155 0.104621 0.691958
Si Si6 0.949624 0.399747 0.855981
Si Si7 0.522734 0.892581 0.393085
O O1 0.856375 0.500000 0.082198
O O2 0.848021 0.683002 0.110287
O O3 0.971331 0.600877 0.101787
O O4 0.895251 0.616551 0.945006
O O5 0.546743 0.791821 0.168697
O O6 0.416850 0.847140 0.146207
O O7 0.441066 0.683299 0.221275
O O8 0.472378 0.834242 0.321380
O O9 0.323282 0.167792 0.787011
O O10 0.367296 0.154729 0.968079
O O11 0.107093 0.000000 0.055579
O O12 0.000000 0.894891 0.000000
O O13 0.250000 0.114851 0.639520
O O14 0.106961 0.132326 0.621010
O O15 0.159915 0.000000 0.726511
O O16 0.934258 0.500000 0.807487
O O17 0.500000 0.863470 0.500000
O O18 0.508623 0.000000 0.373878
#
# Coordination Sequence:
#
# PCOD8214688 Si02
#       7
#     8   8   8   8   8   8   8
#     4   8  12  18  29  47  73 103 131 154 178 212
#     4   9  14  21  33  51  75 100 125 156 196 235
#     4   9  14  21  33  51  75 101 126 153 183 222
#     4   9  14  18  27  47  74 100 123 147 177 217
#     4   9  17  28  41  57  77 103 133 160 193 245
#     4   8  12  18  29  47  73 103 130 153 181 222
#     4   9  17  28  41  57  77 100 130 173 217 249
#
# _framework density 14.872216
#
# number of rings (size 3 to 8) (size 9 to 14) (size 15 to 20)
#    0.000    3.286    1.429    1.714    0.000    3.429 
#    0.000    0.000    0.000    0.857    0.000    1.000 
#    0.000    4.571    0.000    0.000    0.000    0.000 
#
# Total GULP energy -693735.164126 kJ/mol
# GULP energy per Si atom -12388.127931 kJ/mol
# Density = 1.483837 g / cm^3
# Si number density = 14.872216 Si / 1000 Ang^3
#
#
#
# Elastic Constant Matrix: (Units=GPa)
#
#
# Indices 1 2 3 4 5 6 
#
# 1 30.7452 16.0590 24.1007 0.0000 0.0000 0.0000
# 2 16.0590 118.4188 54.4391 0.0000 0.0000 0.0000
# 3 24.1007 54.4391 94.1100 0.0000 0.0000 0.0000
# 4 0.0000 0.0000 0.0000 17.3946 0.0000 0.0000
# 5 0.0000 0.0000 0.0000 0.0000 9.2876 0.0000
# 6 0.0000 0.0000 0.0000 0.0000 0.0000 5.5857
#
#
#
# Elastic Compliance Matrix: (Units=1/GPa)
#
#
# Indices 1 2 3 4 5 6 
#
# 1 0.040780 -0.000993 -0.009869 0.000000 0.000000 0.000000
# 2 -0.000993 0.011528 -0.006414 0.000000 0.000000 0.000000
# 3 -0.009869 -0.006414 0.016863 0.000000 0.000000 0.000000
# 4 0.000000 0.000000 0.000000 0.057489 0.000000 0.000000
# 5 0.000000 0.000000 0.000000 0.000000 0.107670 0.000000
# 6 0.000000 0.000000 0.000000 0.000000 0.000000 0.179029
#
#
# Mechanical properties :
#
#
# Convention : Reuss Voigt Hill
#
# Bulk Modulus (GPa) = 28.88581 48.05242 38.46911
# Shear Modulus (GPa) = 10.88251 16.36525 13.62388
#
# Velocity S-wave (km/s) = 2.70799 3.32081 3.02994
# Velocity P-wave (km/s) = 5.40763 6.86178 6.17764
#
# Compressibility (1/GPa) = 0.03461908
#
# Stress axis : x y z
#
# Youngs Moduli (GPa) = 24.52165 86.74532 59.29968
#
# Poissons Ratio (x) = 0.08618 0.58522
# Poissons Ratio (y) = 0.02436 0.38035
# Poissons Ratio (z) = 0.24200 0.55639
#
# Static dielectric constant tensor:
#      x y z
#    x 2.442050 0.000000 0.000000 
#    y 0.000000 3.336610 0.000000 
#    z 0.000000 0.000000 2.657840 
# 
# 
# High freq. dielectric constant tensor:
#      x y z
#    x 1.515010 0.000000 0.000000 
#    y 0.000000 1.583740 0.000000 
#    z 0.000000 0.000000 1.529190 
# 
# From -- ./inp_files/25255.got.cif
#   From: 2010.03.12/outbox.cif.g09.slc.cpg/sg51_13_cif.got.tgz:25255.got - 2010.04.16 13:43:02.
