data_PCOD8214084
_publ_section_title
;
Structure prediction by ZEFSAII (Michael W. Deem and Ramdas Pophale) SiO2 
 PCOD8214084
Probable space group: P M M A
;
_chemical_formula_sum "Si O2"
_cell_formula_units_Z 48
_cell_length_a 16.005641
_cell_length_b 18.537479
_cell_length_c 7.305236
_cell_angle_alpha 90.000000
_cell_angle_beta 90.000000
_cell_angle_gamma 90.000000
_cell_volume 2167.494451
_symmetry_space_group_name_H-M "P M M A"
_symmetry_group_IT_number 51
_symmetry_cell_setting 'orthorhombic'
loop_
_space_group_symop_operation_xyz
x,y,z
1/2-x,-y,z
1/2+x,-y,-z
-x,y,-z
-x,-y,-z
1/2+x,y,-z
1/2-x,y,z
x,-y,z
loop_
_atom_site_type_symbol
_atom_site_label
_atom_site_fract_x
_atom_site_fract_y
_atom_site_fract_z
Si Si1 0.843580 0.813591 0.686146
Si Si2 0.845078 0.344173 0.730750
Si Si3 0.009409 0.581084 0.783073
Si Si4 0.657627 0.678289 0.158351
Si Si5 0.588240 0.174635 0.061743
Si Si6 0.911633 0.918922 0.403224
O O1 0.750000 0.793187 0.723641
O O2 0.881211 0.733185 0.657081
O O3 0.851395 0.865539 0.512787
O O4 0.872595 0.853313 0.871696
O O5 0.750000 0.364459 0.657625
O O6 0.921450 0.398690 0.680837
O O7 0.840029 0.344443 0.948772
O O8 0.032005 0.500000 0.722975
O O9 0.088114 0.632792 0.727976
O O10 0.000000 0.587244 0.000000
O O11 0.750000 0.665686 0.246665
O O12 0.638479 0.763662 0.169102
O O13 0.579767 0.105729 0.193598
O O14 0.500000 0.208161 0.000000
O O15 0.000000 0.914398 0.500000
O O16 0.875462 0.000000 0.406609
#
# Coordination Sequence:
#
# PCOD8214084 Si02
#       6
#     8   8   8   8   8   8
#     4  10  21  39  61  87 120 158 200 251 305 358
#     4   8  15  29  50  75 107 149 197 244 292 348
#     4   9  16  25  42  73 113 152 191 237 294 351
#     4   9  17  29  48  76 109 149 200 245 290 351
#     4  11  20  37  64  87 114 158 205 255 301 361
#     4  11  25  41  60  90 121 154 197 247 306 372
#
# _framework density 22.145388000000001
#
# number of rings (size 3 to 8) (size 9 to 14) (size 15 to 20)
#    0.000    2.333    1.667    4.000    0.000    3.333 
#    0.000    3.333    0.000    0.000    0.000    2.333 
#    0.000    2.667    0.000    1.000    0.000    0.000 
#
# Total GULP energy -594690.666010 kJ/mol
# GULP energy per Si atom -12389.388875 kJ/mol
# Density = 2.209498 g / cm^3
# Si number density = 22.145388 Si / 1000 Ang^3
#
#
#
# Elastic Constant Matrix: (Units=GPa)
#
#
# Indices 1 2 3 4 5 6 
#
# 1 128.3306 60.5572 12.3073 0.0000 0.0000 0.0000
# 2 60.5572 110.8112 25.8231 0.0000 0.0000 0.0000
# 3 12.3073 25.8231 48.8043 0.0000 0.0000 0.0000
# 4 0.0000 0.0000 0.0000 18.0008 0.0000 0.0000
# 5 0.0000 0.0000 0.0000 0.0000 8.4147 0.0000
# 6 0.0000 0.0000 0.0000 0.0000 0.0000 21.4106
#
#
#
# Elastic Compliance Matrix: (Units=1/GPa)
#
#
# Indices 1 2 3 4 5 6 
#
# 1 0.010509 -0.005846 0.000443 0.000000 0.000000 0.000000
# 2 -0.005846 0.013546 -0.005693 0.000000 0.000000 0.000000
# 3 0.000443 -0.005693 0.023391 0.000000 0.000000 0.000000
# 4 0.000000 0.000000 0.000000 0.055553 0.000000 0.000000
# 5 0.000000 0.000000 0.000000 0.000000 0.118840 0.000000
# 6 0.000000 0.000000 0.000000 0.000000 0.000000 0.046706
#
#
# Mechanical properties :
#
#
# Convention : Reuss Voigt Hill
#
# Bulk Modulus (GPa) = 39.59913 53.92457 46.76185
# Shear Modulus (GPa) = 16.71383 22.18245 19.44814
#
# Velocity S-wave (km/s) = 2.75022 3.16836 2.96666
# Velocity P-wave (km/s) = 5.29199 6.14717 5.73554
#
# Compressibility (1/GPa) = 0.02525308
#
# Stress axis : x y z
#
# Youngs Moduli (GPa) = 95.16062 73.82309 42.75239
#
# Poissons Ratio (x) = 0.43158 -0.01895
# Poissons Ratio (y) = 0.55632 0.24339
# Poissons Ratio (z) = -0.04218 0.42028
#
# Static dielectric constant tensor:
#      x y z
#    x 4.496290 0.000000 0.000000 
#    y 0.000000 3.868990 0.000000 
#    z 0.000000 0.000000 3.645980 
# 
# 
# High freq. dielectric constant tensor:
#      x y z
#    x 1.878870 0.000000 0.000000 
#    y 0.000000 1.850040 0.000000 
#    z 0.000000 0.000000 1.851510 
# 
# From -- ./inp_files/8261.got.cif
#   From: 2010.03.12/outbox.cif.g09.slc.cpg/sg51_5_cif.got.tgz:8261.got - 2010.04.16 13:43:02.
