data_PCOD8214300
_publ_section_title
;
Structure prediction by ZEFSAII (Michael W. Deem and Ramdas Pophale) SiO2 
 PCOD8214300
Probable space group: P M M A
;
_chemical_formula_sum "Si O2"
_cell_formula_units_Z 48
_cell_length_a 15.414259
_cell_length_b 16.504126
_cell_length_c 9.670320
_cell_angle_alpha 90.000000
_cell_angle_beta 90.000000
_cell_angle_gamma 90.000000
_cell_volume 2460.118507
_symmetry_space_group_name_H-M "P M M A"
_symmetry_group_IT_number 51
_symmetry_cell_setting 'orthorhombic'
loop_
_space_group_symop_operation_xyz
x,y,z
1/2-x,-y,z
1/2+x,-y,-z
-x,y,-z
-x,-y,-z
1/2+x,y,-z
1/2-x,y,z
x,-y,z
loop_
_atom_site_type_symbol
_atom_site_label
_atom_site_fract_x
_atom_site_fract_y
_atom_site_fract_z
Si Si1 0.847072 0.340633 0.248126
Si Si2 0.099057 0.774256 0.980674
Si Si3 0.851987 0.093093 0.230041
Si Si4 0.654499 0.725939 0.732304
Si Si5 0.015763 0.590760 0.340860
Si Si6 0.400904 0.205062 0.537182
O O1 0.750000 0.378167 0.265506
O O2 0.852194 0.297467 0.100037
O O3 0.864154 0.275259 0.366306
O O4 0.922907 0.407319 0.261514
O O5 0.105315 0.858509 0.897235
O O6 0.141834 0.780314 0.131190
O O7 0.000000 0.749839 0.000000
O O8 0.750000 0.108190 0.226089
O O9 0.887816 0.121145 0.380161
O O10 0.877514 0.000000 0.210790
O O11 0.750000 0.685940 0.733055
O O12 0.583825 0.654176 0.722913
O O13 0.649986 0.790671 0.607266
O O14 0.053552 0.500000 0.325054
O O15 0.000000 0.613070 0.500000
O O16 0.500000 0.219685 0.500000
#
# Coordination Sequence:
#
# PCOD8214300 Si02
#       6
#     8   8   8   8   8   8
#     4  11  20  38  61  85 115 158 206 241 286 353
#     4  11  21  38  62  86 117 154 199 246 292 354
#     4  10  22  40  59  85 120 158 199 242 292 354
#     4  12  21  36  60  90 119 154 201 246 295 348
#     4  11  23  39  59  90 124 155 195 248 303 346
#     4  11  19  36  60  85 115 154 201 245 285 343
#
# _framework density 19.511255999999999
#
# number of rings (size 3 to 8) (size 9 to 14) (size 15 to 20)
#    0.000    1.000    5.000    5.000    0.000    1.333 
#    0.000    4.167    0.000    5.000    0.000    0.000 
#    0.000    0.000    0.000    0.000    0.000    0.000 
#
# Total GULP energy -595102.534496 kJ/mol
# GULP energy per Si atom -12397.969469 kJ/mol
# Density = 1.946685 g / cm^3
# Si number density = 19.511256 Si / 1000 Ang^3
#
#
#
# Elastic Constant Matrix: (Units=GPa)
#
#
# Indices 1 2 3 4 5 6 
#
# 1 143.9464 28.4941 33.0077 0.0000 0.0000 0.0000
# 2 28.4941 84.7837 43.7148 0.0000 0.0000 0.0000
# 3 33.0077 43.7148 145.0954 0.0000 0.0000 0.0000
# 4 0.0000 0.0000 0.0000 12.4035 0.0000 0.0000
# 5 0.0000 0.0000 0.0000 0.0000 26.7456 0.0000
# 6 0.0000 0.0000 0.0000 0.0000 0.0000 20.3492
#
#
#
# Elastic Compliance Matrix: (Units=1/GPa)
#
#
# Indices 1 2 3 4 5 6 
#
# 1 0.007597 -0.001968 -0.001135 0.000000 0.000000 0.000000
# 2 -0.001968 0.014474 -0.003913 0.000000 0.000000 0.000000
# 3 -0.001135 -0.003913 0.008329 0.000000 0.000000 0.000000
# 4 0.000000 0.000000 0.000000 0.080622 0.000000 0.000000
# 5 0.000000 0.000000 0.000000 0.000000 0.037389 0.000000
# 6 0.000000 0.000000 0.000000 0.000000 0.000000 0.049142
#
#
# Mechanical properties :
#
#
# Convention : Reuss Voigt Hill
#
# Bulk Modulus (GPa) = 61.09685 64.91764 63.00725
# Shear Modulus (GPa) = 23.03707 29.80692 26.42199
#
# Velocity S-wave (km/s) = 3.43987 3.91279 3.68393
# Velocity P-wave (km/s) = 6.86721 7.33194 7.10338
#
# Compressibility (1/GPa) = 0.01636746
#
# Stress axis : x y z
#
# Youngs Moduli (GPa) = 131.63275 69.09128 120.05925
#
# Poissons Ratio (x) = 0.13596 0.13631
# Poissons Ratio (y) = 0.25902 0.46979
# Poissons Ratio (z) = 0.14945 0.27035
#
# Static dielectric constant tensor:
#      x y z
#    x 3.707170 0.000000 0.000000 
#    y 0.000000 3.324820 0.000000 
#    z 0.000000 0.000000 4.134810 
# 
# 
# High freq. dielectric constant tensor:
#      x y z
#    x 1.774430 0.000000 0.000000 
#    y 0.000000 1.725470 0.000000 
#    z 0.000000 0.000000 1.769540 
# 
# From -- ./inp_files/8201.got.cif
#   From: 2010.03.12/outbox.cif.g09.slc.cpg/sg51_5_cif.got.tgz:8201.got - 2010.04.16 13:43:02.
