data_PCOD8214236
_publ_section_title
;
Structure prediction by ZEFSAII (Michael W. Deem and Ramdas Pophale) SiO2 
 PCOD8214236
Probable space group: P M M A
;
_chemical_formula_sum "Si O2"
_cell_formula_units_Z 44
_cell_length_a 9.529639
_cell_length_b 7.815772
_cell_length_c 30.253796
_cell_angle_alpha 90.000000
_cell_angle_beta 90.000000
_cell_angle_gamma 90.000000
_cell_volume 2253.347673
_symmetry_space_group_name_H-M "P M M A"
_symmetry_group_IT_number 51
_symmetry_cell_setting 'orthorhombic'
loop_
_space_group_symop_operation_xyz
x,y,z
1/2-x,-y,z
1/2+x,-y,-z
-x,y,-z
-x,-y,-z
1/2+x,y,-z
1/2-x,y,z
x,-y,z
loop_
_atom_site_type_symbol
_atom_site_label
_atom_site_fract_x
_atom_site_fract_y
_atom_site_fract_z
Si Si1 0.405315 0.804645 0.228040
Si Si2 0.906966 0.704825 0.960324
Si Si3 0.906852 0.797510 0.305634
Si Si4 0.087717 0.196663 0.390179
Si Si5 0.087703 0.500000 0.455830
Si Si6 0.583221 0.689659 0.865067
O O1 0.250000 0.717028 0.230641
O O2 0.512186 0.718473 0.262960
O O3 0.466044 0.795245 0.177969
O O4 0.388754 0.000000 0.241810
O O5 0.750000 0.774255 0.967771
O O6 0.907936 0.500000 0.960283
O O7 0.968106 0.767292 0.912361
O O8 0.000000 0.780670 0.000000
O O9 0.750000 0.718638 0.307970
O O10 0.992667 0.746539 0.349133
O O11 0.896162 0.000000 0.301258
O O12 0.250000 0.216177 0.375997
O O13 0.049846 0.326719 0.429407
O O14 0.056306 0.000000 0.404833
O O15 0.250000 0.500000 0.468777
O O16 0.000000 0.500000 0.500000
O O17 0.750000 0.685400 0.868306
O O18 0.522009 0.500000 0.858578
#
# Coordination Sequence:
#
# PCOD8214236 Si02
#       6
#     8   8   8   8   4   8
#     4   9  16  27  45  66  87 116 153 189 227 276
#     4   8  13  22  37  55  74  99 134 175 218 264
#     4   9  17  30  49  72  97 126 160 198 241 287
#     4   9  18  35  57  78 103 137 176 214 249 292
#     4  10  22  38  56  82 112 140 174 214 255 298
#     4   8  14  25  40  59  83 109 140 180 223 270
#
# _framework density 19.526503999999999
#
# number of rings (size 3 to 8) (size 9 to 14) (size 15 to 20)
#    0.000    3.273    0.000    1.636    0.000    3.273 
#    1.636    0.909    0.000    1.636    0.000    0.000 
#    0.000    0.000    0.000    0.000    0.000    0.000 
#
# Total GULP energy -545152.676042 kJ/mol
# GULP energy per Si atom -12389.833546 kJ/mol
# Density = 1.948206 g / cm^3
# Si number density = 19.526504 Si / 1000 Ang^3
#
#
#
# Elastic Constant Matrix: (Units=GPa)
#
#
# Indices 1 2 3 4 5 6 
#
# 1 101.6351 22.3726 95.2542 0.0000 0.0000 0.0000
# 2 22.3726 45.3863 39.0493 0.0000 0.0000 0.0000
# 3 95.2542 39.0493 199.5143 0.0000 0.0000 0.0000
# 4 0.0000 0.0000 0.0000 25.4071 0.0000 0.0000
# 5 0.0000 0.0000 0.0000 0.0000 36.2468 0.0000
# 6 0.0000 0.0000 0.0000 0.0000 0.0000 8.1988
#
#
#
# Elastic Compliance Matrix: (Units=1/GPa)
#
#
# Indices 1 2 3 4 5 6 
#
# 1 0.017925 -0.001771 -0.008211 0.000000 0.000000 0.000000
# 2 -0.001771 0.026670 -0.004374 0.000000 0.000000 0.000000
# 3 -0.008211 -0.004374 0.009789 0.000000 0.000000 0.000000
# 4 0.000000 0.000000 0.000000 0.039359 0.000000 0.000000
# 5 0.000000 0.000000 0.000000 0.000000 0.027589 0.000000
# 6 0.000000 0.000000 0.000000 0.000000 0.000000 0.121969
#
#
# Mechanical properties :
#
#
# Convention : Reuss Voigt Hill
#
# Bulk Modulus (GPa) = 38.95620 73.32089 56.13854
# Shear Modulus (GPa) = 17.82096 26.62785 22.22440
#
# Velocity S-wave (km/s) = 3.02430 3.69681 3.37733
# Velocity P-wave (km/s) = 5.67352 7.47347 6.63482
#
# Compressibility (1/GPa) = 0.02566986
#
# Stress axis : x y z
#
# Youngs Moduli (GPa) = 55.78935 37.49586 102.16032
#
# Poissons Ratio (x) = 0.06641 0.83885
# Poissons Ratio (y) = 0.09881 0.44688
# Poissons Ratio (z) = 0.45809 0.16402
#
# Static dielectric constant tensor:
#      x y z
#    x 3.581630 0.000000 0.000000 
#    y 0.000000 3.247320 0.000000 
#    z 0.000000 0.000000 3.745690 
# 
# 
# High freq. dielectric constant tensor:
#      x y z
#    x 1.730280 0.000000 0.000000 
#    y 0.000000 1.728550 0.000000 
#    z 0.000000 0.000000 1.768970 
# 
# From -- ./inp_files/36800.got.cif
#   From: 2010.03.12/outbox.cif.g09.slc.cpg/sg51_19_cif.got.tgz:36800.got - 2010.04.16 13:43:02.
