data_PCOD8214416
_publ_section_title
;
Structure prediction by ZEFSAII (Michael W. Deem and Ramdas Pophale) SiO2 
 PCOD8214416
Probable space group: P M M A
;
_chemical_formula_sum "Si O2"
_cell_formula_units_Z 48
_cell_length_a 21.972790
_cell_length_b 9.016812
_cell_length_c 15.171843
_cell_angle_alpha 90.000000
_cell_angle_beta 90.000000
_cell_angle_gamma 90.000000
_cell_volume 3005.914059
_symmetry_space_group_name_H-M "P M M A"
_symmetry_group_IT_number 51
_symmetry_cell_setting 'orthorhombic'
loop_
_space_group_symop_operation_xyz
x,y,z
1/2-x,-y,z
1/2+x,-y,-z
-x,y,-z
-x,-y,-z
1/2+x,y,-z
1/2-x,y,z
x,-y,z
loop_
_atom_site_type_symbol
_atom_site_label
_atom_site_fract_x
_atom_site_fract_y
_atom_site_fract_z
Si Si1 0.682304 0.176079 0.693611
Si Si2 0.085907 0.824568 0.442688
Si Si3 0.430977 0.164015 0.967898
Si Si4 0.543650 0.824672 0.372211
Si Si5 0.408295 0.825323 0.156765
Si Si6 0.534991 0.325059 0.196949
O O1 0.750000 0.245786 0.692229
O O2 0.644375 0.239080 0.609702
O O3 0.649078 0.223003 0.784207
O O4 0.686352 0.000000 0.687813
O O5 0.087349 0.778599 0.545755
O O6 0.024385 0.769210 0.395576
O O7 0.084864 0.000000 0.436292
O O8 0.423392 0.276428 0.886503
O O9 0.410977 0.000000 0.936244
O O10 0.500000 0.160895 0.000000
O O11 0.392316 0.213422 0.054468
O O12 0.566166 0.738292 0.285537
O O13 0.546047 0.000000 0.354610
O O14 0.467236 0.738552 0.189984
O O15 0.422938 0.000000 0.166831
O O16 0.532670 0.500000 0.200307
#
# Coordination Sequence:
#
# PCOD8214416 Si02
#       6
#     8   8   8   8   8   8
#     4   9  15  24  43  69  89 105 135 178 213 244
#     4   8  14  24  41  62  82 110 142 171 205 248
#     4   8  15  26  40  57  80 112 141 164 197 249
#     4   9  15  26  43  59  82 114 144 169 202 257
#     4   9  16  28  43  59  84 115 142 166 202 254
#     4  11  19  25  38  62  87 111 138 174 214 246
#
# _framework density 15.968521000000001
#
# number of rings (size 3 to 8) (size 9 to 14) (size 15 to 20)
#    0.000    3.000    1.667    3.500    0.000    3.000 
#    0.000    1.667    0.000    0.500    0.000    1.167 
#    0.000    9.333    0.000    0.000    0.000    0.000 
#
# Total GULP energy -594772.472972 kJ/mol
# GULP energy per Si atom -12391.093187 kJ/mol
# Density = 1.593218 g / cm^3
# Si number density = 15.968521 Si / 1000 Ang^3
#
#
#
# Elastic Constant Matrix: (Units=GPa)
#
#
# Indices 1 2 3 4 5 6 
#
# 1 72.1507 14.6983 57.0184 0.0000 0.0000 0.0000
# 2 14.6983 56.3165 47.8807 0.0000 0.0000 0.0000
# 3 57.0184 47.8807 167.6772 0.0000 0.0000 0.0000
# 4 0.0000 0.0000 0.0000 5.0910 0.0000 0.0000
# 5 0.0000 0.0000 0.0000 0.0000 19.0002 0.0000
# 6 0.0000 0.0000 0.0000 0.0000 0.0000 4.4581
#
#
#
# Elastic Compliance Matrix: (Units=1/GPa)
#
#
# Indices 1 2 3 4 5 6 
#
# 1 0.018974 0.000705 -0.006653 0.000000 0.000000 0.000000
# 2 0.000705 0.023476 -0.006943 0.000000 0.000000 0.000000
# 3 -0.006653 -0.006943 0.010209 0.000000 0.000000 0.000000
# 4 0.000000 0.000000 0.000000 0.196426 0.000000 0.000000
# 5 0.000000 0.000000 0.000000 0.000000 0.052631 0.000000
# 6 0.000000 0.000000 0.000000 0.000000 0.000000 0.224310
#
#
# Mechanical properties :
#
#
# Convention : Reuss Voigt Hill
#
# Bulk Modulus (GPa) = 37.20897 59.48213 48.34555
# Shear Modulus (GPa) = 8.91634 17.47967 13.19800
#
# Velocity S-wave (km/s) = 2.36555 3.31211 2.87801
# Velocity P-wave (km/s) = 5.55096 7.20814 6.43313
#
# Compressibility (1/GPa) = 0.02687524
#
# Stress axis : x y z
#
# Youngs Moduli (GPa) = 52.70292 42.59650 97.95308
#
# Poissons Ratio (x) = -0.03001 0.65172
# Poissons Ratio (y) = -0.03713 0.68011
# Poissons Ratio (z) = 0.35065 0.29576
#
# Static dielectric constant tensor:
#      x y z
#    x 2.879870 0.000000 0.000000 
#    y 0.000000 2.645030 0.000000 
#    z 0.000000 0.000000 3.589280 
# 
# 
# High freq. dielectric constant tensor:
#      x y z
#    x 1.552670 0.000000 0.000000 
#    y 0.000000 1.574790 0.000000 
#    z 0.000000 0.000000 1.636120 
# 
# From -- ./inp_files/25500.got.cif
#   From: 2010.03.12/outbox.cif.g09.slc.cpg/sg51_13_cif.got.tgz:25500.got - 2010.04.16 13:43:02.
