data_PCOD8214597
_publ_section_title
;
Structure prediction by ZEFSAII (Michael W. Deem and Ramdas Pophale) SiO2 
 PCOD8214597
Probable space group: P M M A
;
_chemical_formula_sum "Si O2"
_cell_formula_units_Z 48
_cell_length_a 16.801646
_cell_length_b 15.638669
_cell_length_c 8.649993
_cell_angle_alpha 90.000000
_cell_angle_beta 90.000000
_cell_angle_gamma 90.000000
_cell_volume 2272.832202
_symmetry_space_group_name_H-M "P M M A"
_symmetry_group_IT_number 51
_symmetry_cell_setting 'orthorhombic'
loop_
_space_group_symop_operation_xyz
x,y,z
1/2-x,-y,z
1/2+x,-y,-z
-x,y,-z
-x,-y,-z
1/2+x,y,-z
1/2-x,y,z
x,-y,z
loop_
_atom_site_type_symbol
_atom_site_label
_atom_site_fract_x
_atom_site_fract_y
_atom_site_fract_z
Si Si1 0.657940 0.500000 0.592165
Si Si2 0.341691 0.000000 0.570809
Si Si3 0.086039 0.162777 0.423249
Si Si4 0.090148 0.665133 0.558426
Si Si5 0.655106 0.000000 0.084535
Si Si6 0.343371 0.330412 0.891009
Si Si7 0.155833 0.500000 0.067252
Si Si8 0.912186 0.828156 0.941607
O O1 0.750000 0.500000 0.623409
O O2 0.637480 0.417474 0.493351
O O3 0.616278 0.500000 0.761110
O O4 0.362145 0.917349 0.472209
O O5 0.250000 0.000000 0.604696
O O6 0.381170 0.000000 0.741209
O O7 0.127684 0.249545 0.483456
O O8 0.082823 0.168235 0.241122
O O9 0.000000 0.152513 0.500000
O O10 0.099537 0.675927 0.742148
O O11 0.000000 0.655553 0.500000
O O12 0.750000 0.000000 0.077269
O O13 0.622245 0.083035 0.000664
O O14 0.250000 0.335440 0.844372
O O15 0.372702 0.415165 0.979480
O O16 0.355779 0.248589 0.000808
O O17 0.250000 0.500000 0.078654
O O18 0.000000 0.810678 0.000000
#
# Coordination Sequence:
#
# PCOD8214597 Si02
#       8
#     4   4   8   8   4   8   4   8
#     4  11  22  39  63  92 127 169 213 264 321 382
#     4  11  24  41  64  91 123 161 206 257 312 372
#     4  11  24  42  63  89 125 164 206 255 313 377
#     4  11  23  41  63  92 127 167 215 264 318 382
#     4  11  24  43  64  91 125 165 210 259 315 378
#     4  11  23  42  66  94 129 171 215 265 322 382
#     4   9  21  39  60  88 122 161 210 260 315 376
#     4  12  24  41  65  93 126 165 210 263 320 382
#
# _framework density 21.119026000000002
#
# number of rings (size 3 to 8) (size 9 to 14) (size 15 to 20)
#    0.000    1.000    0.000    7.750    0.000    5.333 
#    0.000    1.250    0.000    0.000    0.000    0.000 
#    0.000    0.000    0.000    0.000    0.000    0.000 
#
# Total GULP energy -595307.845152 kJ/mol
# GULP energy per Si atom -12402.246774 kJ/mol
# Density = 2.107096 g / cm^3
# Si number density = 21.119026 Si / 1000 Ang^3
#
#
#
# Elastic Constant Matrix: (Units=GPa)
#
#
# Indices 1 2 3 4 5 6 
#
# 1 57.3894 22.7320 26.3976 0.0000 0.0000 0.0000
# 2 22.7320 193.9900 70.4062 0.0000 0.0000 0.0000
# 3 26.3976 70.4062 196.9608 0.0000 0.0000 0.0000
# 4 0.0000 0.0000 0.0000 46.1708 0.0000 0.0000
# 5 0.0000 0.0000 0.0000 0.0000 33.2633 0.0000
# 6 0.0000 0.0000 0.0000 0.0000 0.0000 93.1346
#
#
#
# Elastic Compliance Matrix: (Units=1/GPa)
#
#
# Indices 1 2 3 4 5 6 
#
# 1 0.018938 -0.001491 -0.002005 0.000000 0.000000 0.000000
# 2 -0.001491 0.006041 -0.001959 0.000000 0.000000 0.000000
# 3 -0.002005 -0.001959 0.006046 0.000000 0.000000 0.000000
# 4 0.000000 0.000000 0.000000 0.021659 0.000000 0.000000
# 5 0.000000 0.000000 0.000000 0.000000 0.030063 0.000000
# 6 0.000000 0.000000 0.000000 0.000000 0.000000 0.010737
#
#
# Mechanical properties :
#
#
# Convention : Reuss Voigt Hill
#
# Bulk Modulus (GPa) = 49.71884 76.37907 63.04896
# Shear Modulus (GPa) = 45.00438 56.43404 50.71921
#
# Velocity S-wave (km/s) = 4.62127 5.17493 4.90592
# Velocity P-wave (km/s) = 7.21583 8.48240 7.87462
#
# Compressibility (1/GPa) = 0.02011310
#
# Stress axis : x y z
#
# Youngs Moduli (GPa) = 52.80436 165.53964 165.39009
#
# Poissons Ratio (x) = 0.24690 0.33160
# Poissons Ratio (y) = 0.07876 0.32408
# Poissons Ratio (z) = 0.10587 0.32437
#
# Static dielectric constant tensor:
#      x y z
#    x 3.699470 0.000000 0.000000 
#    y 0.000000 4.257470 0.000000 
#    z 0.000000 0.000000 4.124550 
# 
# 
# High freq. dielectric constant tensor:
#      x y z
#    x 1.815990 0.000000 0.000000 
#    y 0.000000 1.852870 0.000000 
#    z 0.000000 0.000000 1.848500 
# 
# From -- ./inp_files/9750.got.cif
#   From: 2010.03.12/outbox.cif.g09.slc.cpg/sg51_5_cif.got.tgz:9750.got - 2010.04.16 13:43:02.
