data_PCOD8214432
_publ_section_title
;
Structure prediction by ZEFSAII (Michael W. Deem and Ramdas Pophale) SiO2 
 PCOD8214432
Probable space group: P M M A
;
_chemical_formula_sum "Si O2"
_cell_formula_units_Z 48
_cell_length_a 14.252256
_cell_length_b 14.260007
_cell_length_c 14.059535
_cell_angle_alpha 90.000000
_cell_angle_beta 90.000000
_cell_angle_gamma 90.000000
_cell_volume 2857.421515
_symmetry_space_group_name_H-M "P M M A"
_symmetry_group_IT_number 51
_symmetry_cell_setting 'orthorhombic'
loop_
_space_group_symop_operation_xyz
x,y,z
1/2-x,-y,z
1/2+x,-y,-z
-x,y,-z
-x,-y,-z
1/2+x,y,-z
1/2-x,y,z
x,-y,z
loop_
_atom_site_type_symbol
_atom_site_label
_atom_site_fract_x
_atom_site_fract_y
_atom_site_fract_z
Si Si1 0.140903 0.607194 0.601216
Si Si2 0.998914 0.153858 0.111056
Si Si3 0.646960 0.000000 0.884255
Si Si4 0.858650 0.108365 0.407102
Si Si5 0.976840 0.748017 0.293484
Si Si6 0.647886 0.000000 0.107039
Si Si7 0.856876 0.252627 0.565994
O O1 0.250000 0.616482 0.627056
O O2 0.109625 0.500000 0.589340
O O3 0.082766 0.654218 0.686973
O O4 0.117947 0.661144 0.503708
O O5 0.994143 0.244252 0.179754
O O6 0.907463 0.092894 0.135720
O O7 0.090114 0.093840 0.142083
O O8 0.000000 0.184098 0.000000
O O9 0.750000 0.000000 0.834144
O O10 0.660559 0.000000 0.995574
O O11 0.750000 0.120716 0.377986
O O12 0.921970 0.159693 0.329021
O O13 0.875698 0.155479 0.510128
O O14 0.888266 0.000000 0.412916
O O15 0.077891 0.741174 0.342749
O O16 0.750000 0.000000 0.158019
O O17 0.750000 0.259445 0.601479
#
# Coordination Sequence:
#
# PCOD8214432 Si02
#       7
#     8   8   4   8   8   4   8
#     4   9  18  34  55  78 100 118 146 196 250 295
#     4   9  19  32  44  67  98 125 163 208 243 276
#     4   8  15  31  48  61  85 126 170 206 242 274
#     4   9  18  31  45  65  95 125 156 195 238 288
#     4  11  20  29  49  72  94 128 163 198 235 291
#     4   8  15  29  48  63  83 120 162 208 250 280
#     4   9  19  33  46  67  97 126 157 194 233 282
#
# _framework density 16.798361
#
# number of rings (size 3 to 8) (size 9 to 14) (size 15 to 20)
#    0.000    2.833    0.000    4.500    2.333    4.667 
#    0.000    0.000    0.000    0.500    0.000    0.000 
#    0.000    2.667    0.000    0.000    0.000    0.000 
#
# Total GULP energy -595014.060755 kJ/mol
# GULP energy per Si atom -12396.126266 kJ/mol
# Density = 1.676013 g / cm^3
# Si number density = 16.798361 Si / 1000 Ang^3
#
#
#
# Elastic Constant Matrix: (Units=GPa)
#
#
# Indices 1 2 3 4 5 6 
#
# 1 99.3766 36.0117 40.7310 0.0000 0.0000 0.0000
# 2 36.0117 113.1808 41.4295 0.0000 0.0000 0.0000
# 3 40.7310 41.4295 93.0327 0.0000 0.0000 0.0000
# 4 0.0000 0.0000 0.0000 14.4889 0.0000 0.0000
# 5 0.0000 0.0000 0.0000 0.0000 11.2794 0.0000
# 6 0.0000 0.0000 0.0000 0.0000 0.0000 19.5510
#
#
#
# Elastic Compliance Matrix: (Units=1/GPa)
#
#
# Indices 1 2 3 4 5 6 
#
# 1 0.012792 -0.002414 -0.004526 0.000000 0.000000 0.000000
# 2 -0.002414 0.011012 -0.003847 0.000000 0.000000 0.000000
# 3 -0.004526 -0.003847 0.014444 0.000000 0.000000 0.000000
# 4 0.000000 0.000000 0.000000 0.069018 0.000000 0.000000
# 5 0.000000 0.000000 0.000000 0.000000 0.088657 0.000000
# 6 0.000000 0.000000 0.000000 0.000000 0.000000 0.051148
#
#
# Mechanical properties :
#
#
# Convention : Reuss Voigt Hill
#
# Bulk Modulus (GPa) = 59.97143 60.21494 60.09318
# Shear Modulus (GPa) = 18.23470 21.55838 19.89654
#
# Velocity S-wave (km/s) = 3.29827 3.58629 3.44529
# Velocity P-wave (km/s) = 7.09106 7.28507 7.18872
#
# Compressibility (1/GPa) = 0.01667461
#
# Stress axis : x y z
#
# Youngs Moduli (GPa) = 78.17179 90.81374 69.23517
#
# Poissons Ratio (x) = 0.21919 0.31335
# Poissons Ratio (y) = 0.18867 0.26635
# Poissons Ratio (z) = 0.35379 0.34936
#
# Static dielectric constant tensor:
#      x y z
#    x 4.241090 0.000000 0.000000 
#    y 0.000000 3.081100 0.000000 
#    z 0.000000 0.000000 2.845760 
# 
# 
# High freq. dielectric constant tensor:
#      x y z
#    x 1.664710 0.000000 0.000000 
#    y 0.000000 1.620210 0.000000 
#    z 0.000000 0.000000 1.618680 
# 
# From -- ./inp_files/24239.got.cif
#   From: 2010.03.12/outbox.cif.g09.slc.cpg/sg51_13_cif.got.tgz:24239.got - 2010.04.16 13:43:02.
