data_PCOD8214569
_publ_section_title
;
Structure prediction by ZEFSAII (Michael W. Deem and Ramdas Pophale) SiO2 
 PCOD8214569
Probable space group: P M M A
;
_chemical_formula_sum "Si O2"
_cell_formula_units_Z 56
_cell_length_a 8.934510
_cell_length_b 19.718947
_cell_length_c 15.934322
_cell_angle_alpha 90.000000
_cell_angle_beta 90.000000
_cell_angle_gamma 90.000000
_cell_volume 2807.294974
_symmetry_space_group_name_H-M "P M M A"
_symmetry_group_IT_number 51
_symmetry_cell_setting 'orthorhombic'
loop_
_space_group_symop_operation_xyz
x,y,z
1/2-x,-y,z
1/2+x,-y,-z
-x,y,-z
-x,-y,-z
1/2+x,y,-z
1/2-x,y,z
x,-y,z
loop_
_atom_site_type_symbol
_atom_site_label
_atom_site_fract_x
_atom_site_fract_y
_atom_site_fract_z
Si Si1 0.586717 0.922836 0.924626
Si Si2 0.927892 0.708679 0.086925
Si Si3 0.419829 0.577128 0.345242
Si Si4 0.575070 0.576963 0.848751
Si Si5 0.073527 0.072759 0.753561
Si Si6 0.425496 0.302623 0.583800
Si Si7 0.428081 0.219928 0.741710
O O1 0.750000 0.888911 0.906315
O O2 0.473397 0.919421 0.848732
O O3 0.616985 0.000000 0.950989
O O4 0.500000 0.884342 0.000000
O O5 0.750000 0.711577 0.079407
O O6 0.986055 0.754335 0.166630
O O7 0.977615 0.630508 0.099127
O O8 0.000000 0.736151 0.000000
O O9 0.250000 0.602453 0.358661
O O10 0.436360 0.500000 0.373595
O O11 0.466826 0.585699 0.248638
O O12 0.530238 0.618984 0.405285
O O13 0.750000 0.591478 0.863592
O O14 0.535693 0.500000 0.877447
O O15 0.250000 0.068774 0.747737
O O16 0.016809 0.143683 0.714170
O O17 0.008622 0.000000 0.716713
O O18 0.500000 0.271918 0.500000
O O19 0.250000 0.293279 0.575339
O O20 0.491073 0.265824 0.666645
O O21 0.250000 0.222991 0.744398
#
# Coordination Sequence:
#
# PCOD8214569 Si02
#       7
#     8   8   8   8   8   8   8
#     4   9  16  26  41  65  98 132 167 209 255 307
#     4  11  22  37  55  78 109 148 191 234 276 324
#     4   9  18  34  57  85 116 147 182 227 276 326
#     4   9  18  34  56  81 110 144 185 233 278 321
#     4   9  17  32  55  78 100 132 173 218 271 329
#     4  11  22  38  59  84 113 147 186 228 272 328
#     4   9  20  38  57  80 112 143 179 227 276 329
#
# _framework density 19.948028000000001
#
# number of rings (size 3 to 8) (size 9 to 14) (size 15 to 20)
#    0.000    2.429    1.429    2.143    0.000    3.429 
#    0.000    5.714    0.000    0.429    0.000    0.000 
#    0.000    0.000    0.000    0.000    0.000    0.143 
#
# Total GULP energy -693762.588618 kJ/mol
# GULP energy per Si atom -12388.617654 kJ/mol
# Density = 1.990263 g / cm^3
# Si number density = 19.948028 Si / 1000 Ang^3
#
#
#
# Elastic Constant Matrix: (Units=GPa)
#
#
# Indices 1 2 3 4 5 6 
#
# 1 32.2673 27.0324 24.1543 0.0000 0.0000 0.0000
# 2 27.0324 113.4707 44.3678 0.0000 0.0000 0.0000
# 3 24.1543 44.3678 105.7333 0.0000 0.0000 0.0000
# 4 0.0000 0.0000 0.0000 19.0441 0.0000 0.0000
# 5 0.0000 0.0000 0.0000 0.0000 25.4890 0.0000
# 6 0.0000 0.0000 0.0000 0.0000 0.0000 13.6447
#
#
#
# Elastic Compliance Matrix: (Units=1/GPa)
#
#
# Indices 1 2 3 4 5 6 
#
# 1 0.042124 -0.007504 -0.006474 0.000000 0.000000 0.000000
# 2 -0.007504 0.011879 -0.003271 0.000000 0.000000 0.000000
# 3 -0.006474 -0.003271 0.012309 0.000000 0.000000 0.000000
# 4 0.000000 0.000000 0.000000 0.052510 0.000000 0.000000
# 5 0.000000 0.000000 0.000000 0.000000 0.039233 0.000000
# 6 0.000000 0.000000 0.000000 0.000000 0.000000 0.073288
#
#
# Mechanical properties :
#
#
# Convention : Reuss Voigt Hill
#
# Bulk Modulus (GPa) = 31.43156 49.17560 40.30358
# Shear Modulus (GPa) = 18.08673 22.03002 20.05837
#
# Velocity S-wave (km/s) = 3.01440 3.32681 3.17445
# Velocity P-wave (km/s) = 5.28265 6.28190 5.80382
#
# Compressibility (1/GPa) = 0.03181516
#
# Stress axis : x y z
#
# Youngs Moduli (GPa) = 23.73937 84.17989 81.24006
#
# Poissons Ratio (x) = 0.63167 0.52597
# Poissons Ratio (y) = 0.17814 0.26570
# Poissons Ratio (z) = 0.15370 0.27532
#
# Static dielectric constant tensor:
#      x y z
#    x 3.481020 0.000000 0.000000 
#    y 0.000000 4.045120 0.000000 
#    z 0.000000 0.000000 3.512240 
# 
# 
# High freq. dielectric constant tensor:
#      x y z
#    x 1.762060 0.000000 0.000000 
#    y 0.000000 1.780390 0.000000 
#    z 0.000000 0.000000 1.751020 
# 
# From -- ./inp_files/21801.got.cif
#   From: 2010.03.12/outbox.cif.g09.slc.cpg/sg51_11_cif.got.tgz:21801.got - 2010.04.16 13:43:02.
