data_PCOD8214286
_publ_section_title
;
Structure prediction by ZEFSAII (Michael W. Deem and Ramdas Pophale) SiO2 
 PCOD8214286
Probable space group: P M M A
;
_chemical_formula_sum "Si O2"
_cell_formula_units_Z 64
_cell_length_a 14.887172
_cell_length_b 21.811740
_cell_length_c 9.281664
_cell_angle_alpha 90.000000
_cell_angle_beta 90.000000
_cell_angle_gamma 90.000000
_cell_volume 3013.896686
_symmetry_space_group_name_H-M "P M M A"
_symmetry_group_IT_number 51
_symmetry_cell_setting 'orthorhombic'
loop_
_space_group_symop_operation_xyz
x,y,z
1/2-x,-y,z
1/2+x,-y,-z
-x,y,-z
-x,-y,-z
1/2+x,y,-z
1/2-x,y,z
x,-y,z
loop_
_atom_site_type_symbol
_atom_site_label
_atom_site_fract_x
_atom_site_fract_y
_atom_site_fract_z
Si Si1 0.855252 0.345205 0.349948
Si Si2 0.912778 0.163592 0.601789
Si Si3 0.901202 0.168566 0.041274
Si Si4 0.647917 0.431469 0.616815
Si Si5 0.854443 0.930249 0.825406
Si Si6 0.153728 0.206057 0.666114
Si Si7 0.351794 0.262309 0.173144
Si Si8 0.520274 0.378403 0.841062
O O1 0.750000 0.355161 0.306719
O O2 0.877524 0.381449 0.496590
O O3 0.880168 0.274075 0.374980
O O4 0.921569 0.368677 0.226197
O O5 0.909478 0.101443 0.695115
O O6 0.836293 0.165732 0.479086
O O7 0.898864 0.221166 0.705439
O O8 0.000000 0.170966 0.500000
O O9 0.904597 0.170035 0.214811
O O10 0.872805 0.102090 0.979236
O O11 0.840122 0.222141 0.972532
O O12 0.000000 0.186133 0.000000
O O13 0.750000 0.420517 0.671254
O O14 0.638531 0.500000 0.551681
O O15 0.578368 0.426424 0.748850
O O16 0.750000 0.925317 0.787116
O O17 0.887176 0.000000 0.838341
O O18 0.250000 0.211344 0.741144
O O19 0.250000 0.282785 0.218720
O O20 0.418089 0.318191 0.145918
O O21 0.500000 0.404611 0.000000
#
# Coordination Sequence:
#
# PCOD8214286 Si02
#       8
#     8   8   8   8   8   8   8   8
#     4  10  22  39  61  90 125 165 207 255 310 374
#     4  11  21  35  57  84 114 147 192 249 303 355
#     4  11  21  36  58  85 116 150 190 240 297 362
#     4  10  23  45  68  88 117 164 217 261 306 368
#     4  10  22  41  59  76 108 158 206 241 292 375
#     4  11  20  33  55  85 116 142 182 240 298 345
#     4  11  22  39  60  85 123 167 202 234 294 377
#     4  12  24  37  60  94 129 161 203 257 314 370
#
# _framework density 21.234967000000001
#
# number of rings (size 3 to 8) (size 9 to 14) (size 15 to 20)
#    0.000    1.250    0.000    8.625    0.000    4.750 
#    0.000    0.625    0.000    3.750    0.000    0.000 
#    0.000    0.000    0.000    0.000    0.000    0.000 
#
# Total GULP energy -793170.583303 kJ/mol
# GULP energy per Si atom -12393.290364 kJ/mol
# Density = 2.118663 g / cm^3
# Si number density = 21.234967 Si / 1000 Ang^3
#
#
#
# Elastic Constant Matrix: (Units=GPa)
#
#
# Indices 1 2 3 4 5 6 
#
# 1 99.4820 25.7159 25.6653 0.0000 0.0000 0.0000
# 2 25.7159 105.2034 56.8423 0.0000 0.0000 0.0000
# 3 25.6653 56.8423 122.9182 0.0000 0.0000 0.0000
# 4 0.0000 0.0000 0.0000 16.0744 0.0000 0.0000
# 5 0.0000 0.0000 0.0000 0.0000 32.7649 0.0000
# 6 0.0000 0.0000 0.0000 0.0000 0.0000 22.2238
#
#
#
# Elastic Compliance Matrix: (Units=1/GPa)
#
#
# Indices 1 2 3 4 5 6 
#
# 1 0.010906 -0.001914 -0.001392 0.000000 0.000000 0.000000
# 2 -0.001914 0.013007 -0.005616 0.000000 0.000000 0.000000
# 3 -0.001392 -0.005616 0.011023 0.000000 0.000000 0.000000
# 4 0.000000 0.000000 0.000000 0.062211 0.000000 0.000000
# 5 0.000000 0.000000 0.000000 0.000000 0.030520 0.000000
# 6 0.000000 0.000000 0.000000 0.000000 0.000000 0.044997
#
#
# Mechanical properties :
#
#
# Convention : Reuss Voigt Hill
#
# Bulk Modulus (GPa) = 58.50175 60.45007 59.47591
# Shear Modulus (GPa) = 25.48360 28.83796 27.16078
#
# Velocity S-wave (km/s) = 3.46797 3.68916 3.58027
# Velocity P-wave (km/s) = 6.60646 6.83195 6.72015
#
# Compressibility (1/GPa) = 0.01709350
#
# Stress axis : x y z
#
# Youngs Moduli (GPa) = 91.69335 76.88002 90.71915
#
# Poissons Ratio (x) = 0.14712 0.12630
# Poissons Ratio (y) = 0.17547 0.50944
# Poissons Ratio (z) = 0.12766 0.43172
#
# Static dielectric constant tensor:
#      x y z
#    x 4.151290 0.000000 0.000000 
#    y 0.000000 3.680140 0.000000 
#    z 0.000000 0.000000 4.090240 
# 
# 
# High freq. dielectric constant tensor:
#      x y z
#    x 1.853430 0.000000 0.000000 
#    y 0.000000 1.807190 0.000000 
#    z 0.000000 0.000000 1.835580 
# 
# From -- ./inp_files/8726.got.cif
#   From: 2010.03.12/outbox.cif.g09.slc.cpg/sg51_5_cif.got.tgz:8726.got - 2010.04.16 13:43:02.
