data_PCOD8214312
_publ_section_title
;
Structure prediction by ZEFSAII (Michael W. Deem and Ramdas Pophale) SiO2 
 PCOD8214312
Probable space group: P M M A
;
_chemical_formula_sum "Si O2"
_cell_formula_units_Z 48
_cell_length_a 9.550160
_cell_length_b 9.137163
_cell_length_c 29.378601
_cell_angle_alpha 90.000000
_cell_angle_beta 90.000000
_cell_angle_gamma 90.000000
_cell_volume 2563.616931
_symmetry_space_group_name_H-M "P M M A"
_symmetry_group_IT_number 51
_symmetry_cell_setting 'orthorhombic'
loop_
_space_group_symop_operation_xyz
x,y,z
1/2-x,-y,z
1/2+x,-y,-z
-x,y,-z
-x,-y,-z
1/2+x,y,-z
1/2-x,y,z
x,-y,z
loop_
_atom_site_type_symbol
_atom_site_label
_atom_site_fract_x
_atom_site_fract_y
_atom_site_fract_z
Si Si1 0.589456 0.174207 0.042912
Si Si2 0.090914 0.174458 0.128333
Si Si3 0.250000 0.827728 0.451300
Si Si4 0.518518 0.666258 0.603381
Si Si5 0.094299 0.826219 0.789443
Si Si6 0.250000 0.339700 0.542641
Si Si7 0.585785 0.168159 0.312662
O O1 0.750000 0.234740 0.042011
O O2 0.506349 0.231704 0.087195
O O3 0.595186 0.000000 0.042546
O O4 0.500000 0.232203 0.000000
O O5 0.250000 0.235668 0.124259
O O6 0.019920 0.234091 0.174803
O O7 0.095481 0.000000 0.127926
O O8 0.382734 0.768086 0.425534
O O9 0.250000 0.781619 0.503923
O O10 0.250000 0.000000 0.449802
O O11 0.574450 0.500000 0.606797
O O12 0.376965 0.677138 0.576269
O O13 0.502537 0.728798 0.654109
O O14 0.250000 0.764369 0.800893
O O15 0.049056 0.780103 0.738574
O O16 0.101862 0.000000 0.792179
O O17 0.250000 0.500000 0.518742
O O18 0.750000 0.187238 0.321908
O O19 0.541213 0.000000 0.320474
#
# Coordination Sequence:
#
# PCOD8214312 Si02
#       7
#     8   8   4   8   8   4   8
#     4   9  15  21  29  42  63  96 141 192 243 296
#     4   9  15  22  32  48  72 102 139 187 242 299
#     4  12  26  40  56  84 114 144 178 220 265 306
#     4  11  22  39  60  82 110 144 178 214 261 319
#     4   8  14  25  40  57  79 110 146 188 241 297
#     4  10  22  40  62  84 108 142 180 216 259 316
#     4   9  17  31  52  76 101 129 167 214 259 308
#
# _framework density 18.723547
#
# number of rings (size 3 to 8) (size 9 to 14) (size 15 to 20)
#    0.000    2.500    0.833    3.750    0.000    7.333 
#    1.500    0.000    0.000    0.000    0.000    0.000 
#    0.000    0.000    0.000    0.000    0.000    0.833 
#
# Total GULP energy -594980.129626 kJ/mol
# GULP energy per Si atom -12395.419367 kJ/mol
# Density = 1.868093 g / cm^3
# Si number density = 18.723547 Si / 1000 Ang^3
#
#
#
# Elastic Constant Matrix: (Units=GPa)
#
#
# Indices 1 2 3 4 5 6 
#
# 1 122.8535 27.0735 60.0270 0.0000 0.0000 0.0000
# 2 27.0735 63.2634 34.4217 0.0000 0.0000 0.0000
# 3 60.0270 34.4217 142.6838 0.0000 0.0000 0.0000
# 4 0.0000 0.0000 0.0000 1.3563 0.0000 0.0000
# 5 0.0000 0.0000 0.0000 0.0000 42.1727 0.0000
# 6 0.0000 0.0000 0.0000 0.0000 0.0000 13.7129
#
#
#
# Elastic Compliance Matrix: (Units=1/GPa)
#
#
# Indices 1 2 3 4 5 6 
#
# 1 0.010558 -0.002419 -0.003858 0.000000 0.000000 0.000000
# 2 -0.002419 0.018750 -0.003506 0.000000 0.000000 0.000000
# 3 -0.003858 -0.003506 0.009477 0.000000 0.000000 0.000000
# 4 0.000000 0.000000 0.000000 0.737305 0.000000 0.000000
# 5 0.000000 0.000000 0.000000 0.000000 0.023712 0.000000
# 6 0.000000 0.000000 0.000000 0.000000 0.000000 0.072924
#
#
# Mechanical properties :
#
#
# Convention : Reuss Voigt Hill
#
# Bulk Modulus (GPa) = 52.03087 63.53833 57.78460
# Shear Modulus (GPa) = 5.56361 25.26695 15.41528
#
# Velocity S-wave (km/s) = 1.72566 3.67750 2.87245
# Velocity P-wave (km/s) = 5.64091 7.21392 6.47536
#
# Compressibility (1/GPa) = 0.01921936
#
# Stress axis : x y z
#
# Youngs Moduli (GPa) = 94.71501 53.33468 105.51515
#
# Poissons Ratio (x) = 0.12902 0.40709
# Poissons Ratio (y) = 0.22912 0.36989
# Poissons Ratio (z) = 0.36542 0.18697
#
# Static dielectric constant tensor:
#      x y z
#    x 3.583570 0.000000 0.000000 
#    y 0.000000 2.945750 0.000000 
#    z 0.000000 0.000000 3.679920 
# 
# 
# High freq. dielectric constant tensor:
#      x y z
#    x 1.732040 0.000000 0.000000 
#    y 0.000000 1.663770 0.000000 
#    z 0.000000 0.000000 1.742700 
# 
# From -- ./inp_files/37151.got.cif
#   From: 2010.03.12/outbox.cif.g09.slc.cpg/sg51_19_cif.got.tgz:37151.got - 2010.04.16 13:43:02.
