data_PCOD8214932
_publ_section_title
;
Structure prediction by ZEFSAII (Michael W. Deem and Ramdas Pophale) SiO2 
 PCOD8214932
Probable space group: P N N A
;
_chemical_formula_sum "Si O2"
_cell_formula_units_Z 40
_cell_length_a 5.261275
_cell_length_b 19.920974
_cell_length_c 26.247664
_cell_angle_alpha 90.000000
_cell_angle_beta 90.000000
_cell_angle_gamma 90.000000
_cell_volume 2751.010380
_symmetry_space_group_name_H-M "P N N A"
_symmetry_group_IT_number 52
_symmetry_cell_setting 'orthorhombic'
loop_
_space_group_symop_operation_xyz
x,y,z
1/2-x,-y,z
x,1/2-y,1/2-z
1/2-x,1/2+y,1/2-z
-x,-y,-z
1/2+x,y,-z
-x,1/2+y,1/2+z
1/2+x,1/2-y,1/2+z
loop_
_atom_site_type_symbol
_atom_site_label
_atom_site_fract_x
_atom_site_fract_y
_atom_site_fract_z
Si Si1 0.782562 0.182971 0.283343
Si Si2 0.229185 0.871971 0.142618
Si Si3 0.750262 0.077993 0.968279
Si Si4 0.782689 0.229626 0.691166
Si Si5 0.270652 0.077341 0.803776
O O1 0.816125 0.250000 0.250000
O O2 0.541943 0.188958 0.321573
O O3 0.752441 0.118007 0.248519
O O4 0.041991 0.179919 0.316585
O O5 0.252856 0.877765 0.082271
O O6 0.246167 0.793721 0.155449
O O7 0.460537 0.910808 0.169087
O O8 0.959615 0.902220 0.159419
O O9 0.750000 0.000000 0.952654
O O10 0.500776 0.096579 0.000153
O O11 0.816219 0.250000 0.750000
O O12 0.250000 0.000000 0.789116
#
# Coordination Sequence:
#
# PCOD8214932 Si02
#       5
#     8   8   8   8   8
#     4  10  16  30  42  58  87 113 134 176 212 261
#     4  12  20  32  48  64  82 113 154 190 223 258
#     4  10  21  35  45  57  83 115 148 191 232 254
#     4  10  16  29  47  62  82 109 139 180 210 270
#     4  12  21  28  43  67  88 110 148 189 213 249
#
# _framework density 14.540112000000001
#
# number of rings (size 3 to 8) (size 9 to 14) (size 15 to 20)
#    0.000    1.200    8.000    3.000    0.000    1.600 
#    0.000    0.000    0.000    0.000    0.000    0.000 
#    0.000    0.000    0.000    0.000    0.000   20.000 
#
# Total GULP energy -495897.920042 kJ/mol
# GULP energy per Si atom -12397.448001 kJ/mol
# Density = 1.450702 g / cm^3
# Si number density = 14.540112 Si / 1000 Ang^3
#
#
#
# Elastic Constant Matrix: (Units=GPa)
#
#
# Indices 1 2 3 4 5 6 
#
# 1 109.5592 12.7298 14.2712 0.0000 0.0000 0.0000
# 2 12.7298 59.6075 41.7657 0.0000 0.0000 0.0000
# 3 14.2712 41.7657 64.1193 0.0000 0.0000 0.0000
# 4 0.0000 0.0000 0.0000 20.5679 0.0000 0.0000
# 5 0.0000 0.0000 0.0000 0.0000 13.9809 0.0000
# 6 0.0000 0.0000 0.0000 0.0000 0.0000 0.9891
#
#
#
# Elastic Compliance Matrix: (Units=1/GPa)
#
#
# Indices 1 2 3 4 5 6 
#
# 1 0.009432 -0.001000 -0.001448 0.000000 0.000000 0.000000
# 2 -0.001000 0.030968 -0.019949 0.000000 0.000000 0.000000
# 3 -0.001448 -0.019949 0.028913 0.000000 0.000000 0.000000
# 4 0.000000 0.000000 0.000000 0.048619 0.000000 0.000000
# 5 0.000000 0.000000 0.000000 0.000000 0.071526 0.000000
# 6 0.000000 0.000000 0.000000 0.000000 0.000000 1.011047
#
#
# Mechanical properties :
#
#
# Convention : Reuss Voigt Hill
#
# Bulk Modulus (GPa) = 40.78520 41.20217 40.99368
# Shear Modulus (GPa) = 3.98892 18.07552 11.03222
#
# Velocity S-wave (km/s) = 1.65811 3.52966 2.75752
# Velocity P-wave (km/s) = 5.63709 6.70893 6.19623
#
# Compressibility (1/GPa) = 0.02451870
#
# Stress axis : x y z
#
# Youngs Moduli (GPa) = 106.01886 32.29151 34.58686
#
# Poissons Ratio (x) = 0.03228 0.05009
# Poissons Ratio (y) = 0.10598 0.68998
# Poissons Ratio (z) = 0.15354 0.64419
#
# Static dielectric constant tensor:
#      x y z
#    x 4.293060 0.000000 0.000000 
#    y 0.000000 2.668480 0.000000 
#    z 0.000000 0.000000 2.504610 
# 
# 
# High freq. dielectric constant tensor:
#      x y z
#    x 1.598100 0.000000 0.000000 
#    y 0.000000 1.528190 0.000000 
#    z 0.000000 0.000000 1.507110 
# 
# From -- ./inp_files/35041.got.cif
#   From: 2010.06.25/outbox.cif.g09.slc.cpg/sg52_18_cif.got.tgz:35041.got - 2010.06.26 19:32:48.
