data_PCOD8214339
_publ_section_title
;
Structure prediction by ZEFSAII (Michael W. Deem and Ramdas Pophale) SiO2 
 PCOD8214339
Probable space group: P M M A
;
_chemical_formula_sum "Si O2"
_cell_formula_units_Z 64
_cell_length_a 8.769816
_cell_length_b 15.244485
_cell_length_c 23.612013
_cell_angle_alpha 90.000000
_cell_angle_beta 90.000000
_cell_angle_gamma 90.000000
_cell_volume 3156.721386
_symmetry_space_group_name_H-M "P M M A"
_symmetry_group_IT_number 51
_symmetry_cell_setting 'orthorhombic'
loop_
_space_group_symop_operation_xyz
x,y,z
1/2-x,-y,z
1/2+x,-y,-z
-x,y,-z
-x,-y,-z
1/2+x,y,-z
1/2-x,y,z
x,-y,z
loop_
_atom_site_type_symbol
_atom_site_label
_atom_site_fract_x
_atom_site_fract_y
_atom_site_fract_z
Si Si1 0.430308 0.250441 0.060786
Si Si2 0.576458 0.401699 0.631949
Si Si3 0.074859 0.099746 0.372845
Si Si4 0.925247 0.599664 0.132810
Si Si5 0.571639 0.746101 0.439865
Si Si6 0.571628 0.152890 0.257705
Si Si7 0.574821 0.339328 0.755118
Si Si8 0.924426 0.097589 0.854628
O O1 0.250000 0.259608 0.055943
O O2 0.497739 0.339748 0.085749
O O3 0.479679 0.168691 0.099848
O O4 0.500000 0.231697 0.000000
O O5 0.750000 0.378782 0.614703
O O6 0.533587 0.500000 0.612087
O O7 0.465140 0.332549 0.602994
O O8 0.558343 0.398607 0.699575
O O9 0.250000 0.129535 0.372137
O O10 0.986992 0.161510 0.416443
O O11 0.012176 0.107066 0.309675
O O12 0.056134 0.000000 0.394062
O O13 0.750000 0.628027 0.141166
O O14 0.937791 0.500000 0.111015
O O15 0.012318 0.606245 0.192193
O O16 0.500000 0.723770 0.500000
O O17 0.750000 0.753504 0.447366
O O18 0.750000 0.145951 0.268838
O O19 0.524594 0.253231 0.252823
O O20 0.528783 0.102385 0.200676
O O21 0.750000 0.312891 0.766757
O O22 0.750000 0.116618 0.836945
O O23 0.941507 0.000000 0.880843
#
# Coordination Sequence:
#
# PCOD8214339 Si02
#       8
#     8   8   8   8   8   8   8   8
#     4  11  24  42  65  89 120 163 209 261 311 368
#     4  10  22  41  66  95 128 166 209 256 308 370
#     4  11  24  43  67  94 127 167 209 256 311 373
#     4  11  24  41  63  93 128 163 204 257 311 368
#     4  12  26  44  67  92 124 166 211 263 314 369
#     4  12  23  36  61  96 131 166 205 253 309 367
#     4  11  21  37  64  94 128 168 206 249 308 372
#     4  10  22  41  64  91 124 165 208 251 306 370
#
# _framework density 20.274201000000001
#
# number of rings (size 3 to 8) (size 9 to 14) (size 15 to 20)
#    0.000    1.000    2.500    4.500    0.000    6.500 
#    0.000    0.000    0.000    0.000    0.000    0.000 
#    0.000    0.000    0.000    0.000    0.000    0.000 
#
# Total GULP energy -793979.091411 kJ/mol
# GULP energy per Si atom -12405.923303 kJ/mol
# Density = 2.022806 g / cm^3
# Si number density = 20.274201 Si / 1000 Ang^3
#
#
#
# Elastic Constant Matrix: (Units=GPa)
#
#
# Indices 1 2 3 4 5 6 
#
# 1 111.3704 37.7690 36.7614 0.0000 0.0000 0.0000
# 2 37.7690 110.7719 23.2097 0.0000 0.0000 0.0000
# 3 36.7614 23.2097 89.3593 0.0000 0.0000 0.0000
# 4 0.0000 0.0000 0.0000 23.8759 0.0000 0.0000
# 5 0.0000 0.0000 0.0000 0.0000 37.9218 0.0000
# 6 0.0000 0.0000 0.0000 0.0000 0.0000 24.4199
#
#
#
# Elastic Compliance Matrix: (Units=1/GPa)
#
#
# Indices 1 2 3 4 5 6 
#
# 1 0.011281 -0.003039 -0.003851 0.000000 0.000000 0.000000
# 2 -0.003039 0.010366 -0.001442 0.000000 0.000000 0.000000
# 3 -0.003851 -0.001442 0.013150 0.000000 0.000000 0.000000
# 4 0.000000 0.000000 0.000000 0.041883 0.000000 0.000000
# 5 0.000000 0.000000 0.000000 0.000000 0.026370 0.000000
# 6 0.000000 0.000000 0.000000 0.000000 0.000000 0.040950
#
#
# Mechanical properties :
#
#
# Convention : Reuss Voigt Hill
#
# Bulk Modulus (GPa) = 55.15402 56.33130 55.74266
# Shear Modulus (GPa) = 29.99219 31.49427 30.74323
#
# Velocity S-wave (km/s) = 3.85038 3.94562 3.89829
# Velocity P-wave (km/s) = 6.85786 6.97153 6.91493
#
# Compressibility (1/GPa) = 0.01813104
#
# Stress axis : x y z
#
# Youngs Moduli (GPa) = 88.64365 96.46893 76.04688
#
# Poissons Ratio (x) = 0.29321 0.29289
# Poissons Ratio (y) = 0.26943 0.10966
# Poissons Ratio (z) = 0.34141 0.13911
#
# Static dielectric constant tensor:
#      x y z
#    x 3.699840 0.000000 0.000000 
#    y 0.000000 3.759830 0.000000 
#    z 0.000000 0.000000 3.655860 
# 
# 
# High freq. dielectric constant tensor:
#      x y z
#    x 1.800510 0.000000 0.000000 
#    y 0.000000 1.805200 0.000000 
#    z 0.000000 0.000000 1.787390 
# 
# From -- ./inp_files/34975.got.cif
#   From: 2010.03.12/outbox.cif.g09.slc.cpg/sg51_18_cif.got.tgz:34975.got - 2010.04.16 13:43:02.
