data_PCOD8214505
_publ_section_title
;
Structure prediction by ZEFSAII (Michael W. Deem and Ramdas Pophale) SiO2 
 PCOD8214505
Probable space group: P M M A
;
_chemical_formula_sum "Si O2"
_cell_formula_units_Z 56
_cell_length_a 24.115751
_cell_length_b 8.574415
_cell_length_c 14.615419
_cell_angle_alpha 90.000000
_cell_angle_beta 90.000000
_cell_angle_gamma 90.000000
_cell_volume 3022.153791
_symmetry_space_group_name_H-M "P M M A"
_symmetry_group_IT_number 51
_symmetry_cell_setting 'orthorhombic'
loop_
_space_group_symop_operation_xyz
x,y,z
1/2-x,-y,z
1/2+x,-y,-z
-x,y,-z
-x,-y,-z
1/2+x,y,-z
1/2-x,y,z
x,-y,z
loop_
_atom_site_type_symbol
_atom_site_label
_atom_site_fract_x
_atom_site_fract_y
_atom_site_fract_z
Si Si1 0.361817 0.681000 0.466444
Si Si2 0.250000 0.317805 0.709285
Si Si3 0.966966 0.182213 0.874160
Si Si4 0.432520 0.179738 0.627073
Si Si5 0.453921 0.682391 0.319864
Si Si6 0.141813 0.821348 0.798945
Si Si7 0.750000 0.181274 0.488871
Si Si8 0.422960 0.681328 0.953574
O O1 0.346970 0.500000 0.473103
O O2 0.392613 0.728213 0.559261
O O3 0.399741 0.717804 0.379382
O O4 0.304990 0.777444 0.453502
O O5 0.250000 0.500000 0.726561
O O6 0.303503 0.244478 0.754328
O O7 0.250000 0.283528 0.602270
O O8 0.944387 0.229056 0.775188
O O9 0.021838 0.279303 0.896927
O O10 0.981461 0.000000 0.876207
O O11 0.921000 0.223369 0.950948
O O12 0.493663 0.252292 0.624175
O O13 0.409578 0.197549 0.729628
O O14 0.434933 0.000000 0.596580
O O15 0.462716 0.500000 0.302323
O O16 0.129539 0.727990 0.892041
O O17 0.151261 0.000000 0.824742
O O18 0.750000 0.000000 0.462592
O O19 0.421009 0.500000 0.976815
#
# Coordination Sequence:
#
# PCOD8214505 Si02
#       8
#     8   4   8   8   8   8   4   8
#     4  11  24  40  59  82 113 152 193 240 288 341
#     4  12  24  38  60  85 112 151 194 238 286 340
#     4  11  21  35  56  83 115 150 187 230 282 339
#     4  11  22  35  56  84 118 154 190 233 285 343
#     4  11  23  38  57  84 117 153 194 237 287 343
#     4  11  22  37  57  85 118 153 189 235 286 341
#     4  12  24  40  60  83 110 147 194 242 286 338
#     4  11  21  35  57  84 114 149 187 231 281 337
#
# _framework density 18.529831999999999
#
# number of rings (size 3 to 8) (size 9 to 14) (size 15 to 20)
#    0.000    0.857    2.857    6.857    0.000    5.143 
#    0.000    0.000    0.000    0.857    0.000    3.000 
#    0.000    0.000    0.000    0.000    0.000    0.000 
#
# Total GULP energy -694732.509872 kJ/mol
# GULP energy per Si atom -12405.937676 kJ/mol
# Density = 1.848766 g / cm^3
# Si number density = 18.529832 Si / 1000 Ang^3
#
#
#
# Elastic Constant Matrix: (Units=GPa)
#
#
# Indices 1 2 3 4 5 6 
#
# 1 97.2208 24.9852 35.1478 0.0000 0.0000 0.0000
# 2 24.9852 72.5052 28.7056 0.0000 0.0000 0.0000
# 3 35.1478 28.7056 73.0748 0.0000 0.0000 0.0000
# 4 0.0000 0.0000 0.0000 31.2262 0.0000 0.0000
# 5 0.0000 0.0000 0.0000 0.0000 49.5650 0.0000
# 6 0.0000 0.0000 0.0000 0.0000 0.0000 39.1639
#
#
#
# Elastic Compliance Matrix: (Units=1/GPa)
#
#
# Indices 1 2 3 4 5 6 
#
# 1 0.012776 -0.002332 -0.005229 0.000000 0.000000 0.000000
# 2 -0.002332 0.016758 -0.005461 0.000000 0.000000 0.000000
# 3 -0.005229 -0.005461 0.018345 0.000000 0.000000 0.000000
# 4 0.000000 0.000000 0.000000 0.032024 0.000000 0.000000
# 5 0.000000 0.000000 0.000000 0.000000 0.020176 0.000000
# 6 0.000000 0.000000 0.000000 0.000000 0.000000 0.025534
#
#
# Mechanical properties :
#
#
# Convention : Reuss Voigt Hill
#
# Bulk Modulus (GPa) = 45.80000 46.71976 46.25988
# Shear Modulus (GPa) = 31.45957 34.25516 32.85737
#
# Velocity S-wave (km/s) = 4.12488 4.30426 4.21552
# Velocity P-wave (km/s) = 6.88889 7.06896 6.97950
#
# Compressibility (1/GPa) = 0.02183406
#
# Stress axis : x y z
#
# Youngs Moduli (GPa) = 78.27454 59.67314 54.51153
#
# Poissons Ratio (x) = 0.13918 0.28502
# Poissons Ratio (y) = 0.18257 0.29769
# Poissons Ratio (z) = 0.40927 0.32588
#
# Static dielectric constant tensor:
#      x y z
#    x 3.332200 0.000000 0.000000 
#    y 0.000000 3.581730 0.000000 
#    z 0.000000 0.000000 3.498950 
# 
# 
# High freq. dielectric constant tensor:
#      x y z
#    x 1.702680 0.000000 0.000000 
#    y 0.000000 1.740030 0.000000 
#    z 0.000000 0.000000 1.714730 
# 
# From -- ./inp_files/25933.got.cif
#   From: 2010.03.12/outbox.cif.g09.slc.cpg/sg51_13_cif.got.tgz:25933.got - 2010.04.16 13:43:02.
