data_PCOD8214562
_publ_section_title
;
Structure prediction by ZEFSAII (Michael W. Deem and Ramdas Pophale) SiO2 
 PCOD8214562
Probable space group: P M M A
;
_chemical_formula_sum "Si O2"
_cell_formula_units_Z 64
_cell_length_a 28.268359
_cell_length_b 8.694301
_cell_length_c 13.013234
_cell_angle_alpha 90.000000
_cell_angle_beta 90.000000
_cell_angle_gamma 90.000000
_cell_volume 3198.309653
_symmetry_space_group_name_H-M "P M M A"
_symmetry_group_IT_number 51
_symmetry_cell_setting 'orthorhombic'
loop_
_space_group_symop_operation_xyz
x,y,z
1/2-x,-y,z
1/2+x,-y,-z
-x,y,-z
-x,-y,-z
1/2+x,y,-z
1/2-x,y,z
x,-y,z
loop_
_atom_site_type_symbol
_atom_site_label
_atom_site_fract_x
_atom_site_fract_y
_atom_site_fract_z
Si Si1 0.197063 0.182427 0.100876
Si Si2 0.861318 0.817783 0.315789
Si Si3 0.144747 0.817816 0.301569
Si Si4 0.551404 0.316611 0.224252
Si Si5 0.944239 0.316280 0.779490
Si Si6 0.804555 0.681426 0.503950
Si Si7 0.444159 0.667364 0.997748
Si Si8 0.803261 0.817388 0.123751
O O1 0.250000 0.248434 0.114546
O O2 0.164906 0.244189 0.192950
O O3 0.199063 0.000000 0.105230
O O4 0.176826 0.234664 0.988719
O O5 0.915059 0.755736 0.311513
O O6 0.835347 0.758487 0.415953
O O7 0.834955 0.749479 0.215192
O O8 0.861614 0.000000 0.318813
O O9 0.090257 0.761786 0.304242
O O10 0.175664 0.738133 0.388119
O O11 0.147834 0.000000 0.315488
O O12 0.555655 0.500000 0.223281
O O13 0.497640 0.267588 0.249886
O O14 0.567554 0.248564 0.111157
O O15 0.939086 0.500000 0.777728
O O16 0.930503 0.249489 0.894322
O O17 0.750000 0.733225 0.493112
O O18 0.809736 0.500000 0.496219
O O19 0.419588 0.500000 0.996806
O O20 0.500000 0.642713 0.000000
O O21 0.750000 0.754381 0.137502
O O22 0.802755 0.000000 0.130827
#
# Coordination Sequence:
#
# PCOD8214562 Si02
#       8
#     8   8   8   8   8   8   8   8
#     4   8  15  29  49  76 112 149 180 216 273 344
#     4  11  22  35  58  88 117 149 190 239 293 346
#     4  11  22  35  58  88 117 149 190 239 293 346
#     4   9  18  34  55  80 115 159 202 239 280 335
#     4   9  18  34  55  80 115 159 202 239 280 335
#     4  11  25  45  66  85 110 147 193 242 288 343
#     4   7  12  26  49  75 106 151 200 237 271 320
#     4   8  15  29  49  76 112 149 180 216 273 344
#
# _framework density 20.010570000000001
#
# number of rings (size 3 to 8) (size 9 to 14) (size 15 to 20)
#    0.000    2.750    0.000    4.125    1.750    2.500 
#    0.000    0.625    0.000    6.000    0.000    5.250 
#    0.000    0.000    0.000    0.000    0.000    0.000 
#
# Total GULP energy -793043.817461 kJ/mol
# GULP energy per Si atom -12391.309648 kJ/mol
# Density = 1.996502 g / cm^3
# Si number density = 20.010570 Si / 1000 Ang^3
#
#
#
# Elastic Constant Matrix: (Units=GPa)
#
#
# Indices 1 2 3 4 5 6 
#
# 1 81.2255 20.1714 29.8100 0.0000 0.0000 0.0000
# 2 20.1714 30.0558 9.5765 0.0000 0.0000 0.0000
# 3 29.8100 9.5765 66.3982 0.0000 0.0000 0.0000
# 4 0.0000 0.0000 0.0000 14.0686 0.0000 0.0000
# 5 0.0000 0.0000 0.0000 0.0000 38.9004 0.0000
# 6 0.0000 0.0000 0.0000 0.0000 0.0000 21.2115
#
#
#
# Elastic Compliance Matrix: (Units=1/GPa)
#
#
# Indices 1 2 3 4 5 6 
#
# 1 0.016933 -0.009373 -0.006250 0.000000 0.000000 0.000000
# 2 -0.009373 0.040062 -0.001570 0.000000 0.000000 0.000000
# 3 -0.006250 -0.001570 0.018093 0.000000 0.000000 0.000000
# 4 0.000000 0.000000 0.000000 0.071080 0.000000 0.000000
# 5 0.000000 0.000000 0.000000 0.000000 0.025707 0.000000
# 6 0.000000 0.000000 0.000000 0.000000 0.000000 0.047144
#
#
# Mechanical properties :
#
#
# Convention : Reuss Voigt Hill
#
# Bulk Modulus (GPa) = 24.56893 32.97725 28.77309
# Shear Modulus (GPa) = 18.72850 22.71088 20.71969
#
# Velocity S-wave (km/s) = 3.06262 3.37255 3.22131
# Velocity P-wave (km/s) = 4.98104 5.62860 5.31469
#
# Compressibility (1/GPa) = 0.04070181
#
# Stress axis : x y z
#
# Youngs Moduli (GPa) = 59.05669 24.96132 55.26921
#
# Poissons Ratio (x) = 0.23395 0.34545
# Poissons Ratio (y) = 0.55352 0.08678
# Poissons Ratio (z) = 0.36912 0.03919
#
# Static dielectric constant tensor:
#      x y z
#    x 3.736050 0.000000 0.000000 
#    y 0.000000 3.168350 0.000000 
#    z 0.000000 0.000000 3.890280 
# 
# 
# High freq. dielectric constant tensor:
#      x y z
#    x 1.786710 0.000000 0.000000 
#    y 0.000000 1.741480 0.000000 
#    z 0.000000 0.000000 1.776330 
# 
# From -- ./inp_files/19557.got.cif
#   From: 2010.03.12/outbox.cif.g09.slc.cpg/sg51_10_cif.got.tgz:19557.got - 2010.04.16 13:43:02.
