data_PCOD8214464
_publ_section_title
;
Structure prediction by ZEFSAII (Michael W. Deem and Ramdas Pophale) SiO2 
 PCOD8214464
Probable space group: P M M A
;
_chemical_formula_sum "Si O2"
_cell_formula_units_Z 64
_cell_length_a 14.135248
_cell_length_b 9.230362
_cell_length_c 25.757390
_cell_angle_alpha 90.000000
_cell_angle_beta 90.000000
_cell_angle_gamma 90.000000
_cell_volume 3360.655691
_symmetry_space_group_name_H-M "P M M A"
_symmetry_group_IT_number 51
_symmetry_cell_setting 'orthorhombic'
loop_
_space_group_symop_operation_xyz
x,y,z
1/2-x,-y,z
1/2+x,-y,-z
-x,y,-z
-x,-y,-z
1/2+x,y,-z
1/2-x,y,z
x,-y,z
loop_
_atom_site_type_symbol
_atom_site_label
_atom_site_fract_x
_atom_site_fract_y
_atom_site_fract_z
Si Si1 0.356991 0.167816 0.913272
Si Si2 0.855930 0.331271 0.372747
Si Si3 0.531555 0.671436 0.880717
Si Si4 0.457365 0.330402 0.322122
Si Si5 0.138057 0.666451 0.426041
Si Si6 0.860229 0.836246 0.966852
Si Si7 0.857297 0.327321 0.779764
Si Si8 0.137562 0.163164 0.525397
O O1 0.250000 0.219699 0.902500
O O2 0.426473 0.261870 0.877461
O O3 0.368039 0.000000 0.898916
O O4 0.384044 0.193588 0.973254
O O5 0.750000 0.281421 0.356024
O O6 0.856292 0.500000 0.387289
O O7 0.894267 0.248007 0.423185
O O8 0.929577 0.298556 0.325982
O O9 0.523158 0.500000 0.881263
O O10 0.582750 0.722476 0.932853
O O11 0.590713 0.728436 0.831425
O O12 0.436778 0.500000 0.320030
O O13 0.405424 0.268068 0.373112
O O14 0.413674 0.261561 0.269829
O O15 0.250000 0.681388 0.422110
O O16 0.107468 0.500000 0.434308
O O17 0.096335 0.758561 0.474180
O O18 0.750000 0.813799 0.956290
O O19 0.890705 0.000000 0.952077
O O20 0.750000 0.267996 0.779179
O O21 0.857393 0.500000 0.778743
O O22 0.250000 0.165344 0.522459
O O23 0.098099 0.000000 0.527664
#
# Coordination Sequence:
#
# PCOD8214464 Si02
#       8
#     8   8   8   8   8   8   8   8
#     4   9  19  36  55  74 101 140 181 216 251 297
#     4   9  17  30  48  69  92 117 151 197 239 275
#     4  11  21  31  49  79 110 138 169 210 262 313
#     4   9  17  30  49  70  90 120 163 202 237 281
#     4   9  16  27  46  70  92 116 152 197 236 271
#     4   9  18  33  53  76 103 139 181 218 252 298
#     4   9  18  33  51  73 103 133 161 199 249 302
#     4   9  17  29  45  66  95 128 153 178 226 291
#
# _framework density 19.043903
#
# number of rings (size 3 to 8) (size 9 to 14) (size 15 to 20)
#    0.000    2.750    0.000    2.625    0.000    6.500 
#    0.000    5.000    0.000    5.250    0.000    3.500 
#    0.000    0.000    0.000    0.000    0.000    0.000 
#
# Total GULP energy -793497.528455 kJ/mol
# GULP energy per Si atom -12398.398882 kJ/mol
# Density = 1.900056 g / cm^3
# Si number density = 19.043903 Si / 1000 Ang^3
#
#
#
# Elastic Constant Matrix: (Units=GPa)
#
#
# Indices 1 2 3 4 5 6 
#
# 1 104.0393 35.3028 77.4917 0.0000 0.0000 0.0000
# 2 35.3028 57.1672 37.3693 0.0000 0.0000 0.0000
# 3 77.4917 37.3693 95.9773 0.0000 0.0000 0.0000
# 4 0.0000 0.0000 0.0000 4.4695 0.0000 0.0000
# 5 0.0000 0.0000 0.0000 0.0000 35.0038 0.0000
# 6 0.0000 0.0000 0.0000 0.0000 0.0000 22.2349
#
#
#
# Elastic Compliance Matrix: (Units=1/GPa)
#
#
# Indices 1 2 3 4 5 6 
#
# 1 0.024477 -0.002947 -0.018615 0.000000 0.000000 0.000000
# 2 -0.002947 0.023819 -0.006895 0.000000 0.000000 0.000000
# 3 -0.018615 -0.006895 0.028133 0.000000 0.000000 0.000000
# 4 0.000000 0.000000 0.000000 0.223739 0.000000 0.000000
# 5 0.000000 0.000000 0.000000 0.000000 0.028568 0.000000
# 6 0.000000 0.000000 0.000000 0.000000 0.000000 0.044974
#
#
# Mechanical properties :
#
#
# Convention : Reuss Voigt Hill
#
# Bulk Modulus (GPa) = 51.24030 61.94573 56.59301
# Shear Modulus (GPa) = 11.43825 19.47632 15.45728
#
# Velocity S-wave (km/s) = 2.45342 3.20145 2.85207
# Velocity P-wave (km/s) = 5.91528 6.80178 6.37396
#
# Compressibility (1/GPa) = 0.01951589
#
# Stress axis : x y z
#
# Youngs Moduli (GPa) = 40.85511 41.98246 35.54497
#
# Poissons Ratio (x) = 0.12372 0.66167
# Poissons Ratio (y) = 0.12040 0.24508
# Poissons Ratio (z) = 0.76052 0.28947
#
# Static dielectric constant tensor:
#      x y z
#    x 3.642520 0.000000 0.000000 
#    y 0.000000 3.206800 0.000000 
#    z 0.000000 0.000000 3.482860 
# 
# 
# High freq. dielectric constant tensor:
#      x y z
#    x 1.756460 0.000000 0.000000 
#    y 0.000000 1.704910 0.000000 
#    z 0.000000 0.000000 1.722790 
# 
# From -- ./inp_files/35682.got.cif
#   From: 2010.03.12/outbox.cif.g09.slc.cpg/sg51_18_cif.got.tgz:35682.got - 2010.04.16 13:43:02.
