data_PCOD8214826
_publ_section_title
;
Structure prediction by ZEFSAII (Michael W. Deem and Ramdas Pophale) SiO2 
 PCOD8214826
Probable space group: P M M A
;
_chemical_formula_sum "Si O2"
_cell_formula_units_Z 36
_cell_length_a 9.178233
_cell_length_b 12.757619
_cell_length_c 20.481937
_cell_angle_alpha 90.000000
_cell_angle_beta 90.000000
_cell_angle_gamma 90.000000
_cell_volume 2398.279154
_symmetry_space_group_name_H-M "P M M A"
_symmetry_group_IT_number 51
_symmetry_cell_setting 'orthorhombic'
loop_
_space_group_symop_operation_xyz
x,y,z
1/2-x,-y,z
1/2+x,-y,-z
-x,y,-z
-x,-y,-z
1/2+x,y,-z
1/2-x,y,z
x,-y,z
loop_
_atom_site_type_symbol
_atom_site_label
_atom_site_fract_x
_atom_site_fract_y
_atom_site_fract_z
Si Si1 0.416688 0.500000 0.433823
Si Si2 0.915024 0.124994 0.936553
Si Si3 0.920247 0.878781 0.681973
Si Si4 0.585530 0.875345 0.189304
Si Si5 0.420487 0.272862 0.431253
O O1 0.250000 0.500000 0.453693
O O2 0.500000 0.500000 0.500000
O O3 0.453250 0.388739 0.398769
O O4 0.750000 0.168144 0.937507
O O5 0.997027 0.169147 0.872666
O O6 0.913976 0.000000 0.936004
O O7 0.000000 0.167145 0.000000
O O8 0.750000 0.860240 0.695488
O O9 0.976871 0.813176 0.619957
O O10 0.006840 0.837307 0.744917
O O11 0.954201 0.000000 0.667472
O O12 0.750000 0.831245 0.187573
O O13 0.586305 0.000000 0.186440
O O14 0.500000 0.256345 0.500000
O O15 0.250000 0.257389 0.444504
#
# Coordination Sequence:
#
# PCOD8214826 Si02
#       5
#     4   8   8   8   8
#     4   8  14  26  42  58  74  92 117 150 189 230
#     4   9  15  22  33  49  69  94 125 160 193 223
#     4   9  17  28  39  52  73 101 129 155 187 227
#     4   9  16  25  36  50  69  95 127 159 189 223
#     4   9  17  28  42  58  75  96 123 156 192 229
#
# _framework density 15.010764
#
# number of rings (size 3 to 8) (size 9 to 14) (size 15 to 20)
#    0.000    3.111    0.000    1.333    0.000    6.667 
#    0.000    0.000    0.000    0.000    0.000    0.000 
#    0.000    0.000    0.000    1.000    0.000   10.444 
#
# Total GULP energy -446090.285462 kJ/mol
# GULP energy per Si atom -12391.396818 kJ/mol
# Density = 1.497660 g / cm^3
# Si number density = 15.010764 Si / 1000 Ang^3
#
#
#
# Elastic Constant Matrix: (Units=GPa)
#
#
# Indices 1 2 3 4 5 6 
#
# 1 88.3442 27.5643 63.1320 0.0000 0.0000 0.0000
# 2 27.5643 50.0474 47.4516 0.0000 0.0000 0.0000
# 3 63.1320 47.4516 135.2024 0.0000 0.0000 0.0000
# 4 0.0000 0.0000 0.0000 1.0145 0.0000 0.0000
# 5 0.0000 0.0000 0.0000 0.0000 29.8092 0.0000
# 6 0.0000 0.0000 0.0000 0.0000 0.0000 9.3170
#
#
#
# Elastic Compliance Matrix: (Units=1/GPa)
#
#
# Indices 1 2 3 4 5 6 
#
# 1 0.017244 -0.002792 -0.007072 0.000000 0.000000 0.000000
# 2 -0.002792 0.030398 -0.009365 0.000000 0.000000 0.000000
# 3 -0.007072 -0.009365 0.013985 0.000000 0.000000 0.000000
# 4 0.000000 0.000000 0.000000 0.985752 0.000000 0.000000
# 5 0.000000 0.000000 0.000000 0.000000 0.033547 0.000000
# 6 0.000000 0.000000 0.000000 0.000000 0.000000 0.107331
#
#
# Mechanical properties :
#
#
# Convention : Reuss Voigt Hill
#
# Bulk Modulus (GPa) = 43.16061 61.09889 52.12975
# Shear Modulus (GPa) = 4.05042 17.05787 10.55415
#
# Velocity S-wave (km/s) = 1.64445 3.37467 2.65449
# Velocity P-wave (km/s) = 5.69396 7.48173 6.64821
#
# Compressibility (1/GPa) = 0.02316927
#
# Stress axis : x y z
#
# Youngs Moduli (GPa) = 57.98958 32.89674 71.50290
#
# Poissons Ratio (x) = 0.09185 0.50569
# Poissons Ratio (y) = 0.16192 0.66962
# Poissons Ratio (z) = 0.41012 0.30808
#
# Static dielectric constant tensor:
#      x y z
#    x 3.020860 0.000000 0.000000 
#    y 0.000000 2.942660 0.000000 
#    z 0.000000 0.000000 2.902900 
# 
# 
# High freq. dielectric constant tensor:
#      x y z
#    x 1.586300 0.000000 0.000000 
#    y 0.000000 1.517640 0.000000 
#    z 0.000000 0.000000 1.569710 
# 
# From -- ./inp_files/27222.got.cif
#   From: 2010.03.12/outbox.cif.g09.slc.cpg/sg51_14_cif.got.tgz:27222.got - 2010.04.16 13:43:02.
