data_PCOD8214443
_publ_section_title
;
Structure prediction by ZEFSAII (Michael W. Deem and Ramdas Pophale) SiO2 
 PCOD8214443
Probable space group: P M M A
;
_chemical_formula_sum "Si O2"
_cell_formula_units_Z 56
_cell_length_a 15.191168
_cell_length_b 14.669542
_cell_length_c 11.756945
_cell_angle_alpha 90.000000
_cell_angle_beta 90.000000
_cell_angle_gamma 90.000000
_cell_volume 2620.005531
_symmetry_space_group_name_H-M "P M M A"
_symmetry_group_IT_number 51
_symmetry_cell_setting 'orthorhombic'
loop_
_space_group_symop_operation_xyz
x,y,z
1/2-x,-y,z
1/2+x,-y,-z
-x,y,-z
-x,-y,-z
1/2+x,y,-z
1/2-x,y,z
x,-y,z
loop_
_atom_site_type_symbol
_atom_site_label
_atom_site_fract_x
_atom_site_fract_y
_atom_site_fract_z
Si Si1 0.849807 0.894856 0.231759
Si Si2 0.501700 0.207242 0.371039
Si Si3 0.099550 0.149954 0.017517
Si Si4 0.492040 0.605158 0.276638
Si Si5 0.843619 0.600538 0.138867
Si Si6 0.151394 0.100215 0.253984
Si Si7 0.149908 0.343913 0.103844
O O1 0.750000 0.885689 0.277209
O O2 0.911666 0.831644 0.309429
O O3 0.881942 0.000000 0.239377
O O4 0.849641 0.861960 0.100939
O O5 0.500000 0.171679 0.500000
O O6 0.494846 0.318274 0.375056
O O7 0.415729 0.173022 0.304691
O O8 0.142493 0.090348 0.117429
O O9 0.102878 0.253042 0.060835
O O10 0.000000 0.117951 0.000000
O O11 0.503862 0.500000 0.320729
O O12 0.570808 0.643882 0.196074
O O13 0.401214 0.609445 0.207530
O O14 0.750000 0.652638 0.166569
O O15 0.836656 0.500000 0.190591
O O16 0.854103 0.589374 0.003637
O O17 0.250000 0.132614 0.284802
O O18 0.133389 0.000000 0.306196
O O19 0.250000 0.324820 0.144027
#
# Coordination Sequence:
#
# PCOD8214443 Si02
#       7
#     8   8   8   8   8   8   8
#     4  11  24  42  67 101 137 172 213 264 325 392
#     4  12  27  46  67  91 124 171 227 284 333 383
#     4  12  21  35  63 101 141 174 204 251 313 389
#     4  11  23  40  62  88 121 165 218 272 329 386
#     4   9  18  32  53  85 122 158 199 250 312 386
#     4  11  24  43  68  98 133 173 215 263 325 398
#     4  11  20  32  55  89 132 173 208 249 309 385
#
# _framework density 21.374001
#
# number of rings (size 3 to 8) (size 9 to 14) (size 15 to 20)
#    0.000    1.000    2.857    4.714    0.000    7.429 
#    0.000    1.429    0.000    0.000    0.000    4.000 
#    0.000    0.000    0.000    0.000    0.000    0.000 
#
# Total GULP energy -694021.714872 kJ/mol
# GULP energy per Si atom -12393.244908 kJ/mol
# Density = 2.132535 g / cm^3
# Si number density = 21.374001 Si / 1000 Ang^3
#
#
#
# Elastic Constant Matrix: (Units=GPa)
#
#
# Indices 1 2 3 4 5 6 
#
# 1 127.1645 28.6909 30.7193 0.0000 0.0000 0.0000
# 2 28.6909 118.6595 23.9719 0.0000 0.0000 0.0000
# 3 30.7193 23.9719 95.4315 0.0000 0.0000 0.0000
# 4 0.0000 0.0000 0.0000 8.9561 0.0000 0.0000
# 5 0.0000 0.0000 0.0000 0.0000 3.3249 0.0000
# 6 0.0000 0.0000 0.0000 0.0000 0.0000 15.8706
#
#
#
# Elastic Compliance Matrix: (Units=1/GPa)
#
#
# Indices 1 2 3 4 5 6 
#
# 1 0.008821 -0.001642 -0.002427 0.000000 0.000000 0.000000
# 2 -0.001642 0.009184 -0.001778 0.000000 0.000000 0.000000
# 3 -0.002427 -0.001778 0.011707 0.000000 0.000000 0.000000
# 4 0.000000 0.000000 0.000000 0.111655 0.000000 0.000000
# 5 0.000000 0.000000 0.000000 0.000000 0.300761 0.000000
# 6 0.000000 0.000000 0.000000 0.000000 0.000000 0.063010
#
#
# Mechanical properties :
#
#
# Convention : Reuss Voigt Hill
#
# Bulk Modulus (GPa) = 55.50587 56.44662 55.97624
# Shear Modulus (GPa) = 9.56320 22.82188 16.19254
#
# Velocity S-wave (km/s) = 2.11753 3.27117 2.75541
# Velocity P-wave (km/s) = 5.65719 6.38230 6.03066
#
# Compressibility (1/GPa) = 0.01801611
#
# Stress axis : x y z
#
# Youngs Moduli (GPa) = 113.37030 108.88672 85.42208
#
# Poissons Ratio (x) = 0.17885 0.20730
# Poissons Ratio (y) = 0.18621 0.15190
# Poissons Ratio (z) = 0.27512 0.19362
#
# Static dielectric constant tensor:
#      x y z
#    x 4.059340 0.000000 0.000000 
#    y 0.000000 3.893960 0.000000 
#    z 0.000000 0.000000 3.478510 
# 
# 
# High freq. dielectric constant tensor:
#      x y z
#    x 1.855290 0.000000 0.000000 
#    y 0.000000 1.849320 0.000000 
#    z 0.000000 0.000000 1.789870 
# 
# From -- ./inp_files/16658.got.cif
#   From: 2010.03.12/outbox.cif.g09.slc.cpg/sg51_9_cif.got.tgz:16658.got - 2010.04.16 13:43:02.
