data_PCOD8214196
_publ_section_title
;
Structure prediction by ZEFSAII (Michael W. Deem and Ramdas Pophale) SiO2 
 PCOD8214196
Probable space group: P M M A
;
_chemical_formula_sum "Si O2"
_cell_formula_units_Z 40
_cell_length_a 8.699063
_cell_length_b 25.935820
_cell_length_c 9.252275
_cell_angle_alpha 90.000000
_cell_angle_beta 90.000000
_cell_angle_gamma 90.000000
_cell_volume 2087.473602
_symmetry_space_group_name_H-M "P M M A"
_symmetry_group_IT_number 51
_symmetry_cell_setting 'orthorhombic'
loop_
_space_group_symop_operation_xyz
x,y,z
1/2-x,-y,z
1/2+x,-y,-z
-x,y,-z
-x,-y,-z
1/2+x,y,-z
1/2-x,y,z
x,-y,z
loop_
_atom_site_type_symbol
_atom_site_label
_atom_site_fract_x
_atom_site_fract_y
_atom_site_fract_z
Si Si1 0.070154 0.555831 0.657546
Si Si2 0.431916 0.658655 0.339571
Si Si3 0.069151 0.849313 0.656144
Si Si4 0.431669 0.057833 0.847101
Si Si5 0.432096 0.248894 0.841696
O O1 0.250000 0.568587 0.646554
O O2 0.043788 0.500000 0.736545
O O3 0.000000 0.551238 0.500000
O O4 0.984251 0.603985 0.733300
O O5 0.500000 0.664857 0.500000
O O6 0.250000 0.661961 0.347927
O O7 0.495287 0.702669 0.237568
O O8 0.250000 0.851137 0.639593
O O9 0.007312 0.902696 0.725685
O O10 0.017445 0.802258 0.756716
O O11 0.000000 0.841104 0.500000
O O12 0.250000 0.061130 0.861432
O O13 0.485527 0.000000 0.804775
O O14 0.500000 0.074791 0.000000
O O15 0.250000 0.255400 0.848574
O O16 0.500000 0.244443 0.000000
#
# Coordination Sequence:
#
# PCOD8214196 Si02
#       5
#     8   8   8   8   8
#     4   9  16  27  46  74 107 141 177 218 264 314
#     4  11  21  34  54  80 110 143 180 223 270 318
#     4  10  22  37  55  80 109 141 177 221 269 318
#     4   9  18  34  55  80 110 143 180 220 263 314
#     4  11  23  39  57  78 105 138 179 223 271 327
#
# _framework density 19.161919000000001
#
# number of rings (size 3 to 8) (size 9 to 14) (size 15 to 20)
#    0.000    2.000    0.000    5.400    0.000    5.600 
#    0.000    0.000    0.000    0.600    0.000    0.000 
#    0.000    0.000    0.000    0.000    0.000    0.000 
#
# Total GULP energy -495861.155098 kJ/mol
# GULP energy per Si atom -12396.528877 kJ/mol
# Density = 1.911831 g / cm^3
# Si number density = 19.161919 Si / 1000 Ang^3
#
#
#
# Elastic Constant Matrix: (Units=GPa)
#
#
# Indices 1 2 3 4 5 6 
#
# 1 82.3151 62.2547 50.9271 0.0000 0.0000 0.0000
# 2 62.2547 183.2122 90.1399 0.0000 0.0000 0.0000
# 3 50.9271 90.1399 125.0606 0.0000 0.0000 0.0000
# 4 0.0000 0.0000 0.0000 24.7327 0.0000 0.0000
# 5 0.0000 0.0000 0.0000 0.0000 30.2427 0.0000
# 6 0.0000 0.0000 0.0000 0.0000 0.0000 -13.6923
#
#
#
# Elastic Compliance Matrix: (Units=1/GPa)
#
#
# Indices 1 2 3 4 5 6 
#
# 1 0.017839 -0.003854 -0.004486 0.000000 0.000000 0.000000
# 2 -0.003854 0.009290 -0.005126 0.000000 0.000000 0.000000
# 3 -0.004486 -0.005126 0.013518 0.000000 0.000000 0.000000
# 4 0.000000 0.000000 0.000000 0.040432 0.000000 0.000000
# 5 0.000000 0.000000 0.000000 0.000000 0.033066 0.000000
# 6 0.000000 0.000000 0.000000 0.000000 0.000000 -0.073034
#
#
# Mechanical properties :
#
#
# Convention : Reuss Voigt Hill
#
# Bulk Modulus (GPa) = 72.92378 88.58125 80.75251
# Shear Modulus (GPa) = 68.85473 20.74103 44.79788
#
# Velocity S-wave (km/s) = 6.00093 3.29357 4.84039
# Velocity P-wave (km/s) = 9.28192 7.79689 8.57163
#
# Compressibility (1/GPa) = 0.01371295
#
# Stress axis : x y z
#
# Youngs Moduli (GPa) = 56.05655 107.64233 73.97563
#
# Poissons Ratio (x) = 0.41490 0.33188
# Poissons Ratio (y) = 0.21606 0.37923
# Poissons Ratio (z) = 0.25149 0.55181
#
# Static dielectric constant tensor:
#      x y z
#    x 3.553410 0.000000 0.000000 
#    y 0.000000 4.380970 0.000000 
#    z 0.000000 0.000000 3.177370 
# 
# 
# High freq. dielectric constant tensor:
#      x y z
#    x 1.751430 0.000000 0.000000 
#    y 0.000000 1.774190 0.000000 
#    z 0.000000 0.000000 1.713570 
# 
# From -- ./inp_files/5220.got.cif
#   From: 2010.03.12/outbox.cif.g09.slc.cpg/sg51_3_cif.got.tgz:5220.got - 2010.04.16 13:43:02.
