data_PCOD8214228
_publ_section_title
;
Structure prediction by ZEFSAII (Michael W. Deem and Ramdas Pophale) SiO2 
 PCOD8214228
Probable space group: P M M A
;
_chemical_formula_sum "Si O2"
_cell_formula_units_Z 44
_cell_length_a 9.435826
_cell_length_b 7.835363
_cell_length_c 30.446458
_cell_angle_alpha 90.000000
_cell_angle_beta 90.000000
_cell_angle_gamma 90.000000
_cell_volume 2251.001691
_symmetry_space_group_name_H-M "P M M A"
_symmetry_group_IT_number 51
_symmetry_cell_setting 'orthorhombic'
loop_
_space_group_symop_operation_xyz
x,y,z
1/2-x,-y,z
1/2+x,-y,-z
-x,y,-z
-x,-y,-z
1/2+x,y,-z
1/2-x,y,z
x,-y,z
loop_
_atom_site_type_symbol
_atom_site_label
_atom_site_fract_x
_atom_site_fract_y
_atom_site_fract_z
Si Si1 0.415017 0.697067 0.890965
Si Si2 0.415749 0.000000 0.955270
Si Si3 0.905704 0.695306 0.809779
Si Si4 0.410417 0.796514 0.541296
Si Si5 0.409472 0.204178 0.377297
Si Si6 0.418577 0.188928 0.282387
O O1 0.250000 0.710223 0.880594
O O2 0.455701 0.500000 0.903242
O O3 0.458407 0.826310 0.929720
O O4 0.492299 0.769079 0.847297
O O5 0.250000 0.000000 0.965796
O O6 0.500000 0.000000 0.000000
O O7 0.750000 0.785337 0.811870
O O8 0.886034 0.500000 0.820747
O O9 0.973051 0.712023 0.760855
O O10 0.500000 0.727244 0.500000
O O11 0.250000 0.725903 0.538761
O O12 0.484653 0.726154 0.585480
O O13 0.409767 0.000000 0.541221
O O14 0.250000 0.270317 0.387382
O O15 0.464819 0.271069 0.329378
O O16 0.407694 0.000000 0.376220
O O17 0.250000 0.185616 0.283208
O O18 0.482099 0.000000 0.278318
#
# Coordination Sequence:
#
# PCOD8214228 Si02
#       6
#     8   4   8   8   8   8
#     4   9  19  36  54  73 103 138 166 201 251 299
#     4  10  22  38  56  80 106 134 172 210 249 298
#     4   9  17  29  47  72  97 123 161 202 234 274
#     4   9  15  21  30  45  67  97 133 172 215 264
#     4   8  13  22  34  47  68 100 137 173 213 264
#     4   8  14  24  39  60  86 117 148 182 228 275
#
# _framework density 19.546852999999999
#
# number of rings (size 3 to 8) (size 9 to 14) (size 15 to 20)
#    0.000    3.273    0.000    1.636    1.273    3.273 
#    0.000    0.909    0.000    1.091    0.000    0.000 
#    0.000    0.727    0.000    1.273    0.000    1.818 
#
# Total GULP energy -545102.784772 kJ/mol
# GULP energy per Si atom -12388.699654 kJ/mol
# Density = 1.950236 g / cm^3
# Si number density = 19.546853 Si / 1000 Ang^3
#
#
#
# Elastic Constant Matrix: (Units=GPa)
#
#
# Indices 1 2 3 4 5 6 
#
# 1 90.0578 21.8136 86.4582 0.0000 0.0000 0.0000
# 2 21.8136 46.4689 41.6356 0.0000 0.0000 0.0000
# 3 86.4582 41.6356 212.6431 0.0000 0.0000 0.0000
# 4 0.0000 0.0000 0.0000 0.2140 0.0000 0.0000
# 5 0.0000 0.0000 0.0000 0.0000 35.9583 0.0000
# 6 0.0000 0.0000 0.0000 0.0000 0.0000 8.3544
#
#
#
# Elastic Compliance Matrix: (Units=1/GPa)
#
#
# Indices 1 2 3 4 5 6 
#
# 1 0.018422 -0.002349 -0.007030 0.000000 0.000000 0.000000
# 2 -0.002349 0.026398 -0.004214 0.000000 0.000000 0.000000
# 3 -0.007030 -0.004214 0.008386 0.000000 0.000000 0.000000
# 4 0.000000 0.000000 0.000000 4.673345 0.000000 0.000000
# 5 0.000000 0.000000 0.000000 0.000000 0.027810 0.000000
# 6 0.000000 0.000000 0.000000 0.000000 0.000000 0.119698
#
#
# Mechanical properties :
#
#
# Convention : Reuss Voigt Hill
#
# Bulk Modulus (GPa) = 38.43106 72.10942 55.27024
# Shear Modulus (GPa) = 1.01835 22.18949 11.60392
#
# Velocity S-wave (km/s) = 0.72257 3.37292 2.43913
# Velocity P-wave (km/s) = 4.51662 7.22076 6.02243
#
# Compressibility (1/GPa) = 0.02602062
#
# Stress axis : x y z
#
# Youngs Moduli (GPa) = 54.28202 37.88198 119.24264
#
# Poissons Ratio (x) = 0.08897 0.83833
# Poissons Ratio (y) = 0.12749 0.50246
# Poissons Ratio (z) = 0.38163 0.15963
#
# Static dielectric constant tensor:
#      x y z
#    x 3.569070 0.000000 0.000000 
#    y 0.000000 3.282380 0.000000 
#    z 0.000000 0.000000 3.838760 
# 
# 
# High freq. dielectric constant tensor:
#      x y z
#    x 1.729970 0.000000 0.000000 
#    y 0.000000 1.727400 0.000000 
#    z 0.000000 0.000000 1.772640 
# 
# From -- ./inp_files/36723.got.cif
#   From: 2010.03.12/outbox.cif.g09.slc.cpg/sg51_19_cif.got.tgz:36723.got - 2010.04.16 13:43:02.
