data_PCOD8214191
_publ_section_title
;
Structure prediction by ZEFSAII (Michael W. Deem and Ramdas Pophale) SiO2 
 PCOD8214191
Probable space group: P M M A
;
_chemical_formula_sum "Si O2"
_cell_formula_units_Z 40
_cell_length_a 8.995220
_cell_length_b 25.270992
_cell_length_c 9.189827
_cell_angle_alpha 90.000000
_cell_angle_beta 90.000000
_cell_angle_gamma 90.000000
_cell_volume 2089.014313
_symmetry_space_group_name_H-M "P M M A"
_symmetry_group_IT_number 51
_symmetry_cell_setting 'orthorhombic'
loop_
_space_group_symop_operation_xyz
x,y,z
1/2-x,-y,z
1/2+x,-y,-z
-x,y,-z
-x,-y,-z
1/2+x,y,-z
1/2-x,y,z
x,-y,z
loop_
_atom_site_type_symbol
_atom_site_label
_atom_site_fract_x
_atom_site_fract_y
_atom_site_fract_z
Si Si1 0.924647 0.940239 0.150655
Si Si2 0.574524 0.655268 0.655673
Si Si3 0.075009 0.744993 0.844984
Si Si4 0.576961 0.559396 0.853637
Si Si5 0.922307 0.846460 0.348617
O O1 0.750000 0.933599 0.127037
O O2 0.982475 0.900668 0.275681
O O3 0.967506 0.000000 0.196881
O O4 0.000000 0.924210 0.000000
O O5 0.500000 0.660910 0.500000
O O6 0.750000 0.665678 0.642166
O O7 0.502911 0.696996 0.763712
O O8 0.538425 0.597013 0.718182
O O9 0.250000 0.733614 0.861342
O O10 0.042747 0.798395 0.758025
O O11 0.000000 0.751891 0.000000
O O12 0.750000 0.560239 0.887326
O O13 0.521708 0.500000 0.814969
O O14 0.500000 0.580705 0.000000
O O15 0.750000 0.851626 0.382348
O O16 0.000000 0.835538 0.500000
#
# Coordination Sequence:
#
# PCOD8214191 Si02
#       5
#     8   8   8   8   8
#     4   9  18  34  55  79 107 139 178 222 266 315
#     4  11  23  38  57  82 113 146 182 225 273 324
#     4  11  23  39  59  82 109 142 182 225 271 324
#     4   9  19  36  57  81 109 142 181 224 269 319
#     4  10  22  37  54  79 110 143 178 220 269 320
#
# _framework density 19.147787000000001
#
# number of rings (size 3 to 8) (size 9 to 14) (size 15 to 20)
#    0.000    2.000    0.000    3.000    0.000    8.000 
#    0.000    0.000    0.000    0.000    0.000    0.000 
#    0.000    0.000    0.000    0.000    0.000    0.000 
#
# Total GULP energy -496099.990289 kJ/mol
# GULP energy per Si atom -12402.499757 kJ/mol
# Density = 1.910421 g / cm^3
# Si number density = 19.147787 Si / 1000 Ang^3
#
#
#
# Elastic Constant Matrix: (Units=GPa)
#
#
# Indices 1 2 3 4 5 6 
#
# 1 77.0261 58.8360 70.1262 0.0000 0.0000 0.0000
# 2 58.8360 112.9526 69.5288 0.0000 0.0000 0.0000
# 3 70.1262 69.5288 153.3572 0.0000 0.0000 0.0000
# 4 0.0000 0.0000 0.0000 95.8623 0.0000 0.0000
# 5 0.0000 0.0000 0.0000 0.0000 37.5568 0.0000
# 6 0.0000 0.0000 0.0000 0.0000 0.0000 22.2897
#
#
#
# Elastic Compliance Matrix: (Units=1/GPa)
#
#
# Indices 1 2 3 4 5 6 
#
# 1 0.027794 -0.009230 -0.008525 0.000000 0.000000 0.000000
# 2 -0.009230 0.015346 -0.002737 0.000000 0.000000 0.000000
# 3 -0.008525 -0.002737 0.011660 0.000000 0.000000 0.000000
# 4 0.000000 0.000000 0.000000 0.010432 0.000000 0.000000
# 5 0.000000 0.000000 0.000000 0.000000 0.026626 0.000000
# 6 0.000000 0.000000 0.000000 0.000000 0.000000 0.044864
#
#
# Mechanical properties :
#
#
# Convention : Reuss Voigt Hill
#
# Bulk Modulus (GPa) = 72.37873 82.25753 77.31813
# Shear Modulus (GPa) = 27.42575 40.79809 34.11192
#
# Velocity S-wave (km/s) = 3.78871 4.62095 4.22537
# Velocity P-wave (km/s) = 7.55124 8.45716 8.01700
#
# Compressibility (1/GPa) = 0.01381621
#
# Stress axis : x y z
#
# Youngs Moduli (GPa) = 35.97864 65.16421 85.76597
#
# Poissons Ratio (x) = 0.60149 0.73113
# Poissons Ratio (y) = 0.33209 0.23472
# Poissons Ratio (z) = 0.30671 0.17833
#
# Static dielectric constant tensor:
#      x y z
#    x 3.543590 0.000000 0.000000 
#    y 0.000000 3.935140 0.000000 
#    z 0.000000 0.000000 3.515000 
# 
# 
# High freq. dielectric constant tensor:
#      x y z
#    x 1.745840 0.000000 0.000000 
#    y 0.000000 1.761790 0.000000 
#    z 0.000000 0.000000 1.747280 
# 
# From -- ./inp_files/5213.got.cif
#   From: 2010.03.12/outbox.cif.g09.slc.cpg/sg51_3_cif.got.tgz:5213.got - 2010.04.16 13:43:02.
