data_PCOD8214037
_publ_section_title
;
Structure prediction by ZEFSAII (Michael W. Deem and Ramdas Pophale) SiO2 
 PCOD8214037
Probable space group: P M M A
;
_chemical_formula_sum "Si O2"
_cell_formula_units_Z 48
_cell_length_a 27.849790
_cell_length_b 8.865154
_cell_length_c 10.073465
_cell_angle_alpha 90.000000
_cell_angle_beta 90.000000
_cell_angle_gamma 90.000000
_cell_volume 2487.064743
_symmetry_space_group_name_H-M "P M M A"
_symmetry_group_IT_number 51
_symmetry_cell_setting 'orthorhombic'
loop_
_space_group_symop_operation_xyz
x,y,z
1/2-x,-y,z
1/2+x,-y,-z
-x,y,-z
-x,-y,-z
1/2+x,y,-z
1/2-x,y,z
x,-y,z
loop_
_atom_site_type_symbol
_atom_site_label
_atom_site_fract_x
_atom_site_fract_y
_atom_site_fract_z
Si Si1 0.346797 0.674684 0.989174
Si Si2 0.403520 0.826301 0.762842
Si Si3 0.349044 0.678895 0.522766
Si Si4 0.899624 0.327190 0.742424
Si Si5 0.007971 0.827204 0.146446
Si Si6 0.750000 0.822913 0.406822
Si Si7 0.250000 0.177601 0.903749
O O1 0.346032 0.500000 0.945609
O O2 0.385238 0.765615 0.903215
O O3 0.295146 0.747239 0.972884
O O4 0.361136 0.694882 0.141499
O O5 0.380955 0.727764 0.647002
O O6 0.460843 0.809613 0.762530
O O7 0.387308 0.000000 0.745742
O O8 0.342774 0.500000 0.523187
O O9 0.375826 0.738354 0.391085
O O10 0.296711 0.752340 0.525835
O O11 0.912950 0.500000 0.721289
O O12 0.949452 0.247155 0.772504
O O13 0.022148 0.000000 0.124180
O O14 0.000000 0.753024 0.000000
O O15 0.750000 0.783804 0.251447
O O16 0.750000 0.000000 0.432115
O O17 0.250000 0.000000 0.929581
#
# Coordination Sequence:
#
# PCOD8214037 Si02
#       7
#     8   8   8   8   8   4   4
#     4  11  22  38  62  90 119 155 199 246 300 354
#     4  11  22  38  61  91 122 155 203 251 294 355
#     4  11  24  42  63  89 124 163 202 248 304 361
#     4  10  24  42  61  90 125 160 201 250 300 360
#     4  10  21  38  62  90 122 162 203 249 304 358
#     4  11  23  40  63  90 121 159 202 246 299 362
#     4  11  23  38  61  92 123 153 198 252 299 358
#
# _framework density 19.299859999999999
#
# number of rings (size 3 to 8) (size 9 to 14) (size 15 to 20)
#    0.000    1.333    3.333    2.000    0.000    5.667 
#    0.000    6.667    0.000    0.000    0.000    0.000 
#    0.000    0.000    0.000    0.000    0.000    0.000 
#
# Total GULP energy -595425.784540 kJ/mol
# GULP energy per Si atom -12404.703845 kJ/mol
# Density = 1.925593 g / cm^3
# Si number density = 19.299860 Si / 1000 Ang^3
#
#
#
# Elastic Constant Matrix: (Units=GPa)
#
#
# Indices 1 2 3 4 5 6 
#
# 1 126.3472 49.4349 37.2289 0.0000 0.0000 0.0000
# 2 49.4349 70.2688 25.0553 0.0000 0.0000 0.0000
# 3 37.2289 25.0553 88.4796 0.0000 0.0000 0.0000
# 4 0.0000 0.0000 0.0000 19.5626 0.0000 0.0000
# 5 0.0000 0.0000 0.0000 0.0000 21.9848 0.0000
# 6 0.0000 0.0000 0.0000 0.0000 0.0000 37.6209
#
#
#
# Elastic Compliance Matrix: (Units=1/GPa)
#
#
# Indices 1 2 3 4 5 6 
#
# 1 0.011529 -0.007098 -0.002841 0.000000 0.000000 0.000000
# 2 -0.007098 0.020199 -0.002733 0.000000 0.000000 0.000000
# 3 -0.002841 -0.002733 0.013271 0.000000 0.000000 0.000000
# 4 0.000000 0.000000 0.000000 0.051118 0.000000 0.000000
# 5 0.000000 0.000000 0.000000 0.000000 0.045486 0.000000
# 6 0.000000 0.000000 0.000000 0.000000 0.000000 0.026581
#
#
# Mechanical properties :
#
#
# Convention : Reuss Voigt Hill
#
# Bulk Modulus (GPa) = 50.87745 56.50375 53.69060
# Shear Modulus (GPa) = 24.99000 27.39211 26.19105
#
# Velocity S-wave (km/s) = 3.60228 3.77143 3.68782
# Velocity P-wave (km/s) = 6.61216 6.95020 6.78329
#
# Compressibility (1/GPa) = 0.01965507
#
# Stress axis : x y z
#
# Youngs Moduli (GPa) = 86.73874 49.50734 75.34957
#
# Poissons Ratio (x) = 0.35139 0.21407
# Poissons Ratio (y) = 0.61564 0.20596
# Poissons Ratio (z) = 0.24643 0.13533
#
# Static dielectric constant tensor:
#      x y z
#    x 3.574990 0.000000 0.000000 
#    y 0.000000 3.619020 0.000000 
#    z 0.000000 0.000000 3.615980 
# 
# 
# High freq. dielectric constant tensor:
#      x y z
#    x 1.766010 0.000000 0.000000 
#    y 0.000000 1.758100 0.000000 
#    z 0.000000 0.000000 1.749980 
# 
# From -- ./inp_files/12955.got.cif
#   From: 2010.03.12/outbox.cif.g09.slc.cpg/sg51_7_cif.got.tgz:12955.got - 2010.04.16 13:43:02.
