data_PCOD8214954
_publ_section_title
;
Structure prediction by ZEFSAII (Michael W. Deem and Ramdas Pophale) SiO2 
 PCOD8214954
Probable space group: P N N A
;
_chemical_formula_sum "Si O2"
_cell_formula_units_Z 44
_cell_length_a 16.348437
_cell_length_b 11.561191
_cell_length_c 12.619155
_cell_angle_alpha 90.000000
_cell_angle_beta 90.000000
_cell_angle_gamma 90.000000
_cell_volume 2385.113711
_symmetry_space_group_name_H-M "P N N A"
_symmetry_group_IT_number 52
_symmetry_cell_setting 'orthorhombic'
loop_
_space_group_symop_operation_xyz
x,y,z
1/2-x,-y,z
x,1/2-y,1/2-z
1/2-x,1/2+y,1/2-z
-x,-y,-z
1/2+x,y,-z
-x,1/2+y,1/2+z
1/2+x,1/2-y,1/2+z
loop_
_atom_site_type_symbol
_atom_site_label
_atom_site_fract_x
_atom_site_fract_y
_atom_site_fract_z
Si Si1 0.588975 0.941888 0.187160
Si Si2 0.382910 0.062071 0.578617
Si Si3 0.540386 0.250000 0.750000
Si Si4 0.434592 0.645466 0.043486
Si Si5 0.900772 0.692177 0.363344
Si Si6 0.713619 0.724964 0.373505
O O1 0.630410 0.978580 0.299964
O O2 0.514651 0.852872 0.201289
O O3 0.655723 0.885975 0.107016
O O4 0.562104 0.063076 0.135148
O O5 0.476076 0.100169 0.570344
O O6 0.318182 0.165432 0.556039
O O7 0.371566 0.954559 0.497056
O O8 0.597632 0.297952 0.845952
O O9 0.449997 0.738312 0.951587
O O10 0.913820 0.750000 0.250000
O O11 0.806214 0.694869 0.400520
O O12 0.699617 0.750000 0.250000
#
# Coordination Sequence:
#
# PCOD8214954 Si02
#       6
#     8   8   4   8   8   8
#     4  10  16  33  50  74 105 139 166 213 277 324
#     4   9  17  33  54  70 105 141 179 207 264 324
#     4  10  20  36  54  70 104 148 190 212 254 314
#     4  10  19  33  51  77  99 143 180 220 252 317
#     4  11  21  28  49  86 111 126 169 227 279 322
#     4   9  17  31  49  76 108 135 162 219 277 327
#
# _framework density 18.447758
#
# number of rings (size 3 to 8) (size 9 to 14) (size 15 to 20)
#    0.000    2.182    6.364    0.545    0.000    1.455 
#    0.000    0.000    0.000    0.000   11.818    0.000 
#    0.000    0.000    0.000    0.000    0.000    0.000 
#
# Total GULP energy -545192.002869 kJ/mol
# GULP energy per Si atom -12390.727338 kJ/mol
# Density = 1.840577 g / cm^3
# Si number density = 18.447758 Si / 1000 Ang^3
#
#
#
# Elastic Constant Matrix: (Units=GPa)
#
#
# Indices 1 2 3 4 5 6 
#
# 1 21.9985 14.4775 9.6471 0.0000 0.0000 0.0000
# 2 14.4775 140.7086 44.4684 0.0000 0.0000 0.0000
# 3 9.6471 44.4684 88.2678 0.0000 0.0000 0.0000
# 4 0.0000 0.0000 0.0000 32.7763 0.0000 0.0000
# 5 0.0000 0.0000 0.0000 0.0000 8.2769 0.0000
# 6 0.0000 0.0000 0.0000 0.0000 0.0000 11.1718
#
#
#
# Elastic Compliance Matrix: (Units=1/GPa)
#
#
# Indices 1 2 3 4 5 6 
#
# 1 0.049597 -0.004032 -0.003389 0.000000 0.000000 0.000000
# 2 -0.004032 0.008780 -0.003983 0.000000 0.000000 0.000000
# 3 -0.003389 -0.003983 0.013706 0.000000 0.000000 0.000000
# 4 0.000000 0.000000 0.000000 0.030510 0.000000 0.000000
# 5 0.000000 0.000000 0.000000 0.000000 0.120818 0.000000
# 6 0.000000 0.000000 0.000000 0.000000 0.000000 0.089511
#
#
# Mechanical properties :
#
#
# Convention : Reuss Voigt Hill
#
# Bulk Modulus (GPa) = 20.29399 43.12899 31.71149
# Shear Modulus (GPa) = 14.19823 22.60380 18.40102
#
# Velocity S-wave (km/s) = 2.77726 3.50421 3.16170
# Velocity P-wave (km/s) = 4.61615 6.30891 5.52771
#
# Compressibility (1/GPa) = 0.04927568
#
# Stress axis : x y z
#
# Youngs Moduli (GPa) = 20.16231 113.88966 72.96018
#
# Poissons Ratio (x) = 0.45919 0.24729
# Poissons Ratio (y) = 0.08129 0.29059
# Poissons Ratio (z) = 0.06834 0.45360
#
# Static dielectric constant tensor:
#      x y z
#    x 3.018840 0.000000 0.000000 
#    y 0.000000 3.808990 0.000000 
#    z 0.000000 0.000000 3.490900 
# 
# 
# High freq. dielectric constant tensor:
#      x y z
#    x 1.671950 0.000000 0.000000 
#    y 0.000000 1.737190 0.000000 
#    z 0.000000 0.000000 1.681160 
# 
# From -- ./inp_files/20510.got.cif
#   From: 2010.06.25/outbox.cif.g09.slc.cpg/sg52_11_cif.got.tgz:20510.got - 2010.06.26 19:32:48.
