data_PCOD8214547
_publ_section_title
;
Structure prediction by ZEFSAII (Michael W. Deem and Ramdas Pophale) SiO2 
 PCOD8214547
Probable space group: P M M A
;
_chemical_formula_sum "Si O2"
_cell_formula_units_Z 48
_cell_length_a 16.099127
_cell_length_b 8.808361
_cell_length_c 15.543859
_cell_angle_alpha 90.000000
_cell_angle_beta 90.000000
_cell_angle_gamma 90.000000
_cell_volume 2204.226807
_symmetry_space_group_name_H-M "P M M A"
_symmetry_group_IT_number 51
_symmetry_cell_setting 'orthorhombic'
loop_
_space_group_symop_operation_xyz
x,y,z
1/2-x,-y,z
1/2+x,-y,-z
-x,y,-z
-x,-y,-z
1/2+x,y,-z
1/2-x,y,z
x,-y,z
loop_
_atom_site_type_symbol
_atom_site_label
_atom_site_fract_x
_atom_site_fract_y
_atom_site_fract_z
Si Si1 0.077901 0.820680 0.057986
Si Si2 0.346361 0.826510 0.527066
Si Si3 0.343547 0.177700 0.721616
Si Si4 0.750000 0.320375 0.927365
Si Si5 0.995939 0.328951 0.213074
Si Si6 0.111525 0.328760 0.363236
Si Si7 0.750000 0.176089 0.742442
O O1 0.165725 0.746350 0.028735
O O2 0.057917 0.771034 0.155354
O O3 0.088955 0.000000 0.052907
O O4 0.000000 0.765125 0.000000
O O5 0.250000 0.811201 0.501021
O O6 0.359183 0.766891 0.623978
O O7 0.401046 0.725603 0.461592
O O8 0.375652 0.000000 0.519767
O O9 0.250000 0.215814 0.749845
O O10 0.402773 0.263783 0.788652
O O11 0.361216 0.000000 0.728421
O O12 0.750000 0.500000 0.938734
O O13 0.750000 0.279156 0.827021
O O14 0.996500 0.500000 0.176852
O O15 0.024655 0.322806 0.312471
O O16 0.147770 0.500000 0.362172
O O17 0.170967 0.211681 0.315399
O O18 0.750000 0.000000 0.769989
#
# Coordination Sequence:
#
# PCOD8214547 Si02
#       7
#     8   8   8   4   8   8   4
#     4  11  25  46  72 101 132 169 214 261 310 377
#     4   9  18  33  54  81 114 158 212 262 309 368
#     4   9  20  40  62  83 114 161 216 268 314 370
#     4  12  24  42  70 102 135 170 205 254 322 384
#     4  11  24  40  61  90 126 162 201 257 319 378
#     4  11  22  34  53  86 124 160 201 256 313 368
#     4  12  22  34  58  88 121 164 209 250 298 366
#
# _framework density 21.776344000000002
#
# number of rings (size 3 to 8) (size 9 to 14) (size 15 to 20)
#    0.000    1.500    2.500    4.000    0.000    5.000 
#    1.500    5.000    0.000    0.000    0.000    0.000 
#    0.000    0.000    0.000    0.000    0.000    0.000 
#
# Total GULP energy -595222.861512 kJ/mol
# GULP energy per Si atom -12400.476282 kJ/mol
# Density = 2.172678 g / cm^3
# Si number density = 21.776344 Si / 1000 Ang^3
#
#
#
# Elastic Constant Matrix: (Units=GPa)
#
#
# Indices 1 2 3 4 5 6 
#
# 1 132.9434 54.0139 30.3435 0.0000 0.0000 0.0000
# 2 54.0139 102.2661 20.3868 0.0000 0.0000 0.0000
# 3 30.3435 20.3868 34.8785 0.0000 0.0000 0.0000
# 4 0.0000 0.0000 0.0000 14.2331 0.0000 0.0000
# 5 0.0000 0.0000 0.0000 0.0000 34.0058 0.0000
# 6 0.0000 0.0000 0.0000 0.0000 0.0000 30.7121
#
#
#
# Elastic Compliance Matrix: (Units=1/GPa)
#
#
# Indices 1 2 3 4 5 6 
#
# 1 0.010872 -0.004365 -0.006907 0.000000 0.000000 0.000000
# 2 -0.004365 0.012821 -0.003696 0.000000 0.000000 0.000000
# 3 -0.006907 -0.003696 0.036840 0.000000 0.000000 0.000000
# 4 0.000000 0.000000 0.000000 0.070259 0.000000 0.000000
# 5 0.000000 0.000000 0.000000 0.000000 0.029407 0.000000
# 6 0.000000 0.000000 0.000000 0.000000 0.000000 0.032561
#
#
# Mechanical properties :
#
#
# Convention : Reuss Voigt Hill
#
# Bulk Modulus (GPa) = 32.68361 53.28626 42.98494
# Shear Modulus (GPa) = 21.46894 26.81313 24.14103
#
# Velocity S-wave (km/s) = 3.14328 3.51279 3.33316
# Velocity P-wave (km/s) = 5.31178 6.40124 5.88179
#
# Compressibility (1/GPa) = 0.03059638
#
# Stress axis : x y z
#
# Youngs Moduli (GPa) = 91.97874 77.99754 27.14432
#
# Poissons Ratio (x) = 0.34049 0.18748
# Poissons Ratio (y) = 0.40153 0.10033
# Poissons Ratio (z) = 0.63528 0.28829
#
# Static dielectric constant tensor:
#      x y z
#    x 3.936010 0.000000 0.000000 
#    y 0.000000 3.782760 0.000000 
#    z 0.000000 0.000000 3.739630 
# 
# 
# High freq. dielectric constant tensor:
#      x y z
#    x 1.856580 0.000000 0.000000 
#    y 0.000000 1.852050 0.000000 
#    z 0.000000 0.000000 1.839020 
# 
# From -- ./inp_files/29656.got.cif
#   From: 2010.03.12/outbox.cif.g09.slc.cpg/sg51_15_cif.got.tgz:29656.got - 2010.04.16 13:43:02.
