data_PCOD8214667
_publ_section_title
;
Structure prediction by ZEFSAII (Michael W. Deem and Ramdas Pophale) SiO2 
 PCOD8214667
Probable space group: P M M A
;
_chemical_formula_sum "Si O2"
_cell_formula_units_Z 32
_cell_length_a 15.032582
_cell_length_b 10.156034
_cell_length_c 10.378506
_cell_angle_alpha 90.000000
_cell_angle_beta 90.000000
_cell_angle_gamma 90.000000
_cell_volume 1584.501185
_symmetry_space_group_name_H-M "P M M A"
_symmetry_group_IT_number 51
_symmetry_cell_setting 'orthorhombic'
loop_
_space_group_symop_operation_xyz
x,y,z
1/2-x,-y,z
1/2+x,-y,-z
-x,y,-z
-x,-y,-z
1/2+x,y,-z
1/2-x,y,z
x,-y,z
loop_
_atom_site_type_symbol
_atom_site_label
_atom_site_fract_x
_atom_site_fract_y
_atom_site_fract_z
Si Si1 0.589273 0.500000 0.425665
Si Si2 0.250000 0.268034 0.186170
Si Si3 0.394972 0.654310 0.983898
Si Si4 0.148040 0.747070 0.713437
Si Si5 0.750000 0.000000 0.657019
Si Si6 0.597975 0.000000 0.444326
Si Si7 0.250000 0.500000 0.383423
O O1 0.500000 0.500000 0.500000
O O2 0.590026 0.373693 0.335462
O O3 0.664958 0.500000 0.529286
O O4 0.250000 0.368741 0.302151
O O5 0.250000 0.123877 0.247689
O O6 0.159503 0.292082 0.106156
O O7 0.371954 0.500000 0.961358
O O8 0.361600 0.746324 0.867333
O O9 0.500000 0.674965 0.000000
O O10 0.250000 0.728728 0.672201
O O11 0.110676 0.877522 0.649597
O O12 0.664055 0.000000 0.565344
O O13 0.500000 0.000000 0.500000
#
# Coordination Sequence:
#
# PCOD8214667 Si02
#       7
#     4   4   8   8   2   4   2
#     4  12  26  39  68 102 132 179 235 281 339 404
#     4  12  26  44  69  95 143 181 216 282 349 397
#     4  11  25  44  71 105 136 176 231 287 337 398
#     4  12  23  46  71  97 138 180 230 287 337 402
#     4  12  28  48  64 102 146 178 228 276 344 420
#     4  12  28  49  72  98 140 185 227 285 343 406
#     4  12  24  40  66  96 132 180 228 280 346 402
#
# _framework density 20.195632
#
# number of rings (size 3 to 8) (size 9 to 14) (size 15 to 20)
#    0.000    0.250    6.250    2.250    7.000    1.000 
#    0.000    1.250    0.000    0.000    0.000    0.000 
#    0.000    0.000    0.000    0.000    0.000    0.000 
#
# Total GULP energy -396918.016304 kJ/mol
# GULP energy per Si atom -12403.688009 kJ/mol
# Density = 2.014967 g / cm^3
# Si number density = 20.195632 Si / 1000 Ang^3
#
#
#
# Elastic Constant Matrix: (Units=GPa)
#
#
# Indices 1 2 3 4 5 6 
#
# 1 125.5575 25.5975 31.2974 0.0000 0.0000 0.0000
# 2 25.5975 152.9001 50.6195 0.0000 0.0000 0.0000
# 3 31.2974 50.6195 110.0088 0.0000 0.0000 0.0000
# 4 0.0000 0.0000 0.0000 46.8329 0.0000 0.0000
# 5 0.0000 0.0000 0.0000 0.0000 -41.6616 0.0000
# 6 0.0000 0.0000 0.0000 0.0000 0.0000 35.9860
#
#
#
# Elastic Compliance Matrix: (Units=1/GPa)
#
#
# Indices 1 2 3 4 5 6 
#
# 1 0.008644 -0.000747 -0.002116 0.000000 0.000000 0.000000
# 2 -0.000747 0.007780 -0.003367 0.000000 0.000000 0.000000
# 3 -0.002116 -0.003367 0.011242 0.000000 0.000000 0.000000
# 4 0.000000 0.000000 0.000000 0.021352 0.000000 0.000000
# 5 0.000000 0.000000 0.000000 0.000000 -0.024003 0.000000
# 6 0.000000 0.000000 0.000000 0.000000 0.000000 0.027789
#
#
# Mechanical properties :
#
#
# Convention : Reuss Voigt Hill
#
# Bulk Modulus (GPa) = 65.76329 67.05504 66.40917
# Shear Modulus (GPa) = 71.09110 26.96160 49.02635
#
# Velocity S-wave (km/s) = 5.93950 3.65776 4.93238
# Velocity P-wave (km/s) = 8.92584 7.14939 8.08655
#
# Compressibility (1/GPa) = 0.01520605
#
# Stress axis : x y z
#
# Youngs Moduli (GPa) = 115.68622 128.53344 88.95535
#
# Poissons Ratio (x) = 0.09598 0.18820
# Poissons Ratio (y) = 0.08639 0.29956
# Poissons Ratio (z) = 0.24475 0.43283
#
# Static dielectric constant tensor:
#      x y z
#    x 3.810820 0.000000 0.000000 
#    y 0.000000 3.766200 0.000000 
#    z 0.000000 0.000000 2.631120 
# 
# 
# High freq. dielectric constant tensor:
#      x y z
#    x 1.803780 0.000000 0.000000 
#    y 0.000000 1.791050 0.000000 
#    z 0.000000 0.000000 1.808350 
# 
# From -- ./inp_files/7671.got.cif
#   From: 2010.03.12/outbox.cif.g09.slc.cpg/sg51_4_cif.got.tgz:7671.got - 2010.04.16 13:43:02.
