data_PCOD8214298
_publ_section_title
;
Structure prediction by ZEFSAII (Michael W. Deem and Ramdas Pophale) SiO2 
 PCOD8214298
Probable space group: P M M A
;
_chemical_formula_sum "Si O2"
_cell_formula_units_Z 56
_cell_length_a 15.717326
_cell_length_b 18.185261
_cell_length_c 9.277408
_cell_angle_alpha 90.000000
_cell_angle_beta 90.000000
_cell_angle_gamma 90.000000
_cell_volume 2651.702854
_symmetry_space_group_name_H-M "P M M A"
_symmetry_group_IT_number 51
_symmetry_cell_setting 'orthorhombic'
loop_
_space_group_symop_operation_xyz
x,y,z
1/2-x,-y,z
1/2+x,-y,-z
-x,y,-z
-x,-y,-z
1/2+x,y,-z
1/2-x,y,z
x,-y,z
loop_
_atom_site_type_symbol
_atom_site_label
_atom_site_fract_x
_atom_site_fract_y
_atom_site_fract_z
Si Si1 0.500067 0.658483 0.837437
Si Si2 0.104913 0.916013 0.694931
Si Si3 0.954628 0.819172 0.788754
Si Si4 0.848357 0.347578 0.364132
Si Si5 0.155049 0.082590 0.012323
Si Si6 0.847009 0.584840 0.669472
Si Si7 0.155111 0.797454 0.485021
O O1 0.496683 0.747227 0.844082
O O2 0.414339 0.627720 0.760345
O O3 0.586195 0.632869 0.759062
O O4 0.500000 0.627447 0.000000
O O5 0.152232 0.875978 0.563499
O O6 0.013641 0.879809 0.716063
O O7 0.092988 0.000000 0.648230
O O8 0.159242 0.908050 0.840328
O O9 0.907785 0.856989 0.923725
O O10 0.890190 0.795131 0.666453
O O11 0.750000 0.348125 0.307371
O O12 0.858767 0.401853 0.499102
O O13 0.880507 0.265956 0.409594
O O14 0.250000 0.094657 0.073481
O O15 0.122899 0.000000 0.051119
O O16 0.750000 0.605952 0.714499
O O17 0.865451 0.500000 0.701599
O O18 0.250000 0.774669 0.446344
#
# Coordination Sequence:
#
# PCOD8214298 Si02
#       7
#     8   8   8   8   8   8   8
#     4  12  25  40  65 101 139 176 215 263 326 389
#     4  11  23  39  59  84 118 160 207 264 326 387
#     4  12  23  38  59  89 120 161 210 260 315 379
#     4  10  22  43  67  95 130 173 220 268 319 380
#     4  10  22  40  59  81 116 162 210 260 319 390
#     4  10  23  45  74 104 134 172 218 264 314 379
#     4  11  23  39  60  86 118 157 208 268 320 373
#
# _framework density 21.118504000000001
#
# number of rings (size 3 to 8) (size 9 to 14) (size 15 to 20)
#    0.000    1.143    2.857    3.429    0.000    6.286 
#    0.000    0.000    0.000    1.714    0.000    0.000 
#    0.000    0.000    0.000    0.000    0.000    0.000 
#
# Total GULP energy -694488.999175 kJ/mol
# GULP energy per Si atom -12401.589271 kJ/mol
# Density = 2.107044 g / cm^3
# Si number density = 21.118504 Si / 1000 Ang^3
#
#
#
# Elastic Constant Matrix: (Units=GPa)
#
#
# Indices 1 2 3 4 5 6 
#
# 1 75.4872 25.8421 25.5399 0.0000 0.0000 0.0000
# 2 25.8421 78.7284 10.8225 0.0000 0.0000 0.0000
# 3 25.5399 10.8225 83.8497 0.0000 0.0000 0.0000
# 4 0.0000 0.0000 0.0000 21.1479 0.0000 0.0000
# 5 0.0000 0.0000 0.0000 0.0000 28.5440 0.0000
# 6 0.0000 0.0000 0.0000 0.0000 0.0000 28.1196
#
#
#
# Elastic Compliance Matrix: (Units=1/GPa)
#
#
# Indices 1 2 3 4 5 6 
#
# 1 0.016357 -0.004769 -0.004367 0.000000 0.000000 0.000000
# 2 -0.004769 0.014322 -0.000396 0.000000 0.000000 0.000000
# 3 -0.004367 -0.000396 0.013307 0.000000 0.000000 0.000000
# 4 0.000000 0.000000 0.000000 0.047286 0.000000 0.000000
# 5 0.000000 0.000000 0.000000 0.000000 0.035034 0.000000
# 6 0.000000 0.000000 0.000000 0.000000 0.000000 0.035562
#
#
# Mechanical properties :
#
#
# Convention : Reuss Voigt Hill
#
# Bulk Modulus (GPa) = 40.12348 40.27492 40.19920
# Shear Modulus (GPa) = 26.42158 27.28635 26.85397
#
# Velocity S-wave (km/s) = 3.54094 3.59842 3.56980
# Velocity P-wave (km/s) = 5.97981 6.03135 6.00564
#
# Compressibility (1/GPa) = 0.02492306
#
# Stress axis : x y z
#
# Youngs Moduli (GPa) = 61.13490 69.82422 75.14680
#
# Poissons Ratio (x) = 0.33298 0.32815
# Poissons Ratio (y) = 0.29155 0.02975
# Poissons Ratio (z) = 0.26696 0.02765
#
# Static dielectric constant tensor:
#      x y z
#    x 3.868490 0.000000 0.000000 
#    y 0.000000 3.890770 0.000000 
#    z 0.000000 0.000000 3.675580 
# 
# 
# High freq. dielectric constant tensor:
#      x y z
#    x 1.837030 0.000000 0.000000 
#    y 0.000000 1.825180 0.000000 
#    z 0.000000 0.000000 1.816900 
# 
# From -- ./inp_files/8573.got.cif
#   From: 2010.03.12/outbox.cif.g09.slc.cpg/sg51_5_cif.got.tgz:8573.got - 2010.04.16 13:43:02.
