data_PCOD8214497
_publ_section_title
;
Structure prediction by ZEFSAII (Michael W. Deem and Ramdas Pophale) SiO2 
 PCOD8214497
Probable space group: P M M A
;
_chemical_formula_sum "Si O2"
_cell_formula_units_Z 48
_cell_length_a 8.754194
_cell_length_b 30.775144
_cell_length_c 9.109100
_cell_angle_alpha 90.000000
_cell_angle_beta 90.000000
_cell_angle_gamma 90.000000
_cell_volume 2454.097032
_symmetry_space_group_name_H-M "P M M A"
_symmetry_group_IT_number 51
_symmetry_cell_setting 'orthorhombic'
loop_
_space_group_symop_operation_xyz
x,y,z
1/2-x,-y,z
1/2+x,-y,-z
-x,y,-z
-x,-y,-z
1/2+x,y,-z
1/2-x,y,z
x,-y,z
loop_
_atom_site_type_symbol
_atom_site_label
_atom_site_fract_x
_atom_site_fract_y
_atom_site_fract_z
Si Si1 0.426334 0.295951 0.844455
Si Si2 0.929978 0.628564 0.658215
Si Si3 0.929772 0.451372 0.846893
Si Si4 0.426698 0.790069 0.656718
Si Si5 0.569455 0.866915 0.838223
Si Si6 0.928796 0.047066 0.159743
O O1 0.250000 0.308322 0.864497
O O2 0.512139 0.336004 0.771812
O O3 0.448024 0.253791 0.746134
O O4 0.500000 0.285366 0.000000
O O5 0.750000 0.632648 0.644333
O O6 0.980687 0.581145 0.717596
O O7 0.000000 0.636780 0.500000
O O8 0.750000 0.450406 0.867550
O O9 0.987485 0.500000 0.806690
O O10 0.000000 0.435364 0.000000
O O11 0.500000 0.781650 0.500000
O O12 0.250000 0.803187 0.641565
O O13 0.517193 0.828164 0.735785
O O14 0.750000 0.867060 0.850919
O O15 0.511734 0.912150 0.761933
O O16 0.500000 0.861100 0.000000
O O17 0.750000 0.057221 0.147329
O O18 0.956143 0.000000 0.239403
O O19 0.000000 0.043884 0.000000
#
# Coordination Sequence:
#
# PCOD8214497 Si02
#       6
#     8   8   8   8   8   8
#     4  11  24  41  63  88 115 147 185 230 278 332
#     4  11  23  38  58  84 117 153 190 234 283 337
#     4   9  19  36  57  82 112 148 191 237 284 334
#     4  11  24  41  60  83 112 146 184 227 277 333
#     4  11  21  34  55  82 113 148 187 232 279 330
#     4   9  16  27  46  74 108 144 183 229 278 327
#
# _framework density 19.55913
#
# number of rings (size 3 to 8) (size 9 to 14) (size 15 to 20)
#    0.000    1.667    0.000    6.000    0.000    9.333 
#    0.000    0.000    0.000    0.500    0.000    0.000 
#    0.000    0.000    0.000    0.000    0.000    0.000 
#
# Total GULP energy -595164.486418 kJ/mol
# GULP energy per Si atom -12399.260134 kJ/mol
# Density = 1.951461 g / cm^3
# Si number density = 19.559130 Si / 1000 Ang^3
#
#
#
# Elastic Constant Matrix: (Units=GPa)
#
#
# Indices 1 2 3 4 5 6 
#
# 1 129.7460 62.5760 49.6587 0.0000 0.0000 0.0000
# 2 62.5760 112.2498 38.6520 0.0000 0.0000 0.0000
# 3 49.6587 38.6520 96.1347 0.0000 0.0000 0.0000
# 4 0.0000 0.0000 0.0000 -201.3920 0.0000 0.0000
# 5 0.0000 0.0000 0.0000 0.0000 29.6734 0.0000
# 6 0.0000 0.0000 0.0000 0.0000 0.0000 -0.1597
#
#
#
# Elastic Compliance Matrix: (Units=1/GPa)
#
#
# Indices 1 2 3 4 5 6 
#
# 1 0.011721 -0.005164 -0.003978 0.000000 0.000000 0.000000
# 2 -0.005164 0.012616 -0.002405 0.000000 0.000000 0.000000
# 3 -0.003978 -0.002405 0.013424 0.000000 0.000000 0.000000
# 4 0.000000 0.000000 0.000000 -0.004965 0.000000 0.000000
# 5 0.000000 0.000000 0.000000 0.000000 0.033700 0.000000
# 6 0.000000 0.000000 0.000000 0.000000 0.000000 -6.260476
#
#
# Mechanical properties :
#
#
# Convention : Reuss Voigt Hill
#
# Bulk Modulus (GPa) = 68.18363 71.10045 69.64204
# Shear Modulus (GPa) = -0.81090 -21.89274 -11.35182
#
# Velocity S-wave (km/s) = -0.64458 -3.34924 -2.41173
# Velocity P-wave (km/s) = 5.86361 4.63400 5.28469
#
# Compressibility (1/GPa) = 0.01466628
#
# Stress axis : x y z
#
# Youngs Moduli (GPa) = 85.32058 79.26728 74.49479
#
# Poissons Ratio (x) = 0.40934 0.29634
# Poissons Ratio (y) = 0.44060 0.17914
# Poissons Ratio (z) = 0.33941 0.19061
#
# Static dielectric constant tensor:
#      x y z
#    x 3.751650 0.000000 0.000000 
#    y 0.000000 4.268360 0.000000 
#    z 0.000000 0.000000 3.444440 
# 
# 
# High freq. dielectric constant tensor:
#      x y z
#    x 1.777060 0.000000 0.000000 
#    y 0.000000 1.786820 0.000000 
#    z 0.000000 0.000000 1.737750 
# 
# From -- ./inp_files/5961.got.cif
#   From: 2010.03.12/outbox.cif.g09.slc.cpg/sg51_3_cif.got.tgz:5961.got - 2010.04.16 13:43:02.
