data_PCOD8214254
_publ_section_title
;
Structure prediction by ZEFSAII (Michael W. Deem and Ramdas Pophale) SiO2 
 PCOD8214254
Probable space group: P M M A
;
_chemical_formula_sum "Si O2"
_cell_formula_units_Z 64
_cell_length_a 14.378277
_cell_length_b 9.156262
_cell_length_c 24.054367
_cell_angle_alpha 90.000000
_cell_angle_beta 90.000000
_cell_angle_gamma 90.000000
_cell_volume 3166.787996
_symmetry_space_group_name_H-M "P M M A"
_symmetry_group_IT_number 51
_symmetry_cell_setting 'orthorhombic'
loop_
_space_group_symop_operation_xyz
x,y,z
1/2-x,-y,z
1/2+x,-y,-z
-x,y,-z
-x,-y,-z
1/2+x,y,-z
1/2-x,y,z
x,-y,z
loop_
_atom_site_type_symbol
_atom_site_label
_atom_site_fract_x
_atom_site_fract_y
_atom_site_fract_z
Si Si1 0.141685 0.169148 0.411553
Si Si2 0.638759 0.167427 0.897912
Si Si3 0.472129 0.168745 0.304178
Si Si4 0.351360 0.172173 0.981993
Si Si5 0.639410 0.335259 0.480940
Si Si6 0.854386 0.831895 0.373193
Si Si7 0.521241 0.673015 0.807150
Si Si8 0.858956 0.170261 0.138935
O O1 0.250000 0.202404 0.403281
O O2 0.090801 0.220082 0.355653
O O3 0.099730 0.257510 0.463896
O O4 0.122334 0.000000 0.423481
O O5 0.750000 0.184104 0.896919
O O6 0.594019 0.273269 0.853064
O O7 0.610138 0.000000 0.884815
O O8 0.598806 0.214782 0.959638
O O9 0.580397 0.193454 0.319856
O O10 0.444649 0.268920 0.252341
O O11 0.452621 0.000000 0.289006
O O12 0.250000 0.247277 0.981297
O O13 0.399375 0.212051 0.922988
O O14 0.337122 0.000000 0.983091
O O15 0.750000 0.325732 0.481988
O O16 0.602528 0.500000 0.480406
O O17 0.603925 0.256503 0.425245
O O18 0.750000 0.781132 0.357045
O O19 0.855439 0.000000 0.391586
O O20 0.518850 0.500000 0.806882
O O21 0.417724 0.734762 0.817919
O O22 0.750000 0.208600 0.144344
O O23 0.875477 0.000000 0.151849
#
# Coordination Sequence:
#
# PCOD8214254 Si02
#       8
#     8   8   8   8   8   8   8   8
#     4   9  18  34  56  79 103 132 168 216 269 313
#     4   9  18  36  62  86 109 141 183 230 275 322
#     4  10  22  39  56  75  99 134 188 236 265 308
#     4   7  12  27  55  88 111 131 172 228 277 319
#     4   9  17  30  51  80 111 139 166 199 249 320
#     4   9  18  34  56  79 103 132 168 216 269 313
#     4  12  26  39  52  77 115 152 186 226 275 334
#     4   9  18  36  62  86 109 141 183 230 275 322
#
# _framework density 20.209751000000001
#
# number of rings (size 3 to 8) (size 9 to 14) (size 15 to 20)
#    0.000    2.750    0.000    3.000    0.000    5.000 
#    0.000    8.125    0.000    2.250    0.000    0.000 
#    0.000    0.000    0.000    0.000    0.000    0.000 
#
# Total GULP energy -793237.408148 kJ/mol
# GULP energy per Si atom -12394.334502 kJ/mol
# Density = 2.016375 g / cm^3
# Si number density = 20.209751 Si / 1000 Ang^3
#
#
#
# Elastic Constant Matrix: (Units=GPa)
#
#
# Indices 1 2 3 4 5 6 
#
# 1 20.2214 6.5726 -4.8433 0.0000 0.0000 0.0000
# 2 6.5726 87.2090 42.7001 0.0000 0.0000 0.0000
# 3 -4.8433 42.7001 94.6602 0.0000 0.0000 0.0000
# 4 0.0000 0.0000 0.0000 7.8801 0.0000 0.0000
# 5 0.0000 0.0000 0.0000 0.0000 21.9090 0.0000
# 6 0.0000 0.0000 0.0000 0.0000 0.0000 13.6615
#
#
#
# Elastic Compliance Matrix: (Units=1/GPa)
#
#
# Indices 1 2 3 4 5 6 
#
# 1 0.053065 -0.006839 0.005800 0.000000 0.000000 0.000000
# 2 -0.006839 0.015599 -0.007386 0.000000 0.000000 0.000000
# 3 0.005800 -0.007386 0.014193 0.000000 0.000000 0.000000
# 4 0.000000 0.000000 0.000000 0.126902 0.000000 0.000000
# 5 0.000000 0.000000 0.000000 0.000000 0.045643 0.000000
# 6 0.000000 0.000000 0.000000 0.000000 0.000000 0.073199
#
#
# Mechanical properties :
#
#
# Convention : Reuss Voigt Hill
#
# Bulk Modulus (GPa) = 15.15027 32.32771 23.73899
# Shear Modulus (GPa) = 13.60720 19.20086 16.40403
#
# Velocity S-wave (km/s) = 2.59762 3.08568 2.85211
# Velocity P-wave (km/s) = 4.06320 5.35967 4.75582
#
# Compressibility (1/GPa) = 0.06600542
#
# Stress axis : x y z
#
# Youngs Moduli (GPa) = 18.84491 64.10791 70.45855
#
# Poissons Ratio (x) = 0.43845 -0.40867
# Poissons Ratio (y) = 0.12888 0.52043
# Poissons Ratio (z) = -0.10930 0.47352
#
# Static dielectric constant tensor:
#      x y z
#    x 3.587400 0.000000 0.000000 
#    y 0.000000 3.355390 0.000000 
#    z 0.000000 0.000000 3.818670 
# 
# 
# High freq. dielectric constant tensor:
#      x y z
#    x 1.786600 0.000000 0.000000 
#    y 0.000000 1.752320 0.000000 
#    z 0.000000 0.000000 1.795370 
# 
# From -- ./inp_files/35606.got.cif
#   From: 2010.03.12/outbox.cif.g09.slc.cpg/sg51_18_cif.got.tgz:35606.got - 2010.04.16 13:43:02.
