data_PCOD8214500
_publ_section_title
;
Structure prediction by ZEFSAII (Michael W. Deem and Ramdas Pophale) SiO2 
 PCOD8214500
Probable space group: P M M A
;
_chemical_formula_sum "Si O2"
_cell_formula_units_Z 40
_cell_length_a 10.256121
_cell_length_b 17.836360
_cell_length_c 13.578400
_cell_angle_alpha 90.000000
_cell_angle_beta 90.000000
_cell_angle_gamma 90.000000
_cell_volume 2483.922054
_symmetry_space_group_name_H-M "P M M A"
_symmetry_group_IT_number 51
_symmetry_cell_setting 'orthorhombic'
loop_
_space_group_symop_operation_xyz
x,y,z
1/2-x,-y,z
1/2+x,-y,-z
-x,y,-z
-x,-y,-z
1/2+x,y,-z
1/2-x,y,z
x,-y,z
loop_
_atom_site_type_symbol
_atom_site_label
_atom_site_fract_x
_atom_site_fract_y
_atom_site_fract_z
Si Si1 0.750000 0.652771 0.093490
Si Si2 0.994140 0.915617 0.117381
Si Si3 0.750000 0.823112 0.109037
Si Si4 0.750000 0.664383 0.860173
Si Si5 0.750000 0.165432 0.875142
Si Si6 0.012962 0.411727 0.792664
Si Si7 0.103929 0.410884 0.578175
O O1 0.750000 0.736184 0.139294
O O2 0.620495 0.609731 0.126639
O O3 0.750000 0.653569 0.976529
O O4 0.875719 0.864048 0.154415
O O5 0.124604 0.879979 0.162588
O O6 0.976355 0.000000 0.157585
O O7 0.000000 0.916597 0.000000
O O8 0.750000 0.830171 0.992281
O O9 0.750000 0.751555 0.830456
O O10 0.622924 0.627602 0.814031
O O11 0.989836 0.500000 0.795692
O O12 0.063229 0.384256 0.686640
O O13 0.250000 0.380929 0.554309
O O14 0.103890 0.500000 0.573002
O O15 0.000000 0.377696 0.500000
#
# Coordination Sequence:
#
# PCOD8214500 Si02
#       7
#     4   8   4   4   4   8   8
#     4  11  21  35  48  61  91 133 167 201 237 270
#     4   9  15  24  40  60  80 104 142 193 234 264
#     4   9  17  27  41  58  81 113 152 190 226 273
#     4  11  23  33  46  65  91 131 171 201 231 270
#     4   9  17  29  39  56  83 115 154 188 224 271
#     4  11  22  35  49  68  91 118 163 210 242 278
#     4   9  18  33  53  73  91 110 138 188 250 303
#
# _framework density 16.103565
#
# number of rings (size 3 to 8) (size 9 to 14) (size 15 to 20)
#    0.000    2.200    1.000    3.000    1.400    8.000 
#    0.000    0.000    0.000    0.000    0.000    0.000 
#    0.000    0.000    0.000    0.000    0.000   70.000 
#
# Total GULP energy -495988.506102 kJ/mol
# GULP energy per Si atom -12399.712653 kJ/mol
# Density = 1.606691 g / cm^3
# Si number density = 16.103565 Si / 1000 Ang^3
#
#
#
# Elastic Constant Matrix: (Units=GPa)
#
#
# Indices 1 2 3 4 5 6 
#
# 1 160.8936 46.2840 30.7187 0.0000 0.0000 0.0000
# 2 46.2840 88.3071 13.5426 0.0000 0.0000 0.0000
# 3 30.7187 13.5426 51.3650 0.0000 0.0000 0.0000
# 4 0.0000 0.0000 0.0000 1.2235 0.0000 0.0000
# 5 0.0000 0.0000 0.0000 0.0000 23.1344 0.0000
# 6 0.0000 0.0000 0.0000 0.0000 0.0000 29.1749
#
#
#
# Elastic Compliance Matrix: (Units=1/GPa)
#
#
# Indices 1 2 3 4 5 6 
#
# 1 0.007980 -0.003596 -0.003824 0.000000 0.000000 0.000000
# 2 -0.003596 0.013422 -0.001388 0.000000 0.000000 0.000000
# 3 -0.003824 -0.001388 0.022122 0.000000 0.000000 0.000000
# 4 0.000000 0.000000 0.000000 0.817331 0.000000 0.000000
# 5 0.000000 0.000000 0.000000 0.000000 0.043226 0.000000
# 6 0.000000 0.000000 0.000000 0.000000 0.000000 0.034276
#
#
# Mechanical properties :
#
#
# Convention : Reuss Voigt Hill
#
# Bulk Modulus (GPa) = 38.60039 53.51736 46.05887
# Shear Modulus (GPa) = 5.18345 24.70793 14.94569
#
# Velocity S-wave (km/s) = 1.79605 3.92128 3.04978
# Velocity P-wave (km/s) = 5.32196 7.33535 6.40822
#
# Compressibility (1/GPa) = 0.02590647
#
# Stress axis : x y z
#
# Youngs Moduli (GPa) = 125.31518 74.50601 45.20475
#
# Poissons Ratio (x) = 0.26792 0.17287
# Poissons Ratio (y) = 0.45063 0.06275
# Poissons Ratio (z) = 0.47924 0.10342
#
# Static dielectric constant tensor:
#      x y z
#    x 3.329030 0.000000 0.000000 
#    y 0.000000 3.064820 0.000000 
#    z 0.000000 0.000000 2.703220 
# 
# 
# High freq. dielectric constant tensor:
#      x y z
#    x 1.646020 0.000000 0.000000 
#    y 0.000000 1.607990 0.000000 
#    z 0.000000 0.000000 1.560730 
# 
# From -- ./inp_files/14303.got.cif
#   From: 2010.03.12/outbox.cif.g09.slc.cpg/sg51_8_cif.got.tgz:14303.got - 2010.04.16 13:43:02.
