data_PCOD8214882
_publ_section_title
;
Structure prediction by ZEFSAII (Michael W. Deem and Ramdas Pophale) SiO2 
 PCOD8214882
Probable space group: P M M A
;
_chemical_formula_sum "Si O2"
_cell_formula_units_Z 64
_cell_length_a 9.587731
_cell_length_b 9.300782
_cell_length_c 41.075011
_cell_angle_alpha 90.000000
_cell_angle_beta 90.000000
_cell_angle_gamma 90.000000
_cell_volume 3662.798218
_symmetry_space_group_name_H-M "P M M A"
_symmetry_group_IT_number 51
_symmetry_cell_setting 'orthorhombic'
loop_
_space_group_symop_operation_xyz
x,y,z
1/2-x,-y,z
1/2+x,-y,-z
-x,y,-z
-x,-y,-z
1/2+x,y,-z
1/2-x,y,z
x,-y,z
loop_
_atom_site_type_symbol
_atom_site_label
_atom_site_fract_x
_atom_site_fract_y
_atom_site_fract_z
Si Si1 0.412040 0.166844 0.844031
Si Si2 0.412040 0.333156 0.655969
Si Si3 0.089521 0.167296 0.094308
Si Si4 0.910842 0.667580 0.969535
Si Si5 0.089158 0.167580 0.469535
Si Si6 0.415998 0.162573 0.719160
Si Si7 0.584002 0.662573 0.219160
Si Si8 0.089521 0.667296 0.405692
O O1 0.250000 0.195548 0.851139
O O2 0.497943 0.219214 0.875287
O O3 0.466728 0.258969 0.813571
O O4 0.439888 0.000000 0.836106
O O5 0.250000 0.304451 0.648861
O O6 0.439887 0.500000 0.663894
O O7 0.466728 0.241031 0.686429
O O8 0.497943 0.280786 0.624713
O O9 0.250000 0.203914 0.102034
O O10 0.036619 0.251107 0.062570
O O11 0.067074 0.000000 0.087434
O O12 0.750000 0.702795 0.976848
O O13 0.936384 0.500000 0.963571
O O14 0.000000 0.724186 0.000000
O O15 0.250000 0.202795 0.476848
O O16 0.036618 0.248892 0.437430
O O17 0.000000 0.224186 0.500000
O O18 0.063617 0.000000 0.463572
O O19 0.250000 0.161740 0.720629
O O20 0.476292 0.250000 0.750000
O O21 0.474476 0.000000 0.719859
O O22 0.750000 0.661740 0.220629
O O23 0.525524 0.500000 0.219859
O O24 0.250000 0.703913 0.397966
O O25 0.067073 0.500000 0.412566
#
# Coordination Sequence:
#
# PCOD8214882 Si02
#       8
#     8   8   8   8   8   8   8   8
#     4   9  17  29  45  66  91 117 147 184 223 262
#     4   9  17  29  45  66  91 117 147 184 223 262
#     4   9  18  32  48  66  90 120 150 180 219 266
#     4   9  18  32  48  66  89 117 148 182 221 264
#     4   9  18  32  48  66  89 117 148 182 221 264
#     4   9  16  26  42  65  92 120 149 183 224 266
#     4   9  16  26  42  65  92 120 149 183 224 266
#     4   9  18  32  48  66  90 120 150 180 219 266
#
# _framework density 17.47298
#
# number of rings (size 3 to 8) (size 9 to 14) (size 15 to 20)
#    0.000    3.000    0.000    0.750    0.000    5.500 
#    0.000    0.000    0.000    0.750    0.000    0.000 
#    0.000    0.000    0.000    0.000    0.000    0.000 
#
# Total GULP energy -793678.461454 kJ/mol
# GULP energy per Si atom -12401.225960 kJ/mol
# Density = 1.743321 g / cm^3
# Si number density = 17.472980 Si / 1000 Ang^3
#
#
#
# Elastic Constant Matrix: (Units=GPa)
#
#
# Indices 1 2 3 4 5 6 
#
# 1 44.6421 32.6860 65.1365 0.0000 0.0000 0.0000
# 2 32.6860 86.7491 87.8296 0.0000 0.0000 0.0000
# 3 65.1365 87.8296 200.2533 0.0000 0.0000 0.0000
# 4 0.0000 0.0000 0.0000 39.9737 0.0000 0.0000
# 5 0.0000 0.0000 0.0000 0.0000 27.0625 0.0000
# 6 0.0000 0.0000 0.0000 0.0000 0.0000 15.3933
#
#
#
# Elastic Compliance Matrix: (Units=1/GPa)
#
#
# Indices 1 2 3 4 5 6 
#
# 1 0.043283 -0.003696 -0.012458 0.000000 0.000000 0.000000
# 2 -0.003696 0.021050 -0.008031 0.000000 0.000000 0.000000
# 3 -0.012458 -0.008031 0.012568 0.000000 0.000000 0.000000
# 4 0.000000 0.000000 0.000000 0.025016 0.000000 0.000000
# 5 0.000000 0.000000 0.000000 0.000000 0.036952 0.000000
# 6 0.000000 0.000000 0.000000 0.000000 0.000000 0.064963
#
#
# Mechanical properties :
#
#
# Convention : Reuss Voigt Hill
#
# Bulk Modulus (GPa) = 35.04611 78.10541 56.57576
# Shear Modulus (GPa) = 19.10492 26.21872 22.66182
#
# Velocity S-wave (km/s) = 3.31024 3.87787 3.60525
# Velocity P-wave (km/s) = 5.89162 8.05284 7.05547
#
# Compressibility (1/GPa) = 0.02853384
#
# Stress axis : x y z
#
# Youngs Moduli (GPa) = 23.10354 47.50482 79.56696
#
# Poissons Ratio (x) = 0.17555 0.99125
# Poissons Ratio (y) = 0.08538 0.63897
# Poissons Ratio (z) = 0.28782 0.38149
#
# Static dielectric constant tensor:
#      x y z
#    x 2.981170 0.000000 0.000000 
#    y 0.000000 3.277620 0.000000 
#    z 0.000000 0.000000 3.403470 
# 
# 
# High freq. dielectric constant tensor:
#      x y z
#    x 1.640200 0.000000 0.000000 
#    y 0.000000 1.675060 0.000000 
#    z 0.000000 0.000000 1.685590 
# 
# From -- ./inp_files/37767.got.cif
#   From: 2010.03.12/outbox.cif.g09.slc.cpg/sg51_19_cif.got.tgz:37767.got - 2010.04.16 13:43:02.
