data_PCOD8214823
_publ_section_title
;
Structure prediction by ZEFSAII (Michael W. Deem and Ramdas Pophale) SiO2 
 PCOD8214823
Probable space group: P M M A
;
_chemical_formula_sum "Si O2"
_cell_formula_units_Z 56
_cell_length_a 32.154688
_cell_length_b 9.251869
_cell_length_c 13.699767
_cell_angle_alpha 90.000000
_cell_angle_beta 90.000000
_cell_angle_gamma 90.000000
_cell_volume 4075.556852
_symmetry_space_group_name_H-M "P M M A"
_symmetry_group_IT_number 51
_symmetry_cell_setting 'orthorhombic'
loop_
_space_group_symop_operation_xyz
x,y,z
1/2-x,-y,z
1/2+x,-y,-z
-x,y,-z
-x,-y,-z
1/2+x,y,-z
1/2-x,y,z
x,-y,z
loop_
_atom_site_type_symbol
_atom_site_label
_atom_site_fract_x
_atom_site_fract_y
_atom_site_fract_z
Si Si1 0.640131 0.337590 0.347235
Si Si2 0.518267 0.329240 0.650950
Si Si3 0.701763 0.169908 0.236460
Si Si4 0.637246 0.337858 0.132143
Si Si5 0.062424 0.671156 0.540158
Si Si6 0.434811 0.167353 0.960389
Si Si7 0.483567 0.166909 0.152955
O O1 0.654108 0.500000 0.377958
O O2 0.680817 0.234796 0.336121
O O3 0.617213 0.343478 0.241089
O O4 0.607343 0.269456 0.424473
O O5 0.517180 0.500000 0.665687
O O6 0.474278 0.269809 0.610053
O O7 0.553861 0.285526 0.572089
O O8 0.529467 0.257177 0.752977
O O9 0.750000 0.209223 0.236957
O O10 0.680381 0.246115 0.141717
O O11 0.693708 0.000000 0.232010
O O12 0.646915 0.500000 0.094199
O O13 0.605909 0.262220 0.057726
O O14 0.062545 0.500000 0.551538
O O15 0.471760 0.217099 0.888288
O O16 0.424207 0.000000 0.942113
O O17 0.448482 0.193508 0.071573
O O18 0.485546 0.000000 0.182036
#
# Coordination Sequence:
#
# PCOD8214823 Si02
#       7
#     8   8   8   8   8   8   8
#     4   8  15  25  39  58  80 105 133 164 194 231
#     4   9  16  26  41  56  76 106 138 171 202 236
#     4   9  17  28  41  59  84 111 133 156 195 245
#     4   9  17  26  41  61  79 102 133 167 195 231
#     4   8  14  26  40  56  78 105 136 167 203 240
#     4   9  17  29  41  53  76 109 138 166 206 245
#     4   9  18  29  39  54  78 106 137 174 207 236
#
# _framework density 13.740454
#
# number of rings (size 3 to 8) (size 9 to 14) (size 15 to 20)
#    0.857    2.429    0.000    3.000    0.000    3.429 
#    0.000    3.571    0.000    0.000    0.000    0.000 
#    0.000    1.143    0.000    7.429    0.000    5.571 
#
# Total GULP energy -693764.540193 kJ/mol
# GULP energy per Si atom -12388.652503 kJ/mol
# Density = 1.370918 g / cm^3
# Si number density = 13.740454 Si / 1000 Ang^3
#
#
#
# Elastic Constant Matrix: (Units=GPa)
#
#
# Indices 1 2 3 4 5 6 
#
# 1 100.7080 50.4982 35.7104 0.0000 0.0000 0.0000
# 2 50.4982 65.4545 32.6748 0.0000 0.0000 0.0000
# 3 35.7104 32.6748 70.0451 0.0000 0.0000 0.0000
# 4 0.0000 0.0000 0.0000 19.8679 0.0000 0.0000
# 5 0.0000 0.0000 0.0000 0.0000 19.7008 0.0000
# 6 0.0000 0.0000 0.0000 0.0000 0.0000 20.2502
#
#
#
# Elastic Compliance Matrix: (Units=1/GPa)
#
#
# Indices 1 2 3 4 5 6 
#
# 1 0.016751 -0.011289 -0.003274 0.000000 0.000000 0.000000
# 2 -0.011289 0.027524 -0.007084 0.000000 0.000000 0.000000
# 3 -0.003274 -0.007084 0.019250 0.000000 0.000000 0.000000
# 4 0.000000 0.000000 0.000000 0.050332 0.000000 0.000000
# 5 0.000000 0.000000 0.000000 0.000000 0.050759 0.000000
# 6 0.000000 0.000000 0.000000 0.000000 0.000000 0.049382
#
#
# Mechanical properties :
#
#
# Convention : Reuss Voigt Hill
#
# Bulk Modulus (GPa) = 49.42889 52.66382 51.04635
# Shear Modulus (GPa) = 18.93673 19.78541 19.36107
#
# Velocity S-wave (km/s) = 3.71640 3.79877 3.75781
# Velocity P-wave (km/s) = 7.38017 7.59287 7.48727
#
# Compressibility (1/GPa) = 0.02023108
#
# Stress axis : x y z
#
# Youngs Moduli (GPa) = 59.69626 36.33219 51.94786
#
# Poissons Ratio (x) = 0.41017 0.17007
# Poissons Ratio (y) = 0.67394 0.36799
# Poissons Ratio (z) = 0.19544 0.25737
#
# Static dielectric constant tensor:
#      x y z
#    x 2.574240 0.000000 0.000000 
#    y 0.000000 2.604020 0.000000 
#    z 0.000000 0.000000 2.550010 
# 
# 
# High freq. dielectric constant tensor:
#      x y z
#    x 1.500980 0.000000 0.000000 
#    y 0.000000 1.520200 0.000000 
#    z 0.000000 0.000000 1.497900 
# 
# From -- ./inp_files/19189.got.cif
#   From: 2010.03.12/outbox.cif.g09.slc.cpg/sg51_10_cif.got.tgz:19189.got - 2010.04.16 13:43:02.
