data_PCOD8214357
_publ_section_title
;
Structure prediction by ZEFSAII (Michael W. Deem and Ramdas Pophale) SiO2 
 PCOD8214357
Probable space group: P M M A
;
_chemical_formula_sum "Si O2"
_cell_formula_units_Z 56
_cell_length_a 9.003749
_cell_length_b 13.683820
_cell_length_c 21.023047
_cell_angle_alpha 90.000000
_cell_angle_beta 90.000000
_cell_angle_gamma 90.000000
_cell_volume 2590.158815
_symmetry_space_group_name_H-M "P M M A"
_symmetry_group_IT_number 51
_symmetry_cell_setting 'orthorhombic'
loop_
_space_group_symop_operation_xyz
x,y,z
1/2-x,-y,z
1/2+x,-y,-z
-x,y,-z
-x,-y,-z
1/2+x,y,-z
1/2-x,y,z
x,-y,z
loop_
_atom_site_type_symbol
_atom_site_label
_atom_site_fract_x
_atom_site_fract_y
_atom_site_fract_z
Si Si1 0.577096 0.802832 0.935746
Si Si2 0.582267 0.115430 0.688555
Si Si3 0.413458 0.615580 0.751740
Si Si4 0.925395 0.393225 0.386149
Si Si5 0.574586 0.808723 0.436262
Si Si6 0.582253 0.884465 0.186673
Si Si7 0.078861 0.391700 0.125999
O O1 0.750000 0.829123 0.938964
O O2 0.508272 0.858164 0.876161
O O3 0.550971 0.685429 0.930420
O O4 0.500000 0.840156 0.000000
O O5 0.750000 0.158093 0.685255
O O6 0.492887 0.138961 0.624649
O O7 0.496476 0.160716 0.749931
O O8 0.589404 0.000000 0.695919
O O9 0.250000 0.662847 0.755841
O O10 0.404502 0.500000 0.758954
O O11 0.489838 0.638670 0.683277
O O12 0.505949 0.656403 0.811121
O O13 0.750000 0.403420 0.376745
O O14 0.989059 0.500000 0.408212
O O15 0.964498 0.307587 0.435256
O O16 0.500000 0.851940 0.500000
O O17 0.750000 0.828201 0.437951
O O18 0.750000 0.843407 0.182165
O O19 0.584707 0.000000 0.193312
O O20 0.250000 0.401560 0.142449
O O21 0.015280 0.500000 0.107775
#
# Coordination Sequence:
#
# PCOD8214357 Si02
#       7
#     8   8   8   8   8   8   8
#     4  11  24  40  59  87 122 162 203 247 297 351
#     4  10  22  42  67  93 121 153 191 241 300 360
#     4   8  14  27  49  76 103 137 186 239 290 343
#     4   8  16  32  53  79 113 153 198 245 292 345
#     4  11  23  38  58  87 122 162 204 249 298 353
#     4  10  22  42  68  95 121 152 192 240 296 359
#     4   9  19  35  53  78 115 155 196 244 294 343
#
# _framework density 21.620297000000001
#
# number of rings (size 3 to 8) (size 9 to 14) (size 15 to 20)
#    0.000    2.429    0.000    2.571    2.000    4.000 
#    0.000    0.714    0.000    2.143    0.000    0.000 
#    0.000    0.000    0.000    0.000    0.000    0.000 
#
# Total GULP energy -694126.138730 kJ/mol
# GULP energy per Si atom -12395.109620 kJ/mol
# Density = 2.157109 g / cm^3
# Si number density = 21.620297 Si / 1000 Ang^3
#
#
#
# Elastic Constant Matrix: (Units=GPa)
#
#
# Indices 1 2 3 4 5 6 
#
# 1 124.3255 14.5929 70.9120 0.0000 0.0000 0.0000
# 2 14.5929 14.6769 12.2977 0.0000 0.0000 0.0000
# 3 70.9120 12.2977 159.0986 0.0000 0.0000 0.0000
# 4 0.0000 0.0000 0.0000 22.0266 0.0000 0.0000
# 5 0.0000 0.0000 0.0000 0.0000 39.1528 0.0000
# 6 0.0000 0.0000 0.0000 0.0000 0.0000 20.0737
#
#
#
# Elastic Compliance Matrix: (Units=1/GPa)
#
#
# Indices 1 2 3 4 5 6 
#
# 1 0.011538 -0.007659 -0.004551 0.000000 0.000000 0.000000
# 2 -0.007659 0.077936 -0.002611 0.000000 0.000000 0.000000
# 3 -0.004551 -0.002611 0.008515 0.000000 0.000000 0.000000
# 4 0.000000 0.000000 0.000000 0.045400 0.000000 0.000000
# 5 0.000000 0.000000 0.000000 0.000000 0.025541 0.000000
# 6 0.000000 0.000000 0.000000 0.000000 0.000000 0.049817
#
#
# Mechanical properties :
#
#
# Convention : Reuss Voigt Hill
#
# Bulk Modulus (GPa) = 14.63063 54.85624 34.74344
# Shear Modulus (GPa) = 18.43861 29.60384 24.02122
#
# Velocity S-wave (km/s) = 2.92351 3.70437 3.33686
# Velocity P-wave (km/s) = 4.26352 6.61242 5.56335
#
# Compressibility (1/GPa) = 0.06834977
#
# Stress axis : x y z
#
# Youngs Moduli (GPa) = 86.67088 12.83097 117.43382
#
# Poissons Ratio (x) = 0.09827 0.53439
# Poissons Ratio (y) = 0.66380 0.30656
# Poissons Ratio (z) = 0.39440 0.03350
#
# Static dielectric constant tensor:
#      x y z
#    x 3.999820 0.000000 0.000000 
#    y 0.000000 3.986040 0.000000 
#    z 0.000000 0.000000 3.820130 
# 
# 
# High freq. dielectric constant tensor:
#      x y z
#    x 1.834590 0.000000 0.000000 
#    y 0.000000 1.853160 0.000000 
#    z 0.000000 0.000000 1.845140 
# 
# From -- ./inp_files/31977.got.cif
#   From: 2010.03.12/outbox.cif.g09.slc.cpg/sg51_16_cif.got.tgz:31977.got - 2010.04.16 13:43:02.
