data_PCOD8214382
_publ_section_title
;
Structure prediction by ZEFSAII (Michael W. Deem and Ramdas Pophale) SiO2 
 PCOD8214382
Probable space group: P M M A
;
_chemical_formula_sum "Si O2"
_cell_formula_units_Z 56
_cell_length_a 21.639450
_cell_length_b 8.868901
_cell_length_c 14.799985
_cell_angle_alpha 90.000000
_cell_angle_beta 90.000000
_cell_angle_gamma 90.000000
_cell_volume 2840.385589
_symmetry_space_group_name_H-M "P M M A"
_symmetry_group_IT_number 51
_symmetry_cell_setting 'orthorhombic'
loop_
_space_group_symop_operation_xyz
x,y,z
1/2-x,-y,z
1/2+x,-y,-z
-x,y,-z
-x,-y,-z
1/2+x,y,-z
1/2-x,y,z
x,-y,z
loop_
_atom_site_type_symbol
_atom_site_label
_atom_site_fract_x
_atom_site_fract_y
_atom_site_fract_z
Si Si1 0.250000 0.669969 0.552029
Si Si2 0.555339 0.675512 0.295620
Si Si3 0.877266 0.821668 0.462850
Si Si4 0.250000 0.329478 0.765608
Si Si5 0.420076 0.324513 0.363772
Si Si6 0.820418 0.824315 0.962632
Si Si7 0.180178 0.322061 0.221504
Si Si8 0.368775 0.822013 0.847192
O O1 0.250000 0.500000 0.512197
O O2 0.190120 0.755853 0.514954
O O3 0.250000 0.666369 0.658779
O O4 0.572475 0.500000 0.299081
O O5 0.596926 0.758250 0.369505
O O6 0.483409 0.705008 0.311092
O O7 0.571375 0.742554 0.196751
O O8 0.922043 0.770692 0.544175
O O9 0.874229 0.000000 0.456170
O O10 0.250000 0.500000 0.804696
O O11 0.190802 0.238480 0.796276
O O12 0.412368 0.500000 0.388607
O O13 0.364385 0.264407 0.300929
O O14 0.750000 0.776490 0.986472
O O15 0.844538 0.739210 0.874073
O O16 0.823815 0.000000 0.941990
O O17 0.864235 0.780314 0.046751
O O18 0.250000 0.263993 0.240479
O O19 0.177728 0.500000 0.215881
O O20 0.372681 0.000000 0.833221
#
# Coordination Sequence:
#
# PCOD8214382 Si02
#       8
#     4   8   8   4   8   8   8   8
#     4  11  23  39  59  86 120 155 190 234 291 345
#     4  11  23  40  59  83 116 158 200 237 285 345
#     4  12  25  39  60  89 119 151 195 242 290 343
#     4  11  21  33  55  84 116 155 192 232 287 345
#     4  10  23  42  62  83 114 155 198 243 290 344
#     4   9  18  34  55  83 117 151 184 230 294 350
#     4   9  19  37  61  88 111 142 191 244 291 336
#     4  11  21  35  57  85 119 155 191 236 289 341
#
# _framework density 19.715633
#
# number of rings (size 3 to 8) (size 9 to 14) (size 15 to 20)
#    0.000    1.571    2.143    3.000    1.000    5.143 
#    0.000    0.714    0.000    4.286    0.000    0.000 
#    0.000    0.000    0.000    0.000    0.000    0.000 
#
# Total GULP energy -694600.896414 kJ/mol
# GULP energy per Si atom -12403.587436 kJ/mol
# Density = 1.967076 g / cm^3
# Si number density = 19.715633 Si / 1000 Ang^3
#
#
#
# Elastic Constant Matrix: (Units=GPa)
#
#
# Indices 1 2 3 4 5 6 
#
# 1 78.3820 33.4487 26.0861 0.0000 0.0000 0.0000
# 2 33.4487 91.5540 27.4904 0.0000 0.0000 0.0000
# 3 26.0861 27.4904 80.4327 0.0000 0.0000 0.0000
# 4 0.0000 0.0000 0.0000 32.6187 0.0000 0.0000
# 5 0.0000 0.0000 0.0000 0.0000 25.8733 0.0000
# 6 0.0000 0.0000 0.0000 0.0000 0.0000 40.5054
#
#
#
# Elastic Compliance Matrix: (Units=1/GPa)
#
#
# Indices 1 2 3 4 5 6 
#
# 1 0.015975 -0.004770 -0.003551 0.000000 0.000000 0.000000
# 2 -0.004770 0.013596 -0.003100 0.000000 0.000000 0.000000
# 3 -0.003551 -0.003100 0.014644 0.000000 0.000000 0.000000
# 4 0.000000 0.000000 0.000000 0.030657 0.000000 0.000000
# 5 0.000000 0.000000 0.000000 0.000000 0.038650 0.000000
# 6 0.000000 0.000000 0.000000 0.000000 0.000000 0.024688
#
#
# Mechanical properties :
#
#
# Convention : Reuss Voigt Hill
#
# Bulk Modulus (GPa) = 46.78680 47.15767 46.97224
# Shear Modulus (GPa) = 29.73061 30.68905 30.20983
#
# Velocity S-wave (km/s) = 3.88747 3.94964 3.91868
# Velocity P-wave (km/s) = 6.62814 6.69107 6.65968
#
# Compressibility (1/GPa) = 0.02137355
#
# Stress axis : x y z
#
# Youngs Moduli (GPa) = 62.59601 73.55062 68.28833
#
# Poissons Ratio (x) = 0.35086 0.24248
# Poissons Ratio (y) = 0.29861 0.21168
# Poissons Ratio (z) = 0.22226 0.22799
#
# Static dielectric constant tensor:
#      x y z
#    x 3.643180 0.000000 0.000000 
#    y 0.000000 3.613530 0.000000 
#    z 0.000000 0.000000 3.666080 
# 
# 
# High freq. dielectric constant tensor:
#      x y z
#    x 1.759210 0.000000 0.000000 
#    y 0.000000 1.769640 0.000000 
#    z 0.000000 0.000000 1.771370 
# 
# From -- ./inp_files/25801.got.cif
#   From: 2010.03.12/outbox.cif.g09.slc.cpg/sg51_13_cif.got.tgz:25801.got - 2010.04.16 13:43:02.
