data_PCOD8214398
_publ_section_title
;
Structure prediction by ZEFSAII (Michael W. Deem and Ramdas Pophale) SiO2 
 PCOD8214398
Probable space group: P M M A
;
_chemical_formula_sum "Si O2"
_cell_formula_units_Z 30
_cell_length_a 14.039031
_cell_length_b 11.178912
_cell_length_c 9.271622
_cell_angle_alpha 90.000000
_cell_angle_beta 90.000000
_cell_angle_gamma 90.000000
_cell_volume 1455.098482
_symmetry_space_group_name_H-M "P M M A"
_symmetry_group_IT_number 51
_symmetry_cell_setting 'orthorhombic'
loop_
_space_group_symop_operation_xyz
x,y,z
1/2-x,-y,z
1/2+x,-y,-z
-x,y,-z
-x,-y,-z
1/2+x,y,-z
1/2-x,y,z
x,-y,z
loop_
_atom_site_type_symbol
_atom_site_label
_atom_site_fract_x
_atom_site_fract_y
_atom_site_fract_z
Si Si1 0.250000 0.250260 0.308045
Si Si2 0.855119 0.500000 0.279813
Si Si3 0.439152 0.865690 0.358259
Si Si4 0.250000 0.500000 0.437890
Si Si5 0.936222 0.268331 0.133932
Si Si6 0.750000 0.855128 0.011333
O O1 0.157328 0.204689 0.390869
O O2 0.250000 0.392454 0.324258
O O3 0.250000 0.205631 0.144614
O O4 0.750000 0.500000 0.206328
O O5 0.842915 0.500000 0.455254
O O6 0.910899 0.382919 0.229746
O O7 0.500000 0.855547 0.500000
O O8 0.496000 0.817773 0.222755
O O9 0.410487 0.000000 0.319691
O O10 0.843299 0.191711 0.093364
O O11 0.000000 0.312717 0.000000
O O12 0.750000 0.000000 0.003604
#
# Coordination Sequence:
#
# PCOD8214398 Si02
#       6
#     4   4   8   2   8   4
#     4  12  24  43  67  97 139 179 231 290 348 401
#     4  10  23  45  68  95 135 175 230 288 332 416
#     4  11  25  43  68 102 141 184 237 289 346 418
#     4  10  24  44  70  92 132 186 230 276 346 418
#     4  12  24  43  71 102 138 184 229 284 356 414
#     4  12  25  43  70 102 142 182 227 289 347 417
#
# _framework density 20.617162
#
# number of rings (size 3 to 8) (size 9 to 14) (size 15 to 20)
#    0.400    0.267    4.000    4.000    0.000    4.267 
#    0.000    4.000    0.000    0.000    0.000    0.000 
#    0.000    0.000    0.000    0.000    0.000    0.000 
#
# Total GULP energy -372014.799136 kJ/mol
# GULP energy per Si atom -12400.493305 kJ/mol
# Density = 2.057024 g / cm^3
# Si number density = 20.617162 Si / 1000 Ang^3
#
#
#
# Elastic Constant Matrix: (Units=GPa)
#
#
# Indices 1 2 3 4 5 6 
#
# 1 132.8173 61.7537 18.8262 0.0000 0.0000 0.0000
# 2 61.7537 172.1246 50.0620 0.0000 0.0000 0.0000
# 3 18.8262 50.0620 66.4873 0.0000 0.0000 0.0000
# 4 0.0000 0.0000 0.0000 32.4783 0.0000 0.0000
# 5 0.0000 0.0000 0.0000 0.0000 -28.7315 0.0000
# 6 0.0000 0.0000 0.0000 0.0000 0.0000 117.9329
#
#
#
# Elastic Compliance Matrix: (Units=1/GPa)
#
#
# Indices 1 2 3 4 5 6 
#
# 1 0.009038 -0.003199 -0.000151 0.000000 0.000000 0.000000
# 2 -0.003199 0.008571 -0.005548 0.000000 0.000000 0.000000
# 3 -0.000151 -0.005548 0.019260 0.000000 0.000000 0.000000
# 4 0.000000 0.000000 0.000000 0.030790 0.000000 0.000000
# 5 0.000000 0.000000 0.000000 0.000000 -0.034805 0.000000
# 6 0.000000 0.000000 0.000000 0.000000 0.000000 0.008479
#
#
# Mechanical properties :
#
#
# Convention : Reuss Voigt Hill
#
# Bulk Modulus (GPa) = 52.42511 70.30144 61.36328
# Shear Modulus (GPa) = 76.35256 40.38842 58.37049
#
# Velocity S-wave (km/s) = 6.09212 4.43083 5.32664
# Velocity P-wave (km/s) = 8.65842 7.76845 8.22548
#
# Compressibility (1/GPa) = 0.01907483
#
# Stress axis : x y z
#
# Youngs Moduli (GPa) = 110.64730 116.67368 51.92008
#
# Poissons Ratio (x) = 0.37320 0.00782
# Poissons Ratio (y) = 0.35393 0.28804
# Poissons Ratio (z) = 0.01666 0.64728
#
# Static dielectric constant tensor:
#      x y z
#    x 4.018410 0.000000 0.000000 
#    y 0.000000 3.852570 0.000000 
#    z 0.000000 0.000000 3.319350 
# 
# 
# High freq. dielectric constant tensor:
#      x y z
#    x 1.823990 0.000000 0.000000 
#    y 0.000000 1.820020 0.000000 
#    z 0.000000 0.000000 1.807600 
# 
# From -- ./inp_files/7536.got.cif
#   From: 2010.03.12/outbox.cif.g09.slc.cpg/sg51_4_cif.got.tgz:7536.got - 2010.04.16 13:43:02.
