data_PCOD8214335
_publ_section_title
;
Structure prediction by ZEFSAII (Michael W. Deem and Ramdas Pophale) SiO2 
 PCOD8214335
Probable space group: P M M A
;
_chemical_formula_sum "Si O2"
_cell_formula_units_Z 48
_cell_length_a 17.734112
_cell_length_b 14.812772
_cell_length_c 9.098282
_cell_angle_alpha 90.000000
_cell_angle_beta 90.000000
_cell_angle_gamma 90.000000
_cell_volume 2390.040051
_symmetry_space_group_name_H-M "P M M A"
_symmetry_group_IT_number 51
_symmetry_cell_setting 'orthorhombic'
loop_
_space_group_symop_operation_xyz
x,y,z
1/2-x,-y,z
1/2+x,-y,-z
-x,y,-z
-x,-y,-z
1/2+x,y,-z
1/2-x,y,z
x,-y,z
loop_
_atom_site_type_symbol
_atom_site_label
_atom_site_fract_x
_atom_site_fract_y
_atom_site_fract_z
Si Si1 0.334334 0.234050 0.737666
Si Si2 0.081396 0.103684 0.944878
Si Si3 0.390140 0.602365 0.896608
Si Si4 0.917336 0.242558 0.558821
Si Si5 0.835533 0.103835 0.757937
Si Si6 0.943381 0.602399 0.782658
O O1 0.250000 0.193415 0.736311
O O2 0.331542 0.327109 0.829499
O O3 0.359008 0.255945 0.572778
O O4 0.392512 0.162310 0.806325
O O5 0.142583 0.116202 0.072325
O O6 0.074770 0.000000 0.893240
O O7 0.000000 0.139010 0.000000
O O8 0.362139 0.500000 0.870728
O O9 0.469102 0.618958 0.815029
O O10 0.396540 0.622218 0.069789
O O11 0.892524 0.158475 0.656961
O O12 0.914987 0.333807 0.653344
O O13 0.000000 0.220983 0.500000
O O14 0.750000 0.138454 0.738341
O O15 0.843042 0.000000 0.710703
O O16 0.930008 0.500000 0.730385
#
# Coordination Sequence:
#
# PCOD8214335 Si02
#       6
#     8   8   8   8   8   8
#     4  12  25  37  57  91 129 162 195 245 312 368
#     4  10  22  41  66  92 117 151 203 257 298 351
#     4   9  19  38  63  88 116 153 202 254 301 351
#     4  12  23  37  59  89 123 161 200 249 294 358
#     4  10  22  41  62  83 114 158 201 242 295 356
#     4   9  19  37  63  90 113 150 204 254 297 350
#
# _framework density 20.083347
#
# number of rings (size 3 to 8) (size 9 to 14) (size 15 to 20)
#    0.000    1.667    1.667    4.000    2.333    3.333 
#    0.000    0.833    0.000    3.500    0.000    0.000 
#    0.000    0.000    0.000    0.000    0.000    0.000 
#
# Total GULP energy -595408.709113 kJ/mol
# GULP energy per Si atom -12404.348107 kJ/mol
# Density = 2.003764 g / cm^3
# Si number density = 20.083347 Si / 1000 Ang^3
#
#
#
# Elastic Constant Matrix: (Units=GPa)
#
#
# Indices 1 2 3 4 5 6 
#
# 1 88.1429 40.4672 38.2155 0.0000 0.0000 0.0000
# 2 40.4672 101.7125 61.9994 0.0000 0.0000 0.0000
# 3 38.2155 61.9994 110.1350 0.0000 0.0000 0.0000
# 4 0.0000 0.0000 0.0000 15.6151 0.0000 0.0000
# 5 0.0000 0.0000 0.0000 0.0000 19.4863 0.0000
# 6 0.0000 0.0000 0.0000 0.0000 0.0000 16.3356
#
#
#
# Elastic Compliance Matrix: (Units=1/GPa)
#
#
# Indices 1 2 3 4 5 6 
#
# 1 0.014387 -0.004082 -0.002695 0.000000 0.000000 0.000000
# 2 -0.004082 0.016126 -0.007661 0.000000 0.000000 0.000000
# 3 -0.002695 -0.007661 0.014328 0.000000 0.000000 0.000000
# 4 0.000000 0.000000 0.000000 0.064040 0.000000 0.000000
# 5 0.000000 0.000000 0.000000 0.000000 0.051318 0.000000
# 6 0.000000 0.000000 0.000000 0.000000 0.000000 0.061216
#
#
# Mechanical properties :
#
#
# Convention : Reuss Voigt Hill
#
# Bulk Modulus (GPa) = 62.63557 64.59497 63.61527
# Shear Modulus (GPa) = 19.56087 20.90797 20.23442
#
# Velocity S-wave (km/s) = 3.12426 3.23005 3.17759
# Velocity P-wave (km/s) = 6.65358 6.79295 6.72363
#
# Compressibility (1/GPa) = 0.01596537
#
# Stress axis : x y z
#
# Youngs Moduli (GPa) = 69.50529 62.01297 69.79500
#
# Poissons Ratio (x) = 0.25312 0.18806
# Poissons Ratio (y) = 0.28370 0.53473
# Poissons Ratio (z) = 0.18728 0.47511
#
# Static dielectric constant tensor:
#      x y z
#    x 3.519760 0.000000 0.000000 
#    y 0.000000 3.701410 0.000000 
#    z 0.000000 0.000000 3.632470 
# 
# 
# High freq. dielectric constant tensor:
#      x y z
#    x 1.775500 0.000000 0.000000 
#    y 0.000000 1.790520 0.000000 
#    z 0.000000 0.000000 1.784060 
# 
# From -- ./inp_files/9600.got.cif
#   From: 2010.03.12/outbox.cif.g09.slc.cpg/sg51_5_cif.got.tgz:9600.got - 2010.04.16 13:43:02.
