data_PCOD8214114
_publ_section_title
;
Structure prediction by ZEFSAII (Michael W. Deem and Ramdas Pophale) SiO2 
 PCOD8214114
Probable space group: P M M A
;
_chemical_formula_sum "Si O2"
_cell_formula_units_Z 32
_cell_length_a 8.667178
_cell_length_b 19.996714
_cell_length_c 9.359582
_cell_angle_alpha 90.000000
_cell_angle_beta 90.000000
_cell_angle_gamma 90.000000
_cell_volume 1622.156700
_symmetry_space_group_name_H-M "P M M A"
_symmetry_group_IT_number 51
_symmetry_cell_setting 'orthorhombic'
loop_
_space_group_symop_operation_xyz
x,y,z
1/2-x,-y,z
1/2+x,-y,-z
-x,y,-z
-x,-y,-z
1/2+x,y,-z
1/2-x,y,z
x,-y,z
loop_
_atom_site_type_symbol
_atom_site_label
_atom_site_fract_x
_atom_site_fract_y
_atom_site_fract_z
Si Si1 0.567179 0.695324 0.843366
Si Si2 0.067386 0.813699 0.656470
Si Si3 0.568414 0.574751 0.649180
Si Si4 0.429797 0.921996 0.150481
O O1 0.750000 0.704065 0.846917
O O2 0.494870 0.755151 0.755192
O O3 0.516133 0.624960 0.773450
O O4 0.500000 0.696909 0.000000
O O5 0.250000 0.811005 0.648701
O O6 0.000000 0.804541 0.500000
O O7 0.013960 0.884457 0.720632
O O8 0.500000 0.600473 0.500000
O O9 0.750000 0.574815 0.631904
O O10 0.507409 0.500000 0.686133
O O11 0.250000 0.904170 0.150569
O O12 0.460570 0.000000 0.174866
O O13 0.500000 0.897950 0.000000
#
# Coordination Sequence:
#
# PCOD8214114 Si02
#       4
#     8   8   8   8
#     4  11  23  39  59  84 116 152 193 239 288 342
#     4  12  25  41  61  85 116 152 193 239 288 342
#     4   9  19  36  58  84 114 149 189 234 285 341
#     4  10  21  39  63  90 120 154 192 234 283 339
#
# _framework density 19.726824000000001
#
# number of rings (size 3 to 8) (size 9 to 14) (size 15 to 20)
#    0.000    1.500    0.000    5.250    0.000    6.500 
#    0.000    0.000    0.000    0.000    0.000    0.000 
#    0.000    0.000    0.000    0.000    0.000    0.000 
#
# Total GULP energy -396952.008053 kJ/mol
# GULP energy per Si atom -12404.750252 kJ/mol
# Density = 1.968193 g / cm^3
# Si number density = 19.726824 Si / 1000 Ang^3
#
#
#
# Elastic Constant Matrix: (Units=GPa)
#
#
# Indices 1 2 3 4 5 6 
#
# 1 119.0513 59.1679 71.0929 0.0000 0.0000 0.0000
# 2 59.1679 111.4449 86.3088 0.0000 0.0000 0.0000
# 3 71.0929 86.3088 184.0903 0.0000 0.0000 0.0000
# 4 0.0000 0.0000 0.0000 69.0081 0.0000 0.0000
# 5 0.0000 0.0000 0.0000 0.0000 40.9426 0.0000
# 6 0.0000 0.0000 0.0000 0.0000 0.0000 20.0711
#
#
#
# Elastic Compliance Matrix: (Units=1/GPa)
#
#
# Indices 1 2 3 4 5 6 
#
# 1 0.012167 -0.004429 -0.002622 0.000000 0.000000 0.000000
# 2 -0.004429 0.015701 -0.005651 0.000000 0.000000 0.000000
# 3 -0.002622 -0.005651 0.009094 0.000000 0.000000 0.000000
# 4 0.000000 0.000000 0.000000 0.014491 0.000000 0.000000
# 5 0.000000 0.000000 0.000000 0.000000 0.024424 0.000000
# 6 0.000000 0.000000 0.000000 0.000000 0.000000 0.049823
#
#
# Mechanical properties :
#
#
# Convention : Reuss Voigt Hill
#
# Bulk Modulus (GPa) = 86.52047 94.19172 90.35609
# Shear Modulus (GPa) = 32.26728 39.20548 35.73638
#
# Velocity S-wave (km/s) = 4.04877 4.46289 4.26086
# Velocity P-wave (km/s) = 8.11241 8.62602 8.37315
#
# Compressibility (1/GPa) = 0.01155796
#
# Stress axis : x y z
#
# Youngs Moduli (GPa) = 82.19168 63.69210 109.96162
#
# Poissons Ratio (x) = 0.28207 0.28835
# Poissons Ratio (y) = 0.36400 0.62136
# Poissons Ratio (z) = 0.21553 0.35991
#
# Static dielectric constant tensor:
#      x y z
#    x 3.716400 0.000000 0.000000 
#    y 0.000000 3.989800 0.000000 
#    z 0.000000 0.000000 3.662850 
# 
# 
# High freq. dielectric constant tensor:
#      x y z
#    x 1.780050 0.000000 0.000000 
#    y 0.000000 1.784250 0.000000 
#    z 0.000000 0.000000 1.774280 
# 
# From -- ./inp_files/4848.got.cif
#   From: 2010.03.12/outbox.cif.g09.slc.cpg/sg51_3_cif.got.tgz:4848.got - 2010.04.16 13:43:02.
