data_PCOD8214567
_publ_section_title
;
Structure prediction by ZEFSAII (Michael W. Deem and Ramdas Pophale) SiO2 
 PCOD8214567
Probable space group: P M M A
;
_chemical_formula_sum "Si O2"
_cell_formula_units_Z 32
_cell_length_a 15.031031
_cell_length_b 8.812951
_cell_length_c 12.224174
_cell_angle_alpha 90.000000
_cell_angle_beta 90.000000
_cell_angle_gamma 90.000000
_cell_volume 1619.308699
_symmetry_space_group_name_H-M "P M M A"
_symmetry_group_IT_number 51
_symmetry_cell_setting 'orthorhombic'
loop_
_space_group_symop_operation_xyz
x,y,z
1/2-x,-y,z
1/2+x,-y,-z
-x,y,-z
-x,-y,-z
1/2+x,y,-z
1/2-x,y,z
x,-y,z
loop_
_atom_site_type_symbol
_atom_site_label
_atom_site_fract_x
_atom_site_fract_y
_atom_site_fract_z
Si Si1 0.894858 0.166546 0.492019
Si Si2 0.250000 0.180072 0.868735
Si Si3 0.750000 0.820199 0.882938
Si Si4 0.901149 0.321976 0.273711
Si Si5 0.092905 0.179892 0.269371
O O1 0.866777 0.281607 0.396267
O O2 0.862631 0.220030 0.612278
O O3 0.000000 0.155575 0.500000
O O4 0.855466 0.000000 0.463389
O O5 0.161290 0.241922 0.813734
O O6 0.250000 0.000000 0.863066
O O7 0.250000 0.239020 0.993533
O O8 0.661143 0.761229 0.822422
O O9 0.750000 0.000000 0.876147
O O10 0.894459 0.500000 0.257886
O O11 0.000926 0.267213 0.251547
O O12 0.073742 0.000000 0.262865
#
# Coordination Sequence:
#
# PCOD8214567 Si02
#       5
#     8   4   4   8   8
#     4   8  15  30  55  84 112 143 178 218 267 326
#     4  11  23  40  59  78 104 143 192 237 274 319
#     4   9  20  38  61  84 104 137 190 239 270 315
#     4  11  22  36  55  82 116 149 181 222 274 330
#     4   9  18  36  60  86 113 142 181 227 275 325
#
# _framework density 19.761520000000001
#
# number of rings (size 3 to 8) (size 9 to 14) (size 15 to 20)
#    0.000    2.500    0.000    4.125    0.000    6.500 
#    0.000   10.625    0.000    0.000    0.000    0.000 
#    0.000    0.000    0.000    0.000    0.000    0.000 
#
# Total GULP energy -396683.566605 kJ/mol
# GULP energy per Si atom -12396.361456 kJ/mol
# Density = 1.971654 g / cm^3
# Si number density = 19.761520 Si / 1000 Ang^3
#
#
#
# Elastic Constant Matrix: (Units=GPa)
#
#
# Indices 1 2 3 4 5 6 
#
# 1 94.6779 39.6904 74.8220 0.0000 0.0000 0.0000
# 2 39.6904 90.0425 57.1643 0.0000 0.0000 0.0000
# 3 74.8220 57.1643 183.2738 0.0000 0.0000 0.0000
# 4 0.0000 0.0000 0.0000 5.1629 0.0000 0.0000
# 5 0.0000 0.0000 0.0000 0.0000 32.4813 0.0000
# 6 0.0000 0.0000 0.0000 0.0000 0.0000 -3.8438
#
#
#
# Elastic Compliance Matrix: (Units=1/GPa)
#
#
# Indices 1 2 3 4 5 6 
#
# 1 0.016549 -0.003747 -0.005587 0.000000 0.000000 0.000000
# 2 -0.003747 0.014697 -0.003054 0.000000 0.000000 0.000000
# 3 -0.005587 -0.003054 0.008690 0.000000 0.000000 0.000000
# 4 0.000000 0.000000 0.000000 0.193690 0.000000 0.000000
# 5 0.000000 0.000000 0.000000 0.000000 0.030787 0.000000
# 6 0.000000 0.000000 0.000000 0.000000 0.000000 -0.260156
#
#
# Mechanical properties :
#
#
# Convention : Reuss Voigt Hill
#
# Bulk Modulus (GPa) = 65.97311 79.03863 72.50587
# Shear Modulus (GPa) = 146.68949 19.84790 83.26870
#
# Velocity S-wave (km/s) = 8.62502 3.17262 6.49833
# Velocity P-wave (km/s) = 11.51717 7.31463 9.64751
#
# Compressibility (1/GPa) = 0.01515769
#
# Stress axis : x y z
#
# Youngs Moduli (GPa) = 60.42842 68.04272 115.07681
#
# Poissons Ratio (x) = 0.25499 0.64295
# Poissons Ratio (y) = 0.22646 0.35145
# Poissons Ratio (z) = 0.33762 0.20781
#
# Static dielectric constant tensor:
#      x y z
#    x 3.494340 0.000000 0.000000 
#    y 0.000000 3.343380 0.000000 
#    z 0.000000 0.000000 4.082920 
# 
# 
# High freq. dielectric constant tensor:
#      x y z
#    x 1.766410 0.000000 0.000000 
#    y 0.000000 1.743860 0.000000 
#    z 0.000000 0.000000 1.777410 
# 
# From -- ./inp_files/15956.got.cif
#   From: 2010.03.12/outbox.cif.g09.slc.cpg/sg51_8_cif.got.tgz:15956.got - 2010.04.16 13:43:02.
