data_PCOD8214081
_publ_section_title
;
Structure prediction by ZEFSAII (Michael W. Deem and Ramdas Pophale) SiO2 
 PCOD8214081
Probable space group: P M M A
;
_chemical_formula_sum "Si O2"
_cell_formula_units_Z 56
_cell_length_a 21.823356
_cell_length_b 8.960796
_cell_length_c 14.601015
_cell_angle_alpha 90.000000
_cell_angle_beta 90.000000
_cell_angle_gamma 90.000000
_cell_volume 2855.296249
_symmetry_space_group_name_H-M "P M M A"
_symmetry_group_IT_number 51
_symmetry_cell_setting 'orthorhombic'
loop_
_space_group_symop_operation_xyz
x,y,z
1/2-x,-y,z
1/2+x,-y,-z
-x,y,-z
-x,-y,-z
1/2+x,y,-z
1/2-x,y,z
x,-y,z
loop_
_atom_site_type_symbol
_atom_site_label
_atom_site_fract_x
_atom_site_fract_y
_atom_site_fract_z
Si Si1 0.250000 0.177708 0.822793
Si Si2 0.250000 0.321861 0.023253
Si Si3 0.854139 0.172887 0.317370
Si Si4 0.388218 0.324459 0.326016
Si Si5 0.180981 0.170020 0.479667
Si Si6 0.523313 0.674644 0.273205
Si Si7 0.987490 0.831551 0.900536
Si Si8 0.152524 0.830477 0.149978
O O1 0.189726 0.227863 0.765391
O O2 0.250000 0.000000 0.837545
O O3 0.250000 0.258755 0.920272
O O4 0.250000 0.500000 0.019170
O O5 0.309054 0.264859 0.077865
O O6 0.820462 0.205572 0.412740
O O7 0.918925 0.255561 0.323904
O O8 0.868195 0.000000 0.304050
O O9 0.382163 0.500000 0.309985
O O10 0.364494 0.279807 0.426031
O O11 0.459324 0.273520 0.319476
O O12 0.345700 0.242583 0.250792
O O13 0.250000 0.197077 0.445113
O O14 0.160387 0.000000 0.460852
O O15 0.530641 0.500000 0.277643
O O16 0.524444 0.727399 0.168446
O O17 0.915832 0.827190 0.885395
O O18 0.013134 0.000000 0.891394
O O19 0.000000 0.764874 0.000000
O O20 0.177713 0.000000 0.156006
#
# Coordination Sequence:
#
# PCOD8214081 Si02
#       8
#     4   4   8   8   8   8   8   8
#     4  10  22  42  63  84 115 156 199 244 294 350
#     4  12  26  40  57  86 123 158 195 238 290 350
#     4  10  21  40  65  88 116 153 199 250 296 348
#     4  10  22  40  60  87 124 160 193 239 299 358
#     4  10  21  39  63  90 117 152 199 249 298 350
#     4  10  22  38  57  85 121 157 192 238 297 355
#     4   9  19  36  59  85 111 147 197 245 288 341
#     4  10  21  39  61  86 117 154 198 243 287 342
#
# _framework density 19.612674999999999
#
# number of rings (size 3 to 8) (size 9 to 14) (size 15 to 20)
#    0.000    2.000    0.714    1.929    3.000    4.571 
#    0.000    2.857    0.000    0.000    0.000    0.000 
#    0.000    0.000    0.000    0.000    0.000    0.000 
#
# Total GULP energy -694478.602091 kJ/mol
# GULP energy per Si atom -12401.403609 kJ/mol
# Density = 1.956804 g / cm^3
# Si number density = 19.612675 Si / 1000 Ang^3
#
#
#
# Elastic Constant Matrix: (Units=GPa)
#
#
# Indices 1 2 3 4 5 6 
#
# 1 83.3322 44.2479 45.3752 0.0000 0.0000 0.0000
# 2 44.2479 83.2496 45.3862 0.0000 0.0000 0.0000
# 3 45.3752 45.3862 94.2813 0.0000 0.0000 0.0000
# 4 0.0000 0.0000 0.0000 15.6510 0.0000 0.0000
# 5 0.0000 0.0000 0.0000 0.0000 20.9132 0.0000
# 6 0.0000 0.0000 0.0000 0.0000 0.0000 26.6307
#
#
#
# Elastic Compliance Matrix: (Units=1/GPa)
#
#
# Indices 1 2 3 4 5 6 
#
# 1 0.018755 -0.006844 -0.005732 0.000000 0.000000 0.000000
# 2 -0.006844 0.018783 -0.005749 0.000000 0.000000 0.000000
# 3 -0.005732 -0.005749 0.016132 0.000000 0.000000 0.000000
# 4 0.000000 0.000000 0.000000 0.063894 0.000000 0.000000
# 5 0.000000 0.000000 0.000000 0.000000 0.047817 0.000000
# 6 0.000000 0.000000 0.000000 0.000000 0.000000 0.037551
#
#
# Mechanical properties :
#
#
# Convention : Reuss Voigt Hill
#
# Bulk Modulus (GPa) = 58.74417 58.98687 58.86552
# Shear Modulus (GPa) = 20.38700 21.02925 20.70813
#
# Velocity S-wave (km/s) = 3.22760 3.27804 3.25292
# Velocity P-wave (km/s) = 6.62624 6.66848 6.64739
#
# Compressibility (1/GPa) = 0.01702297
#
# Stress axis : x y z
#
# Youngs Moduli (GPa) = 53.31900 53.23823 61.98670
#
# Poissons Ratio (x) = 0.36434 0.35530
# Poissons Ratio (y) = 0.36489 0.35634
# Poissons Ratio (z) = 0.30562 0.30604
#
# Static dielectric constant tensor:
#      x y z
#    x 3.654410 0.000000 0.000000 
#    y 0.000000 3.546900 0.000000 
#    z 0.000000 0.000000 3.586660 
# 
# 
# High freq. dielectric constant tensor:
#      x y z
#    x 1.769200 0.000000 0.000000 
#    y 0.000000 1.758960 0.000000 
#    z 0.000000 0.000000 1.768150 
# 
# From -- ./inp_files/25808.got.cif
#   From: 2010.03.12/outbox.cif.g09.slc.cpg/sg51_13_cif.got.tgz:25808.got - 2010.04.16 13:43:02.
