data_PCOD8214852
_publ_section_title
;
Structure prediction by ZEFSAII (Michael W. Deem and Ramdas Pophale) SiO2 
 PCOD8214852
Probable space group: P M M A
;
_chemical_formula_sum "Si O2"
_cell_formula_units_Z 40
_cell_length_a 20.140868
_cell_length_b 9.355656
_cell_length_c 12.672184
_cell_angle_alpha 90.000000
_cell_angle_beta 90.000000
_cell_angle_gamma 90.000000
_cell_volume 2387.832716
_symmetry_space_group_name_H-M "P M M A"
_symmetry_group_IT_number 51
_symmetry_cell_setting 'orthorhombic'
loop_
_space_group_symop_operation_xyz
x,y,z
1/2-x,-y,z
1/2+x,-y,-z
-x,y,-z
-x,-y,-z
1/2+x,y,-z
1/2-x,y,z
x,-y,z
loop_
_atom_site_type_symbol
_atom_site_label
_atom_site_fract_x
_atom_site_fract_y
_atom_site_fract_z
Si Si1 0.068953 0.170041 0.454973
Si Si2 0.175673 0.170182 0.619002
Si Si3 0.445394 0.164455 0.219303
Si Si4 0.922210 0.661475 0.977866
Si Si5 0.599112 0.164665 0.175915
O O1 0.130014 0.230676 0.524231
O O2 0.079414 0.216931 0.333835
O O3 0.000000 0.233675 0.500000
O O4 0.065743 0.000000 0.462314
O O5 0.250000 0.230982 0.605039
O O6 0.146950 0.220704 0.731441
O O7 0.175206 0.000000 0.615470
O O8 0.407621 0.259293 0.132384
O O9 0.524263 0.185465 0.215438
O O10 0.426692 0.000000 0.198007
O O11 0.895500 0.500000 0.970862
O O12 0.884652 0.742550 0.072361
O O13 0.000000 0.666059 0.000000
O O14 0.612836 0.000000 0.147394
#
# Coordination Sequence:
#
# PCOD8214852 Si02
#       5
#     8   8   8   8   8
#     4   9  14  23  40  63  89 116 146 178 215 264
#     4   9  16  25  40  65  93 116 141 181 228 265
#     4   9  15  24  42  65  87 114 147 180 214 259
#     4   9  17  27  40  61  89 115 141 179 224 261
#     4   9  15  25  42  63  87 113 144 179 217 263
#
# _framework density 16.751593
#
# number of rings (size 3 to 8) (size 9 to 14) (size 15 to 20)
#    0.000    3.000    2.000    0.600    0.000    2.400 
#    0.000    0.000    0.000    3.600    0.000    5.600 
#    0.000    0.000    0.000    0.000    0.000    0.000 
#
# Total GULP energy -495876.042634 kJ/mol
# GULP energy per Si atom -12396.901066 kJ/mol
# Density = 1.671347 g / cm^3
# Si number density = 16.751593 Si / 1000 Ang^3
#
#
#
# Elastic Constant Matrix: (Units=GPa)
#
#
# Indices 1 2 3 4 5 6 
#
# 1 72.3867 23.1277 67.0928 0.0000 0.0000 0.0000
# 2 23.1277 60.0174 59.4343 0.0000 0.0000 0.0000
# 3 67.0928 59.4343 182.7106 0.0000 0.0000 0.0000
# 4 0.0000 0.0000 0.0000 4.1815 0.0000 0.0000
# 5 0.0000 0.0000 0.0000 0.0000 20.3473 0.0000
# 6 0.0000 0.0000 0.0000 0.0000 0.0000 5.2578
#
#
#
# Elastic Compliance Matrix: (Units=1/GPa)
#
#
# Indices 1 2 3 4 5 6 
#
# 1 0.020961 -0.000671 -0.007479 0.000000 0.000000 0.000000
# 2 -0.000671 0.024601 -0.007756 0.000000 0.000000 0.000000
# 3 -0.007479 -0.007756 0.010742 0.000000 0.000000 0.000000
# 4 0.000000 0.000000 0.000000 0.239146 0.000000 0.000000
# 5 0.000000 0.000000 0.000000 0.000000 0.049147 0.000000
# 6 0.000000 0.000000 0.000000 0.000000 0.000000 0.190192
#
#
# Mechanical properties :
#
#
# Convention : Reuss Voigt Hill
#
# Bulk Modulus (GPa) = 40.82899 68.26937 54.54918
# Shear Modulus (GPa) = 8.69919 16.98800 12.84360
#
# Velocity S-wave (km/s) = 2.28130 3.18797 2.77196
# Velocity P-wave (km/s) = 5.60047 7.37518 6.54823
#
# Compressibility (1/GPa) = 0.02449240
#
# Stress axis : x y z
#
# Youngs Moduli (GPa) = 47.70799 40.64840 93.08974
#
# Poissons Ratio (x) = 0.02729 0.69618
# Poissons Ratio (y) = 0.03203 0.72201
# Poissons Ratio (z) = 0.35679 0.31527
#
# Static dielectric constant tensor:
#      x y z
#    x 2.938790 0.000000 0.000000 
#    y 0.000000 2.808180 0.000000 
#    z 0.000000 0.000000 3.380840 
# 
# 
# High freq. dielectric constant tensor:
#      x y z
#    x 1.602100 0.000000 0.000000 
#    y 0.000000 1.599800 0.000000 
#    z 0.000000 0.000000 1.663120 
# 
# From -- ./inp_files/17891.got.cif
#   From: 2010.03.12/outbox.cif.g09.slc.cpg/sg51_9_cif.got.tgz:17891.got - 2010.04.16 13:43:02.
