data_PCOD8214401
_publ_section_title
;
Structure prediction by ZEFSAII (Michael W. Deem and Ramdas Pophale) SiO2 
 PCOD8214401
Probable space group: P M M A
;
_chemical_formula_sum "Si O2"
_cell_formula_units_Z 48
_cell_length_a 17.695808
_cell_length_b 14.024655
_cell_length_c 9.901810
_cell_angle_alpha 90.000000
_cell_angle_beta 90.000000
_cell_angle_gamma 90.000000
_cell_volume 2457.407463
_symmetry_space_group_name_H-M "P M M A"
_symmetry_group_IT_number 51
_symmetry_cell_setting 'orthorhombic'
loop_
_space_group_symop_operation_xyz
x,y,z
1/2-x,-y,z
1/2+x,-y,-z
-x,y,-z
-x,-y,-z
1/2+x,y,-z
1/2-x,y,z
x,-y,z
loop_
_atom_site_type_symbol
_atom_site_label
_atom_site_fract_x
_atom_site_fract_y
_atom_site_fract_z
Si Si1 0.087935 0.804516 0.522505
Si Si2 0.573064 0.500000 0.096684
Si Si3 0.335795 0.800576 0.003982
Si Si4 0.565171 0.300505 0.209137
Si Si5 0.661240 0.000000 0.097368
Si Si6 0.839946 0.000000 0.402061
Si Si7 0.392496 0.703920 0.251849
Si Si8 0.339040 0.500000 0.166409
O O1 0.103794 0.745402 0.659192
O O2 0.121073 0.737909 0.404505
O O3 0.000000 0.824878 0.500000
O O4 0.130290 0.905621 0.523337
O O5 0.574357 0.413870 0.202944
O O6 0.500000 0.500000 0.000000
O O7 0.644258 0.500000 0.994437
O O8 0.250000 0.790295 0.949595
O O9 0.392630 0.734524 0.923368
O O10 0.365558 0.908504 0.987144
O O11 0.337770 0.767843 0.159025
O O12 0.477415 0.273576 0.204219
O O13 0.750000 0.000000 0.113205
O O14 0.627276 0.000000 0.248882
O O15 0.750000 0.000000 0.407236
O O16 0.374450 0.592112 0.239422
O O17 0.250000 0.500000 0.186591
#
# Coordination Sequence:
#
# PCOD8214401 Si02
#       8
#     8   4   8   8   4   4   8   4
#     4  10  24  41  64  91 127 165 210 258 307 371
#     4  12  20  37  65  94 123 158 213 254 298 372
#     4  11  21  37  61  88 121 158 206 254 306 367
#     4  11  21  39  64  90 120 163 206 251 301 368
#     4   9  20  36  58  88 119 156 201 255 306 359
#     4  11  21  40  65  87 122 171 209 253 316 369
#     4  11  23  40  60  91 125 162 203 256 312 363
#     4  12  24  39  61  89 127 164 197 252 317 363
#
# _framework density 19.532779000000001
#
# number of rings (size 3 to 8) (size 9 to 14) (size 15 to 20)
#    0.000    1.167    5.000    1.250    0.000    2.667 
#    0.000    5.833    0.000    1.000    0.000    0.000 
#    0.000    0.000    0.000    0.000    0.000    0.000 
#
# Total GULP energy -595257.483620 kJ/mol
# GULP energy per Si atom -12401.197575 kJ/mol
# Density = 1.948832 g / cm^3
# Si number density = 19.532779 Si / 1000 Ang^3
#
#
#
# Elastic Constant Matrix: (Units=GPa)
#
#
# Indices 1 2 3 4 5 6 
#
# 1 66.3246 28.8519 25.3534 0.0000 0.0000 0.0000
# 2 28.8519 148.4066 47.2919 0.0000 0.0000 0.0000
# 3 25.3534 47.2919 95.5233 0.0000 0.0000 0.0000
# 4 0.0000 0.0000 0.0000 35.0735 0.0000 0.0000
# 5 0.0000 0.0000 0.0000 0.0000 23.6554 0.0000
# 6 0.0000 0.0000 0.0000 0.0000 0.0000 23.3918
#
#
#
# Elastic Compliance Matrix: (Units=1/GPa)
#
#
# Indices 1 2 3 4 5 6 
#
# 1 0.017400 -0.002269 -0.003495 0.000000 0.000000 0.000000
# 2 -0.002269 0.008296 -0.003505 0.000000 0.000000 0.000000
# 3 -0.003495 -0.003505 0.013132 0.000000 0.000000 0.000000
# 4 0.000000 0.000000 0.000000 0.028512 0.000000 0.000000
# 5 0.000000 0.000000 0.000000 0.000000 0.042274 0.000000
# 6 0.000000 0.000000 0.000000 0.000000 0.000000 0.042750
#
#
# Mechanical properties :
#
#
# Convention : Reuss Voigt Hill
#
# Bulk Modulus (GPa) = 49.28538 57.02767 53.15653
# Shear Modulus (GPa) = 28.14282 30.34130 29.24206
#
# Velocity S-wave (km/s) = 3.79990 3.94554 3.87340
# Velocity P-wave (km/s) = 6.67378 7.07217 6.87586
#
# Compressibility (1/GPa) = 0.02028999
#
# Stress axis : x y z
#
# Youngs Moduli (GPa) = 57.46975 120.53496 76.15226
#
# Poissons Ratio (x) = 0.27351 0.26615
# Poissons Ratio (y) = 0.13041 0.26692
# Poissons Ratio (z) = 0.20085 0.42249
#
# Static dielectric constant tensor:
#      x y z
#    x 3.502280 0.000000 0.000000 
#    y 0.000000 3.905030 0.000000 
#    z 0.000000 0.000000 3.586220 
# 
# 
# High freq. dielectric constant tensor:
#      x y z
#    x 1.755040 0.000000 0.000000 
#    y 0.000000 1.775640 0.000000 
#    z 0.000000 0.000000 1.752930 
# 
# From -- ./inp_files/9732.got.cif
#   From: 2010.03.12/outbox.cif.g09.slc.cpg/sg51_5_cif.got.tgz:9732.got - 2010.04.16 13:43:02.
