data_PCOD8214521
_publ_section_title
;
Structure prediction by ZEFSAII (Michael W. Deem and Ramdas Pophale) SiO2 
 PCOD8214521
Probable space group: P M M A
;
_chemical_formula_sum "Si O2"
_cell_formula_units_Z 40
_cell_length_a 15.651121
_cell_length_b 9.682518
_cell_length_c 13.678703
_cell_angle_alpha 90.000000
_cell_angle_beta 90.000000
_cell_angle_gamma 90.000000
_cell_volume 2072.901577
_symmetry_space_group_name_H-M "P M M A"
_symmetry_group_IT_number 51
_symmetry_cell_setting 'orthorhombic'
loop_
_space_group_symop_operation_xyz
x,y,z
1/2-x,-y,z
1/2+x,-y,-z
-x,y,-z
-x,-y,-z
1/2+x,y,-z
1/2-x,y,z
x,-y,z
loop_
_atom_site_type_symbol
_atom_site_label
_atom_site_fract_x
_atom_site_fract_y
_atom_site_fract_z
Si Si1 0.851629 0.500000 0.808454
Si Si2 0.656891 0.500000 0.117927
Si Si3 0.025340 0.500000 0.713805
Si Si4 0.096930 0.292081 0.030876
Si Si5 0.964179 0.228274 0.396501
Si Si6 0.844724 0.000000 0.468523
Si Si7 0.149753 0.000000 0.101562
Si Si8 0.415804 0.000000 0.321524
O O1 0.750000 0.500000 0.776237
O O2 0.874866 0.362251 0.867570
O O3 0.920702 0.500000 0.718909
O O4 0.750000 0.500000 0.171847
O O5 0.572532 0.500000 0.183054
O O6 0.655367 0.638869 0.052230
O O7 0.061056 0.365391 0.660081
O O8 0.111067 0.129804 0.043899
O O9 0.000000 0.322767 0.000000
O O10 0.000000 0.276115 0.500000
O O11 0.882746 0.135978 0.419750
O O12 0.028651 0.138831 0.330261
O O13 0.851370 0.000000 0.586442
O O14 0.750000 0.000000 0.433340
O O15 0.250000 0.000000 0.088858
O O16 0.129715 0.000000 0.217054
#
# Coordination Sequence:
#
# PCOD8214521 Si02
#       8
#     4   4   4   8   8   4   4   4
#     4  11  21  38  63  86 113 152 195 239 295 355
#     4  11  23  40  59  78 113 162 203 231 277 347
#     4  12  21  37  60  88 120 150 198 245 285 342
#     4  11  21  40  57  81 114 159 194 235 297 343
#     4   9  20  37  59  84 115 155 189 232 299 351
#     4   9  18  38  61  83 115 154 196 236 287 354
#     4  12  23  34  57  91 119 144 191 252 296 339
#     4   9  19  36  59  84 112 149 190 235 294 354
#
# _framework density 19.296621999999999
#
# number of rings (size 3 to 8) (size 9 to 14) (size 15 to 20)
#    0.000    1.600    2.000    6.300    0.000    0.800 
#    0.000    4.000    0.000    2.400    0.000    0.000 
#    0.000    0.000    0.000    0.000    0.000    0.000 
#
# Total GULP energy -495734.664745 kJ/mol
# GULP energy per Si atom -12393.366619 kJ/mol
# Density = 1.925270 g / cm^3
# Si number density = 19.296622 Si / 1000 Ang^3
#
#
#
# Elastic Constant Matrix: (Units=GPa)
#
#
# Indices 1 2 3 4 5 6 
#
# 1 128.5051 26.8737 32.6563 0.0000 0.0000 0.0000
# 2 26.8737 152.5521 50.4066 0.0000 0.0000 0.0000
# 3 32.6563 50.4066 75.7677 0.0000 0.0000 0.0000
# 4 0.0000 0.0000 0.0000 2.9378 0.0000 0.0000
# 5 0.0000 0.0000 0.0000 0.0000 17.3531 0.0000
# 6 0.0000 0.0000 0.0000 0.0000 0.0000 19.4019
#
#
#
# Elastic Compliance Matrix: (Units=1/GPa)
#
#
# Indices 1 2 3 4 5 6 
#
# 1 0.008756 -0.000379 -0.003522 0.000000 0.000000 0.000000
# 2 -0.000379 0.008418 -0.005437 0.000000 0.000000 0.000000
# 3 -0.003522 -0.005437 0.018334 0.000000 0.000000 0.000000
# 4 0.000000 0.000000 0.000000 0.340388 0.000000 0.000000
# 5 0.000000 0.000000 0.000000 0.000000 0.057627 0.000000
# 6 0.000000 0.000000 0.000000 0.000000 0.000000 0.051541
#
#
# Mechanical properties :
#
#
# Convention : Reuss Voigt Hill
#
# Bulk Modulus (GPa) = 59.41078 64.07756 61.74417
# Shear Modulus (GPa) = 9.81641 24.39778 17.10710
#
# Velocity S-wave (km/s) = 2.25791 3.55963 2.98070
# Velocity P-wave (km/s) = 6.13617 7.08332 6.62669
#
# Compressibility (1/GPa) = 0.01683196
#
# Stress axis : x y z
#
# Youngs Moduli (GPa) = 114.20730 118.78615 54.54472
#
# Poissons Ratio (x) = 0.04499 0.19210
# Poissons Ratio (y) = 0.04326 0.29658
# Poissons Ratio (z) = 0.40223 0.64589
#
# Static dielectric constant tensor:
#      x y z
#    x 3.478470 0.000000 0.000000 
#    y 0.000000 3.737090 0.000000 
#    z 0.000000 0.000000 3.364050 
# 
# 
# High freq. dielectric constant tensor:
#      x y z
#    x 1.748850 0.000000 0.000000 
#    y 0.000000 1.761600 0.000000 
#    z 0.000000 0.000000 1.735990 
# 
# From -- ./inp_files/23892.got.cif
#   From: 2010.03.12/outbox.cif.g09.slc.cpg/sg51_12_cif.got.tgz:23892.got - 2010.04.16 13:43:02.
