data_PCOD8214967
_publ_section_title
;
Structure prediction by ZEFSAII (Michael W. Deem and Ramdas Pophale) SiO2 
 PCOD8214967
Probable space group: P N N A
;
_chemical_formula_sum "Si O2"
_cell_formula_units_Z 48
_cell_length_a 8.276608
_cell_length_b 24.041934
_cell_length_c 15.288585
_cell_angle_alpha 90.000000
_cell_angle_beta 90.000000
_cell_angle_gamma 90.000000
_cell_volume 3042.209227
_symmetry_space_group_name_H-M "P N N A"
_symmetry_group_IT_number 52
_symmetry_cell_setting 'orthorhombic'
loop_
_space_group_symop_operation_xyz
x,y,z
1/2-x,-y,z
x,1/2-y,1/2-z
1/2-x,1/2+y,1/2-z
-x,-y,-z
1/2+x,y,-z
-x,1/2+y,1/2+z
1/2+x,1/2-y,1/2+z
loop_
_atom_site_type_symbol
_atom_site_label
_atom_site_fract_x
_atom_site_fract_y
_atom_site_fract_z
Si Si1 0.621801 0.169473 0.714756
Si Si2 0.172982 0.673865 0.899101
Si Si3 0.034189 0.261578 0.962327
Si Si4 0.804352 0.556146 0.871953
Si Si5 0.730491 0.273583 0.617887
Si Si6 0.848175 0.445835 0.048315
O O1 0.433992 0.181707 0.689522
O O2 0.676349 0.106735 0.694781
O O3 0.727331 0.211604 0.657813
O O4 0.659040 0.180163 0.816656
O O5 0.337673 0.709344 0.896648
O O6 0.219222 0.609084 0.903494
O O7 0.067311 0.691748 0.984245
O O8 0.919725 0.220148 0.906290
O O9 0.125478 0.221628 0.030332
O O10 0.750000 0.500000 0.819512
O O11 0.965111 0.545424 0.928586
O O12 0.665983 0.565938 0.944470
O O13 0.750000 0.500000 0.080313
#
# Coordination Sequence:
#
# PCOD8214967 Si02
#       6
#     8   8   8   8   8   8
#     4   9  18  30  43  62  91 114 139 180 219 251
#     4   9  16  27  43  63  88 118 143 176 211 248
#     4   9  16  28  47  62  81 113 147 174 214 261
#     4  10  18  27  41  60  85 119 148 175 208 247
#     4   9  17  30  45  64  87 111 141 181 216 259
#     4  10  17  24  38  60  86 117 151 172 192 243
#
# _framework density 15.778008
#
# number of rings (size 3 to 8) (size 9 to 14) (size 15 to 20)
#    0.000    2.667    0.000    6.000    0.000    1.333 
#    0.000   10.000    0.000    0.000    0.000    1.167 
#    0.000    0.000    0.000    0.000    0.000    0.000 
#
# Total GULP energy -594753.548813 kJ/mol
# GULP energy per Si atom -12390.698934 kJ/mol
# Density = 1.574210 g / cm^3
# Si number density = 15.778008 Si / 1000 Ang^3
#
#
#
# Elastic Constant Matrix: (Units=GPa)
#
#
# Indices 1 2 3 4 5 6 
#
# 1 92.7984 45.9243 48.6799 0.0000 0.0000 0.0000
# 2 45.9243 86.3676 45.0354 0.0000 0.0000 0.0000
# 3 48.6799 45.0354 69.6861 0.0000 0.0000 0.0000
# 4 0.0000 0.0000 0.0000 18.1107 0.0000 0.0000
# 5 0.0000 0.0000 0.0000 0.0000 14.1421 0.0000
# 6 0.0000 0.0000 0.0000 0.0000 0.0000 20.9441
#
#
#
# Elastic Compliance Matrix: (Units=1/GPa)
#
#
# Indices 1 2 3 4 5 6 
#
# 1 0.018136 -0.004581 -0.009709 0.000000 0.000000 0.000000
# 2 -0.004581 0.018620 -0.008834 0.000000 0.000000 0.000000
# 3 -0.009709 -0.008834 0.026841 0.000000 0.000000 0.000000
# 4 0.000000 0.000000 0.000000 0.055216 0.000000 0.000000
# 5 0.000000 0.000000 0.000000 0.000000 0.070711 0.000000
# 6 0.000000 0.000000 0.000000 0.000000 0.000000 0.047746
#
#
# Mechanical properties :
#
#
# Convention : Reuss Voigt Hill
#
# Bulk Modulus (GPa) = 57.63342 58.68126 58.15734
# Shear Modulus (GPa) = 17.28308 17.92021 17.60165
#
# Velocity S-wave (km/s) = 3.31326 3.37378 3.34366
# Velocity P-wave (km/s) = 7.15849 7.24217 7.20045
#
# Compressibility (1/GPa) = 0.01735104
#
# Stress axis : x y z
#
# Youngs Moduli (GPa) = 55.13897 53.70438 37.25668
#
# Poissons Ratio (x) = 0.24602 0.36171
# Poissons Ratio (y) = 0.25259 0.32911
# Poissons Ratio (z) = 0.53532 0.47440
#
# Static dielectric constant tensor:
#      x y z
#    x 3.168390 0.000000 0.000000 
#    y 0.000000 2.943230 0.000000 
#    z 0.000000 0.000000 2.742630 
# 
# 
# High freq. dielectric constant tensor:
#      x y z
#    x 1.618770 0.000000 0.000000 
#    y 0.000000 1.586470 0.000000 
#    z 0.000000 0.000000 1.558630 
# 
# From -- ./inp_files/25015.got.cif
#   From: 2010.06.25/outbox.cif.g09.slc.cpg/sg52_13_cif.got.tgz:25015.got - 2010.06.26 19:32:48.
