data_PCOD8214235
_publ_section_title
;
Structure prediction by ZEFSAII (Michael W. Deem and Ramdas Pophale) SiO2 
 PCOD8214235
Probable space group: P M M A
;
_chemical_formula_sum "Si O2"
_cell_formula_units_Z 44
_cell_length_a 9.818007
_cell_length_b 7.780176
_cell_length_c 29.797576
_cell_angle_alpha 90.000000
_cell_angle_beta 90.000000
_cell_angle_gamma 90.000000
_cell_volume 2276.112349
_symmetry_space_group_name_H-M "P M M A"
_symmetry_group_IT_number 51
_symmetry_cell_setting 'orthorhombic'
loop_
_space_group_symop_operation_xyz
x,y,z
1/2-x,-y,z
1/2+x,-y,-z
-x,y,-z
-x,-y,-z
1/2+x,y,-z
1/2-x,y,z
x,-y,z
loop_
_atom_site_type_symbol
_atom_site_label
_atom_site_fract_x
_atom_site_fract_y
_atom_site_fract_z
Si Si1 0.400916 0.699581 0.289260
Si Si2 0.407163 0.801709 0.888845
Si Si3 0.901724 0.702274 0.364266
Si Si4 0.092903 0.500000 0.956770
Si Si5 0.097689 0.202681 0.538201
Si Si6 0.402871 0.797418 0.192006
O O1 0.250000 0.784452 0.292786
O O2 0.389381 0.500000 0.299824
O O3 0.501206 0.784999 0.326037
O O4 0.459777 0.727321 0.239278
O O5 0.250000 0.785028 0.874466
O O6 0.440737 0.674330 0.929656
O O7 0.497259 0.735600 0.847267
O O8 0.441564 0.000000 0.902369
O O9 0.750000 0.782520 0.359456
O O10 0.893895 0.500000 0.357756
O O11 0.962205 0.747620 0.413131
O O12 0.250000 0.500000 0.971650
O O13 0.000000 0.500000 0.000000
O O14 0.250000 0.280473 0.532705
O O15 0.000000 0.283074 0.500000
O O16 0.102961 0.000000 0.532911
O O17 0.250000 0.725909 0.182924
O O18 0.401278 0.000000 0.194227
#
# Coordination Sequence:
#
# PCOD8214235 Si02
#       6
#     8   8   8   4   8   8
#     4   9  18  31  46  67  96 128 159 195 240 288
#     4   9  19  36  55  77 108 141 174 217 263 307
#     4   9  18  32  47  65  91 121 154 192 234 284
#     4  10  22  38  56  82 110 140 180 220 261 312
#     4   9  18  32  48  66  88 114 147 188 234 284
#     4   9  18  32  50  74 102 132 169 209 249 297
#
# _framework density 19.331205000000001
#
# number of rings (size 3 to 8) (size 9 to 14) (size 15 to 20)
#    0.000    2.909    0.000    0.000    1.273    3.636 
#    0.000    0.000    0.000    0.000    0.000    0.000 
#    0.000    0.000    0.000    0.000    0.000    0.000 
#
# Total GULP energy -545450.469460 kJ/mol
# GULP energy per Si atom -12396.601579 kJ/mol
# Density = 1.928721 g / cm^3
# Si number density = 19.331205 Si / 1000 Ang^3
#
#
#
# Elastic Constant Matrix: (Units=GPa)
#
#
# Indices 1 2 3 4 5 6 
#
# 1 104.3898 24.7702 107.8197 0.0000 0.0000 0.0000
# 2 24.7702 38.3031 35.3046 0.0000 0.0000 0.0000
# 3 107.8197 35.3046 187.1303 0.0000 0.0000 0.0000
# 4 0.0000 0.0000 0.0000 36.1472 0.0000 0.0000
# 5 0.0000 0.0000 0.0000 0.0000 41.0357 0.0000
# 6 0.0000 0.0000 0.0000 0.0000 0.0000 11.3972
#
#
#
# Elastic Compliance Matrix: (Units=1/GPa)
#
#
# Indices 1 2 3 4 5 6 
#
# 1 0.024011 -0.003361 -0.013201 0.000000 0.000000 0.000000
# 2 -0.003361 0.032073 -0.004115 0.000000 0.000000 0.000000
# 3 -0.013201 -0.004115 0.013726 0.000000 0.000000 0.000000
# 4 0.000000 0.000000 0.000000 0.027665 0.000000 0.000000
# 5 0.000000 0.000000 0.000000 0.000000 0.024369 0.000000
# 6 0.000000 0.000000 0.000000 0.000000 0.000000 0.087741
#
#
# Mechanical properties :
#
#
# Convention : Reuss Voigt Hill
#
# Bulk Modulus (GPa) = 35.13858 73.95690 54.54774
# Shear Modulus (GPa) = 19.19948 28.51126 23.85537
#
# Velocity S-wave (km/s) = 3.15490 3.84459 3.51669
# Velocity P-wave (km/s) = 5.61140 7.61897 6.69091
#
# Compressibility (1/GPa) = 0.02845875
#
# Stress axis : x y z
#
# Youngs Moduli (GPa) = 41.64705 31.17841 72.85402
#
# Poissons Ratio (x) = 0.10478 0.96172
# Poissons Ratio (y) = 0.13996 0.29978
# Poissons Ratio (z) = 0.54977 0.12829
#
# Static dielectric constant tensor:
#      x y z
#    x 3.976440 0.000000 0.000000 
#    y 0.000000 3.372520 0.000000 
#    z 0.000000 0.000000 3.536120 
# 
# 
# High freq. dielectric constant tensor:
#      x y z
#    x 1.747630 0.000000 0.000000 
#    y 0.000000 1.742170 0.000000 
#    z 0.000000 0.000000 1.747840 
# 
# From -- ./inp_files/36806.got.cif
#   From: 2010.03.12/outbox.cif.g09.slc.cpg/sg51_19_cif.got.tgz:36806.got - 2010.04.16 13:43:02.
