data_PCOD8214498
_publ_section_title
;
Structure prediction by ZEFSAII (Michael W. Deem and Ramdas Pophale) SiO2 
 PCOD8214498
Probable space group: P M M A
;
_chemical_formula_sum "Si O2"
_cell_formula_units_Z 48
_cell_length_a 23.386334
_cell_length_b 8.342166
_cell_length_c 12.832720
_cell_angle_alpha 90.000000
_cell_angle_beta 90.000000
_cell_angle_gamma 90.000000
_cell_volume 2503.569741
_symmetry_space_group_name_H-M "P M M A"
_symmetry_group_IT_number 51
_symmetry_cell_setting 'orthorhombic'
loop_
_space_group_symop_operation_xyz
x,y,z
1/2-x,-y,z
1/2+x,-y,-z
-x,y,-z
-x,-y,-z
1/2+x,y,-z
1/2-x,y,z
x,-y,z
loop_
_atom_site_type_symbol
_atom_site_label
_atom_site_fract_x
_atom_site_fract_y
_atom_site_fract_z
Si Si1 0.880298 0.813265 0.815732
Si Si2 0.503547 0.685800 0.881157
Si Si3 0.113166 0.186080 0.805221
Si Si4 0.686131 0.809842 0.616525
Si Si5 0.684340 0.314972 0.010996
Si Si6 0.314038 0.809389 0.613675
O O1 0.857767 0.748267 0.704195
O O2 0.948056 0.785171 0.820797
O O3 0.866114 0.000000 0.830551
O O4 0.848731 0.712539 0.903943
O O5 0.520136 0.500000 0.879057
O O6 0.443775 0.712593 0.823842
O O7 0.500000 0.748278 0.000000
O O8 0.157408 0.205789 0.899518
O O9 0.141976 0.255982 0.700020
O O10 0.096934 0.000000 0.794996
O O11 0.750000 0.745517 0.641659
O O12 0.666693 0.749607 0.501542
O O13 0.687270 0.000000 0.615287
O O14 0.750000 0.264616 0.996181
O O15 0.677837 0.500000 0.043080
O O16 0.250000 0.745239 0.637710
O O17 0.313363 0.000000 0.619018
#
# Coordination Sequence:
#
# PCOD8214498 Si02
#       6
#     8   8   8   8   8   8
#     4  11  21  34  57  84 107 136 183 232 268 310
#     4  11  23  39  56  73 105 151 186 217 273 334
#     4  11  21  34  57  84 107 136 183 232 268 310
#     4   8  15  30  53  82 114 142 169 212 272 325
#     4  11  23  36  51  76 113 149 175 211 270 331
#     4   8  15  30  53  82 114 142 169 212 272 325
#
# _framework density 19.172623000000002
#
# number of rings (size 3 to 8) (size 9 to 14) (size 15 to 20)
#    0.000    2.000    1.667    4.000    0.000    3.333 
#    0.000    0.833    0.000    9.000    0.000   11.667 
#    0.000    0.000    0.000    0.000    0.000    0.000 
#
# Total GULP energy -595237.851184 kJ/mol
# GULP energy per Si atom -12400.788566 kJ/mol
# Density = 1.912898 g / cm^3
# Si number density = 19.172623 Si / 1000 Ang^3
#
#
#
# Elastic Constant Matrix: (Units=GPa)
#
#
# Indices 1 2 3 4 5 6 
#
# 1 125.1517 10.5281 76.2693 0.0000 0.0000 0.0000
# 2 10.5281 27.9529 9.0333 0.0000 0.0000 0.0000
# 3 76.2693 9.0333 159.0351 0.0000 0.0000 0.0000
# 4 0.0000 0.0000 0.0000 4.6596 0.0000 0.0000
# 5 0.0000 0.0000 0.0000 0.0000 32.5488 0.0000
# 6 0.0000 0.0000 0.0000 0.0000 0.0000 21.0351
#
#
#
# Elastic Compliance Matrix: (Units=1/GPa)
#
#
# Indices 1 2 3 4 5 6 
#
# 1 0.011471 -0.002590 -0.005354 0.000000 0.000000 0.000000
# 2 -0.002590 0.037028 -0.000861 0.000000 0.000000 0.000000
# 3 -0.005354 -0.000861 0.008905 0.000000 0.000000 0.000000
# 4 0.000000 0.000000 0.000000 0.214613 0.000000 0.000000
# 5 0.000000 0.000000 0.000000 0.000000 0.030723 0.000000
# 6 0.000000 0.000000 0.000000 0.000000 0.000000 0.047540
#
#
# Mechanical properties :
#
#
# Convention : Reuss Voigt Hill
#
# Bulk Modulus (GPa) = 25.12995 55.97791 40.55393
# Shear Modulus (GPa) = 13.11805 26.06930 19.59367
#
# Velocity S-wave (km/s) = 2.61857 3.69143 3.20028
# Velocity P-wave (km/s) = 4.71998 6.88688 5.90370
#
# Compressibility (1/GPa) = 0.03979316
#
# Stress axis : x y z
#
# Youngs Moduli (GPa) = 87.17578 27.00642 112.30237
#
# Poissons Ratio (x) = 0.06995 0.60128
# Poissons Ratio (y) = 0.22580 0.09670
# Poissons Ratio (z) = 0.46675 0.02325
#
# Static dielectric constant tensor:
#      x y z
#    x 3.571080 0.000000 0.000000 
#    y 0.000000 3.196910 0.000000 
#    z 0.000000 0.000000 3.853200 
# 
# 
# High freq. dielectric constant tensor:
#      x y z
#    x 1.745290 0.000000 0.000000 
#    y 0.000000 1.721300 0.000000 
#    z 0.000000 0.000000 1.748180 
# 
# From -- ./inp_files/18577.got.cif
#   From: 2010.03.12/outbox.cif.g09.slc.cpg/sg51_10_cif.got.tgz:18577.got - 2010.04.16 13:43:02.
