data_PCOD8214672
_publ_section_title
;
Structure prediction by ZEFSAII (Michael W. Deem and Ramdas Pophale) SiO2 
 PCOD8214672
Probable space group: P M M A
;
_chemical_formula_sum "Si O2"
_cell_formula_units_Z 56
_cell_length_a 26.631930
_cell_length_b 8.997152
_cell_length_c 14.629805
_cell_angle_alpha 90.000000
_cell_angle_beta 90.000000
_cell_angle_gamma 90.000000
_cell_volume 3505.469846
_symmetry_space_group_name_H-M "P M M A"
_symmetry_group_IT_number 51
_symmetry_cell_setting 'orthorhombic'
loop_
_space_group_symop_operation_xyz
x,y,z
1/2-x,-y,z
1/2+x,-y,-z
-x,y,-z
-x,-y,-z
1/2+x,y,-z
1/2-x,y,z
x,-y,z
loop_
_atom_site_type_symbol
_atom_site_label
_atom_site_fract_x
_atom_site_fract_y
_atom_site_fract_z
Si Si1 0.034178 0.665265 0.124287
Si Si2 0.544437 0.675705 0.376255
Si Si3 0.610503 0.326789 0.031362
Si Si4 0.806477 0.678083 0.892087
Si Si5 0.625486 0.333190 0.737695
Si Si6 0.438128 0.825400 0.809399
Si Si7 0.933620 0.676615 0.574404
O O1 0.009747 0.500000 0.120662
O O2 0.075622 0.667587 0.202223
O O3 0.991826 0.783885 0.147828
O O4 0.059996 0.702915 0.027482
O O5 0.545992 0.500000 0.358809
O O6 0.569664 0.757393 0.291067
O O7 0.487572 0.733695 0.389870
O O8 0.575269 0.719713 0.468493
O O9 0.616635 0.500000 0.053165
O O10 0.606070 0.236854 0.125619
O O11 0.659593 0.267441 0.976984
O O12 0.750000 0.737975 0.904147
O O13 0.808845 0.500000 0.888148
O O14 0.829687 0.743427 0.796462
O O15 0.643101 0.500000 0.716697
O O16 0.610742 0.256489 0.640103
O O17 0.433125 0.000000 0.802415
O O18 0.934640 0.500000 0.584300
#
# Coordination Sequence:
#
# PCOD8214672 Si02
#       7
#     8   8   8   8   8   8   8
#     4   9  16  28  44  59  80 114 150 176 202 247
#     4   9  16  27  43  59  80 113 153 184 203 241
#     4   9  18  30  45  62  82 113 146 174 209 258
#     4   8  14  25  43  69  93 107 127 169 222 266
#     4   8  12  21  41  65  86 108 137 171 208 255
#     4  12  22  28  37  58  88 119 147 182 217 246
#     4   8  13  23  42  63  79 106 148 183 206 241
#
# _framework density 15.975034000000001
#
# number of rings (size 3 to 8) (size 9 to 14) (size 15 to 20)
#    0.000    3.000    1.429    4.286    0.000    2.286 
#    0.000    1.429    0.000    0.429    0.000    1.000 
#    0.000    5.714    0.000    0.000    0.000    0.000 
#
# Total GULP energy -693801.140096 kJ/mol
# GULP energy per Si atom -12389.306073 kJ/mol
# Density = 1.593867 g / cm^3
# Si number density = 15.975034 Si / 1000 Ang^3
#
#
#
# Elastic Constant Matrix: (Units=GPa)
#
#
# Indices 1 2 3 4 5 6 
#
# 1 71.9857 18.6756 51.9827 0.0000 0.0000 0.0000
# 2 18.6756 45.2293 39.6474 0.0000 0.0000 0.0000
# 3 51.9827 39.6474 150.8954 0.0000 0.0000 0.0000
# 4 0.0000 0.0000 0.0000 5.1740 0.0000 0.0000
# 5 0.0000 0.0000 0.0000 0.0000 14.2169 0.0000
# 6 0.0000 0.0000 0.0000 0.0000 0.0000 2.5584
#
#
#
# Elastic Compliance Matrix: (Units=1/GPa)
#
#
# Indices 1 2 3 4 5 6 
#
# 1 0.018742 -0.002701 -0.005747 0.000000 0.000000 0.000000
# 2 -0.002701 0.029115 -0.006719 0.000000 0.000000 0.000000
# 3 -0.005747 -0.006719 0.010372 0.000000 0.000000 0.000000
# 4 0.000000 0.000000 0.000000 0.193275 0.000000 0.000000
# 5 0.000000 0.000000 0.000000 0.000000 0.070339 0.000000
# 6 0.000000 0.000000 0.000000 0.000000 0.000000 0.390864
#
#
# Mechanical properties :
#
#
# Convention : Reuss Voigt Hill
#
# Bulk Modulus (GPa) = 35.84899 54.30243 45.07571
# Shear Modulus (GPa) = 6.64592 14.91018 10.77805
#
# Velocity S-wave (km/s) = 2.04187 3.05838 2.60028
# Velocity P-wave (km/s) = 5.29607 6.82184 6.10679
#
# Compressibility (1/GPa) = 0.02789479
#
# Stress axis : x y z
#
# Youngs Moduli (GPa) = 53.35481 34.34657 96.40993
#
# Poissons Ratio (x) = 0.09278 0.55406
# Poissons Ratio (y) = 0.14413 0.64781
# Poissons Ratio (z) = 0.30663 0.23079
#
# Static dielectric constant tensor:
#      x y z
#    x 2.903720 0.000000 0.000000 
#    y 0.000000 2.546110 0.000000 
#    z 0.000000 0.000000 3.397520 
# 
# 
# High freq. dielectric constant tensor:
#      x y z
#    x 1.570380 0.000000 0.000000 
#    y 0.000000 1.562750 0.000000 
#    z 0.000000 0.000000 1.628080 
# 
# From -- ./inp_files/26519.got.cif
#   From: 2010.03.12/outbox.cif.g09.slc.cpg/sg51_14_cif.got.tgz:26519.got - 2010.04.16 13:43:02.
