data_PCOD8214071
_publ_section_title
;
Structure prediction by ZEFSAII (Michael W. Deem and Ramdas Pophale) SiO2 
 PCOD8214071
Probable space group: P M M A
;
_chemical_formula_sum "Si O2"
_cell_formula_units_Z 64
_cell_length_a 30.988590
_cell_length_b 8.590054
_cell_length_c 12.026317
_cell_angle_alpha 90.000000
_cell_angle_beta 90.000000
_cell_angle_gamma 90.000000
_cell_volume 3201.329356
_symmetry_space_group_name_H-M "P M M A"
_symmetry_group_IT_number 51
_symmetry_cell_setting 'orthorhombic'
loop_
_space_group_symop_operation_xyz
x,y,z
1/2-x,-y,z
1/2+x,-y,-z
-x,y,-z
-x,-y,-z
1/2+x,y,-z
1/2-x,y,z
x,-y,z
loop_
_atom_site_type_symbol
_atom_site_label
_atom_site_fract_x
_atom_site_fract_y
_atom_site_fract_z
Si Si1 0.549765 0.682868 0.493640
Si Si2 0.869022 0.679101 0.099724
Si Si3 0.484777 0.184531 0.116844
Si Si4 0.300171 0.822550 0.758815
Si Si5 0.372058 0.180935 0.376776
Si Si6 0.061957 0.182384 0.738263
Si Si7 0.200760 0.318656 0.525711
Si Si8 0.611453 0.180653 0.871882
O O1 0.500000 0.744809 0.500000
O O2 0.551117 0.500000 0.513965
O O3 0.580361 0.762372 0.585722
O O4 0.570701 0.723003 0.374239
O O5 0.881848 0.500000 0.111744
O O6 0.822357 0.710784 0.151852
O O7 0.903078 0.783360 0.166906
O O8 0.865851 0.724581 0.970233
O O9 0.515759 0.240464 0.215989
O O10 0.437101 0.243898 0.142329
O O11 0.487310 0.000000 0.109198
O O12 0.500000 0.258247 0.000000
O O13 0.250000 0.798201 0.777045
O O14 0.313580 0.775656 0.634466
O O15 0.314636 0.000000 0.778159
O O16 0.332645 0.275082 0.429781
O O17 0.365325 0.209094 0.245336
O O18 0.368133 0.000000 0.407044
O O19 0.062800 0.000000 0.710653
O O20 0.250000 0.275592 0.490291
O O21 0.197045 0.500000 0.552915
O O22 0.611621 0.000000 0.905479
#
# Coordination Sequence:
#
# PCOD8214071 Si02
#       8
#     8   8   8   8   8   8   8   8
#     4  11  24  40  57  82 121 160 196 243 298 355
#     4  12  24  37  56  85 119 151 186 229 285 347
#     4   9  16  31  56  81 106 143 191 242 287 327
#     4  10  21  39  64  90 115 145 185 234 286 341
#     4  11  23  39  62  88 117 156 202 250 296 351
#     4  11  21  36  60  84 112 149 195 244 285 335
#     4  10  21  39  64  92 122 154 190 238 298 361
#     4  10  21  39  59  82 113 152 200 245 287 338
#
# _framework density 19.991695
#
# number of rings (size 3 to 8) (size 9 to 14) (size 15 to 20)
#    0.000    1.500    1.250    4.500    0.000    4.500 
#    0.000    2.500    0.000    0.750    0.000    0.000 
#    0.000    0.000    0.000    0.000    0.000    0.000 
#
# Total GULP energy -793770.084847 kJ/mol
# GULP energy per Si atom -12402.657576 kJ/mol
# Density = 1.994619 g / cm^3
# Si number density = 19.991695 Si / 1000 Ang^3
#
#
#
# Elastic Constant Matrix: (Units=GPa)
#
#
# Indices 1 2 3 4 5 6 
#
# 1 91.1954 24.3730 39.3757 0.0000 0.0000 0.0000
# 2 24.3730 56.0751 22.1590 0.0000 0.0000 0.0000
# 3 39.3757 22.1590 101.0756 0.0000 0.0000 0.0000
# 4 0.0000 0.0000 0.0000 17.8984 0.0000 0.0000
# 5 0.0000 0.0000 0.0000 0.0000 35.3504 0.0000
# 6 0.0000 0.0000 0.0000 0.0000 0.0000 27.9117
#
#
#
# Elastic Compliance Matrix: (Units=1/GPa)
#
#
# Indices 1 2 3 4 5 6 
#
# 1 0.014081 -0.004327 -0.004537 0.000000 0.000000 0.000000
# 2 -0.004327 0.020855 -0.002886 0.000000 0.000000 0.000000
# 3 -0.004537 -0.002886 0.012294 0.000000 0.000000 0.000000
# 4 0.000000 0.000000 0.000000 0.055871 0.000000 0.000000
# 5 0.000000 0.000000 0.000000 0.000000 0.028288 0.000000
# 6 0.000000 0.000000 0.000000 0.000000 0.000000 0.035827
#
#
# Mechanical properties :
#
#
# Convention : Reuss Voigt Hill
#
# Bulk Modulus (GPa) = 42.14343 46.68461 44.41402
# Shear Modulus (GPa) = 25.17298 27.06135 26.11716
#
# Velocity S-wave (km/s) = 3.55233 3.68316 3.61834
# Velocity P-wave (km/s) = 6.16049 6.44129 6.30246
#
# Compressibility (1/GPa) = 0.02372849
#
# Stress axis : x y z
#
# Youngs Moduli (GPa) = 71.01837 47.95087 81.34266
#
# Poissons Ratio (x) = 0.20751 0.36903
# Poissons Ratio (y) = 0.30733 0.23477
# Poissons Ratio (z) = 0.32219 0.13839
#
# Static dielectric constant tensor:
#      x y z
#    x 3.690810 0.000000 0.000000 
#    y 0.000000 3.482370 0.000000 
#    z 0.000000 0.000000 3.645470 
# 
# 
# High freq. dielectric constant tensor:
#      x y z
#    x 1.777700 0.000000 0.000000 
#    y 0.000000 1.773130 0.000000 
#    z 0.000000 0.000000 1.782620 
# 
# From -- ./inp_files/19580.got.cif
#   From: 2010.03.12/outbox.cif.g09.slc.cpg/sg51_10_cif.got.tgz:19580.got - 2010.04.16 13:43:02.
