data_PCOD8214709
_publ_section_title
;
Structure prediction by ZEFSAII (Michael W. Deem and Ramdas Pophale) SiO2 
 PCOD8214709
Probable space group: P M M A
;
_chemical_formula_sum "Si O2"
_cell_formula_units_Z 56
_cell_length_a 9.827761
_cell_length_b 13.901617
_cell_length_c 29.087699
_cell_angle_alpha 90.000000
_cell_angle_beta 90.000000
_cell_angle_gamma 90.000000
_cell_volume 3974.012905
_symmetry_space_group_name_H-M "P M M A"
_symmetry_group_IT_number 51
_symmetry_cell_setting 'orthorhombic'
loop_
_space_group_symop_operation_xyz
x,y,z
1/2-x,-y,z
1/2+x,-y,-z
-x,y,-z
-x,-y,-z
1/2+x,y,-z
1/2-x,y,z
x,-y,z
loop_
_atom_site_type_symbol
_atom_site_label
_atom_site_fract_x
_atom_site_fract_y
_atom_site_fract_z
Si Si1 0.588781 0.894345 0.405140
Si Si2 0.402608 0.114447 0.038939
Si Si3 0.097589 0.114249 0.140786
Si Si4 0.410868 0.605774 0.636367
Si Si5 0.587887 0.791887 0.315120
Si Si6 0.591932 0.887105 0.222075
Si Si7 0.590325 0.708391 0.457233
O O1 0.750000 0.898132 0.401509
O O2 0.531567 0.861107 0.355474
O O3 0.548321 0.817968 0.444345
O O4 0.529023 0.000000 0.417252
O O5 0.250000 0.149352 0.028229
O O6 0.446748 0.150318 0.089882
O O7 0.410111 0.000000 0.037358
O O8 0.500000 0.160022 0.000000
O O9 0.250000 0.151210 0.152309
O O10 0.991407 0.153091 0.178408
O O11 0.096403 0.000000 0.141134
O O12 0.250000 0.600406 0.640207
O O13 0.474938 0.500000 0.645753
O O14 0.464043 0.682926 0.674227
O O15 0.448937 0.639697 0.585125
O O16 0.750000 0.795228 0.315432
O O17 0.534489 0.829377 0.266143
O O18 0.750000 0.865594 0.212886
O O19 0.567469 0.000000 0.230641
O O20 0.500000 0.674474 0.500000
O O21 0.750000 0.700518 0.469428
#
# Coordination Sequence:
#
# PCOD8214709 Si02
#       7
#     8   8   8   8   8   8   8
#     4   8  13  22  36  52  70  92 115 138 165 197
#     4   8  13  20  29  40  55  79 113 150 181 204
#     4   8  14  23  31  41  62  91 118 142 172 210
#     4   8  14  25  40  56  72  89 110 137 168 202
#     4   8  13  21  34  52  70  86 109 141 171 199
#     4   9  15  21  32  51  70  86 108 141 175 201
#     4   9  17  27  39  56  74  91 113 138 164 198
#
# _framework density 14.091549000000001
#
# number of rings (size 3 to 8) (size 9 to 14) (size 15 to 20)
#    0.000    3.714    0.000    3.000    0.000    2.857 
#    0.000    2.857    0.000    3.429    0.000    0.000 
#    0.000    0.000    0.000    0.000    0.000    0.714 
#
# Total GULP energy -693790.876947 kJ/mol
# GULP energy per Si atom -12389.122803 kJ/mol
# Density = 1.405948 g / cm^3
# Si number density = 14.091549 Si / 1000 Ang^3
#
#
#
# Elastic Constant Matrix: (Units=GPa)
#
#
# Indices 1 2 3 4 5 6 
#
# 1 39.1041 11.5330 46.1402 0.0000 0.0000 0.0000
# 2 11.5330 62.5475 25.6421 0.0000 0.0000 0.0000
# 3 46.1402 25.6421 111.7205 0.0000 0.0000 0.0000
# 4 0.0000 0.0000 0.0000 9.0910 0.0000 0.0000
# 5 0.0000 0.0000 0.0000 0.0000 22.7196 0.0000
# 6 0.0000 0.0000 0.0000 0.0000 0.0000 4.9261
#
#
#
# Elastic Compliance Matrix: (Units=1/GPa)
#
#
# Indices 1 2 3 4 5 6 
#
# 1 0.049919 -0.000831 -0.020426 0.000000 0.000000 0.000000
# 2 -0.000831 0.017662 -0.003711 0.000000 0.000000 0.000000
# 3 -0.020426 -0.003711 0.018238 0.000000 0.000000 0.000000
# 4 0.000000 0.000000 0.000000 0.109999 0.000000 0.000000
# 5 0.000000 0.000000 0.000000 0.000000 0.044015 0.000000
# 6 0.000000 0.000000 0.000000 0.000000 0.000000 0.203001
#
#
# Mechanical properties :
#
#
# Convention : Reuss Voigt Hill
#
# Bulk Modulus (GPa) = 27.86668 42.22252 35.04460
# Shear Modulus (GPa) = 9.90630 16.01779 12.96205
#
# Velocity S-wave (km/s) = 2.65428 3.37515 3.03619
# Velocity P-wave (km/s) = 5.40481 6.72435 6.10036
#
# Compressibility (1/GPa) = 0.03588515
#
# Stress axis : x y z
#
# Youngs Moduli (GPa) = 20.03265 56.61781 54.82974
#
# Poissons Ratio (x) = 0.04703 1.11993
# Poissons Ratio (y) = 0.01664 0.20346
# Poissons Ratio (z) = 0.40918 0.21010
#
# Static dielectric constant tensor:
#      x y z
#    x 2.505500 0.000000 0.000000 
#    y 0.000000 2.846330 0.000000 
#    z 0.000000 0.000000 2.962180 
# 
# 
# High freq. dielectric constant tensor:
#      x y z
#    x 1.501020 0.000000 0.000000 
#    y 0.000000 1.497470 0.000000 
#    z 0.000000 0.000000 1.538610 
# 
# From -- ./inp_files/37480.got.cif
#   From: 2010.03.12/outbox.cif.g09.slc.cpg/sg51_19_cif.got.tgz:37480.got - 2010.04.16 13:43:02.
