data_PCOD8214745
_publ_section_title
;
Structure prediction by ZEFSAII (Michael W. Deem and Ramdas Pophale) SiO2 
 PCOD8214745
Probable space group: P M M A
;
_chemical_formula_sum "Si O2"
_cell_formula_units_Z 56
_cell_length_a 9.144920
_cell_length_b 13.928242
_cell_length_c 29.345815
_cell_angle_alpha 90.000000
_cell_angle_beta 90.000000
_cell_angle_gamma 90.000000
_cell_volume 3737.854482
_symmetry_space_group_name_H-M "P M M A"
_symmetry_group_IT_number 51
_symmetry_cell_setting 'orthorhombic'
loop_
_space_group_symop_operation_xyz
x,y,z
1/2-x,-y,z
1/2+x,-y,-z
-x,y,-z
-x,-y,-z
1/2+x,y,-z
1/2-x,y,z
x,-y,z
loop_
_atom_site_type_symbol
_atom_site_label
_atom_site_fract_x
_atom_site_fract_y
_atom_site_fract_z
Si Si1 0.915041 0.614233 0.367488
Si Si2 0.922307 0.790482 0.954068
Si Si3 0.584534 0.385508 0.544370
Si Si4 0.075999 0.290849 0.186250
Si Si5 0.923730 0.394319 0.902986
Si Si6 0.578899 0.611711 0.722509
Si Si7 0.576248 0.894032 0.863112
O O1 0.750000 0.654228 0.368767
O O2 0.915460 0.500000 0.369051
O O3 0.002757 0.654877 0.410957
O O4 0.993739 0.650006 0.321661
O O5 0.750000 0.796865 0.961459
O O6 0.971877 0.681577 0.941623
O O7 0.973939 0.860236 0.913304
O O8 0.000000 0.824387 0.000000
O O9 0.500000 0.346653 0.500000
O O10 0.750000 0.346067 0.543757
O O11 0.584933 0.500000 0.544680
O O12 0.250000 0.295190 0.186785
O O13 0.016858 0.360682 0.146387
O O14 0.016859 0.327194 0.234854
O O15 0.022000 0.181963 0.175261
O O16 0.750000 0.397120 0.900642
O O17 0.987659 0.500000 0.914451
O O18 0.750000 0.629065 0.714144
O O19 0.547136 0.500000 0.732113
O O20 0.750000 0.896706 0.862367
O O21 0.511186 0.000000 0.852789
#
# Coordination Sequence:
#
# PCOD8214745 Si02
#       7
#     8   8   8   8   8   8   8
#     4   9  16  24  32  44  65  93 123 152 183 220
#     4   9  17  27  39  56  75  94 117 143 172 208
#     4   9  15  22  32  45  62  87 122 163 200 227
#     4   8  13  21  35  54  71  88 114 145 176 212
#     4   8  13  22  36  53  72  93 117 145 174 205
#     4   9  15  22  34  52  71  89 112 146 183 214
#     4   8  14  25  40  57  75  92 112 142 177 211
#
# _framework density 14.981857
#
# number of rings (size 3 to 8) (size 9 to 14) (size 15 to 20)
#    0.000    3.429    0.000    3.000    0.000    5.714 
#    0.000    0.000    0.000    3.429    0.000    0.000 
#    0.000    0.000    0.000    0.000    0.000    0.714 
#
# Total GULP energy -693977.917036 kJ/mol
# GULP energy per Si atom -12392.462804 kJ/mol
# Density = 1.494776 g / cm^3
# Si number density = 14.981857 Si / 1000 Ang^3
#
#
#
# Elastic Constant Matrix: (Units=GPa)
#
#
# Indices 1 2 3 4 5 6 
#
# 1 52.9180 12.9312 42.5330 0.0000 0.0000 0.0000
# 2 12.9312 70.2864 31.7924 0.0000 0.0000 0.0000
# 3 42.5330 31.7924 128.6055 0.0000 0.0000 0.0000
# 4 0.0000 0.0000 0.0000 10.5113 0.0000 0.0000
# 5 0.0000 0.0000 0.0000 0.0000 22.0956 0.0000
# 6 0.0000 0.0000 0.0000 0.0000 0.0000 4.7309
#
#
#
# Elastic Compliance Matrix: (Units=1/GPa)
#
#
# Indices 1 2 3 4 5 6 
#
# 1 0.025801 -0.000999 -0.008286 0.000000 0.000000 0.000000
# 2 -0.000999 0.016057 -0.003639 0.000000 0.000000 0.000000
# 3 -0.008286 -0.003639 0.011416 0.000000 0.000000 0.000000
# 4 0.000000 0.000000 0.000000 0.095136 0.000000 0.000000
# 5 0.000000 0.000000 0.000000 0.000000 0.045258 0.000000
# 6 0.000000 0.000000 0.000000 0.000000 0.000000 0.211377
#
#
# Mechanical properties :
#
#
# Convention : Reuss Voigt Hill
#
# Bulk Modulus (GPa) = 36.46170 47.36922 41.91546
# Shear Modulus (GPa) = 11.36271 18.43777 14.90024
#
# Velocity S-wave (km/s) = 2.75695 3.51190 3.15707
# Velocity P-wave (km/s) = 5.87575 6.93765 6.42866
#
# Compressibility (1/GPa) = 0.02742604
#
# Stress axis : x y z
#
# Youngs Moduli (GPa) = 38.75774 62.27675 87.59787
#
# Poissons Ratio (x) = 0.06220 0.72585
# Poissons Ratio (y) = 0.03871 0.31878
# Poissons Ratio (z) = 0.32115 0.22664
#
# Static dielectric constant tensor:
#      x y z
#    x 2.604210 0.000000 0.000000 
#    y 0.000000 2.859370 0.000000 
#    z 0.000000 0.000000 3.020570 
# 
# 
# High freq. dielectric constant tensor:
#      x y z
#    x 1.541340 0.000000 0.000000 
#    y 0.000000 1.526430 0.000000 
#    z 0.000000 0.000000 1.576980 
# 
# From -- ./inp_files/37486.got.cif
#   From: 2010.03.12/outbox.cif.g09.slc.cpg/sg51_19_cif.got.tgz:37486.got - 2010.04.16 13:43:02.
