data_PCOD8214207
_publ_section_title
;
Structure prediction by ZEFSAII (Michael W. Deem and Ramdas Pophale) SiO2 
 PCOD8214207
Probable space group: P M M A
;
_chemical_formula_sum "Si O2"
_cell_formula_units_Z 32
_cell_length_a 16.680624
_cell_length_b 11.967079
_cell_length_c 8.781499
_cell_angle_alpha 90.000000
_cell_angle_beta 90.000000
_cell_angle_gamma 90.000000
_cell_volume 1752.948299
_symmetry_space_group_name_H-M "P M M A"
_symmetry_group_IT_number 51
_symmetry_cell_setting 'orthorhombic'
loop_
_space_group_symop_operation_xyz
x,y,z
1/2-x,-y,z
1/2+x,-y,-z
-x,y,-z
-x,-y,-z
1/2+x,y,-z
1/2-x,y,z
x,-y,z
loop_
_atom_site_type_symbol
_atom_site_label
_atom_site_fract_x
_atom_site_fract_y
_atom_site_fract_z
Si Si1 0.837771 0.500000 0.703277
Si Si2 0.843955 0.256862 0.694896
Si Si3 0.425742 0.288226 0.603157
Si Si4 0.516050 0.869665 0.826743
Si Si5 0.338972 0.500000 0.657268
O O1 0.750000 0.500000 0.777796
O O2 0.877658 0.380943 0.748513
O O3 0.829413 0.500000 0.522650
O O4 0.750000 0.242632 0.728490
O O5 0.858885 0.240176 0.513717
O O6 0.892760 0.165335 0.789430
O O7 0.500000 0.331430 0.500000
O O8 0.452674 0.191750 0.718023
O O9 0.389071 0.389499 0.703908
O O10 0.505466 0.000000 0.796536
O O11 0.500000 0.837058 0.000000
O O12 0.250000 0.500000 0.733478
#
# Coordination Sequence:
#
# PCOD8214207 Si02
#       5
#     4   8   8   8   4
#     4   7  12  25  47  76 104 125 148 193 256 305
#     4   9  17  32  56  81 103 129 167 212 253 298
#     4   9  17  30  53  79 101 129 166 207 252 302
#     4  10  22  38  51  67 100 143 178 209 252 303
#     4   9  15  27  49  78 108 129 154 199 253 305
#
# _framework density 18.254961000000002
#
# number of rings (size 3 to 8) (size 9 to 14) (size 15 to 20)
#    0.000    3.000    0.000    2.625    0.000    8.000 
#    0.000    5.000    0.000    6.750    0.000    0.000 
#    0.000    0.000    0.000    0.000    0.000    0.000 
#
# Total GULP energy -396450.276148 kJ/mol
# GULP energy per Si atom -12389.071130 kJ/mol
# Density = 1.821341 g / cm^3
# Si number density = 18.254961 Si / 1000 Ang^3
#
#
#
# Elastic Constant Matrix: (Units=GPa)
#
#
# Indices 1 2 3 4 5 6 
#
# 1 95.1357 54.9443 37.6967 0.0000 0.0000 0.0000
# 2 54.9443 107.2618 57.2936 0.0000 0.0000 0.0000
# 3 37.6967 57.2936 68.4910 0.0000 0.0000 0.0000
# 4 0.0000 0.0000 0.0000 5.2194 0.0000 0.0000
# 5 0.0000 0.0000 0.0000 0.0000 13.2419 0.0000
# 6 0.0000 0.0000 0.0000 0.0000 0.0000 24.8104
#
#
#
# Elastic Compliance Matrix: (Units=1/GPa)
#
#
# Indices 1 2 3 4 5 6 
#
# 1 0.015349 -0.006056 -0.003382 0.000000 0.000000 0.000000
# 2 -0.006056 0.019243 -0.012764 0.000000 0.000000 0.000000
# 3 -0.003382 -0.012764 0.027139 0.000000 0.000000 0.000000
# 4 0.000000 0.000000 0.000000 0.191593 0.000000 0.000000
# 5 0.000000 0.000000 0.000000 0.000000 0.075518 0.000000
# 6 0.000000 0.000000 0.000000 0.000000 0.000000 0.040306
#
#
# Mechanical properties :
#
#
# Convention : Reuss Voigt Hill
#
# Bulk Modulus (GPa) = 57.71248 63.41751 60.56500
# Shear Modulus (GPa) = 11.92390 16.71795 14.32093
#
# Velocity S-wave (km/s) = 2.55852 3.02951 2.80392
# Velocity P-wave (km/s) = 6.35699 6.85948 6.61301
#
# Compressibility (1/GPa) = 0.01732728
#
# Stress axis : x y z
#
# Youngs Moduli (GPa) = 65.15134 51.96748 36.84745
#
# Poissons Ratio (x) = 0.31471 0.12462
# Poissons Ratio (y) = 0.39455 0.47031
# Poissons Ratio (z) = 0.22034 0.66330
#
# Static dielectric constant tensor:
#      x y z
#    x 3.484120 0.000000 0.000000 
#    y 0.000000 3.495990 0.000000 
#    z 0.000000 0.000000 3.010190 
# 
# 
# High freq. dielectric constant tensor:
#      x y z
#    x 1.707710 0.000000 0.000000 
#    y 0.000000 1.708440 0.000000 
#    z 0.000000 0.000000 1.661470 
# 
# From -- ./inp_files/9200.got.cif
#   From: 2010.03.12/outbox.cif.g09.slc.cpg/sg51_5_cif.got.tgz:9200.got - 2010.04.16 13:43:02.
