data_PCOD8214167
_publ_section_title
;
Structure prediction by ZEFSAII (Michael W. Deem and Ramdas Pophale) SiO2 
 PCOD8214167
Probable space group: P M M A
;
_chemical_formula_sum "Si O2"
_cell_formula_units_Z 56
_cell_length_a 8.839692
_cell_length_b 15.365193
_cell_length_c 20.313914
_cell_angle_alpha 90.000000
_cell_angle_beta 90.000000
_cell_angle_gamma 90.000000
_cell_volume 2759.108394
_symmetry_space_group_name_H-M "P M M A"
_symmetry_group_IT_number 51
_symmetry_cell_setting 'orthorhombic'
loop_
_space_group_symop_operation_xyz
x,y,z
1/2-x,-y,z
1/2+x,-y,-z
-x,y,-z
-x,-y,-z
1/2+x,y,-z
1/2-x,y,z
x,-y,z
loop_
_atom_site_type_symbol
_atom_site_label
_atom_site_fract_x
_atom_site_fract_y
_atom_site_fract_z
Si Si1 0.427148 0.363852 0.256483
Si Si2 0.928699 0.766263 0.932124
Si Si3 0.924095 0.593687 0.387623
Si Si4 0.924985 0.597083 0.122662
Si Si5 0.423904 0.189787 0.708670
Si Si6 0.924354 0.902570 0.163337
Si Si7 0.424724 0.221665 0.564712
O O1 0.250000 0.374542 0.243496
O O2 0.474178 0.412494 0.322760
O O3 0.516754 0.407042 0.196963
O O4 0.468792 0.262716 0.260926
O O5 0.750000 0.766342 0.938094
O O6 0.982287 0.667833 0.918857
O O7 0.976034 0.832062 0.874474
O O8 0.000000 0.800379 0.000000
O O9 0.750000 0.608127 0.366634
O O10 0.943960 0.500000 0.424752
O O11 0.975478 0.676374 0.430927
O O12 0.750000 0.625170 0.121864
O O13 0.946167 0.500000 0.092164
O O14 0.250000 0.223242 0.708000
O O15 0.442577 0.107561 0.757131
O O16 0.471718 0.171216 0.632388
O O17 0.750000 0.888267 0.143334
O O18 0.977964 0.000000 0.145166
O O19 0.500000 0.179491 0.500000
O O20 0.250000 0.212074 0.551590
#
# Coordination Sequence:
#
# PCOD8214167 Si02
#       7
#     8   8   8   8   8   8   8
#     4  11  20  30  50  81 113 147 191 244 298 350
#     4  12  26  44  66  92 126 165 201 246 299 354
#     4   9  18  32  47  65  97 143 192 242 298 356
#     4  11  23  39  60  85 118 162 207 251 298 349
#     4   9  18  35  58  81 114 153 191 237 294 356
#     4  10  21  40  69  99 123 153 197 247 300 362
#     4   9  18  31  48  73 104 147 194 239 292 353
#
# _framework density 20.296412
#
# number of rings (size 3 to 8) (size 9 to 14) (size 15 to 20)
#    0.000    1.857    1.429    4.286    0.000    6.571 
#    0.000    0.000    0.000    0.429    0.000    0.000 
#    0.000    0.000    0.000    0.000    0.000    0.286 
#
# Total GULP energy -694084.115506 kJ/mol
# GULP energy per Si atom -12394.359205 kJ/mol
# Density = 2.025022 g / cm^3
# Si number density = 20.296412 Si / 1000 Ang^3
#
#
#
# Elastic Constant Matrix: (Units=GPa)
#
#
# Indices 1 2 3 4 5 6 
#
# 1 102.8026 36.8635 43.7174 0.0000 0.0000 0.0000
# 2 36.8635 80.9073 35.0853 0.0000 0.0000 0.0000
# 3 43.7174 35.0853 119.0488 0.0000 0.0000 0.0000
# 4 0.0000 0.0000 0.0000 4.8491 0.0000 0.0000
# 5 0.0000 0.0000 0.0000 0.0000 32.7357 0.0000
# 6 0.0000 0.0000 0.0000 0.0000 0.0000 13.1512
#
#
#
# Elastic Compliance Matrix: (Units=1/GPa)
#
#
# Indices 1 2 3 4 5 6 
#
# 1 0.012723 -0.004323 -0.003398 0.000000 0.000000 0.000000
# 2 -0.004323 0.015640 -0.003022 0.000000 0.000000 0.000000
# 3 -0.003398 -0.003022 0.010538 0.000000 0.000000 0.000000
# 4 0.000000 0.000000 0.000000 0.206223 0.000000 0.000000
# 5 0.000000 0.000000 0.000000 0.000000 0.030548 0.000000
# 6 0.000000 0.000000 0.000000 0.000000 0.000000 0.076039
#
#
# Mechanical properties :
#
#
# Convention : Reuss Voigt Hill
#
# Bulk Modulus (GPa) = 57.42154 59.34346 58.38250
# Shear Modulus (GPa) = 13.19258 22.62004 17.90631
#
# Velocity S-wave (km/s) = 2.55227 3.34201 2.97348
# Velocity P-wave (km/s) = 6.08591 6.64785 6.37308
#
# Compressibility (1/GPa) = 0.01741507
#
# Stress axis : x y z
#
# Youngs Moduli (GPa) = 78.60014 63.93869 94.89243
#
# Poissons Ratio (x) = 0.27642 0.32244
# Poissons Ratio (y) = 0.33981 0.28674
# Poissons Ratio (z) = 0.26708 0.19320
#
# Static dielectric constant tensor:
#      x y z
#    x 3.551770 0.000000 0.000000 
#    y 0.000000 3.539690 0.000000 
#    z 0.000000 0.000000 3.718060 
# 
# 
# High freq. dielectric constant tensor:
#      x y z
#    x 1.785490 0.000000 0.000000 
#    y 0.000000 1.771020 0.000000 
#    z 0.000000 0.000000 1.790240 
# 
# From -- ./inp_files/31940.got.cif
#   From: 2010.03.12/outbox.cif.g09.slc.cpg/sg51_16_cif.got.tgz:31940.got - 2010.04.16 13:43:02.
