data_PCOD8214536
_publ_section_title
;
Structure prediction by ZEFSAII (Michael W. Deem and Ramdas Pophale) SiO2 
 PCOD8214536
Probable space group: P M M A
;
_chemical_formula_sum "Si O2"
_cell_formula_units_Z 64
_cell_length_a 14.841311
_cell_length_b 9.387599
_cell_length_c 24.022575
_cell_angle_alpha 90.000000
_cell_angle_beta 90.000000
_cell_angle_gamma 90.000000
_cell_volume 3346.927877
_symmetry_space_group_name_H-M "P M M A"
_symmetry_group_IT_number 51
_symmetry_cell_setting 'orthorhombic'
loop_
_space_group_symop_operation_xyz
x,y,z
1/2-x,-y,z
1/2+x,-y,-z
-x,y,-z
-x,-y,-z
1/2+x,y,-z
1/2-x,y,z
x,-y,z
loop_
_atom_site_type_symbol
_atom_site_label
_atom_site_fract_x
_atom_site_fract_y
_atom_site_fract_z
Si Si1 0.145610 0.167438 0.790425
Si Si2 0.852055 0.330567 0.510399
Si Si3 0.600817 0.346927 0.986621
Si Si4 0.147360 0.846507 0.912206
Si Si5 0.987349 0.669732 0.290162
Si Si6 0.646660 0.165071 0.759962
Si Si7 0.985195 0.668308 0.416415
Si Si8 0.145956 0.842147 0.112936
O O1 0.250000 0.209968 0.782698
O O2 0.106888 0.205694 0.852741
O O3 0.089205 0.260926 0.747558
O O4 0.130470 0.000000 0.778888
O O5 0.750000 0.266306 0.515259
O O6 0.844721 0.500000 0.510686
O O7 0.917199 0.276526 0.560766
O O8 0.900827 0.276889 0.453508
O O9 0.651207 0.500000 0.979988
O O10 0.597080 0.263853 0.928683
O O11 0.500000 0.380214 0.000000
O O12 0.644290 0.262252 0.037275
O O13 0.250000 0.873829 0.896603
O O14 0.104387 0.000000 0.929910
O O15 0.987103 0.500000 0.282369
O O16 0.085736 0.730507 0.276006
O O17 0.968331 0.717189 0.353432
O O18 0.750000 0.189277 0.742340
O O19 0.632361 0.208756 0.824170
O O20 0.619624 0.000000 0.751175
O O21 0.988398 0.500000 0.420991
O O22 0.250000 0.843677 0.096332
O O23 0.105309 0.000000 0.104831
#
# Coordination Sequence:
#
# PCOD8214536 Si02
#       8
#     8   8   8   8   8   8   8   8
#     4   9  20  39  59  78 103 141 189 231 267 317
#     4   8  13  25  46  67  97 144 186 218 254 302
#     4  11  24  35  46  74 110 133 156 199 262 332
#     4   9  19  37  58  75  92 123 172 221 259 305
#     4  11  22  33  52  83 119 148 173 220 280 331
#     4   9  20  39  59  78 103 141 189 231 267 317
#     4   8  16  28  41  70 109 141 177 216 261 316
#     4   9  19  37  58  75  92 123 172 221 259 305
#
# _framework density 19.122012999999999
#
# number of rings (size 3 to 8) (size 9 to 14) (size 15 to 20)
#    0.000    2.750    0.000    3.375    1.750    5.500 
#    0.000    5.000    0.000    0.000    0.000    7.000 
#    0.000   12.000    0.000    0.000    0.000    0.000 
#
# Total GULP energy -793037.775742 kJ/mol
# GULP energy per Si atom -12391.215246 kJ/mol
# Density = 1.907849 g / cm^3
# Si number density = 19.122013 Si / 1000 Ang^3
#
#
#
# Elastic Constant Matrix: (Units=GPa)
#
#
# Indices 1 2 3 4 5 6 
#
# 1 73.5928 15.5088 15.7716 0.0000 0.0000 0.0000
# 2 15.5088 69.9569 38.6050 0.0000 0.0000 0.0000
# 3 15.7716 38.6050 95.5414 0.0000 0.0000 0.0000
# 4 0.0000 0.0000 0.0000 -13.9456 0.0000 0.0000
# 5 0.0000 0.0000 0.0000 0.0000 19.9016 0.0000
# 6 0.0000 0.0000 0.0000 0.0000 0.0000 32.2565
#
#
#
# Elastic Compliance Matrix: (Units=1/GPa)
#
#
# Indices 1 2 3 4 5 6 
#
# 1 0.014398 -0.002420 -0.001399 0.000000 0.000000 0.000000
# 2 -0.002420 0.018803 -0.007198 0.000000 0.000000 0.000000
# 3 -0.001399 -0.007198 0.013606 0.000000 0.000000 0.000000
# 4 0.000000 0.000000 0.000000 -0.071707 0.000000 0.000000
# 5 0.000000 0.000000 0.000000 0.000000 0.050247 0.000000
# 6 0.000000 0.000000 0.000000 0.000000 0.000000 0.031001
#
#
# Mechanical properties :
#
#
# Convention : Reuss Voigt Hill
#
# Bulk Modulus (GPa) = 40.36622 42.09577 41.23100
# Shear Modulus (GPa) = 57.70913 18.92287 38.31600
#
# Velocity S-wave (km/s) = 5.49954 3.14918 4.48120
# Velocity P-wave (km/s) = 7.84106 5.94014 6.95584
#
# Compressibility (1/GPa) = 0.02477319
#
# Stress axis : x y z
#
# Youngs Moduli (GPa) = 69.45375 53.18211 73.49591
#
# Poissons Ratio (x) = 0.12870 0.10282
# Poissons Ratio (y) = 0.16807 0.52905
# Poissons Ratio (z) = 0.09716 0.38282
#
# Static dielectric constant tensor:
#      x y z
#    x 3.574710 0.000000 0.000000 
#    y 0.000000 3.337730 0.000000 
#    z 0.000000 0.000000 3.731220 
# 
# 
# High freq. dielectric constant tensor:
#      x y z
#    x 1.749270 0.000000 0.000000 
#    y 0.000000 1.712120 0.000000 
#    z 0.000000 0.000000 1.742800 
# 
# From -- ./inp_files/35645.got.cif
#   From: 2010.03.12/outbox.cif.g09.slc.cpg/sg51_18_cif.got.tgz:35645.got - 2010.04.16 13:43:02.
