data_PCOD8214424
_publ_section_title
;
Structure prediction by ZEFSAII (Michael W. Deem and Ramdas Pophale) SiO2 
 PCOD8214424
Probable space group: P M M A
;
_chemical_formula_sum "Si O2"
_cell_formula_units_Z 48
_cell_length_a 18.780252
_cell_length_b 13.745131
_cell_length_c 9.607380
_cell_angle_alpha 90.000000
_cell_angle_beta 90.000000
_cell_angle_gamma 90.000000
_cell_volume 2480.020481
_symmetry_space_group_name_H-M "P M M A"
_symmetry_group_IT_number 51
_symmetry_cell_setting 'orthorhombic'
loop_
_space_group_symop_operation_xyz
x,y,z
1/2-x,-y,z
1/2+x,-y,-z
-x,y,-z
-x,-y,-z
1/2+x,y,-z
1/2-x,y,z
x,-y,z
loop_
_atom_site_type_symbol
_atom_site_label
_atom_site_fract_x
_atom_site_fract_y
_atom_site_fract_z
Si Si1 0.394794 0.000000 0.115487
Si Si2 0.328618 0.709777 0.506546
Si Si3 0.001093 0.500000 0.731523
Si Si4 0.440622 0.000000 0.807379
Si Si5 0.614283 0.500000 0.492427
Si Si6 0.035481 0.699575 0.140405
Si Si7 0.544498 0.181754 0.364840
Si Si8 0.669916 0.203834 0.795385
O O1 0.475597 0.000000 0.165301
O O2 0.355470 0.905871 0.175915
O O3 0.393653 0.000000 0.947325
O O4 0.250000 0.725035 0.573045
O O5 0.338031 0.594794 0.480257
O O6 0.391307 0.743819 0.607782
O O7 0.333519 0.773822 0.367944
O O8 0.080219 0.500000 0.663828
O O9 0.947398 0.500000 0.604990
O O10 0.987966 0.589978 0.833319
O O11 0.419769 0.907998 0.713902
O O12 0.120398 0.716836 0.125197
O O13 0.012824 0.765562 0.269069
O O14 0.000000 0.739244 0.000000
O O15 0.500000 0.148484 0.500000
O O16 0.750000 0.216810 0.852316
#
# Coordination Sequence:
#
# PCOD8214424 Si02
#       8
#     4   8   4   4   4   8   8   8
#     4  11  21  42  61  92 124 169 213 257 317 375
#     4  11  23  39  63  94 129 167 209 262 320 377
#     4  11  21  36  66  96 124 160 215 266 313 371
#     4  11  23  36  67  94 122 164 218 266 306 371
#     4  11  19  38  66  94 122 166 214 263 318 374
#     4  12  23  40  64  94 129 167 212 262 315 381
#     4  12  21  40  63  96 128 164 214 264 315 370
#     4  11  23  40  63  92 125 168 211 256 315 375
#
# _framework density 19.354679999999998
#
# number of rings (size 3 to 8) (size 9 to 14) (size 15 to 20)
#    0.000    0.667    6.667    2.000    0.000    0.667 
#    0.000    5.833    0.000    0.000    0.000    0.000 
#    0.000    0.000    0.000    0.000    0.000    0.000 
#
# Total GULP energy -595230.419591 kJ/mol
# GULP energy per Si atom -12400.633741 kJ/mol
# Density = 1.931063 g / cm^3
# Si number density = 19.354680 Si / 1000 Ang^3
#
#
#
# Elastic Constant Matrix: (Units=GPa)
#
#
# Indices 1 2 3 4 5 6 
#
# 1 117.3229 26.5190 38.1622 0.0000 0.0000 0.0000
# 2 26.5190 122.5893 44.7790 0.0000 0.0000 0.0000
# 3 38.1622 44.7790 90.1084 0.0000 0.0000 0.0000
# 4 0.0000 0.0000 0.0000 -5.8469 0.0000 0.0000
# 5 0.0000 0.0000 0.0000 0.0000 20.2889 0.0000
# 6 0.0000 0.0000 0.0000 0.0000 0.0000 4.2854
#
#
#
# Elastic Compliance Matrix: (Units=1/GPa)
#
#
# Indices 1 2 3 4 5 6 
#
# 1 0.009941 -0.000748 -0.003838 0.000000 0.000000 0.000000
# 2 -0.000748 0.010023 -0.004664 0.000000 0.000000 0.000000
# 3 -0.003838 -0.004664 0.015041 0.000000 0.000000 0.000000
# 4 0.000000 0.000000 0.000000 -0.171032 0.000000 0.000000
# 5 0.000000 0.000000 0.000000 0.000000 0.049288 0.000000
# 6 0.000000 0.000000 0.000000 0.000000 0.000000 0.233352
#
#
# Mechanical properties :
#
#
# Convention : Reuss Voigt Hill
#
# Bulk Modulus (GPa) = 60.59199 60.99343 60.79271
# Shear Modulus (GPa) = 29.30569 18.44950 23.87760
#
# Velocity S-wave (km/s) = 3.89542 3.09080 3.51620
# Velocity P-wave (km/s) = 7.18376 6.65727 6.92552
#
# Compressibility (1/GPa) = 0.01650383
#
# Stress axis : x y z
#
# Youngs Moduli (GPa) = 100.59187 99.77233 66.48509
#
# Poissons Ratio (x) = 0.07468 0.25519
# Poissons Ratio (y) = 0.07529 0.31007
# Poissons Ratio (z) = 0.38610 0.46532
#
# Static dielectric constant tensor:
#      x y z
#    x 3.739630 0.000000 0.000000 
#    y 0.000000 4.528170 0.000000 
#    z 0.000000 0.000000 3.490240 
# 
# 
# High freq. dielectric constant tensor:
#      x y z
#    x 1.751370 0.000000 0.000000 
#    y 0.000000 1.765150 0.000000 
#    z 0.000000 0.000000 1.741920 
# 
# From -- ./inp_files/9743.got.cif
#   From: 2010.03.12/outbox.cif.g09.slc.cpg/sg51_5_cif.got.tgz:9743.got - 2010.04.16 13:43:02.
