data_PCOD8214881
_publ_section_title
;
Structure prediction by ZEFSAII (Michael W. Deem and Ramdas Pophale) SiO2 
 PCOD8214881
Probable space group: P M M A
;
_chemical_formula_sum "Si O2"
_cell_formula_units_Z 40
_cell_length_a 9.250614
_cell_length_b 7.703159
_cell_length_c 29.620072
_cell_angle_alpha 90.000000
_cell_angle_beta 90.000000
_cell_angle_gamma 90.000000
_cell_volume 2110.695244
_symmetry_space_group_name_H-M "P M M A"
_symmetry_group_IT_number 51
_symmetry_cell_setting 'orthorhombic'
loop_
_space_group_symop_operation_xyz
x,y,z
1/2-x,-y,z
1/2+x,-y,-z
-x,y,-z
-x,-y,-z
1/2+x,y,-z
1/2-x,y,z
x,-y,z
loop_
_atom_site_type_symbol
_atom_site_label
_atom_site_fract_x
_atom_site_fract_y
_atom_site_fract_z
Si Si1 0.077029 0.500000 0.701286
Si Si2 0.420747 0.500000 0.802084
Si Si3 0.412874 0.294025 0.542675
Si Si4 0.419379 0.199239 0.868054
Si Si5 0.921057 0.807397 0.360538
Si Si6 0.412575 0.794222 0.042561
O O1 0.250000 0.500000 0.702593
O O2 0.012002 0.500000 0.751861
O O3 0.016583 0.669798 0.675371
O O4 0.250000 0.500000 0.798241
O O5 0.470702 0.324829 0.827642
O O6 0.500000 0.219542 0.500000
O O7 0.250000 0.225112 0.537674
O O8 0.418017 0.500000 0.543996
O O9 0.483805 0.224561 0.589203
O O10 0.250000 0.220831 0.878584
O O11 0.505594 0.261095 0.912058
O O12 0.455510 0.000000 0.854762
O O13 0.750000 0.781605 0.363525
O O14 0.963406 0.000000 0.343876
O O15 0.250000 0.717718 0.042967
O O16 0.406966 0.000000 0.038599
O O17 0.500000 0.716256 0.000000
#
# Coordination Sequence:
#
# PCOD8214881 Si02
#       6
#     4   4   8   8   8   8
#     4   9  16  28  43  63  91 118 148 191 238 281
#     4   9  18  30  46  67  92 122 155 193 238 283
#     4   9  16  27  43  64  92 124 155 188 227 272
#     4   9  17  30  47  68  96 126 155 190 231 275
#     4   9  16  26  42  64  91 122 153 187 231 280
#     4   9  16  27  46  72 100 130 162 194 230 274
#
# _framework density 18.951101000000001
#
# number of rings (size 3 to 8) (size 9 to 14) (size 15 to 20)
#    0.000    3.000    1.000    0.600    0.000    3.600 
#    0.000    5.000    0.000    0.000    0.000    2.800 
#    0.000    0.000    0.000    0.000    0.000    0.000 
#
# Total GULP energy -495843.207025 kJ/mol
# GULP energy per Si atom -12396.080176 kJ/mol
# Density = 1.890797 g / cm^3
# Si number density = 18.951101 Si / 1000 Ang^3
#
#
#
# Elastic Constant Matrix: (Units=GPa)
#
#
# Indices 1 2 3 4 5 6 
#
# 1 51.6415 21.1565 45.8525 0.0000 0.0000 0.0000
# 2 21.1565 102.3228 80.9882 0.0000 0.0000 0.0000
# 3 45.8525 80.9882 196.9516 0.0000 0.0000 0.0000
# 4 0.0000 0.0000 0.0000 15.6713 0.0000 0.0000
# 5 0.0000 0.0000 0.0000 0.0000 20.7190 0.0000
# 6 0.0000 0.0000 0.0000 0.0000 0.0000 6.0810
#
#
#
# Elastic Compliance Matrix: (Units=1/GPa)
#
#
# Indices 1 2 3 4 5 6 
#
# 1 0.024456 -0.000816 -0.005358 0.000000 0.000000 0.000000
# 2 -0.000816 0.014516 -0.005779 0.000000 0.000000 0.000000
# 3 -0.005358 -0.005779 0.008701 0.000000 0.000000 0.000000
# 4 0.000000 0.000000 0.000000 0.063811 0.000000 0.000000
# 5 0.000000 0.000000 0.000000 0.000000 0.048265 0.000000
# 6 0.000000 0.000000 0.000000 0.000000 0.000000 0.164448
#
#
# Mechanical properties :
#
#
# Convention : Reuss Voigt Hill
#
# Bulk Modulus (GPa) = 42.07480 71.87893 56.97686
# Shear Modulus (GPa) = 14.04396 22.02217 18.03307
#
# Velocity S-wave (km/s) = 2.72520 3.41259 3.08808
# Velocity P-wave (km/s) = 5.67030 7.31701 6.54564
#
# Compressibility (1/GPa) = 0.02376719
#
# Stress axis : x y z
#
# Youngs Moduli (GPa) = 40.88975 68.89047 114.92536
#
# Poissons Ratio (x) = 0.05618 0.61580
# Poissons Ratio (y) = 0.03335 0.66417
# Poissons Ratio (z) = 0.21910 0.39813
#
# Static dielectric constant tensor:
#      x y z
#    x 3.134030 0.000000 0.000000 
#    y 0.000000 3.383840 0.000000 
#    z 0.000000 0.000000 3.699470 
# 
# 
# High freq. dielectric constant tensor:
#      x y z
#    x 1.680600 0.000000 0.000000 
#    y 0.000000 1.733380 0.000000 
#    z 0.000000 0.000000 1.739550 
# 
# From -- ./inp_files/36065.got.cif
#   From: 2010.03.12/outbox.cif.g09.slc.cpg/sg51_19_cif.got.tgz:36065.got - 2010.04.16 13:43:02.
