data_PCOD8214240
_publ_section_title
;
Structure prediction by ZEFSAII (Michael W. Deem and Ramdas Pophale) SiO2 
 PCOD8214240
Probable space group: P M M A
;
_chemical_formula_sum "Si O2"
_cell_formula_units_Z 40
_cell_length_a 19.441995
_cell_length_b 9.754246
_cell_length_c 10.390020
_cell_angle_alpha 90.000000
_cell_angle_beta 90.000000
_cell_angle_gamma 90.000000
_cell_volume 1970.384193
_symmetry_space_group_name_H-M "P M M A"
_symmetry_group_IT_number 51
_symmetry_cell_setting 'orthorhombic'
loop_
_space_group_symop_operation_xyz
x,y,z
1/2-x,-y,z
1/2+x,-y,-z
-x,y,-z
-x,-y,-z
1/2+x,y,-z
1/2-x,y,z
x,-y,z
loop_
_atom_site_type_symbol
_atom_site_label
_atom_site_fract_x
_atom_site_fract_y
_atom_site_fract_z
Si Si1 0.327619 0.656595 0.497772
Si Si2 0.963809 0.656991 0.633040
Si Si3 0.961774 0.839770 0.868576
Si Si4 0.325335 0.837740 0.006946
Si Si5 0.331424 0.151551 0.725250
O O1 0.250000 0.700550 0.455308
O O2 0.327988 0.500000 0.545216
O O3 0.381023 0.676706 0.380852
O O4 0.357208 0.745281 0.616017
O O5 0.981969 0.500000 0.667331
O O6 0.991030 0.753612 0.748341
O O7 0.000000 0.700165 0.500000
O O8 0.881462 0.797986 0.886276
O O9 0.971234 0.000000 0.837383
O O10 0.000000 0.800356 0.000000
O O11 0.250000 0.774856 0.042266
O O12 0.318554 0.000000 0.996609
O O13 0.351913 0.788993 0.865833
O O14 0.250000 0.140364 0.719766
O O15 0.363792 0.000000 0.701700
#
# Coordination Sequence:
#
# PCOD8214240 Si02
#       5
#     8   8   8   8   8
#     4   9  18  33  53  77 106 138 176 225 270 308
#     4  10  23  41  57  77 109 149 185 218 268 331
#     4  10  22  38  57  84 112 140 180 229 274 317
#     4   8  15  30  52  78 110 143 173 214 270 324
#     4   8  14  26  48  78 107 137 172 210 260 321
#
# _framework density 20.300611
#
# number of rings (size 3 to 8) (size 9 to 14) (size 15 to 20)
#    0.000    3.000    0.000    1.200    2.800    2.400 
#    0.000    1.000    0.000    1.200    0.000    0.000 
#    0.000    0.000    0.000    0.000    0.000    0.000 
#
# Total GULP energy -495711.840968 kJ/mol
# GULP energy per Si atom -12392.796024 kJ/mol
# Density = 2.025441 g / cm^3
# Si number density = 20.300611 Si / 1000 Ang^3
#
#
#
# Elastic Constant Matrix: (Units=GPa)
#
#
# Indices 1 2 3 4 5 6 
#
# 1 66.4391 24.6624 36.4756 0.0000 0.0000 0.0000
# 2 24.6624 69.5756 64.1124 0.0000 0.0000 0.0000
# 3 36.4756 64.1124 123.0963 0.0000 0.0000 0.0000
# 4 0.0000 0.0000 0.0000 26.7526 0.0000 0.0000
# 5 0.0000 0.0000 0.0000 0.0000 26.2751 0.0000
# 6 0.0000 0.0000 0.0000 0.0000 0.0000 17.0438
#
#
#
# Elastic Compliance Matrix: (Units=1/GPa)
#
#
# Indices 1 2 3 4 5 6 
#
# 1 0.018267 -0.002860 -0.003923 0.000000 0.000000 0.000000
# 2 -0.002860 0.028084 -0.013780 0.000000 0.000000 0.000000
# 3 -0.003923 -0.013780 0.016463 0.000000 0.000000 0.000000
# 4 0.000000 0.000000 0.000000 0.037380 0.000000 0.000000
# 5 0.000000 0.000000 0.000000 0.000000 0.038059 0.000000
# 6 0.000000 0.000000 0.000000 0.000000 0.000000 0.058672
#
#
# Mechanical properties :
#
#
# Convention : Reuss Voigt Hill
#
# Bulk Modulus (GPa) = 46.10713 56.62352 51.36533
# Shear Modulus (GPa) = 20.38482 22.93834 21.66158
#
# Velocity S-wave (km/s) = 3.17227 3.36510 3.27010
# Velocity P-wave (km/s) = 6.01491 6.56137 6.29408
#
# Compressibility (1/GPa) = 0.02168862
#
# Stress axis : x y z
#
# Youngs Moduli (GPa) = 54.74394 35.60702 60.74145
#
# Poissons Ratio (x) = 0.10183 0.23831
# Poissons Ratio (y) = 0.15656 0.83701
# Poissons Ratio (z) = 0.21478 0.49066
#
# Static dielectric constant tensor:
#      x y z
#    x 4.039200 0.000000 0.000000 
#    y 0.000000 3.549300 0.000000 
#    z 0.000000 0.000000 3.584530 
# 
# 
# High freq. dielectric constant tensor:
#      x y z
#    x 1.806080 0.000000 0.000000 
#    y 0.000000 1.758310 0.000000 
#    z 0.000000 0.000000 1.774570 
# 
# From -- ./inp_files/10638.got.cif
#   From: 2010.03.12/outbox.cif.g09.slc.cpg/sg51_6_cif.got.tgz:10638.got - 2010.04.16 13:43:02.
