data_PCOD8214309
_publ_section_title
;
Structure prediction by ZEFSAII (Michael W. Deem and Ramdas Pophale) SiO2 
 PCOD8214309
Probable space group: P M M A
;
_chemical_formula_sum "Si O2"
_cell_formula_units_Z 64
_cell_length_a 25.164538
_cell_length_b 9.084027
_cell_length_c 14.141771
_cell_angle_alpha 90.000000
_cell_angle_beta 90.000000
_cell_angle_gamma 90.000000
_cell_volume 3232.742987
_symmetry_space_group_name_H-M "P M M A"
_symmetry_group_IT_number 51
_symmetry_cell_setting 'orthorhombic'
loop_
_space_group_symop_operation_xyz
x,y,z
1/2-x,-y,z
1/2+x,-y,-z
-x,y,-z
-x,-y,-z
1/2+x,y,-z
1/2-x,y,z
x,-y,z
loop_
_atom_site_type_symbol
_atom_site_label
_atom_site_fract_x
_atom_site_fract_y
_atom_site_fract_z
Si Si1 0.188303 0.830346 0.201313
Si Si2 0.490171 0.166198 0.204700
Si Si3 0.188894 0.329299 0.776781
Si Si4 0.098636 0.326061 0.092039
Si Si5 0.689961 0.828424 0.583065
Si Si6 0.028301 0.168523 0.594509
Si Si7 0.365021 0.328926 0.584583
Si Si8 0.100246 0.171537 0.894379
O O1 0.250000 0.796433 0.183611
O O2 0.154922 0.726316 0.132954
O O3 0.172595 0.795915 0.309482
O O4 0.175519 0.000000 0.177934
O O5 0.449148 0.280205 0.160715
O O6 0.487546 0.182874 0.318101
O O7 0.550064 0.201039 0.172658
O O8 0.474136 0.000000 0.174454
O O9 0.250000 0.290060 0.797125
O O10 0.176675 0.500000 0.797813
O O11 0.177122 0.293001 0.667080
O O12 0.153344 0.231607 0.845708
O O13 0.099354 0.500000 0.081451
O O14 0.088488 0.254798 0.991028
O O15 0.750000 0.773165 0.566966
O O16 0.651277 0.743191 0.513871
O O17 0.685599 0.000000 0.560970
O O18 0.078731 0.267518 0.617716
O O19 0.000000 0.226785 0.500000
O O20 0.047087 0.000000 0.581565
O O21 0.370266 0.500000 0.565874
O O22 0.108591 0.000000 0.915186
#
# Coordination Sequence:
#
# PCOD8214309 Si02
#       8
#     8   8   8   8   8   8   8   8
#     4   9  20  41  65  88 118 158 204 252 299 349
#     4  10  22  42  65  90 121 158 203 252 298 353
#     4  10  22  40  61  88 125 166 203 246 307 369
#     4  12  26  40  62  93 124 158 197 243 307 376
#     4   9  19  36  59  85 114 153 200 245 287 341
#     4  10  22  40  62  89 121 161 203 246 298 353
#     4  11  22  36  58  88 126 162 197 244 300 364
#     4  11  23  42  66  90 117 153 204 258 304 351
#
# _framework density 19.797429999999999
#
# number of rings (size 3 to 8) (size 9 to 14) (size 15 to 20)
#    0.000    1.750    1.250    3.375    1.750    6.000 
#    0.000    1.250    0.000    0.000    0.000    0.000 
#    0.000    0.000    0.000    0.000    0.000    0.000 
#
# Total GULP energy -793895.364598 kJ/mol
# GULP energy per Si atom -12404.615072 kJ/mol
# Density = 1.975237 g / cm^3
# Si number density = 19.797430 Si / 1000 Ang^3
#
#
#
# Elastic Constant Matrix: (Units=GPa)
#
#
# Indices 1 2 3 4 5 6 
#
# 1 87.1328 40.3606 38.3517 0.0000 0.0000 0.0000
# 2 40.3606 87.0988 52.8166 0.0000 0.0000 0.0000
# 3 38.3517 52.8166 109.1351 0.0000 0.0000 0.0000
# 4 0.0000 0.0000 0.0000 28.0543 0.0000 0.0000
# 5 0.0000 0.0000 0.0000 0.0000 28.6683 0.0000
# 6 0.0000 0.0000 0.0000 0.0000 0.0000 29.5465
#
#
#
# Elastic Compliance Matrix: (Units=1/GPa)
#
#
# Indices 1 2 3 4 5 6 
#
# 1 0.015167 -0.005373 -0.002730 0.000000 0.000000 0.000000
# 2 -0.005373 0.018154 -0.006897 0.000000 0.000000 0.000000
# 3 -0.002730 -0.006897 0.013460 0.000000 0.000000 0.000000
# 4 0.000000 0.000000 0.000000 0.035645 0.000000 0.000000
# 5 0.000000 0.000000 0.000000 0.000000 0.034882 0.000000
# 6 0.000000 0.000000 0.000000 0.000000 0.000000 0.033845
#
#
# Mechanical properties :
#
#
# Convention : Reuss Voigt Hill
#
# Bulk Modulus (GPa) = 59.59189 60.71382 60.15286
# Shear Modulus (GPa) = 26.77432 27.37635 27.07534
#
# Velocity S-wave (km/s) = 3.68151 3.72267 3.70214
# Velocity P-wave (km/s) = 6.94532 7.01511 6.98030
#
# Compressibility (1/GPa) = 0.01678081
#
# Stress axis : x y z
#
# Youngs Moduli (GPa) = 65.93272 55.08563 74.29301
#
# Poissons Ratio (x) = 0.29597 0.20279
# Poissons Ratio (y) = 0.35425 0.51243
# Poissons Ratio (z) = 0.17997 0.37995
#
# Static dielectric constant tensor:
#      x y z
#    x 3.545410 0.000000 0.000000 
#    y 0.000000 3.529690 0.000000 
#    z 0.000000 0.000000 3.687250 
# 
# 
# High freq. dielectric constant tensor:
#      x y z
#    x 1.774910 0.000000 0.000000 
#    y 0.000000 1.765710 0.000000 
#    z 0.000000 0.000000 1.782520 
# 
# From -- ./inp_files/26225.got.cif
#   From: 2010.03.12/outbox.cif.g09.slc.cpg/sg51_14_cif.got.tgz:26225.got - 2010.04.16 13:43:02.
