data_PCOD8214315
_publ_section_title
;
Structure prediction by ZEFSAII (Michael W. Deem and Ramdas Pophale) SiO2 
 PCOD8214315
Probable space group: P M M A
;
_chemical_formula_sum "Si O2"
_cell_formula_units_Z 64
_cell_length_a 18.818608
_cell_length_b 18.068439
_cell_length_c 9.364247
_cell_angle_alpha 90.000000
_cell_angle_beta 90.000000
_cell_angle_gamma 90.000000
_cell_volume 3184.058147
_symmetry_space_group_name_H-M "P M M A"
_symmetry_group_IT_number 51
_symmetry_cell_setting 'orthorhombic'
loop_
_space_group_symop_operation_xyz
x,y,z
1/2-x,-y,z
1/2+x,-y,-z
-x,y,-z
-x,-y,-z
1/2+x,y,-z
1/2-x,y,z
x,-y,z
loop_
_atom_site_type_symbol
_atom_site_label
_atom_site_fract_x
_atom_site_fract_y
_atom_site_fract_z
Si Si1 0.066744 0.084067 0.602953
Si Si2 0.555122 0.413343 0.744172
Si Si3 0.420799 0.298186 0.487587
Si Si4 0.330152 0.584838 0.018535
Si Si5 0.915593 0.325622 0.193604
Si Si6 0.564316 0.162380 0.101086
Si Si7 0.166372 0.915749 0.101505
Si Si8 0.834155 0.836834 0.605070
O O1 0.050261 0.131620 0.742007
O O2 0.137366 0.114264 0.525999
O O3 0.000000 0.091755 0.500000
O O4 0.081060 0.000000 0.648330
O O5 0.541605 0.500000 0.720605
O O6 0.573616 0.376866 0.592149
O O7 0.620477 0.396770 0.847678
O O8 0.485661 0.376383 0.812884
O O9 0.500000 0.262634 0.500000
O O10 0.389638 0.310734 0.645092
O O11 0.370386 0.243828 0.398321
O O12 0.250000 0.604540 0.063929
O O13 0.337855 0.500000 0.972788
O O14 0.350985 0.632908 0.881894
O O15 0.930107 0.250469 0.108476
O O16 0.500000 0.138265 0.000000
O O17 0.635235 0.127233 0.034409
O O18 0.250000 0.914579 0.081900
O O19 0.143588 0.875281 0.247174
O O20 0.137837 0.000000 0.107804
O O21 0.750000 0.828596 0.589403
#
# Coordination Sequence:
#
# PCOD8214315 Si02
#       8
#     8   8   8   8   8   8   8   8
#     4  11  24  42  66  92 125 168 210 261 318 376
#     4  10  22  41  67  95 123 163 210 257 310 369
#     4  10  23  40  64  93 126 161 202 259 312 375
#     4  10  22  40  62  89 125 166 208 253 303 367
#     4  11  23  39  62  93 128 163 204 257 308 376
#     4  12  25  39  63  94 128 164 209 260 317 370
#     4  10  24  44  64  89 124 166 213 265 319 377
#     4  11  23  41  66  93 124 165 214 262 318 380
#
# _framework density 20.100134000000001
#
# number of rings (size 3 to 8) (size 9 to 14) (size 15 to 20)
#    0.000    1.375    1.250    3.375    7.000    8.500 
#    0.000    0.000    0.000    1.500    0.000    0.000 
#    0.000    0.000    0.000    0.000    0.000    0.000 
#
# Total GULP energy -793976.048865 kJ/mol
# GULP energy per Si atom -12405.875764 kJ/mol
# Density = 2.005439 g / cm^3
# Si number density = 20.100134 Si / 1000 Ang^3
#
#
#
# Elastic Constant Matrix: (Units=GPa)
#
#
# Indices 1 2 3 4 5 6 
#
# 1 82.2353 56.2674 42.0488 0.0000 0.0000 0.0000
# 2 56.2674 136.9018 47.9866 0.0000 0.0000 0.0000
# 3 42.0488 47.9866 105.1988 0.0000 0.0000 0.0000
# 4 0.0000 0.0000 0.0000 38.3582 0.0000 0.0000
# 5 0.0000 0.0000 0.0000 0.0000 31.1672 0.0000
# 6 0.0000 0.0000 0.0000 0.0000 0.0000 28.1161
#
#
#
# Elastic Compliance Matrix: (Units=1/GPa)
#
#
# Indices 1 2 3 4 5 6 
#
# 1 0.018702 -0.006031 -0.004725 0.000000 0.000000 0.000000
# 2 -0.006031 0.010639 -0.002443 0.000000 0.000000 0.000000
# 3 -0.004725 -0.002443 0.012508 0.000000 0.000000 0.000000
# 4 0.000000 0.000000 0.000000 0.026070 0.000000 0.000000
# 5 0.000000 0.000000 0.000000 0.000000 0.032085 0.000000
# 6 0.000000 0.000000 0.000000 0.000000 0.000000 0.035567
#
#
# Mechanical properties :
#
#
# Convention : Reuss Voigt Hill
#
# Bulk Modulus (GPa) = 64.70666 68.54904 66.62785
# Shear Modulus (GPa) = 29.91872 31.39716 30.65794
#
# Velocity S-wave (km/s) = 3.86227 3.95655 3.90969
# Velocity P-wave (km/s) = 7.22160 7.41958 7.32126
#
# Compressibility (1/GPa) = 0.01545436
#
# Stress axis : x y z
#
# Youngs Moduli (GPa) = 53.46911 93.99065 79.94580
#
# Poissons Ratio (x) = 0.56683 0.37771
# Poissons Ratio (y) = 0.32246 0.19528
# Poissons Ratio (z) = 0.25262 0.22958
#
# Static dielectric constant tensor:
#      x y z
#    x 3.635780 0.000000 0.000000 
#    y 0.000000 3.810830 0.000000 
#    z 0.000000 0.000000 3.762850 
# 
# 
# High freq. dielectric constant tensor:
#      x y z
#    x 1.779940 0.000000 0.000000 
#    y 0.000000 1.799230 0.000000 
#    z 0.000000 0.000000 1.792080 
# 
# From -- ./inp_files/10008.got.cif
#   From: 2010.03.12/outbox.cif.g09.slc.cpg/sg51_6_cif.got.tgz:10008.got - 2010.04.16 13:43:02.
