data_PCOD8214746
_publ_section_title
;
Structure prediction by ZEFSAII (Michael W. Deem and Ramdas Pophale) SiO2 
 PCOD8214746
Probable space group: P M M A
;
_chemical_formula_sum "Si O2"
_cell_formula_units_Z 48
_cell_length_a 9.202068
_cell_length_b 13.926951
_cell_length_c 24.095813
_cell_angle_alpha 90.000000
_cell_angle_beta 90.000000
_cell_angle_gamma 90.000000
_cell_volume 3088.041086
_symmetry_space_group_name_H-M "P M M A"
_symmetry_group_IT_number 51
_symmetry_cell_setting 'orthorhombic'
loop_
_space_group_symop_operation_xyz
x,y,z
1/2-x,-y,z
1/2+x,-y,-z
-x,y,-z
-x,-y,-z
1/2+x,y,-z
1/2-x,y,z
x,-y,z
loop_
_atom_site_type_symbol
_atom_site_label
_atom_site_fract_x
_atom_site_fract_y
_atom_site_fract_z
Si Si1 0.914043 0.114273 0.446909
Si Si2 0.580140 0.111801 0.662178
Si Si3 0.578817 0.290526 0.944372
Si Si4 0.077384 0.105680 0.117956
Si Si5 0.577074 0.790877 0.773401
Si Si6 0.922627 0.605956 0.833442
O O1 0.750000 0.154411 0.447682
O O2 0.000000 0.155863 0.500000
O O3 0.993966 0.149566 0.391352
O O4 0.914050 0.000000 0.449172
O O5 0.750000 0.129874 0.651570
O O6 0.518648 0.172772 0.714176
O O7 0.550008 0.000000 0.674077
O O8 0.750000 0.297118 0.953905
O O9 0.529983 0.181571 0.929152
O O10 0.528133 0.360187 0.894609
O O11 0.500000 0.324391 0.000000
O O12 0.250000 0.102819 0.120963
O O13 0.018089 0.139334 0.178054
O O14 0.013844 0.000000 0.103952
O O15 0.750000 0.795181 0.772893
O O16 0.523294 0.681983 0.786746
O O17 0.750000 0.603098 0.832304
O O18 0.987550 0.500000 0.820964
#
# Coordination Sequence:
#
# PCOD8214746 Si02
#       6
#     8   8   8   8   8   8
#     4   9  16  25  36  51  75 108 141 166 186 211
#     4   9  15  22  35  56  79 101 126 157 189 219
#     4   9  17  27  39  56  75  95 122 154 187 225
#     4   8  13  22  36  53  73  97 124 154 186 219
#     4   8  13  21  35  55  75  95 123 156 187 223
#     4   8  14  25  40  57  76  96 119 152 192 228
#
# _framework density 15.543835
#
# number of rings (size 3 to 8) (size 9 to 14) (size 15 to 20)
#    0.000    3.500    0.000    3.000    0.000    4.667 
#    0.000    0.000    0.000    4.000    0.000    0.000 
#    0.000    0.667    0.000    1.167    0.000    1.667 
#
# Total GULP energy -594805.474303 kJ/mol
# GULP energy per Si atom -12391.780715 kJ/mol
# Density = 1.550846 g / cm^3
# Si number density = 15.543835 Si / 1000 Ang^3
#
#
#
# Elastic Constant Matrix: (Units=GPa)
#
#
# Indices 1 2 3 4 5 6 
#
# 1 36.8899 13.1227 35.4967 0.0000 0.0000 0.0000
# 2 13.1227 86.6046 37.6450 0.0000 0.0000 0.0000
# 3 35.4967 37.6450 125.0212 0.0000 0.0000 0.0000
# 4 0.0000 0.0000 0.0000 15.4755 0.0000 0.0000
# 5 0.0000 0.0000 0.0000 0.0000 21.8185 0.0000
# 6 0.0000 0.0000 0.0000 0.0000 0.0000 5.7931
#
#
#
# Elastic Compliance Matrix: (Units=1/GPa)
#
#
# Indices 1 2 3 4 5 6 
#
# 1 0.037407 -0.001210 -0.010257 0.000000 0.000000 0.000000
# 2 -0.001210 0.013325 -0.003669 0.000000 0.000000 0.000000
# 3 -0.010257 -0.003669 0.012015 0.000000 0.000000 0.000000
# 4 0.000000 0.000000 0.000000 0.064618 0.000000 0.000000
# 5 0.000000 0.000000 0.000000 0.000000 0.045833 0.000000
# 6 0.000000 0.000000 0.000000 0.000000 0.000000 0.172619
#
#
# Mechanical properties :
#
#
# Convention : Reuss Voigt Hill
#
# Bulk Modulus (GPa) = 30.79076 46.78272 38.78674
# Shear Modulus (GPa) = 12.92279 19.43417 16.17848
#
# Velocity S-wave (km/s) = 2.88649 3.53977 3.22969
# Velocity P-wave (km/s) = 5.56427 6.84611 6.23820
#
# Compressibility (1/GPa) = 0.03247728
#
# Stress axis : x y z
#
# Youngs Moduli (GPa) = 26.73273 75.04837 83.22622
#
# Poissons Ratio (x) = 0.09079 0.85362
# Poissons Ratio (y) = 0.03234 0.30533
# Poissons Ratio (z) = 0.27419 0.27533
#
# Static dielectric constant tensor:
#      x y z
#    x 2.562170 0.000000 0.000000 
#    y 0.000000 3.137590 0.000000 
#    z 0.000000 0.000000 3.066560 
# 
# 
# High freq. dielectric constant tensor:
#      x y z
#    x 1.550870 0.000000 0.000000 
#    y 0.000000 1.569050 0.000000 
#    z 0.000000 0.000000 1.595930 
# 
# From -- ./inp_files/34642.got.cif
#   From: 2010.03.12/outbox.cif.g09.slc.cpg/sg51_18_cif.got.tgz:34642.got - 2010.04.16 13:43:02.
