data_PCOD8214961
_publ_section_title
;
Structure prediction by ZEFSAII (Michael W. Deem and Ramdas Pophale) SiO2 
 PCOD8214961
Probable space group: P N N A
;
_chemical_formula_sum "Si O2"
_cell_formula_units_Z 52
_cell_length_a 9.591304
_cell_length_b 19.253506
_cell_length_c 16.427937
_cell_angle_alpha 90.000000
_cell_angle_beta 90.000000
_cell_angle_gamma 90.000000
_cell_volume 3033.685178
_symmetry_space_group_name_H-M "P N N A"
_symmetry_group_IT_number 52
_symmetry_cell_setting 'orthorhombic'
loop_
_space_group_symop_operation_xyz
x,y,z
1/2-x,-y,z
x,1/2-y,1/2-z
1/2-x,1/2+y,1/2-z
-x,-y,-z
1/2+x,y,-z
-x,1/2+y,1/2+z
1/2+x,1/2-y,1/2+z
loop_
_atom_site_type_symbol
_atom_site_label
_atom_site_fract_x
_atom_site_fract_y
_atom_site_fract_z
Si Si1 0.254225 0.422950 0.273135
Si Si2 0.266494 0.642524 0.865439
Si Si3 0.160070 0.715114 0.331556
Si Si4 0.462074 0.589779 0.139486
Si Si5 0.951581 0.066595 0.622291
Si Si6 0.892602 0.750000 0.250000
Si Si7 0.255040 0.328138 0.044385
O O1 0.250000 0.500000 0.313191
O O2 0.283036 0.363882 0.340890
O O3 0.108254 0.408067 0.228423
O O4 0.379211 0.416164 0.208135
O O5 0.386622 0.585096 0.872235
O O6 0.293397 0.693081 0.790004
O O7 0.123906 0.603026 0.847449
O O8 0.259457 0.686849 0.948818
O O9 0.228394 0.750000 0.250000
O O10 0.201515 0.756800 0.412065
O O11 0.991790 0.716729 0.320490
O O12 0.435657 0.514089 0.099423
O O13 0.392769 0.646043 0.079805
O O14 0.873665 0.112606 0.554395
#
# Coordination Sequence:
#
# PCOD8214961 Si02
#       7
#     8   8   8   8   8   4   8
#     4   9  17  33  56  77  98 136 186 215 255 318
#     4  12  22  32  48  78 105 140 180 217 262 311
#     4  10  16  35  58  69  99 145 176 216 252 327
#     4  10  21  29  49  76 111 136 170 222 246 309
#     4  10  18  35  47  72 110 149 169 194 267 326
#     4  10  20  36  54  68 106 146 180 208 270 324
#     4  11  21  33  52  75 103 141 188 211 251 313
#
# _framework density 17.140868999999999
#
# number of rings (size 3 to 8) (size 9 to 14) (size 15 to 20)
#    0.462    1.231    6.154    2.769    0.000    4.923 
#    0.000    0.000    0.000    0.000    0.000    3.231 
#    0.000    0.000    0.000    0.000    0.000    0.000 
#
# Total GULP energy -644697.254053 kJ/mol
# GULP energy per Si atom -12398.024116 kJ/mol
# Density = 1.710186 g / cm^3
# Si number density = 17.140869 Si / 1000 Ang^3
#
#
#
# Elastic Constant Matrix: (Units=GPa)
#
#
# Indices 1 2 3 4 5 6 
#
# 1 115.9615 29.9080 18.6221 0.0000 0.0000 0.0000
# 2 29.9080 101.9392 38.1672 0.0000 0.0000 0.0000
# 3 18.6221 38.1672 51.8066 0.0000 0.0000 0.0000
# 4 0.0000 0.0000 0.0000 17.9809 0.0000 0.0000
# 5 0.0000 0.0000 0.0000 0.0000 10.2578 0.0000
# 6 0.0000 0.0000 0.0000 0.0000 0.0000 28.4478
#
#
#
# Elastic Compliance Matrix: (Units=1/GPa)
#
#
# Indices 1 2 3 4 5 6 
#
# 1 0.009459 -0.002074 -0.001872 0.000000 0.000000 0.000000
# 2 -0.002074 0.014001 -0.009569 0.000000 0.000000 0.000000
# 3 -0.001872 -0.009569 0.027025 0.000000 0.000000 0.000000
# 4 0.000000 0.000000 0.000000 0.055614 0.000000 0.000000
# 5 0.000000 0.000000 0.000000 0.000000 0.097487 0.000000
# 6 0.000000 0.000000 0.000000 0.000000 0.000000 0.035152
#
#
# Mechanical properties :
#
#
# Convention : Reuss Voigt Hill
#
# Bulk Modulus (GPa) = 42.63579 49.23356 45.93467
# Shear Modulus (GPa) = 18.27562 23.53799 20.90680
#
# Velocity S-wave (km/s) = 3.26882 3.70970 3.49622
# Velocity P-wave (km/s) = 6.25896 6.86545 6.56921
#
# Compressibility (1/GPa) = 0.02345448
#
# Stress axis : x y z
#
# Youngs Moduli (GPa) = 105.71758 71.42207 37.00215
#
# Poissons Ratio (x) = 0.14816 0.06926
# Poissons Ratio (y) = 0.21930 0.35409
# Poissons Ratio (z) = 0.19789 0.68347
#
# Static dielectric constant tensor:
#      x y z
#    x 3.270400 0.000000 0.000000 
#    y 0.000000 3.193180 0.000000 
#    z 0.000000 0.000000 2.785240 
# 
# 
# High freq. dielectric constant tensor:
#      x y z
#    x 1.668730 0.000000 0.000000 
#    y 0.000000 1.655300 0.000000 
#    z 0.000000 0.000000 1.613350 
# 
# From -- ./inp_files/24908.got.cif
#   From: 2010.06.25/outbox.cif.g09.slc.cpg/sg52_13_cif.got.tgz:24908.got - 2010.06.26 19:32:48.
