data_PCOD8214278
_publ_section_title
;
Structure prediction by ZEFSAII (Michael W. Deem and Ramdas Pophale) SiO2 
 PCOD8214278
Probable space group: P M M A
;
_chemical_formula_sum "Si O2"
_cell_formula_units_Z 40
_cell_length_a 15.750370
_cell_length_b 9.138538
_cell_length_c 13.398212
_cell_angle_alpha 90.000000
_cell_angle_beta 90.000000
_cell_angle_gamma 90.000000
_cell_volume 1928.476397
_symmetry_space_group_name_H-M "P M M A"
_symmetry_group_IT_number 51
_symmetry_cell_setting 'orthorhombic'
loop_
_space_group_symop_operation_xyz
x,y,z
1/2-x,-y,z
1/2+x,-y,-z
-x,y,-z
-x,-y,-z
1/2+x,y,-z
1/2-x,y,z
x,-y,z
loop_
_atom_site_type_symbol
_atom_site_label
_atom_site_fract_x
_atom_site_fract_y
_atom_site_fract_z
Si Si1 0.250000 0.835103 0.810056
Si Si2 0.384808 0.665399 0.929246
Si Si3 0.348401 0.829988 0.130350
Si Si4 0.517481 0.663995 0.768321
Si Si5 0.077494 0.671406 0.572484
Si Si6 0.250000 0.834496 0.574602
O O1 0.330968 0.748719 0.847035
O O2 0.250000 0.836129 0.692619
O O3 0.250000 0.000000 0.853976
O O4 0.351642 0.500000 0.946222
O O5 0.477899 0.663364 0.880020
O O6 0.381489 0.750800 0.031933
O O7 0.250000 0.797236 0.148516
O O8 0.399863 0.767800 0.225793
O O9 0.367414 0.000000 0.118484
O O10 0.546942 0.500000 0.739321
O O11 0.451736 0.719603 0.683919
O O12 0.098564 0.500000 0.568220
O O13 0.163501 0.754508 0.538765
O O14 0.000000 0.713900 0.500000
O O15 0.250000 0.000000 0.531851
#
# Coordination Sequence:
#
# PCOD8214278 Si02
#       6
#     4   8   8   8   8   4
#     4  11  21  33  55  88 121 156 197 241 294 354
#     4  11  21  35  59  87 117 156 199 250 297 345
#     4  11  24  39  55  81 120 165 205 245 296 361
#     4  10  22  39  60  88 117 152 201 251 302 358
#     4  10  22  43  69  95 124 159 205 259 310 365
#     4  11  23  39  65  96 127 162 199 249 316 376
#
# _framework density 20.741762000000001
#
# number of rings (size 3 to 8) (size 9 to 14) (size 15 to 20)
#    0.000    1.400    3.000    2.400    0.000    7.200 
#    1.800    0.000    0.000    0.000    0.000    0.000 
#    0.000    0.000    0.000    0.000    0.000    0.000 
#
# Total GULP energy -495926.108507 kJ/mol
# GULP energy per Si atom -12398.152713 kJ/mol
# Density = 2.069455 g / cm^3
# Si number density = 20.741762 Si / 1000 Ang^3
#
#
#
# Elastic Constant Matrix: (Units=GPa)
#
#
# Indices 1 2 3 4 5 6 
#
# 1 141.0931 77.5010 46.8299 0.0000 0.0000 0.0000
# 2 77.5010 119.5010 38.3035 0.0000 0.0000 0.0000
# 3 46.8299 38.3035 42.5183 0.0000 0.0000 0.0000
# 4 0.0000 0.0000 0.0000 23.4032 0.0000 0.0000
# 5 0.0000 0.0000 0.0000 0.0000 18.0636 0.0000
# 6 0.0000 0.0000 0.0000 0.0000 0.0000 40.5961
#
#
#
# Elastic Compliance Matrix: (Units=1/GPa)
#
#
# Indices 1 2 3 4 5 6 
#
# 1 0.013361 -0.005551 -0.009715 0.000000 0.000000 0.000000
# 2 -0.005551 0.014072 -0.006563 0.000000 0.000000 0.000000
# 3 -0.009715 -0.006563 0.040132 0.000000 0.000000 0.000000
# 4 0.000000 0.000000 0.000000 0.042729 0.000000 0.000000
# 5 0.000000 0.000000 0.000000 0.000000 0.055360 0.000000
# 6 0.000000 0.000000 0.000000 0.000000 0.000000 0.024633
#
#
# Mechanical properties :
#
#
# Convention : Reuss Voigt Hill
#
# Bulk Modulus (GPa) = 41.82954 69.82011 55.82482
# Shear Modulus (GPa) = 20.66844 25.77778 23.22311
#
# Velocity S-wave (km/s) = 3.16011 3.52916 3.34972
# Velocity P-wave (km/s) = 5.79013 7.09516 6.47560
#
# Compressibility (1/GPa) = 0.02390655
#
# Stress axis : x y z
#
# Youngs Moduli (GPa) = 74.84256 71.06340 24.91790
#
# Poissons Ratio (x) = 0.39450 0.24208
# Poissons Ratio (y) = 0.41548 0.16353
# Poissons Ratio (z) = 0.72711 0.46637
#
# Static dielectric constant tensor:
#      x y z
#    x 3.862320 0.000000 0.000000 
#    y 0.000000 3.937890 0.000000 
#    z 0.000000 0.000000 3.561640 
# 
# 
# High freq. dielectric constant tensor:
#      x y z
#    x 1.819400 0.000000 0.000000 
#    y 0.000000 1.813680 0.000000 
#    z 0.000000 0.000000 1.794620 
# 
# From -- ./inp_files/23727.got.cif
#   From: 2010.03.12/outbox.cif.g09.slc.cpg/sg51_12_cif.got.tgz:23727.got - 2010.04.16 13:43:02.
