data_PCOD8214341
_publ_section_title
;
Structure prediction by ZEFSAII (Michael W. Deem and Ramdas Pophale) SiO2 
 PCOD8214341
Probable space group: P M M A
;
_chemical_formula_sum "Si O2"
_cell_formula_units_Z 40
_cell_length_a 8.636547
_cell_length_b 15.488630
_cell_length_c 14.486390
_cell_angle_alpha 90.000000
_cell_angle_beta 90.000000
_cell_angle_gamma 90.000000
_cell_volume 1937.819488
_symmetry_space_group_name_H-M "P M M A"
_symmetry_group_IT_number 51
_symmetry_cell_setting 'orthorhombic'
loop_
_space_group_symop_operation_xyz
x,y,z
1/2-x,-y,z
1/2+x,-y,-z
-x,y,-z
-x,-y,-z
1/2+x,y,-z
1/2-x,y,z
x,-y,z
loop_
_atom_site_type_symbol
_atom_site_label
_atom_site_fract_x
_atom_site_fract_y
_atom_site_fract_z
Si Si1 0.071405 0.095910 0.272559
Si Si2 0.567815 0.159933 0.094174
Si Si3 0.932436 0.747958 0.601154
Si Si4 0.433283 0.651774 0.096402
Si Si5 0.072650 0.403097 0.719090
O O1 0.250000 0.114788 0.247825
O O2 0.008374 0.167194 0.344215
O O3 0.970931 0.097908 0.179220
O O4 0.051636 0.000000 0.315717
O O5 0.750000 0.174012 0.083785
O O6 0.484929 0.250446 0.113580
O O7 0.500000 0.118746 0.000000
O O8 0.750000 0.748054 0.593865
O O9 0.000000 0.751168 0.500000
O O10 0.983599 0.660995 0.651622
O O11 0.250000 0.645676 0.094275
O O12 0.498160 0.594862 0.179551
O O13 0.500000 0.615755 0.000000
O O14 0.250000 0.372783 0.726214
O O15 0.059923 0.500000 0.678505
#
# Coordination Sequence:
#
# PCOD8214341 Si02
#       5
#     8   8   8   8   8
#     4  10  22  41  64  92 126 164 207 255 308 368
#     4  11  21  35  59  89 125 167 211 255 304 362
#     4  11  24  43  68  93 123 162 204 257 315 371
#     4  11  21  36  60  90 126 168 210 253 304 363
#     4  11  24  42  65  94 127 163 206 257 310 368
#
# _framework density 20.641756999999998
#
# number of rings (size 3 to 8) (size 9 to 14) (size 15 to 20)
#    0.000    1.200    2.000    6.000    0.000    4.400 
#    0.000    0.000    0.000    0.000    0.000    0.000 
#    0.000    0.000    0.000    0.000    0.000    0.000 
#
# Total GULP energy -496147.869319 kJ/mol
# GULP energy per Si atom -12403.696733 kJ/mol
# Density = 2.059478 g / cm^3
# Si number density = 20.641757 Si / 1000 Ang^3
#
#
#
# Elastic Constant Matrix: (Units=GPa)
#
#
# Indices 1 2 3 4 5 6 
#
# 1 76.0539 23.0620 35.5901 0.0000 0.0000 0.0000
# 2 23.0620 109.8055 60.6719 0.0000 0.0000 0.0000
# 3 35.5901 60.6719 150.9196 0.0000 0.0000 0.0000
# 4 0.0000 0.0000 0.0000 13.6880 0.0000 0.0000
# 5 0.0000 0.0000 0.0000 0.0000 38.0901 0.0000
# 6 0.0000 0.0000 0.0000 0.0000 0.0000 25.5129
#
#
#
# Elastic Compliance Matrix: (Units=1/GPa)
#
#
# Indices 1 2 3 4 5 6 
#
# 1 0.014978 -0.001535 -0.002915 0.000000 0.000000 0.000000
# 2 -0.001535 0.011865 -0.004408 0.000000 0.000000 0.000000
# 3 -0.002915 -0.004408 0.009085 0.000000 0.000000 0.000000
# 4 0.000000 0.000000 0.000000 0.073057 0.000000 0.000000
# 5 0.000000 0.000000 0.000000 0.000000 0.026254 0.000000
# 6 0.000000 0.000000 0.000000 0.000000 0.000000 0.039196
#
#
# Mechanical properties :
#
#
# Convention : Reuss Voigt Hill
#
# Bulk Modulus (GPa) = 54.90716 63.93635 59.42175
# Shear Modulus (GPa) = 25.22426 29.95520 27.58973
#
# Velocity S-wave (km/s) = 3.49951 3.81359 3.65992
# Velocity P-wave (km/s) = 6.55641 7.10160 6.83445
#
# Compressibility (1/GPa) = 0.01821256
#
# Stress axis : x y z
#
# Youngs Moduli (GPa) = 66.76377 84.28183 110.06550
#
# Poissons Ratio (x) = 0.12938 0.32084
# Poissons Ratio (y) = 0.10249 0.48515
# Poissons Ratio (z) = 0.19462 0.37150
#
# Static dielectric constant tensor:
#      x y z
#    x 3.802660 0.000000 0.000000 
#    y 0.000000 3.699340 0.000000 
#    z 0.000000 0.000000 3.956230 
# 
# 
# High freq. dielectric constant tensor:
#      x y z
#    x 1.818220 0.000000 0.000000 
#    y 0.000000 1.806030 0.000000 
#    z 0.000000 0.000000 1.805120 
# 
# From -- ./inp_files/20461.got.cif
#   From: 2010.03.12/outbox.cif.g09.slc.cpg/sg51_11_cif.got.tgz:20461.got - 2010.04.16 13:43:02.
