data_PCOD8214531
_publ_section_title
;
Structure prediction by ZEFSAII (Michael W. Deem and Ramdas Pophale) SiO2 
 PCOD8214531
Probable space group: P M M A
;
_chemical_formula_sum "Si O2"
_cell_formula_units_Z 64
_cell_length_a 9.252409
_cell_length_b 19.212756
_cell_length_c 23.602746
_cell_angle_alpha 90.000000
_cell_angle_beta 90.000000
_cell_angle_gamma 90.000000
_cell_volume 4195.725067
_symmetry_space_group_name_H-M "P M M A"
_symmetry_group_IT_number 51
_symmetry_cell_setting 'orthorhombic'
loop_
_space_group_symop_operation_xyz
x,y,z
1/2-x,-y,z
1/2+x,-y,-z
-x,y,-z
-x,-y,-z
1/2+x,y,-z
1/2-x,y,z
x,-y,z
loop_
_atom_site_type_symbol
_atom_site_label
_atom_site_fract_x
_atom_site_fract_y
_atom_site_fract_z
Si Si1 0.580201 0.702365 0.943504
Si Si2 0.915902 0.213727 0.834269
Si Si3 0.920938 0.425661 0.243405
Si Si4 0.579577 0.855668 0.328214
Si Si5 0.581495 0.919535 0.444608
Si Si6 0.083148 0.420559 0.885964
Si Si7 0.420000 0.720928 0.732958
Si Si8 0.583318 0.077602 0.773640
O O1 0.750000 0.693218 0.954773
O O2 0.548489 0.763535 0.898105
O O3 0.517367 0.628342 0.923870
O O4 0.500000 0.727216 0.000000
O O5 0.750000 0.229733 0.819441
O O6 0.950987 0.131662 0.824607
O O7 0.011976 0.258875 0.792496
O O8 0.750000 0.431973 0.244394
O O9 0.985465 0.500000 0.266072
O O10 0.970020 0.413694 0.178812
O O11 0.970458 0.358753 0.281163
O O12 0.750000 0.867609 0.323367
O O13 0.525300 0.875582 0.390801
O O14 0.535162 0.774918 0.316509
O O15 0.507701 0.905531 0.282250
O O16 0.500000 0.891367 0.500000
O O17 0.750000 0.908175 0.454985
O O18 0.544121 0.000000 0.433255
O O19 0.250000 0.397335 0.892287
O O20 0.063552 0.500000 0.906755
O O21 0.250000 0.723358 0.742542
O O22 0.750000 0.082532 0.755669
O O23 0.543402 0.000000 0.794908
#
# Coordination Sequence:
#
# PCOD8214531 Si02
#       8
#     8   8   8   8   8   8   8   8
#     4  11  22  33  46  61  80 106 136 171 206 244
#     4   9  18  31  44  61  83 104 130 165 204 244
#     4   8  13  22  39  62  85 108 133 160 193 238
#     4   9  17  27  41  64  90 113 138 173 209 240
#     4   9  17  28  40  55  81 116 149 177 203 234
#     4   9  17  30  47  64  83 107 135 167 200 238
#     4   9  15  25  44  64  83 109 136 163 203 248
#     4   9  17  29  46  66  86 108 133 163 202 250
#
# _framework density 15.253621000000001
#
# number of rings (size 3 to 8) (size 9 to 14) (size 15 to 20)
#    0.000    2.875    1.250    1.500    0.000    2.250 
#    0.000    1.250    0.000    0.750    0.000    0.000 
#    0.000    0.500    0.000    0.375    0.000    0.875 
#
# Total GULP energy -793119.999140 kJ/mol
# GULP energy per Si atom -12392.499987 kJ/mol
# Density = 1.521890 g / cm^3
# Si number density = 15.253621 Si / 1000 Ang^3
#
#
#
# Elastic Constant Matrix: (Units=GPa)
#
#
# Indices 1 2 3 4 5 6 
#
# 1 36.3651 30.0170 33.0494 0.0000 0.0000 0.0000
# 2 30.0170 129.5533 61.7767 0.0000 0.0000 0.0000
# 3 33.0494 61.7767 91.7921 0.0000 0.0000 0.0000
# 4 0.0000 0.0000 0.0000 20.3516 0.0000 0.0000
# 5 0.0000 0.0000 0.0000 0.0000 19.6094 0.0000
# 6 0.0000 0.0000 0.0000 0.0000 0.0000 15.7528
#
#
#
# Elastic Compliance Matrix: (Units=1/GPa)
#
#
# Indices 1 2 3 4 5 6 
#
# 1 0.042054 -0.003716 -0.012640 0.000000 0.000000 0.000000
# 2 -0.003716 0.011695 -0.006533 0.000000 0.000000 0.000000
# 3 -0.012640 -0.006533 0.019842 0.000000 0.000000 0.000000
# 4 0.000000 0.000000 0.000000 0.049136 0.000000 0.000000
# 5 0.000000 0.000000 0.000000 0.000000 0.050996 0.000000
# 6 0.000000 0.000000 0.000000 0.000000 0.000000 0.063481
#
#
# Mechanical properties :
#
#
# Convention : Reuss Voigt Hill
#
# Bulk Modulus (GPa) = 35.95536 56.37742 46.16639
# Shear Modulus (GPa) = 17.10843 20.00060 18.55451
#
# Velocity S-wave (km/s) = 3.35266 3.62498 3.49148
# Velocity P-wave (km/s) = 6.21369 7.38654 6.82535
#
# Compressibility (1/GPa) = 0.02781226
#
# Stress axis : x y z
#
# Youngs Moduli (GPa) = 23.77875 85.50664 50.39844
#
# Poissons Ratio (x) = 0.31777 0.63706
# Poissons Ratio (y) = 0.08837 0.32924
# Poissons Ratio (z) = 0.30057 0.55859
#
# Static dielectric constant tensor:
#      x y z
#    x 2.853220 0.000000 0.000000 
#    y 0.000000 3.407390 0.000000 
#    z 0.000000 0.000000 2.781740 
# 
# 
# High freq. dielectric constant tensor:
#      x y z
#    x 1.576340 0.000000 0.000000 
#    y 0.000000 1.590030 0.000000 
#    z 0.000000 0.000000 1.549380 
# 
# From -- ./inp_files/35187.got.cif
#   From: 2010.03.12/outbox.cif.g09.slc.cpg/sg51_18_cif.got.tgz:35187.got - 2010.04.16 13:43:02.
