data_PCOD8214742
_publ_section_title
;
Structure prediction by ZEFSAII (Michael W. Deem and Ramdas Pophale) SiO2 
 PCOD8214742
Probable space group: P M M A
;
_chemical_formula_sum "Si O2"
_cell_formula_units_Z 48
_cell_length_a 9.849070
_cell_length_b 9.789982
_cell_length_c 30.793272
_cell_angle_alpha 90.000000
_cell_angle_beta 90.000000
_cell_angle_gamma 90.000000
_cell_volume 2969.155586
_symmetry_space_group_name_H-M "P M M A"
_symmetry_group_IT_number 51
_symmetry_cell_setting 'orthorhombic'
loop_
_space_group_symop_operation_xyz
x,y,z
1/2-x,-y,z
1/2+x,-y,-z
-x,y,-z
-x,-y,-z
1/2+x,y,-z
1/2-x,y,z
x,-y,z
loop_
_atom_site_type_symbol
_atom_site_label
_atom_site_fract_x
_atom_site_fract_y
_atom_site_fract_z
Si Si1 0.411802 0.348022 0.632504
Si Si2 0.598855 0.337156 0.463277
Si Si3 0.598982 0.837567 0.197893
Si Si4 0.593167 0.841382 0.878669
Si Si5 0.593663 0.342887 0.959827
Si Si6 0.911497 0.151975 0.293435
O O1 0.250000 0.352380 0.635006
O O2 0.470296 0.500000 0.640519
O O3 0.454097 0.293538 0.584633
O O4 0.473676 0.249327 0.669384
O O5 0.500000 0.275367 0.500000
O O6 0.750000 0.279105 0.471740
O O7 0.602285 0.500000 0.465410
O O8 0.750000 0.780363 0.187392
O O9 0.494320 0.785073 0.161681
O O10 0.549628 0.788981 0.245720
O O11 0.603881 0.000000 0.198625
O O12 0.750000 0.818859 0.866713
O O13 0.550480 0.753407 0.920216
O O14 0.562159 0.000000 0.888669
O O15 0.750000 0.318144 0.973022
O O16 0.569013 0.500000 0.946308
O O17 0.500000 0.300613 0.000000
O O18 0.750000 0.145899 0.296952
O O19 0.971877 0.000000 0.300210
#
# Coordination Sequence:
#
# PCOD8214742 Si02
#       6
#     8   8   8   8   8   8
#     4   8  13  21  34  53  75  96 121 157 196 228
#     4   8  13  21  34  52  72  95 124 156 190 229
#     4   8  14  25  41  61  83 105 130 162 198 232
#     4   9  17  29  45  64  84 106 134 166 197 231
#     4   9  18  32  47  62  83 111 138 163 195 235
#     4   8  13  22  37  55  74  98 128 158 188 227
#
# _framework density 16.166212999999999
#
# number of rings (size 3 to 8) (size 9 to 14) (size 15 to 20)
#    0.000    3.667    0.000    2.000    0.000    1.000 
#    0.000    0.833    0.000    2.500    0.000    0.000 
#    0.000    0.000    0.000    0.000    0.000    0.000 
#
# Total GULP energy -594860.988884 kJ/mol
# GULP energy per Si atom -12392.937268 kJ/mol
# Density = 1.612942 g / cm^3
# Si number density = 16.166213 Si / 1000 Ang^3
#
#
#
# Elastic Constant Matrix: (Units=GPa)
#
#
# Indices 1 2 3 4 5 6 
#
# 1 52.1478 26.2017 67.4769 0.0000 0.0000 0.0000
# 2 26.2017 50.4248 62.2102 0.0000 0.0000 0.0000
# 3 67.4769 62.2102 176.4197 0.0000 0.0000 0.0000
# 4 0.0000 0.0000 0.0000 27.3244 0.0000 0.0000
# 5 0.0000 0.0000 0.0000 0.0000 25.8287 0.0000
# 6 0.0000 0.0000 0.0000 0.0000 0.0000 10.6074
#
#
#
# Elastic Compliance Matrix: (Units=1/GPa)
#
#
# Indices 1 2 3 4 5 6 
#
# 1 0.038262 -0.003234 -0.013494 0.000000 0.000000 0.000000
# 2 -0.003234 0.035376 -0.011238 0.000000 0.000000 0.000000
# 3 -0.013494 -0.011238 0.014792 0.000000 0.000000 0.000000
# 4 0.000000 0.000000 0.000000 0.036597 0.000000 0.000000
# 5 0.000000 0.000000 0.000000 0.000000 0.038717 0.000000
# 6 0.000000 0.000000 0.000000 0.000000 0.000000 0.094274
#
#
# Mechanical properties :
#
#
# Convention : Reuss Voigt Hill
#
# Bulk Modulus (GPa) = 30.77000 65.64107 48.20554
# Shear Modulus (GPa) = 15.39497 20.95901 18.17699
#
# Velocity S-wave (km/s) = 3.08927 3.60456 3.35682
# Velocity P-wave (km/s) = 5.63912 7.61681 6.70132
#
# Compressibility (1/GPa) = 0.03249918
#
# Stress axis : x y z
#
# Youngs Moduli (GPa) = 26.13580 28.26778 67.60310
#
# Poissons Ratio (x) = 0.09141 0.91224
# Poissons Ratio (y) = 0.08451 0.75971
# Poissons Ratio (z) = 0.35268 0.31767
#
# Static dielectric constant tensor:
#      x y z
#    x 2.908900 0.000000 0.000000 
#    y 0.000000 2.924920 0.000000 
#    z 0.000000 0.000000 3.380630 
# 
# 
# High freq. dielectric constant tensor:
#      x y z
#    x 1.585350 0.000000 0.000000 
#    y 0.000000 1.586740 0.000000 
#    z 0.000000 0.000000 1.632880 
# 
# From -- ./inp_files/36141.got.cif
#   From: 2010.03.12/outbox.cif.g09.slc.cpg/sg51_19_cif.got.tgz:36141.got - 2010.04.16 13:43:02.
