data_PCOD8214893
_publ_section_title
;
Structure prediction by ZEFSAII (Michael W. Deem and Ramdas Pophale) SiO2 
 PCOD8214893
Probable space group: P M M A
;
_chemical_formula_sum "Si O2"
_cell_formula_units_Z 48
_cell_length_a 18.338666
_cell_length_b 9.627256
_cell_length_c 16.107874
_cell_angle_alpha 90.000000
_cell_angle_beta 90.000000
_cell_angle_gamma 90.000000
_cell_volume 2843.861783
_symmetry_space_group_name_H-M "P M M A"
_symmetry_group_IT_number 51
_symmetry_cell_setting 'orthorhombic'
loop_
_space_group_symop_operation_xyz
x,y,z
1/2-x,-y,z
1/2+x,-y,-z
-x,y,-z
-x,-y,-z
1/2+x,y,-z
1/2-x,y,z
x,-y,z
loop_
_atom_site_type_symbol
_atom_site_label
_atom_site_fract_x
_atom_site_fract_y
_atom_site_fract_z
Si Si1 0.335114 0.658732 0.506290
Si Si2 0.668055 0.159882 0.647967
Si Si3 0.166175 0.338589 0.845973
Si Si4 0.530497 0.158695 0.746771
Si Si5 0.459105 0.837961 0.917328
Si Si6 0.590759 0.661362 0.324377
O O1 0.250000 0.677031 0.521964
O O2 0.355433 0.500000 0.485967
O O3 0.361465 0.751766 0.429588
O O4 0.374022 0.710593 0.589680
O O5 0.750000 0.205587 0.673613
O O6 0.615705 0.186109 0.726994
O O7 0.666471 0.000000 0.620308
O O8 0.250000 0.296562 0.861156
O O9 0.152963 0.500000 0.866378
O O10 0.115565 0.247868 0.906834
O O11 0.146765 0.306152 0.750300
O O12 0.514955 0.195163 0.842484
O O13 0.483338 0.254055 0.686256
O O14 0.508987 0.000000 0.728178
O O15 0.438356 0.000000 0.921793
O O16 0.500000 0.788144 0.000000
O O17 0.570611 0.500000 0.326410
#
# Coordination Sequence:
#
# PCOD8214893 Si02
#       6
#     8   8   8   8   8   8
#     4   9  17  29  45  65  90 120 153 188 223 258
#     4   9  18  32  47  62  84 117 155 190 223 262
#     4   9  17  30  49  72  97 124 153 185 224 273
#     4   9  18  32  48  66  89 117 149 186 228 272
#     4   9  18  33  51  71  95 121 151 189 232 277
#     4   9  17  29  46  68  93 121 151 183 222 269
#
# _framework density 16.878457000000001
#
# number of rings (size 3 to 8) (size 9 to 14) (size 15 to 20)
#    0.000    3.000    0.000    0.500    0.000    4.667 
#    0.000    4.167    0.000    6.000    0.000    2.333 
#    0.000    0.000    0.000    0.000    0.000    0.000 
#
# Total GULP energy -595177.267840 kJ/mol
# GULP energy per Si atom -12399.526413 kJ/mol
# Density = 1.684004 g / cm^3
# Si number density = 16.878457 Si / 1000 Ang^3
#
#
#
# Elastic Constant Matrix: (Units=GPa)
#
#
# Indices 1 2 3 4 5 6 
#
# 1 116.1453 50.3904 68.8867 0.0000 0.0000 0.0000
# 2 50.3904 52.1608 42.9266 0.0000 0.0000 0.0000
# 3 68.8867 42.9266 97.9445 0.0000 0.0000 0.0000
# 4 0.0000 0.0000 0.0000 24.2352 0.0000 0.0000
# 5 0.0000 0.0000 0.0000 0.0000 27.5036 0.0000
# 6 0.0000 0.0000 0.0000 0.0000 0.0000 28.6693
#
#
#
# Elastic Compliance Matrix: (Units=1/GPa)
#
#
# Indices 1 2 3 4 5 6 
#
# 1 0.018031 -0.010922 -0.007895 0.000000 0.000000 0.000000
# 2 -0.010922 0.036603 -0.008361 0.000000 0.000000 0.000000
# 3 -0.007895 -0.008361 0.019427 0.000000 0.000000 0.000000
# 4 0.000000 0.000000 0.000000 0.041262 0.000000 0.000000
# 5 0.000000 0.000000 0.000000 0.000000 0.036359 0.000000
# 6 0.000000 0.000000 0.000000 0.000000 0.000000 0.034881
#
#
# Mechanical properties :
#
#
# Convention : Reuss Voigt Hill
#
# Bulk Modulus (GPa) = 50.74536 65.62865 58.18700
# Shear Modulus (GPa) = 20.20321 23.01809 21.61065
#
# Velocity S-wave (km/s) = 3.46350 3.69691 3.58211
# Velocity P-wave (km/s) = 6.79153 7.56243 7.18732
#
# Compressibility (1/GPa) = 0.01970623
#
# Stress axis : x y z
#
# Youngs Moduli (GPa) = 55.46057 27.32013 51.47539
#
# Poissons Ratio (x) = 0.29838 0.40639
# Poissons Ratio (y) = 0.60572 0.43037
# Poissons Ratio (z) = 0.43785 0.22842
#
# Static dielectric constant tensor:
#      x y z
#    x 3.183350 0.000000 0.000000 
#    y 0.000000 3.192760 0.000000 
#    z 0.000000 0.000000 3.112080 
# 
# 
# High freq. dielectric constant tensor:
#      x y z
#    x 1.648040 0.000000 0.000000 
#    y 0.000000 1.649120 0.000000 
#    z 0.000000 0.000000 1.637540 
# 
# From -- ./inp_files/24032.got.cif
#   From: 2010.03.12/outbox.cif.g09.slc.cpg/sg51_13_cif.got.tgz:24032.got - 2010.04.16 13:43:02.
