data_PCOD8214275
_publ_section_title
;
Structure prediction by ZEFSAII (Michael W. Deem and Ramdas Pophale) SiO2 
 PCOD8214275
Probable space group: P M M A
;
_chemical_formula_sum "Si O2"
_cell_formula_units_Z 48
_cell_length_a 9.598854
_cell_length_b 9.000250
_cell_length_c 28.597419
_cell_angle_alpha 90.000000
_cell_angle_beta 90.000000
_cell_angle_gamma 90.000000
_cell_volume 2470.590673
_symmetry_space_group_name_H-M "P M M A"
_symmetry_group_IT_number 51
_symmetry_cell_setting 'orthorhombic'
loop_
_space_group_symop_operation_xyz
x,y,z
1/2-x,-y,z
1/2+x,-y,-z
-x,y,-z
-x,-y,-z
1/2+x,y,-z
1/2-x,y,z
x,-y,z
loop_
_atom_site_type_symbol
_atom_site_label
_atom_site_fract_x
_atom_site_fract_y
_atom_site_fract_z
Si Si1 0.587558 0.325639 0.773814
Si Si2 0.250000 0.824663 0.430979
Si Si3 0.908980 0.674380 0.137858
Si Si4 0.750000 0.332113 0.472260
Si Si5 0.405255 0.828428 0.697141
Si Si6 0.090370 0.174354 0.956907
Si Si7 0.479274 0.672839 0.604158
O O1 0.750000 0.285251 0.778100
O O2 0.564704 0.500000 0.765463
O O3 0.509260 0.271934 0.820582
O O4 0.522125 0.238893 0.730590
O O5 0.250000 0.781031 0.485181
O O6 0.379862 0.760399 0.403447
O O7 0.250000 0.000000 0.427214
O O8 0.750000 0.722459 0.149304
O O9 0.919966 0.500000 0.130362
O O10 0.963105 0.750748 0.090626
O O11 0.750000 0.500000 0.492358
O O12 0.613717 0.304175 0.441634
O O13 0.250000 0.811567 0.719155
O O14 0.402312 0.740615 0.648610
O O15 0.441524 0.000000 0.687964
O O16 0.250000 0.217210 0.966811
O O17 0.069365 0.000000 0.950981
O O18 0.000000 0.236286 0.000000
O O19 0.509107 0.500000 0.613282
#
# Coordination Sequence:
#
# PCOD8214275 Si02
#       7
#     8   4   8   4   8   8   8
#     4  10  22  39  60  86 116 151 191 237 290 350
#     4  12  26  40  60  92 128 162 192 238 297 344
#     4   9  18  34  55  79 109 147 191 237 285 340
#     4  10  22  42  66  92 118 154 204 246 283 344
#     4  11  24  41  62  88 118 151 191 240 294 350
#     4   9  18  32  50  74 106 145 187 231 282 341
#     4  11  23  42  66  90 118 157 201 242 287 345
#
# _framework density 19.428550999999999
#
# number of rings (size 3 to 8) (size 9 to 14) (size 15 to 20)
#    0.000    1.833    0.833    2.750    1.167    7.000 
#    0.000    1.667    0.000    0.000    0.000    0.000 
#    0.000    0.000    0.000    0.000    0.000    0.000 
#
# Total GULP energy -595388.993390 kJ/mol
# GULP energy per Si atom -12403.937362 kJ/mol
# Density = 1.938433 g / cm^3
# Si number density = 19.428551 Si / 1000 Ang^3
#
#
#
# Elastic Constant Matrix: (Units=GPa)
#
#
# Indices 1 2 3 4 5 6 
#
# 1 112.9755 47.5713 46.2077 0.0000 0.0000 0.0000
# 2 47.5713 87.8254 45.2686 0.0000 0.0000 0.0000
# 3 46.2077 45.2686 108.6542 0.0000 0.0000 0.0000
# 4 0.0000 0.0000 0.0000 -54.5123 0.0000 0.0000
# 5 0.0000 0.0000 0.0000 0.0000 36.8775 0.0000
# 6 0.0000 0.0000 0.0000 0.0000 0.0000 21.0167
#
#
#
# Elastic Compliance Matrix: (Units=1/GPa)
#
#
# Indices 1 2 3 4 5 6 
#
# 1 0.012241 -0.005026 -0.003111 0.000000 0.000000 0.000000
# 2 -0.005026 0.016564 -0.004763 0.000000 0.000000 0.000000
# 3 -0.003111 -0.004763 0.012511 0.000000 0.000000 0.000000
# 4 0.000000 0.000000 0.000000 -0.018344 0.000000 0.000000
# 5 0.000000 0.000000 0.000000 0.000000 0.027117 0.000000
# 6 0.000000 0.000000 0.000000 0.000000 0.000000 0.047581
#
#
# Mechanical properties :
#
#
# Convention : Reuss Voigt Hill
#
# Bulk Modulus (GPa) = 64.46082 65.28337 64.87209
# Shear Modulus (GPa) = 38.86714 12.03689 25.45201
#
# Velocity S-wave (km/s) = 4.47757 2.49177 3.62336
# Velocity P-wave (km/s) = 7.74480 6.47713 7.13916
#
# Compressibility (1/GPa) = 0.01551330
#
# Stress axis : x y z
#
# Youngs Moduli (GPa) = 81.69533 60.37139 79.92758
#
# Poissons Ratio (x) = 0.30346 0.24869
# Poissons Ratio (y) = 0.41064 0.38073
# Poissons Ratio (z) = 0.25419 0.28758
#
# Static dielectric constant tensor:
#      x y z
#    x 3.666420 0.000000 0.000000 
#    y 0.000000 3.504700 0.000000 
#    z 0.000000 0.000000 3.586440 
# 
# 
# High freq. dielectric constant tensor:
#      x y z
#    x 1.764830 0.000000 0.000000 
#    y 0.000000 1.754420 0.000000 
#    z 0.000000 0.000000 1.760860 
# 
# From -- ./inp_files/37160.got.cif
#   From: 2010.03.12/outbox.cif.g09.slc.cpg/sg51_19_cif.got.tgz:37160.got - 2010.04.16 13:43:02.
