data_PCOD8214638
_publ_section_title
;
Structure prediction by ZEFSAII (Michael W. Deem and Ramdas Pophale) SiO2 
 PCOD8214638
Probable space group: P M M A
;
_chemical_formula_sum "Si O2"
_cell_formula_units_Z 48
_cell_length_a 9.977699
_cell_length_b 28.999160
_cell_length_c 8.954136
_cell_angle_alpha 90.000000
_cell_angle_beta 90.000000
_cell_angle_gamma 90.000000
_cell_volume 2590.833494
_symmetry_space_group_name_H-M "P M M A"
_symmetry_group_IT_number 51
_symmetry_cell_setting 'orthorhombic'
loop_
_space_group_symop_operation_xyz
x,y,z
1/2-x,-y,z
1/2+x,-y,-z
-x,y,-z
-x,-y,-z
1/2+x,y,-z
1/2-x,y,z
x,-y,z
loop_
_atom_site_type_symbol
_atom_site_label
_atom_site_fract_x
_atom_site_fract_y
_atom_site_fract_z
Si Si1 0.750000 0.944345 0.830138
Si Si2 0.097526 0.267295 0.635428
Si Si3 0.907753 0.186441 0.145435
Si Si4 0.402839 0.371948 0.632570
Si Si5 0.250000 0.947101 0.832112
Si Si6 0.992274 0.901674 0.321893
Si Si7 0.598742 0.550777 0.135513
O O1 0.625427 0.922467 0.746490
O O2 0.750000 0.000000 0.817941
O O3 0.750000 0.925033 0.001121
O O4 0.250000 0.260179 0.578395
O O5 0.069328 0.236120 0.779741
O O6 0.072859 0.319740 0.688939
O O7 0.000000 0.253586 0.500000
O O8 0.750000 0.178150 0.107320
O O9 0.959492 0.149365 0.264617
O O10 0.000000 0.183203 0.000000
O O11 0.500000 0.384235 0.500000
O O12 0.250000 0.378812 0.579936
O O13 0.443556 0.408174 0.757235
O O14 0.122702 0.935323 0.733847
O O15 0.250000 0.000000 0.867627
O O16 0.000000 0.900702 0.500000
O O17 0.750000 0.558222 0.077817
O O18 0.585454 0.500000 0.212224
O O19 0.500000 0.554259 0.000000
#
# Coordination Sequence:
#
# PCOD8214638 Si02
#       7
#     4   8   8   8   4   8   8
#     4  11  25  43  67  93 121 159 195 235 286 337
#     4   9  19  37  58  82 113 146 186 231 282 339
#     4  11  24  41  61  86 116 150 189 234 283 340
#     4   9  18  33  53  77 108 145 182 230 283 337
#     4  11  23  43  65  89 123 157 193 235 284 339
#     4  12  25  41  63  91 121 155 194 238 285 338
#     4   9  18  32  49  72 104 143 186 233 284 337
#
# _framework density 18.526857
#
# number of rings (size 3 to 8) (size 9 to 14) (size 15 to 20)
#    0.000    1.833    0.833    3.000    1.167    5.667 
#    0.000    0.000    0.000    0.000    0.000    0.000 
#    0.000    0.000    0.000    0.000    0.000    0.000 
#
# Total GULP energy -595086.690898 kJ/mol
# GULP energy per Si atom -12397.639394 kJ/mol
# Density = 1.848469 g / cm^3
# Si number density = 18.526857 Si / 1000 Ang^3
#
#
#
# Elastic Constant Matrix: (Units=GPa)
#
#
# Indices 1 2 3 4 5 6 
#
# 1 119.9009 56.2345 73.0476 0.0000 0.0000 0.0000
# 2 56.2345 104.8379 64.3144 0.0000 0.0000 0.0000
# 3 73.0476 64.3144 144.8132 0.0000 0.0000 0.0000
# 4 0.0000 0.0000 0.0000 44.4187 0.0000 0.0000
# 5 0.0000 0.0000 0.0000 0.0000 32.6522 0.0000
# 6 0.0000 0.0000 0.0000 0.0000 0.0000 31.0271
#
#
#
# Elastic Compliance Matrix: (Units=1/GPa)
#
#
# Indices 1 2 3 4 5 6 
#
# 1 0.013222 -0.004124 -0.004838 0.000000 0.000000 0.000000
# 2 -0.004124 0.014397 -0.004314 0.000000 0.000000 0.000000
# 3 -0.004838 -0.004314 0.011261 0.000000 0.000000 0.000000
# 4 0.000000 0.000000 0.000000 0.022513 0.000000 0.000000
# 5 0.000000 0.000000 0.000000 0.000000 0.030626 0.000000
# 6 0.000000 0.000000 0.000000 0.000000 0.000000 0.032230
#
#
# Mechanical properties :
#
#
# Convention : Reuss Voigt Hill
#
# Bulk Modulus (GPa) = 81.10934 84.08277 82.59606
# Shear Modulus (GPa) = 32.27674 33.34995 32.81335
#
# Velocity S-wave (km/s) = 4.17845 4.24735 4.21304
# Velocity P-wave (km/s) = 8.19473 8.33883 8.26709
#
# Compressibility (1/GPa) = 0.01232904
#
# Stress axis : x y z
#
# Youngs Moduli (GPa) = 75.63205 69.45868 88.79816
#
# Poissons Ratio (x) = 0.28647 0.42959
# Poissons Ratio (y) = 0.31193 0.38304
# Poissons Ratio (z) = 0.36589 0.29962
#
# Static dielectric constant tensor:
#      x y z
#    x 3.539910 0.000000 0.000000 
#    y 0.000000 3.728110 0.000000 
#    z 0.000000 0.000000 3.287650 
# 
# 
# High freq. dielectric constant tensor:
#      x y z
#    x 1.735070 0.000000 0.000000 
#    y 0.000000 1.737130 0.000000 
#    z 0.000000 0.000000 1.706230 
# 
# From -- ./inp_files/6178.got.cif
#   From: 2010.03.12/outbox.cif.g09.slc.cpg/sg51_4_cif.got.tgz:6178.got - 2010.04.16 13:43:02.
