data_PCOD8214723
_publ_section_title
;
Structure prediction by ZEFSAII (Michael W. Deem and Ramdas Pophale) SiO2 
 PCOD8214723
Probable space group: P M M A
;
_chemical_formula_sum "Si O2"
_cell_formula_units_Z 48
_cell_length_a 18.656684
_cell_length_b 9.996827
_cell_length_c 15.486751
_cell_angle_alpha 90.000000
_cell_angle_beta 90.000000
_cell_angle_gamma 90.000000
_cell_volume 2888.397417
_symmetry_space_group_name_H-M "P M M A"
_symmetry_group_IT_number 51
_symmetry_cell_setting 'orthorhombic'
loop_
_space_group_symop_operation_xyz
x,y,z
1/2-x,-y,z
1/2+x,-y,-z
-x,y,-z
-x,-y,-z
1/2+x,y,-z
1/2-x,y,z
x,-y,z
loop_
_atom_site_type_symbol
_atom_site_label
_atom_site_fract_x
_atom_site_fract_y
_atom_site_fract_z
Si Si1 0.670121 0.340821 0.665582
Si Si2 0.664866 0.149641 0.190343
Si Si3 0.165808 0.345753 0.661914
Si Si4 0.835519 0.350787 0.856051
Si Si5 0.419747 0.341000 0.493772
Si Si6 0.335285 0.149757 0.001815
O O1 0.750000 0.282499 0.649959
O O2 0.673833 0.500000 0.660024
O O3 0.640963 0.300095 0.760647
O O4 0.617409 0.281981 0.592481
O O5 0.750000 0.152325 0.190674
O O6 0.635686 0.257352 0.258864
O O7 0.638142 0.000000 0.214531
O O8 0.637612 0.188947 0.094290
O O9 0.250000 0.324753 0.646408
O O10 0.148204 0.500000 0.682974
O O11 0.125555 0.295195 0.576578
O O12 0.750000 0.353062 0.859358
O O13 0.865184 0.500000 0.874311
O O14 0.868356 0.251930 0.928212
O O15 0.500000 0.282601 0.500000
O O16 0.421435 0.500000 0.488323
O O17 0.250000 0.156496 0.004697
O O18 0.361164 0.000000 0.024927
#
# Coordination Sequence:
#
# PCOD8214723 Si02
#       6
#     8   8   8   8   8   8
#     4   8  13  22  36  54  77 104 132 161 194 233
#     4   8  14  24  37  54  78 107 133 156 190 235
#     4   9  16  25  39  60  82 103 130 164 197 227
#     4   8  13  20  32  52  76 101 127 154 187 226
#     4   9  16  25  38  57  80 105 132 162 197 236
#     4   8  13  21  33  51  77 105 128 153 189 230
#
# _framework density 16.618212
#
# number of rings (size 3 to 8) (size 9 to 14) (size 15 to 20)
#    0.000    3.667    0.000    2.500    0.000    2.667 
#    0.000    3.333    0.000    1.500    0.000    5.833 
#    0.000    9.333    0.000    0.000    0.000    0.000 
#
# Total GULP energy -594802.332182 kJ/mol
# GULP energy per Si atom -12391.715254 kJ/mol
# Density = 1.658039 g / cm^3
# Si number density = 16.618212 Si / 1000 Ang^3
#
#
#
# Elastic Constant Matrix: (Units=GPa)
#
#
# Indices 1 2 3 4 5 6 
#
# 1 39.4908 20.2869 41.2994 0.0000 0.0000 0.0000
# 2 20.2869 66.9469 77.8796 0.0000 0.0000 0.0000
# 3 41.2994 77.8796 176.6291 0.0000 0.0000 0.0000
# 4 0.0000 0.0000 0.0000 9.3952 0.0000 0.0000
# 5 0.0000 0.0000 0.0000 0.0000 2.4237 0.0000
# 6 0.0000 0.0000 0.0000 0.0000 0.0000 4.8427
#
#
#
# Elastic Compliance Matrix: (Units=1/GPa)
#
#
# Indices 1 2 3 4 5 6 
#
# 1 0.033668 -0.002145 -0.006927 0.000000 0.000000 0.000000
# 2 -0.002145 0.030804 -0.013081 0.000000 0.000000 0.000000
# 3 -0.006927 -0.013081 0.013049 0.000000 0.000000 0.000000
# 4 0.000000 0.000000 0.000000 0.106437 0.000000 0.000000
# 5 0.000000 0.000000 0.000000 0.000000 0.412585 0.000000
# 6 0.000000 0.000000 0.000000 0.000000 0.000000 0.206497
#
#
# Mechanical properties :
#
#
# Convention : Reuss Voigt Hill
#
# Bulk Modulus (GPa) = 30.10528 62.44429 46.27478
# Shear Modulus (GPa) = 5.82468 12.90571 9.36520
#
# Velocity S-wave (km/s) = 1.87420 2.78978 2.37650
# Velocity P-wave (km/s) = 4.77898 6.93070 5.95286
#
# Compressibility (1/GPa) = 0.03321677
#
# Stress axis : x y z
#
# Youngs Moduli (GPa) = 29.70185 32.46343 76.63589
#
# Poissons Ratio (x) = 0.06962 0.53083
# Poissons Ratio (y) = 0.06370 1.00245
# Poissons Ratio (z) = 0.20573 0.42464
#
# Static dielectric constant tensor:
#      x y z
#    x 2.727560 0.000000 0.000000 
#    y 0.000000 2.999600 0.000000 
#    z 0.000000 0.000000 3.552190 
# 
# 
# High freq. dielectric constant tensor:
#      x y z
#    x 1.582730 0.000000 0.000000 
#    y 0.000000 1.602890 0.000000 
#    z 0.000000 0.000000 1.656470 
# 
# From -- ./inp_files/17330.got.cif
#   From: 2010.03.12/outbox.cif.g09.slc.cpg/sg51_9_cif.got.tgz:17330.got - 2010.04.16 13:43:02.
