data_PCOD8214966
_publ_section_title
;
Structure prediction by ZEFSAII (Michael W. Deem and Ramdas Pophale) SiO2 
 PCOD8214966
Probable space group: P N N A
;
_chemical_formula_sum "Si O2"
_cell_formula_units_Z 40
_cell_length_a 5.271217
_cell_length_b 10.696267
_cell_length_c 33.903722
_cell_angle_alpha 90.000000
_cell_angle_beta 90.000000
_cell_angle_gamma 90.000000
_cell_volume 1911.571332
_symmetry_space_group_name_H-M "P N N A"
_symmetry_group_IT_number 52
_symmetry_cell_setting 'orthorhombic'
loop_
_space_group_symop_operation_xyz
x,y,z
1/2-x,-y,z
x,1/2-y,1/2-z
1/2-x,1/2+y,1/2-z
-x,-y,-z
1/2+x,y,-z
-x,1/2+y,1/2+z
1/2+x,1/2-y,1/2+z
loop_
_atom_site_type_symbol
_atom_site_label
_atom_site_fract_x
_atom_site_fract_y
_atom_site_fract_z
Si Si1 0.350522 0.800166 0.916861
Si Si2 0.870917 0.639007 0.013545
Si Si3 0.160670 0.126533 0.044015
Si Si4 0.260204 0.145619 0.216768
Si Si5 0.259449 0.142866 0.832415
O O1 0.387146 0.668080 0.940012
O O2 0.623582 0.866731 0.921228
O O3 0.286609 0.772797 0.871219
O O4 0.115742 0.876709 0.936087
O O5 0.607590 0.565478 0.006199
O O6 0.804508 0.765249 0.988258
O O7 0.250000 0.000000 0.021360
O O8 0.221437 0.250000 0.250000
O O9 0.535833 0.171286 0.198386
O O10 0.034140 0.171397 0.185895
O O11 0.250000 0.000000 0.232052
O O12 0.250000 0.000000 0.846778
#
# Coordination Sequence:
#
# PCOD8214966 Si02
#       5
#     8   8   8   8   8
#     4  10  18  26  36  53  79 110 149 194 229 259
#     4   8  16  24  31  45  69 106 151 190 219 255
#     4  10  17  23  32  47  72 110 154 192 222 259
#     4  10  21  37  55  75  98 124 157 194 237 293
#     4  10  19  30  47  70  94 122 157 198 240 282
#
# _framework density 20.925193
#
# number of rings (size 3 to 8) (size 9 to 14) (size 15 to 20)
#    0.000    2.400    0.000    3.600    0.000    9.600 
#    0.000    0.000    0.000    0.000    0.000    0.000 
#    0.000    0.000    0.000    0.000    0.000  180.000 
#
# Total GULP energy -495557.276179 kJ/mol
# GULP energy per Si atom -12388.931904 kJ/mol
# Density = 2.087757 g / cm^3
# Si number density = 20.925193 Si / 1000 Ang^3
#
#
#
# Elastic Constant Matrix: (Units=GPa)
#
#
# Indices 1 2 3 4 5 6 
#
# 1 143.9162 18.6513 21.3966 0.0000 0.0000 0.0000
# 2 18.6513 82.2482 39.3958 0.0000 0.0000 0.0000
# 3 21.3966 39.3958 105.1342 0.0000 0.0000 0.0000
# 4 0.0000 0.0000 0.0000 -71.1150 0.0000 0.0000
# 5 0.0000 0.0000 0.0000 0.0000 29.0517 0.0000
# 6 0.0000 0.0000 0.0000 0.0000 0.0000 27.9920
#
#
#
# Elastic Compliance Matrix: (Units=1/GPa)
#
#
# Indices 1 2 3 4 5 6 
#
# 1 0.007252 -0.001143 -0.001048 0.000000 0.000000 0.000000
# 2 -0.001143 0.014998 -0.005387 0.000000 0.000000 0.000000
# 3 -0.001048 -0.005387 0.011744 0.000000 0.000000 0.000000
# 4 0.000000 0.000000 0.000000 -0.014062 0.000000 0.000000
# 5 0.000000 0.000000 0.000000 0.000000 0.034421 0.000000
# 6 0.000000 0.000000 0.000000 0.000000 0.000000 0.035725
#
#
# Mechanical properties :
#
#
# Convention : Reuss Voigt Hill
#
# Bulk Modulus (GPa) = 53.08399 54.46511 53.77455
# Shear Modulus (GPa) = 44.83762 13.97606 29.40684
#
# Velocity S-wave (km/s) = 4.63401 2.58719 3.75284
# Velocity P-wave (km/s) = 7.35226 5.91690 6.67328
#
# Compressibility (1/GPa) = 0.01883807
#
# Stress axis : x y z
#
# Youngs Moduli (GPa) = 137.88613 66.67565 85.15223
#
# Poissons Ratio (x) = 0.07619 0.08922
# Poissons Ratio (y) = 0.15757 0.45875
# Poissons Ratio (z) = 0.14447 0.35921
#
# Static dielectric constant tensor:
#      x y z
#    x 4.774600 0.000000 0.000000 
#    y 0.000000 3.791340 0.000000 
#    z 0.000000 0.000000 3.521930 
# 
# 
# High freq. dielectric constant tensor:
#      x y z
#    x 1.874240 0.000000 0.000000 
#    y 0.000000 1.816170 0.000000 
#    z 0.000000 0.000000 1.787150 
# 
# From -- ./inp_files/41495.got.cif
#   From: 2010.06.25/outbox.cif.g09.slc.cpg/sg52_21_cif.got.tgz:41495.got - 2010.06.26 19:32:48.
