data_PCOD8214708
_publ_section_title
;
Structure prediction by ZEFSAII (Michael W. Deem and Ramdas Pophale) SiO2 
 PCOD8214708
Probable space group: P M M A
;
_chemical_formula_sum "Si O2"
_cell_formula_units_Z 64
_cell_length_a 19.865539
_cell_length_b 9.315584
_cell_length_c 21.337120
_cell_angle_alpha 90.000000
_cell_angle_beta 90.000000
_cell_angle_gamma 90.000000
_cell_volume 3948.628165
_symmetry_space_group_name_H-M "P M M A"
_symmetry_group_IT_number 51
_symmetry_cell_setting 'orthorhombic'
loop_
_space_group_symop_operation_xyz
x,y,z
1/2-x,-y,z
1/2+x,-y,-z
-x,y,-z
-x,-y,-z
1/2+x,y,-z
1/2-x,y,z
x,-y,z
loop_
_atom_site_type_symbol
_atom_site_label
_atom_site_fract_x
_atom_site_fract_y
_atom_site_fract_z
Si Si1 0.906008 0.661135 0.950107
Si Si2 0.505564 0.338675 0.314807
Si Si3 0.438498 0.661085 0.914695
Si Si4 0.147754 0.659748 0.277068
Si Si5 0.532164 0.831850 0.565192
Si Si6 0.465166 0.161979 0.800256
Si Si7 0.677314 0.836639 0.604942
Si Si8 0.378691 0.838718 0.163374
O O1 0.877226 0.500000 0.942124
O O2 0.866024 0.769515 0.905024
O O3 0.983167 0.661709 0.930035
O O4 0.898576 0.711193 0.022648
O O5 0.534914 0.500000 0.323753
O O6 0.431157 0.348513 0.288291
O O7 0.506025 0.255374 0.380741
O O8 0.549014 0.250827 0.263639
O O9 0.416502 0.500000 0.895742
O O10 0.422569 0.766617 0.856861
O O11 0.177861 0.500000 0.270372
O O12 0.183232 0.737775 0.334505
O O13 0.163382 0.747430 0.213879
O O14 0.500000 0.782060 0.500000
O O15 0.612484 0.794561 0.562744
O O16 0.520045 0.000000 0.577502
O O17 0.543356 0.162007 0.817721
O O18 0.439163 0.000000 0.790300
O O19 0.750000 0.820480 0.568974
O O20 0.667247 0.000000 0.627926
O O21 0.350461 0.000000 0.161911
#
# Coordination Sequence:
#
# PCOD8214708 Si02
#       8
#     8   8   8   8   8   8   8   8
#     4   8  13  20  28  38  55  81 113 149 188 228
#     4   9  16  25  37  52  70  93 122 156 192 230
#     4   8  13  20  28  38  55  81 113 149 188 228
#     4   9  16  25  37  52  70  93 122 156 192 229
#     4   9  17  29  44  61  81 104 130 161 197 238
#     4   9  15  21  30  44  62  85 115 152 191 229
#     4   9  17  29  44  61  81 104 130 161 197 236
#     4   9  15  21  30  44  62  85 115 152 191 228
#
# _framework density 16.208161
#
# number of rings (size 3 to 8) (size 9 to 14) (size 15 to 20)
#    0.000    3.250    0.000    2.250    0.000    7.000 
#    0.000    2.500    0.000    0.000    0.000    0.000 
#    0.000    0.000    0.000    0.000    0.000    1.250 
#
# Total GULP energy -793031.960974 kJ/mol
# GULP energy per Si atom -12391.124390 kJ/mol
# Density = 1.617127 g / cm^3
# Si number density = 16.208161 Si / 1000 Ang^3
#
#
#
# Elastic Constant Matrix: (Units=GPa)
#
#
# Indices 1 2 3 4 5 6 
#
# 1 28.9403 18.9351 30.6714 0.0000 0.0000 0.0000
# 2 18.9351 117.4619 74.3647 0.0000 0.0000 0.0000
# 3 30.6714 74.3647 134.5448 0.0000 0.0000 0.0000
# 4 0.0000 0.0000 0.0000 29.9497 0.0000 0.0000
# 5 0.0000 0.0000 0.0000 0.0000 7.3122 0.0000
# 6 0.0000 0.0000 0.0000 0.0000 0.0000 3.4216
#
#
#
# Elastic Compliance Matrix: (Units=1/GPa)
#
#
# Indices 1 2 3 4 5 6 
#
# 1 0.045669 -0.001186 -0.009755 0.000000 0.000000 0.000000
# 2 -0.001186 0.013127 -0.006985 0.000000 0.000000 0.000000
# 3 -0.009755 -0.006985 0.013517 0.000000 0.000000 0.000000
# 4 0.000000 0.000000 0.000000 0.033389 0.000000 0.000000
# 5 0.000000 0.000000 0.000000 0.000000 0.136759 0.000000
# 6 0.000000 0.000000 0.000000 0.000000 0.000000 0.292261
#
#
# Mechanical properties :
#
#
# Convention : Reuss Voigt Hill
#
# Bulk Modulus (GPa) = 27.42723 58.76550 43.09636
# Shear Modulus (GPa) = 8.58033 18.60173 13.59103
#
# Velocity S-wave (km/s) = 2.30333 3.39141 2.89888
# Velocity P-wave (km/s) = 4.90228 7.18826 6.15237
#
# Compressibility (1/GPa) = 0.03646012
#
# Stress axis : x y z
#
# Youngs Moduli (GPa) = 21.89679 76.18037 73.98043
#
# Poissons Ratio (x) = 0.09033 0.72172
# Poissons Ratio (y) = 0.02596 0.51675
# Poissons Ratio (z) = 0.21361 0.53212
#
# Static dielectric constant tensor:
#      x y z
#    x 2.497490 0.000000 0.000000 
#    y 0.000000 3.309700 0.000000 
#    z 0.000000 0.000000 3.129760 
# 
# 
# High freq. dielectric constant tensor:
#      x y z
#    x 1.544460 0.000000 0.000000 
#    y 0.000000 1.635610 0.000000 
#    z 0.000000 0.000000 1.615760 
# 
# From -- ./inp_files/34209.got.cif
#   From: 2010.03.12/outbox.cif.g09.slc.cpg/sg51_18_cif.got.tgz:34209.got - 2010.04.16 13:43:02.
