data_PCOD8214755
_publ_section_title
;
Structure prediction by ZEFSAII (Michael W. Deem and Ramdas Pophale) SiO2 
 PCOD8214755
Probable space group: P M M A
;
_chemical_formula_sum "Si O2"
_cell_formula_units_Z 48
_cell_length_a 9.199715
_cell_length_b 9.745441
_cell_length_c 31.264974
_cell_angle_alpha 90.000000
_cell_angle_beta 90.000000
_cell_angle_gamma 90.000000
_cell_volume 2803.069990
_symmetry_space_group_name_H-M "P M M A"
_symmetry_group_IT_number 51
_symmetry_cell_setting 'orthorhombic'
loop_
_space_group_symop_operation_xyz
x,y,z
1/2-x,-y,z
1/2+x,-y,-z
-x,y,-z
-x,-y,-z
1/2+x,y,-z
1/2-x,y,z
x,-y,z
loop_
_atom_site_type_symbol
_atom_site_label
_atom_site_fract_x
_atom_site_fract_y
_atom_site_fract_z
Si Si1 0.085623 0.663568 0.958701
Si Si2 0.411965 0.336785 0.795534
Si Si3 0.414197 0.836669 0.459048
Si Si4 0.576952 0.652908 0.298315
Si Si5 0.586462 0.663718 0.876272
Si Si6 0.079817 0.158862 0.625081
O O1 0.250000 0.720277 0.959559
O O2 0.086380 0.500000 0.958884
O O3 0.005898 0.719347 0.916337
O O4 0.000000 0.719826 0.000000
O O5 0.250000 0.276305 0.802632
O O6 0.403864 0.500000 0.797961
O O7 0.474462 0.295185 0.748682
O O8 0.516467 0.278304 0.832488
O O9 0.500000 0.777195 0.500000
O O10 0.250000 0.779356 0.459470
O O11 0.495015 0.786198 0.416361
O O12 0.414090 0.000000 0.460826
O O13 0.750000 0.648922 0.297937
O O14 0.516296 0.500000 0.307967
O O15 0.519652 0.756821 0.334348
O O16 0.750000 0.720393 0.879947
O O17 0.586146 0.500000 0.876078
O O18 0.250000 0.183962 0.617088
O O19 0.046573 0.000000 0.634030
#
# Coordination Sequence:
#
# PCOD8214755 Si02
#       6
#     8   8   8   8   8   8
#     4   9  15  21  28  38  54  78 109 145 185 228
#     4   8  13  22  35  48  62  85 119 153 182 217
#     4   9  16  26  41  61  84 108 133 162 196 233
#     4   8  14  25  41  59  79 105 135 164 196 236
#     4   9  15  21  29  42  60  81 108 146 189 227
#     4   9  16  26  42  64  86 106 131 164 199 234
#
# _framework density 17.124082000000001
#
# number of rings (size 3 to 8) (size 9 to 14) (size 15 to 20)
#    0.000    3.333    0.000    2.500    0.000    6.000 
#    0.000    0.833    0.000    2.000    0.000    0.000 
#    0.000    0.000    0.000    0.000    0.000    0.833 
#
# Total GULP energy -594948.242040 kJ/mol
# GULP energy per Si atom -12394.755042 kJ/mol
# Density = 1.708511 g / cm^3
# Si number density = 17.124082 Si / 1000 Ang^3
#
#
#
# Elastic Constant Matrix: (Units=GPa)
#
#
# Indices 1 2 3 4 5 6 
#
# 1 116.4890 16.6634 85.3692 0.0000 0.0000 0.0000
# 2 16.6634 19.5883 33.1203 0.0000 0.0000 0.0000
# 3 85.3692 33.1203 197.3979 0.0000 0.0000 0.0000
# 4 0.0000 0.0000 0.0000 3.5292 0.0000 0.0000
# 5 0.0000 0.0000 0.0000 0.0000 31.8399 0.0000
# 6 0.0000 0.0000 0.0000 0.0000 0.0000 5.3799
#
#
#
# Elastic Compliance Matrix: (Units=1/GPa)
#
#
# Indices 1 2 3 4 5 6 
#
# 1 0.012630 -0.002106 -0.005109 0.000000 0.000000 0.000000
# 2 -0.002106 0.071621 -0.011106 0.000000 0.000000 0.000000
# 3 -0.005109 -0.011106 0.009139 0.000000 0.000000 0.000000
# 4 0.000000 0.000000 0.000000 0.283349 0.000000 0.000000
# 5 0.000000 0.000000 0.000000 0.000000 0.031407 0.000000
# 6 0.000000 0.000000 0.000000 0.000000 0.000000 0.185876
#
#
# Mechanical properties :
#
#
# Convention : Reuss Voigt Hill
#
# Bulk Modulus (GPa) = 17.62182 67.08678 42.35430
# Shear Modulus (GPa) = 7.69730 21.37131 14.53430
#
# Velocity S-wave (km/s) = 2.12245 3.53657 2.91652
# Velocity P-wave (km/s) = 4.03972 7.47920 6.01073
#
# Compressibility (1/GPa) = 0.05674781
#
# Stress axis : x y z
#
# Youngs Moduli (GPa) = 79.17896 13.96239 109.42510
#
# Poissons Ratio (x) = 0.02941 0.55901
# Poissons Ratio (y) = 0.16675 1.21528
# Poissons Ratio (z) = 0.40449 0.15507
#
# Static dielectric constant tensor:
#      x y z
#    x 3.226020 0.000000 0.000000 
#    y 0.000000 2.537320 0.000000 
#    z 0.000000 0.000000 3.588250 
# 
# 
# High freq. dielectric constant tensor:
#      x y z
#    x 1.652070 0.000000 0.000000 
#    y 0.000000 1.572110 0.000000 
#    z 0.000000 0.000000 1.682320 
# 
# From -- ./inp_files/37303.got.cif
#   From: 2010.03.12/outbox.cif.g09.slc.cpg/sg51_19_cif.got.tgz:37303.got - 2010.04.16 13:43:02.
