data_PCOD8214323
_publ_section_title
;
Structure prediction by ZEFSAII (Michael W. Deem and Ramdas Pophale) SiO2 
 PCOD8214323
Probable space group: P M M A
;
_chemical_formula_sum "Si O2"
_cell_formula_units_Z 64
_cell_length_a 29.538734
_cell_length_b 9.282133
_cell_length_c 11.758139
_cell_angle_alpha 90.000000
_cell_angle_beta 90.000000
_cell_angle_gamma 90.000000
_cell_volume 3223.875448
_symmetry_space_group_name_H-M "P M M A"
_symmetry_group_IT_number 51
_symmetry_cell_setting 'orthorhombic'
loop_
_space_group_symop_operation_xyz
x,y,z
1/2-x,-y,z
1/2+x,-y,-z
-x,y,-z
-x,-y,-z
1/2+x,y,-z
1/2-x,y,z
x,-y,z
loop_
_atom_site_type_symbol
_atom_site_label
_atom_site_fract_x
_atom_site_fract_y
_atom_site_fract_z
Si Si1 0.542505 0.829479 0.581356
Si Si2 0.300118 0.669831 0.306971
Si Si3 0.698937 0.334147 0.309242
Si Si4 0.530120 0.333556 0.820981
Si Si5 0.699673 0.157668 0.905315
Si Si6 0.130238 0.330740 0.491038
Si Si7 0.565730 0.334644 0.062432
Si Si8 0.148615 0.838630 0.868042
O O1 0.500000 0.794922 0.500000
O O2 0.538378 0.761052 0.707847
O O3 0.584556 0.761215 0.512889
O O4 0.549294 0.000000 0.596395
O O5 0.250000 0.731138 0.337666
O O6 0.298685 0.500000 0.312085
O O7 0.314877 0.720406 0.182882
O O8 0.338043 0.727978 0.390780
O O9 0.750000 0.300059 0.355137
O O10 0.696231 0.500000 0.273376
O O11 0.659381 0.297131 0.397510
O O12 0.688701 0.237742 0.200437
O O13 0.540252 0.500000 0.789562
O O14 0.479437 0.314927 0.864910
O O15 0.560838 0.284662 0.929784
O O16 0.750000 0.188844 0.953520
O O17 0.698559 0.000000 0.846346
O O18 0.663148 0.162140 0.002522
O O19 0.118626 0.500000 0.480606
O O20 0.581108 0.500000 0.062669
O O21 0.601253 0.243705 0.135502
O O22 0.141727 0.000000 0.821023
#
# Coordination Sequence:
#
# PCOD8214323 Si02
#       8
#     8   8   8   8   8   8   8   8
#     4  11  26  43  60  87 125 161 198 247 297 355
#     4   9  18  34  58  87 116 146 186 239 292 343
#     4  10  22  41  64  89 119 157 204 256 304 356
#     4   9  20  41  66  89 117 153 197 248 301 357
#     4   9  19  35  52  75 113 155 189 224 274 338
#     4  10  22  40  63  89 115 152 199 247 300 356
#     4   9  20  39  63  91 119 151 195 248 299 354
#     4  11  23  36  56  86 122 159 197 241 295 357
#
# _framework density 19.851884999999999
#
# number of rings (size 3 to 8) (size 9 to 14) (size 15 to 20)
#    0.000    2.250    0.000    2.250    3.500    6.250 
#    0.000    2.500    0.000    2.250    0.000    0.000 
#    0.000    0.000    0.000    0.000    0.000    0.000 
#
# Total GULP energy -793268.944378 kJ/mol
# GULP energy per Si atom -12394.827256 kJ/mol
# Density = 1.980670 g / cm^3
# Si number density = 19.851885 Si / 1000 Ang^3
#
#
#
# Elastic Constant Matrix: (Units=GPa)
#
#
# Indices 1 2 3 4 5 6 
#
# 1 113.8076 60.9469 47.0755 0.0000 0.0000 0.0000
# 2 60.9469 77.1419 43.3012 0.0000 0.0000 0.0000
# 3 47.0755 43.3012 80.0685 0.0000 0.0000 0.0000
# 4 0.0000 0.0000 0.0000 -35.6379 0.0000 0.0000
# 5 0.0000 0.0000 0.0000 0.0000 31.5031 0.0000
# 6 0.0000 0.0000 0.0000 0.0000 0.0000 112.1465
#
#
#
# Elastic Compliance Matrix: (Units=1/GPa)
#
#
# Indices 1 2 3 4 5 6 
#
# 1 0.015952 -0.010537 -0.003680 0.000000 0.000000 0.000000
# 2 -0.010537 0.025574 -0.007635 0.000000 0.000000 0.000000
# 3 -0.003680 -0.007635 0.018782 0.000000 0.000000 0.000000
# 4 0.000000 0.000000 0.000000 -0.028060 0.000000 0.000000
# 5 0.000000 0.000000 0.000000 0.000000 0.031743 0.000000
# 6 0.000000 0.000000 0.000000 0.000000 0.000000 0.008917
#
#
# Mechanical properties :
#
#
# Convention : Reuss Voigt Hill
#
# Bulk Modulus (GPa) = 60.23083 63.74057 61.98570
# Shear Modulus (GPa) = 40.93403 29.58196 35.25800
#
# Velocity S-wave (km/s) = 4.54582 3.86441 4.21890
# Velocity P-wave (km/s) = 7.61306 7.21730 7.41782
#
# Compressibility (1/GPa) = 0.01660279
#
# Stress axis : x y z
#
# Youngs Moduli (GPa) = 62.68781 39.10223 53.24196
#
# Poissons Ratio (x) = 0.41203 0.19595
# Poissons Ratio (y) = 0.66056 0.40651
# Poissons Ratio (z) = 0.23071 0.29855
#
# Static dielectric constant tensor:
#      x y z
#    x 3.731470 0.000000 0.000000 
#    y 0.000000 3.668720 0.000000 
#    z 0.000000 0.000000 3.584330 
# 
# 
# High freq. dielectric constant tensor:
#      x y z
#    x 1.784790 0.000000 0.000000 
#    y 0.000000 1.766030 0.000000 
#    z 0.000000 0.000000 1.771830 
# 
# From -- ./inp_files/19571.got.cif
#   From: 2010.03.12/outbox.cif.g09.slc.cpg/sg51_10_cif.got.tgz:19571.got - 2010.04.16 13:43:02.
