data_PCOD8214163
_publ_section_title
;
Structure prediction by ZEFSAII (Michael W. Deem and Ramdas Pophale) SiO2 
 PCOD8214163
Probable space group: P M M A
;
_chemical_formula_sum "Si O2"
_cell_formula_units_Z 44
_cell_length_a 9.256394
_cell_length_b 7.713209
_cell_length_c 29.895732
_cell_angle_alpha 90.000000
_cell_angle_beta 90.000000
_cell_angle_gamma 90.000000
_cell_volume 2134.450675
_symmetry_space_group_name_H-M "P M M A"
_symmetry_group_IT_number 51
_symmetry_cell_setting 'orthorhombic'
loop_
_space_group_symop_operation_xyz
x,y,z
1/2-x,-y,z
1/2+x,-y,-z
-x,y,-z
-x,-y,-z
1/2+x,y,-z
1/2-x,y,z
x,-y,z
loop_
_atom_site_type_symbol
_atom_site_label
_atom_site_fract_x
_atom_site_fract_y
_atom_site_fract_z
Si Si1 0.923716 0.000000 0.452489
Si Si2 0.912208 0.793039 0.220422
Si Si3 0.916402 0.695754 0.596667
Si Si4 0.088612 0.203628 0.136987
Si Si5 0.585032 0.800353 0.694632
Si Si6 0.410497 0.296095 0.040994
O O1 0.000000 0.000000 0.500000
O O2 0.974107 0.826408 0.427223
O O3 0.750000 0.000000 0.456734
O O4 0.750000 0.721638 0.219817
O O5 0.992496 0.716127 0.176759
O O6 0.988209 0.723839 0.265410
O O7 0.916718 0.000000 0.219846
O O8 0.750000 0.753159 0.587606
O O9 0.943110 0.500000 0.578883
O O10 0.947232 0.694901 0.649617
O O11 0.250000 0.284271 0.139616
O O12 0.017690 0.249724 0.088886
O O13 0.096086 0.000000 0.143382
O O14 0.750000 0.779279 0.710046
O O15 0.547609 0.000000 0.684630
O O16 0.250000 0.214621 0.039502
O O17 0.403616 0.500000 0.034732
O O18 0.500000 0.212682 0.000000
#
# Coordination Sequence:
#
# PCOD8214163 Si02
#       6
#     4   8   8   8   8   8
#     4  12  26  44  68  94 128 168 210 256 307 366
#     4   9  17  28  45  72 103 136 175 217 263 317
#     4  10  21  40  66  95 127 162 206 258 307 360
#     4   9  17  30  47  67  92 123 161 204 252 308
#     4   9  16  30  54  81 111 149 190 230 278 339
#     4   9  18  32  48  65  86 115 152 195 246 307
#
# _framework density 20.614204000000001
#
# number of rings (size 3 to 8) (size 9 to 14) (size 15 to 20)
#    0.000    2.545    0.909    1.364    0.000    4.727 
#    0.000    0.909    0.000    5.455    0.000    0.000 
#    0.000    0.000    0.000    0.000    0.000    0.000 
#
# Total GULP energy -545500.587155 kJ/mol
# GULP energy per Si atom -12397.740617 kJ/mol
# Density = 2.056729 g / cm^3
# Si number density = 20.614204 Si / 1000 Ang^3
#
#
#
# Elastic Constant Matrix: (Units=GPa)
#
#
# Indices 1 2 3 4 5 6 
#
# 1 132.1730 32.5049 84.2117 0.0000 0.0000 0.0000
# 2 32.5049 54.8367 28.1585 0.0000 0.0000 0.0000
# 3 84.2117 28.1585 146.1216 0.0000 0.0000 0.0000
# 4 0.0000 0.0000 0.0000 -2.7157 0.0000 0.0000
# 5 0.0000 0.0000 0.0000 0.0000 37.7348 0.0000
# 6 0.0000 0.0000 0.0000 0.0000 0.0000 12.9195
#
#
#
# Elastic Compliance Matrix: (Units=1/GPa)
#
#
# Indices 1 2 3 4 5 6 
#
# 1 0.012775 -0.004208 -0.006551 0.000000 0.000000 0.000000
# 2 -0.004208 0.021625 -0.001742 0.000000 0.000000 0.000000
# 3 -0.006551 -0.001742 0.010955 0.000000 0.000000 0.000000
# 4 0.000000 0.000000 0.000000 -0.368226 0.000000 0.000000
# 5 0.000000 0.000000 0.000000 0.000000 0.026501 0.000000
# 6 0.000000 0.000000 0.000000 0.000000 0.000000 0.077402
#
#
# Mechanical properties :
#
#
# Convention : Reuss Voigt Hill
#
# Bulk Modulus (GPa) = 49.13640 69.20908 59.17274
# Shear Modulus (GPa) = -26.71202 22.13812 -2.28695
#
# Velocity S-wave (km/s) = -3.60364 3.28064 -1.05443
# Velocity P-wave (km/s) = 2.56379 6.92795 5.22348
#
# Compressibility (1/GPa) = 0.02035151
#
# Stress axis : x y z
#
# Youngs Moduli (GPa) = 78.27879 46.24288 91.28318
#
# Poissons Ratio (x) = 0.19460 0.59803
# Poissons Ratio (y) = 0.32942 0.15901
# Poissons Ratio (z) = 0.51283 0.08055
#
# Static dielectric constant tensor:
#      x y z
#    x 3.852450 0.000000 0.000000 
#    y 0.000000 4.031120 0.000000 
#    z 0.000000 0.000000 3.874080 
# 
# 
# High freq. dielectric constant tensor:
#      x y z
#    x 1.791040 0.000000 0.000000 
#    y 0.000000 1.784230 0.000000 
#    z 0.000000 0.000000 1.814470 
# 
# From -- ./inp_files/36743.got.cif
#   From: 2010.03.12/outbox.cif.g09.slc.cpg/sg51_19_cif.got.tgz:36743.got - 2010.04.16 13:43:02.
