data_PCOD8214200
_publ_section_title
;
Structure prediction by ZEFSAII (Michael W. Deem and Ramdas Pophale) SiO2 
 PCOD8214200
Probable space group: P M M A
;
_chemical_formula_sum "Si O2"
_cell_formula_units_Z 40
_cell_length_a 19.377434
_cell_length_b 9.738284
_cell_length_c 10.756112
_cell_angle_alpha 90.000000
_cell_angle_beta 90.000000
_cell_angle_gamma 90.000000
_cell_volume 2029.710124
_symmetry_space_group_name_H-M "P M M A"
_symmetry_group_IT_number 51
_symmetry_cell_setting 'orthorhombic'
loop_
_space_group_symop_operation_xyz
x,y,z
1/2-x,-y,z
1/2+x,-y,-z
-x,y,-z
-x,-y,-z
1/2+x,y,-z
1/2-x,y,z
x,-y,z
loop_
_atom_site_type_symbol
_atom_site_label
_atom_site_fract_x
_atom_site_fract_y
_atom_site_fract_z
Si Si1 0.831797 0.349506 0.233745
Si Si2 0.460395 0.841761 0.116740
Si Si3 0.327242 0.842932 0.982301
Si Si4 0.829989 0.339942 0.513261
Si Si5 0.948459 0.837076 0.610459
O O1 0.750000 0.356004 0.228211
O O2 0.862146 0.500000 0.200835
O O3 0.859075 0.239729 0.134419
O O4 0.853209 0.306400 0.372284
O O5 0.479655 0.788147 0.255305
O O6 0.481602 0.000000 0.113235
O O7 0.500000 0.768710 0.000000
O O8 0.377847 0.820828 0.098911
O O9 0.250000 0.793603 0.019632
O O10 0.326229 0.000000 0.938792
O O11 0.750000 0.303007 0.535990
O O12 0.843207 0.500000 0.543706
O O13 0.876288 0.242579 0.598622
O O14 0.000000 0.793968 0.500000
O O15 0.933718 0.000000 0.609512
#
# Coordination Sequence:
#
# PCOD8214200 Si02
#       5
#     8   8   8   8   8
#     4   8  15  29  49  75 107 139 169 209 265 320
#     4   9  19  35  53  74 108 147 174 213 275 328
#     4   9  17  29  50  78 102 131 176 221 263 317
#     4   9  19  36  57  81 111 147 184 225 279 335
#     4  10  22  37  56  84 113 144 187 233 274 324
#
# _framework density 19.707248
#
# number of rings (size 3 to 8) (size 9 to 14) (size 15 to 20)
#    0.000    3.000    0.000    1.200    2.800    2.400 
#    0.000    5.000    0.000    3.600    0.000    0.000 
#    0.000    0.000    0.000    0.000    0.000    0.000 
#
# Total GULP energy -495641.362419 kJ/mol
# GULP energy per Si atom -12391.034060 kJ/mol
# Density = 1.966239 g / cm^3
# Si number density = 19.707248 Si / 1000 Ang^3
#
#
#
# Elastic Constant Matrix: (Units=GPa)
#
#
# Indices 1 2 3 4 5 6 
#
# 1 77.1749 26.3836 56.2533 0.0000 0.0000 0.0000
# 2 26.3836 41.0270 34.9033 0.0000 0.0000 0.0000
# 3 56.2533 34.9033 154.3676 0.0000 0.0000 0.0000
# 4 0.0000 0.0000 0.0000 19.5720 0.0000 0.0000
# 5 0.0000 0.0000 0.0000 0.0000 27.0508 0.0000
# 6 0.0000 0.0000 0.0000 0.0000 0.0000 21.9145
#
#
#
# Elastic Compliance Matrix: (Units=1/GPa)
#
#
# Indices 1 2 3 4 5 6 
#
# 1 0.019592 -0.008080 -0.005313 0.000000 0.000000 0.000000
# 2 -0.008080 0.033511 -0.004633 0.000000 0.000000 0.000000
# 3 -0.005313 -0.004633 0.009462 0.000000 0.000000 0.000000
# 4 0.000000 0.000000 0.000000 0.051093 0.000000 0.000000
# 5 0.000000 0.000000 0.000000 0.000000 0.036968 0.000000
# 6 0.000000 0.000000 0.000000 0.000000 0.000000 0.045632
#
#
# Mechanical properties :
#
#
# Convention : Reuss Voigt Hill
#
# Bulk Modulus (GPa) = 37.71476 56.40554 47.06015
# Shear Modulus (GPa) = 20.73427 24.04274 22.38851
#
# Velocity S-wave (km/s) = 3.24715 3.49663 3.37420
# Velocity P-wave (km/s) = 5.76521 6.70714 6.25394
#
# Compressibility (1/GPa) = 0.02651482
#
# Stress axis : x y z
#
# Youngs Moduli (GPa) = 51.04051 29.84068 105.69052
#
# Poissons Ratio (x) = 0.24110 0.56151
# Poissons Ratio (y) = 0.41239 0.48964
# Poissons Ratio (z) = 0.27117 0.13825
#
# Static dielectric constant tensor:
#      x y z
#    x 3.458460 0.000000 0.000000 
#    y 0.000000 3.521020 0.000000 
#    z 0.000000 0.000000 3.795350 
# 
# 
# High freq. dielectric constant tensor:
#      x y z
#    x 1.760760 0.000000 0.000000 
#    y 0.000000 1.738280 0.000000 
#    z 0.000000 0.000000 1.766290 
# 
# From -- ./inp_files/9282.got.cif
#   From: 2010.03.12/outbox.cif.g09.slc.cpg/sg51_5_cif.got.tgz:9282.got - 2010.04.16 13:43:02.
