data_PCOD8214489
_publ_section_title
;
Structure prediction by ZEFSAII (Michael W. Deem and Ramdas Pophale) SiO2 
 PCOD8214489
Probable space group: P M M A
;
_chemical_formula_sum "Si O2"
_cell_formula_units_Z 64
_cell_length_a 8.975731
_cell_length_b 14.097294
_cell_length_c 31.105234
_cell_angle_alpha 90.000000
_cell_angle_beta 90.000000
_cell_angle_gamma 90.000000
_cell_volume 3935.854710
_symmetry_space_group_name_H-M "P M M A"
_symmetry_group_IT_number 51
_symmetry_cell_setting 'orthorhombic'
loop_
_space_group_symop_operation_xyz
x,y,z
1/2-x,-y,z
1/2+x,-y,-z
-x,y,-z
-x,-y,-z
1/2+x,y,-z
1/2-x,y,z
x,-y,z
loop_
_atom_site_type_symbol
_atom_site_label
_atom_site_fract_x
_atom_site_fract_y
_atom_site_fract_z
Si Si1 0.420598 0.392371 0.075051
Si Si2 0.922087 0.111733 0.877547
Si Si3 0.417784 0.886858 0.542277
Si Si4 0.079301 0.607351 0.175699
Si Si5 0.582214 0.112978 0.626453
Si Si6 0.424639 0.787690 0.798544
Si Si7 0.576500 0.108262 0.288402
Si Si8 0.426241 0.212713 0.956461
O O1 0.250000 0.373399 0.061324
O O2 0.466759 0.500000 0.064013
O O3 0.439852 0.372186 0.125356
O O4 0.528850 0.322785 0.049276
O O5 0.750000 0.141351 0.883285
O O6 0.982687 0.156151 0.833915
O O7 0.015083 0.149633 0.917554
O O8 0.942652 0.000000 0.874692
O O9 0.500000 0.847347 0.500000
O O10 0.250000 0.848596 0.541609
O O11 0.496876 0.846203 0.584913
O O12 0.421821 0.000000 0.542465
O O13 0.250000 0.624479 0.189360
O O14 0.031097 0.500000 0.186564
O O15 0.971166 0.677369 0.201661
O O16 0.750000 0.150828 0.624596
O O17 0.507684 0.150587 0.670221
O O18 0.575282 0.000000 0.625820
O O19 0.250000 0.798689 0.808257
O O20 0.468313 0.829543 0.752470
O O21 0.750000 0.114437 0.298680
O O22 0.528473 0.000000 0.278994
O O23 0.250000 0.203563 0.959469
O O24 0.500000 0.172937 0.000000
#
# Coordination Sequence:
#
# PCOD8214489 Si02
#       8
#     8   8   8   8   8   8   8   8
#     4   9  18  35  58  81 106 132 156 185 222 267
#     4  11  24  41  59  77  99 127 158 193 231 271
#     4   9  15  22  33  49  71 102 142 189 239 285
#     4   9  18  33  54  77 102 130 155 184 224 271
#     4   9  16  25  37  54  77 107 148 195 238 279
#     4  11  21  33  53  79 102 125 155 194 234 276
#     4   9  18  31  44  61  90 125 157 191 234 279
#     4  12  25  40  59  80 103 129 156 189 227 272
#
# _framework density 16.260762
#
# number of rings (size 3 to 8) (size 9 to 14) (size 15 to 20)
#    0.000    2.125    1.250    3.750    0.000    6.500 
#    0.000    2.500    0.000    0.000    0.000    0.000 
#    0.000    0.000    0.000    0.000    0.000    0.625 
#
# Total GULP energy -793702.369088 kJ/mol
# GULP energy per Si atom -12401.599517 kJ/mol
# Density = 1.622375 g / cm^3
# Si number density = 16.260762 Si / 1000 Ang^3
#
#
#
# Elastic Constant Matrix: (Units=GPa)
#
#
# Indices 1 2 3 4 5 6 
#
# 1 116.4451 36.4447 67.9006 0.0000 0.0000 0.0000
# 2 36.4447 55.6346 36.8767 0.0000 0.0000 0.0000
# 3 67.9006 36.8767 124.5319 0.0000 0.0000 0.0000
# 4 0.0000 0.0000 0.0000 6.0447 0.0000 0.0000
# 5 0.0000 0.0000 0.0000 0.0000 32.1122 0.0000
# 6 0.0000 0.0000 0.0000 0.0000 0.0000 18.4701
#
#
#
# Elastic Compliance Matrix: (Units=1/GPa)
#
#
# Indices 1 2 3 4 5 6 
#
# 1 0.013614 -0.004974 -0.005950 0.000000 0.000000 0.000000
# 2 -0.004974 0.024182 -0.004448 0.000000 0.000000 0.000000
# 3 -0.005950 -0.004448 0.012592 0.000000 0.000000 0.000000
# 4 0.000000 0.000000 0.000000 0.165434 0.000000 0.000000
# 5 0.000000 0.000000 0.000000 0.000000 0.031141 0.000000
# 6 0.000000 0.000000 0.000000 0.000000 0.000000 0.054141
#
#
# Mechanical properties :
#
#
# Convention : Reuss Voigt Hill
#
# Bulk Modulus (GPa) = 50.91229 64.33948 57.62589
# Shear Modulus (GPa) = 14.77558 21.68471 18.23015
#
# Velocity S-wave (km/s) = 3.01768 3.65576 3.35193
# Velocity P-wave (km/s) = 6.59695 7.58107 7.10607
#
# Compressibility (1/GPa) = 0.01964162
#
# Stress axis : x y z
#
# Youngs Moduli (GPa) = 73.45303 41.35382 79.41798
#
# Poissons Ratio (x) = 0.20571 0.47254
# Poissons Ratio (y) = 0.36538 0.35329
# Poissons Ratio (z) = 0.43705 0.18396
#
# Static dielectric constant tensor:
#      x y z
#    x 3.164700 0.000000 0.000000 
#    y 0.000000 2.861430 0.000000 
#    z 0.000000 0.000000 3.107030 
# 
# 
# High freq. dielectric constant tensor:
#      x y z
#    x 1.637250 0.000000 0.000000 
#    y 0.000000 1.584830 0.000000 
#    z 0.000000 0.000000 1.621080 
# 
# From -- ./inp_files/37664.got.cif
#   From: 2010.03.12/outbox.cif.g09.slc.cpg/sg51_19_cif.got.tgz:37664.got - 2010.04.16 13:43:02.
