data_PCOD8214453
_publ_section_title
;
Structure prediction by ZEFSAII (Michael W. Deem and Ramdas Pophale) SiO2 
 PCOD8214453
Probable space group: P M M A
;
_chemical_formula_sum "Si O2"
_cell_formula_units_Z 56
_cell_length_a 9.199750
_cell_length_b 13.664852
_cell_length_c 28.956209
_cell_angle_alpha 90.000000
_cell_angle_beta 90.000000
_cell_angle_gamma 90.000000
_cell_volume 3640.178336
_symmetry_space_group_name_H-M "P M M A"
_symmetry_group_IT_number 51
_symmetry_cell_setting 'orthorhombic'
loop_
_space_group_symop_operation_xyz
x,y,z
1/2-x,-y,z
1/2+x,-y,-z
-x,y,-z
-x,-y,-z
1/2+x,y,-z
1/2-x,y,z
x,-y,z
loop_
_atom_site_type_symbol
_atom_site_label
_atom_site_fract_x
_atom_site_fract_y
_atom_site_fract_z
Si Si1 0.587309 0.383213 0.955845
Si Si2 0.916780 0.793210 0.454257
Si Si3 0.080468 0.111959 0.640620
Si Si4 0.410582 0.616035 0.869576
Si Si5 0.076773 0.712833 0.315874
Si Si6 0.579940 0.613729 0.234038
Si Si7 0.918041 0.610499 0.396848
O O1 0.750000 0.342365 0.959131
O O2 0.585735 0.500000 0.955523
O O3 0.517812 0.341392 0.908545
O O4 0.500000 0.343086 0.000000
O O5 0.750000 0.803834 0.467004
O O6 0.960017 0.865547 0.412575
O O7 0.955534 0.681820 0.439466
O O8 0.000000 0.824554 0.500000
O O9 0.250000 0.136047 0.648892
O O10 0.984106 0.178740 0.674145
O O11 0.043598 0.000000 0.651793
O O12 0.250000 0.659154 0.878858
O O13 0.403048 0.500000 0.873297
O O14 0.462759 0.644385 0.818188
O O15 0.250000 0.714263 0.317004
O O16 0.020949 0.680089 0.265982
O O17 0.017688 0.635629 0.353243
O O18 0.750000 0.634040 0.243463
O O19 0.545055 0.500000 0.243082
O O20 0.750000 0.625113 0.381805
O O21 0.949494 0.500000 0.412918
#
# Coordination Sequence:
#
# PCOD8214453 Si02
#       7
#     8   8   8   8   8   8   8
#     4   9  15  21  30  44  64  93 130 173 217 255
#     4   9  18  31  47  69  92 112 136 166 202 243
#     4   9  19  37  56  68  82 109 141 168 198 245
#     4   8  14  24  36  50  69  96 134 176 212 245
#     4  11  21  30  44  68  92 109 132 172 215 251
#     4   9  17  29  44  60  82 115 148 175 207 251
#     4   9  18  33  49  62  83 118 152 175 197 234
#
# _framework density 15.383861
#
# number of rings (size 3 to 8) (size 9 to 14) (size 15 to 20)
#    0.000    2.857    0.000    3.857    0.000    7.714 
#    0.000    1.429    0.000    0.000    0.000    0.000 
#    0.000    0.000    0.000    0.000    0.000    0.714 
#
# Total GULP energy -694242.216393 kJ/mol
# GULP energy per Si atom -12397.182436 kJ/mol
# Density = 1.534885 g / cm^3
# Si number density = 15.383861 Si / 1000 Ang^3
#
#
#
# Elastic Constant Matrix: (Units=GPa)
#
#
# Indices 1 2 3 4 5 6 
#
# 1 100.1333 28.2595 65.5089 0.0000 0.0000 0.0000
# 2 28.2595 56.0674 22.4013 0.0000 0.0000 0.0000
# 3 65.5089 22.4013 111.0466 0.0000 0.0000 0.0000
# 4 0.0000 0.0000 0.0000 9.5899 0.0000 0.0000
# 5 0.0000 0.0000 0.0000 0.0000 29.7551 0.0000
# 6 0.0000 0.0000 0.0000 0.0000 0.0000 12.9156
#
#
#
# Elastic Compliance Matrix: (Units=1/GPa)
#
#
# Indices 1 2 3 4 5 6 
#
# 1 0.017514 -0.005111 -0.009301 0.000000 0.000000 0.000000
# 2 -0.005111 0.020891 -0.001199 0.000000 0.000000 0.000000
# 3 -0.009301 -0.001199 0.014734 0.000000 0.000000 0.000000
# 4 0.000000 0.000000 0.000000 0.104277 0.000000 0.000000
# 5 0.000000 0.000000 0.000000 0.000000 0.033608 0.000000
# 6 0.000000 0.000000 0.000000 0.000000 0.000000 0.077425
#
#
# Mechanical properties :
#
#
# Convention : Reuss Voigt Hill
#
# Bulk Modulus (GPa) = 45.62783 55.50964 50.56874
# Shear Modulus (GPa) = 16.28789 20.52396 18.40592
#
# Velocity S-wave (km/s) = 3.25740 3.65653 3.46272
# Velocity P-wave (km/s) = 6.62355 7.34767 6.99499
#
# Compressibility (1/GPa) = 0.02191645
#
# Stress axis : x y z
#
# Youngs Moduli (GPa) = 57.09733 47.86748 67.87109
#
# Poissons Ratio (x) = 0.24467 0.63125
# Poissons Ratio (y) = 0.29185 0.08137
# Poissons Ratio (z) = 0.53105 0.05739
#
# Static dielectric constant tensor:
#      x y z
#    x 2.983130 0.000000 0.000000 
#    y 0.000000 2.666020 0.000000 
#    z 0.000000 0.000000 2.989040 
# 
# 
# High freq. dielectric constant tensor:
#      x y z
#    x 1.591050 0.000000 0.000000 
#    y 0.000000 1.539930 0.000000 
#    z 0.000000 0.000000 1.588580 
# 
# From -- ./inp_files/37460.got.cif
#   From: 2010.03.12/outbox.cif.g09.slc.cpg/sg51_19_cif.got.tgz:37460.got - 2010.04.16 13:43:02.
