data_PCOD8214455
_publ_section_title
;
Structure prediction by ZEFSAII (Michael W. Deem and Ramdas Pophale) SiO2 
 PCOD8214455
Probable space group: P M M A
;
_chemical_formula_sum "Si O2"
_cell_formula_units_Z 48
_cell_length_a 9.190739
_cell_length_b 13.673632
_cell_length_c 23.827162
_cell_angle_alpha 90.000000
_cell_angle_beta 90.000000
_cell_angle_gamma 90.000000
_cell_volume 2994.378103
_symmetry_space_group_name_H-M "P M M A"
_symmetry_group_IT_number 51
_symmetry_cell_setting 'orthorhombic'
loop_
_space_group_symop_operation_xyz
x,y,z
1/2-x,-y,z
1/2+x,-y,-z
-x,y,-z
-x,-y,-z
1/2+x,y,-z
1/2-x,y,z
x,-y,z
loop_
_atom_site_type_symbol
_atom_site_label
_atom_site_fract_x
_atom_site_fract_y
_atom_site_fract_z
Si Si1 0.583077 0.792764 0.555676
Si Si2 0.909548 0.384315 0.948842
Si Si3 0.581798 0.610471 0.625750
Si Si4 0.923462 0.713179 0.275868
Si Si5 0.421152 0.613367 0.176161
Si Si6 0.919700 0.888053 0.670797
O O1 0.500000 0.823787 0.500000
O O2 0.750000 0.803449 0.540225
O O3 0.544501 0.681499 0.573820
O O4 0.539612 0.865307 0.606197
O O5 0.750000 0.337882 0.953334
O O6 0.900092 0.500000 0.956283
O O7 0.973501 0.361030 0.887180
O O8 0.000000 0.337079 0.000000
O O9 0.750000 0.625044 0.644106
O O10 0.550221 0.500000 0.606348
O O11 0.481853 0.635958 0.678619
O O12 0.750000 0.714112 0.276543
O O13 0.981375 0.681190 0.215404
O O14 0.983632 0.821587 0.288385
O O15 0.250000 0.635788 0.183881
O O16 0.451540 0.500000 0.190047
O O17 0.750000 0.863841 0.680828
O O18 0.956380 0.000000 0.684241
#
# Coordination Sequence:
#
# PCOD8214455 Si02
#       6
#     8   8   8   8   8   8
#     4   9  18  31  47  69  92 113 141 176 215 261
#     4   8  14  24  38  57  83 118 158 194 224 253
#     4   9  18  33  49  62  84 122 158 183 212 256
#     4  11  21  30  44  69  95 114 141 187 233 267
#     4   9  17  29  44  62  89 128 165 189 215 259
#     4   9  19  37  56  68  83 113 147 176 215 272
#
# _framework density 16.030038999999999
#
# number of rings (size 3 to 8) (size 9 to 14) (size 15 to 20)
#    0.000    2.833    0.000    4.000    0.000    7.000 
#    0.000    1.667    0.000    0.000    0.000    0.000 
#    0.000    0.667    0.000    2.167    0.000    2.667 
#
# Total GULP energy -595029.097940 kJ/mol
# GULP energy per Si atom -12396.439540 kJ/mol
# Density = 1.599355 g / cm^3
# Si number density = 16.030039 Si / 1000 Ang^3
#
#
#
# Elastic Constant Matrix: (Units=GPa)
#
#
# Indices 1 2 3 4 5 6 
#
# 1 83.3060 33.0731 58.5682 0.0000 0.0000 0.0000
# 2 33.0731 69.8964 28.5067 0.0000 0.0000 0.0000
# 3 58.5682 28.5067 110.0946 0.0000 0.0000 0.0000
# 4 0.0000 0.0000 0.0000 14.4337 0.0000 0.0000
# 5 0.0000 0.0000 0.0000 0.0000 30.4030 0.0000
# 6 0.0000 0.0000 0.0000 0.0000 0.0000 15.3579
#
#
#
# Elastic Compliance Matrix: (Units=1/GPa)
#
#
# Indices 1 2 3 4 5 6 
#
# 1 0.021268 -0.006092 -0.009737 0.000000 0.000000 0.000000
# 2 -0.006092 0.017741 -0.001353 0.000000 0.000000 0.000000
# 3 -0.009737 -0.001353 0.014613 0.000000 0.000000 0.000000
# 4 0.000000 0.000000 0.000000 0.069282 0.000000 0.000000
# 5 0.000000 0.000000 0.000000 0.000000 0.032892 0.000000
# 6 0.000000 0.000000 0.000000 0.000000 0.000000 0.065113
#
#
# Mechanical properties :
#
#
# Convention : Reuss Voigt Hill
#
# Bulk Modulus (GPa) = 51.92419 55.95479 53.93949
# Shear Modulus (GPa) = 19.10641 21.58219 20.34430
#
# Velocity S-wave (km/s) = 3.45615 3.67326 3.56636
# Velocity P-wave (km/s) = 6.95621 7.27822 7.11903
#
# Compressibility (1/GPa) = 0.01925885
#
# Stress axis : x y z
#
# Youngs Moduli (GPa) = 47.01893 56.36542 68.43196
#
# Poissons Ratio (x) = 0.34340 0.66630
# Poissons Ratio (y) = 0.28646 0.09257
# Poissons Ratio (z) = 0.45781 0.07624
#
# Static dielectric constant tensor:
#      x y z
#    x 3.047640 0.000000 0.000000 
#    y 0.000000 2.891380 0.000000 
#    z 0.000000 0.000000 3.029780 
# 
# 
# High freq. dielectric constant tensor:
#      x y z
#    x 1.611030 0.000000 0.000000 
#    y 0.000000 1.585490 0.000000 
#    z 0.000000 0.000000 1.610970 
# 
# From -- ./inp_files/34630.got.cif
#   From: 2010.03.12/outbox.cif.g09.slc.cpg/sg51_18_cif.got.tgz:34630.got - 2010.04.16 13:43:02.
