data_PCOD8214724
_publ_section_title
;
Structure prediction by ZEFSAII (Michael W. Deem and Ramdas Pophale) SiO2 
 PCOD8214724
Probable space group: P M M A
;
_chemical_formula_sum "Si O2"
_cell_formula_units_Z 48
_cell_length_a 19.966423
_cell_length_b 9.342018
_cell_length_c 15.489303
_cell_angle_alpha 90.000000
_cell_angle_beta 90.000000
_cell_angle_gamma 90.000000
_cell_volume 2889.168312
_symmetry_space_group_name_H-M "P M M A"
_symmetry_group_IT_number 51
_symmetry_cell_setting 'orthorhombic'
loop_
_space_group_symop_operation_xyz
x,y,z
1/2-x,-y,z
1/2+x,-y,-z
-x,y,-z
-x,-y,-z
1/2+x,y,-z
1/2-x,y,z
x,-y,z
loop_
_atom_site_type_symbol
_atom_site_label
_atom_site_fract_x
_atom_site_fract_y
_atom_site_fract_z
Si Si1 0.670310 0.160801 0.089592
Si Si2 0.172565 0.667831 0.743062
Si Si3 0.073637 0.670444 0.401749
Si Si4 0.670372 0.340608 0.930262
Si Si5 0.423819 0.669890 0.593789
Si Si6 0.324776 0.670772 0.260361
O O1 0.750000 0.159579 0.085611
O O2 0.646394 0.249605 0.172692
O O3 0.641733 0.000000 0.095030
O O4 0.640970 0.235511 0.003410
O O5 0.250000 0.700928 0.723467
O O6 0.160782 0.500000 0.759116
O O7 0.130267 0.727901 0.662078
O O8 0.076587 0.500000 0.398517
O O9 0.094582 0.724637 0.497448
O O10 0.124717 0.736039 0.331486
O O11 0.998286 0.723005 0.380383
O O12 0.750000 0.348524 0.936439
O O13 0.640884 0.500000 0.945450
O O14 0.650524 0.281770 0.835192
O O15 0.422469 0.500000 0.593434
O O16 0.250000 0.729708 0.279473
O O17 0.323544 0.500000 0.263547
#
# Coordination Sequence:
#
# PCOD8214724 Si02
#       6
#     8   8   8   8   8   8
#     4   9  16  25  38  57  79 103 131 161 195 235
#     4   9  16  25  38  58  82 105 131 164 197 227
#     4   8  13  22  35  53  79 106 131 160 193 232
#     4   8  13  22  36  55  79 103 126 155 192 232
#     4   8  14  23  35  53  78 107 133 158 194 234
#     4   8  13  20  33  55  79 101 126 159 198 233
#
# _framework density 16.613776999999999
#
# number of rings (size 3 to 8) (size 9 to 14) (size 15 to 20)
#    0.000    3.667    0.000    2.500    0.000    2.667 
#    0.000    3.333    0.000    1.000    0.000   11.667 
#    0.000    5.333    0.000    0.000    0.000    0.000 
#
# Total GULP energy -594803.382193 kJ/mol
# GULP energy per Si atom -12391.737129 kJ/mol
# Density = 1.657596 g / cm^3
# Si number density = 16.613777 Si / 1000 Ang^3
#
#
#
# Elastic Constant Matrix: (Units=GPa)
#
#
# Indices 1 2 3 4 5 6 
#
# 1 65.2430 21.1074 76.4940 0.0000 0.0000 0.0000
# 2 21.1074 41.8442 43.5939 0.0000 0.0000 0.0000
# 3 76.4940 43.5939 177.4733 0.0000 0.0000 0.0000
# 4 0.0000 0.0000 0.0000 2.4783 0.0000 0.0000
# 5 0.0000 0.0000 0.0000 0.0000 9.6019 0.0000
# 6 0.0000 0.0000 0.0000 0.0000 0.0000 4.7967
#
#
#
# Elastic Compliance Matrix: (Units=1/GPa)
#
#
# Indices 1 2 3 4 5 6 
#
# 1 0.031152 -0.002319 -0.012858 0.000000 0.000000 0.000000
# 2 -0.002319 0.032290 -0.006932 0.000000 0.000000 0.000000
# 3 -0.012858 -0.006932 0.012879 0.000000 0.000000 0.000000
# 4 0.000000 0.000000 0.000000 0.403496 0.000000 0.000000
# 5 0.000000 0.000000 0.000000 0.000000 0.104146 0.000000
# 6 0.000000 0.000000 0.000000 0.000000 0.000000 0.208476
#
#
# Mechanical properties :
#
#
# Convention : Reuss Voigt Hill
#
# Bulk Modulus (GPa) = 31.14850 62.99459 47.07155
# Shear Modulus (GPa) = 5.90069 12.93307 9.41688
#
# Velocity S-wave (km/s) = 1.88664 2.79311 2.38336
# Velocity P-wave (km/s) = 4.85131 6.95711 5.99735
#
# Compressibility (1/GPa) = 0.03210427
#
# Stress axis : x y z
#
# Youngs Moduli (GPa) = 32.10027 30.96956 77.64423
#
# Poissons Ratio (x) = 0.07182 0.99832
# Poissons Ratio (y) = 0.07444 0.53823
# Poissons Ratio (z) = 0.41273 0.21468
#
# Static dielectric constant tensor:
#      x y z
#    x 2.989090 0.000000 0.000000 
#    y 0.000000 2.733000 0.000000 
#    z 0.000000 0.000000 3.551550 
# 
# 
# High freq. dielectric constant tensor:
#      x y z
#    x 1.601610 0.000000 0.000000 
#    y 0.000000 1.583650 0.000000 
#    z 0.000000 0.000000 1.656150 
# 
# From -- ./inp_files/25439.got.cif
#   From: 2010.03.12/outbox.cif.g09.slc.cpg/sg51_13_cif.got.tgz:25439.got - 2010.04.16 13:43:02.
