data_PCOD8214051
_publ_section_title
;
Structure prediction by ZEFSAII (Michael W. Deem and Ramdas Pophale) SiO2 
 PCOD8214051
Probable space group: P M M A
;
_chemical_formula_sum "Si O2"
_cell_formula_units_Z 56
_cell_length_a 8.733221
_cell_length_b 20.106426
_cell_length_c 15.367003
_cell_angle_alpha 90.000000
_cell_angle_beta 90.000000
_cell_angle_gamma 90.000000
_cell_volume 2698.351401
_symmetry_space_group_name_H-M "P M M A"
_symmetry_group_IT_number 51
_symmetry_cell_setting 'orthorhombic'
loop_
_space_group_symop_operation_xyz
x,y,z
1/2-x,-y,z
1/2+x,-y,-z
-x,y,-z
-x,-y,-z
1/2+x,y,-z
1/2-x,y,z
x,-y,z
loop_
_atom_site_type_symbol
_atom_site_label
_atom_site_fract_x
_atom_site_fract_y
_atom_site_fract_z
Si Si1 0.925817 0.827680 0.918569
Si Si2 0.569270 0.676458 0.723371
Si Si3 0.419468 0.073106 0.613214
Si Si4 0.070569 0.212539 0.411553
Si Si5 0.426522 0.422021 0.591351
Si Si6 0.917219 0.072449 0.183684
Si Si7 0.570454 0.312797 0.090044
O O1 0.750000 0.805893 0.928196
O O2 0.947195 0.875911 0.837040
O O3 0.035511 0.764916 0.909591
O O4 0.000000 0.867742 0.000000
O O5 0.750000 0.679677 0.736383
O O6 0.513070 0.744773 0.673444
O O7 0.521634 0.613669 0.666438
O O8 0.498074 0.662053 0.818559
O O9 0.250000 0.087386 0.573956
O O10 0.530135 0.134042 0.589706
O O11 0.405110 0.068382 0.714786
O O12 0.479605 0.000000 0.579749
O O13 0.250000 0.220756 0.417698
O O14 0.000000 0.243955 0.500000
O O15 0.500000 0.401426 0.500000
O O16 0.250000 0.399295 0.592891
O O17 0.442814 0.500000 0.608211
O O18 0.750000 0.094728 0.146660
O O19 0.960480 0.000000 0.145737
O O20 0.750000 0.327339 0.089103
O O21 0.500000 0.344536 0.000000
#
# Coordination Sequence:
#
# PCOD8214051 Si02
#       7
#     8   8   8   8   8   8   8
#     4  11  21  33  49  70  98 132 173 222 280 344
#     4  11  23  39  61  91 124 158 200 247 298 354
#     4   9  19  36  56  75  98 134 180 229 283 344
#     4  11  24  38  55  81 113 149 190 239 291 348
#     4  10  21  38  62  94 131 171 212 250 293 348
#     4   9  18  33  51  70  93 124 166 218 278 344
#     4  11  22  38  60  85 115 151 192 239 291 346
#
# _framework density 20.753412000000001
#
# number of rings (size 3 to 8) (size 9 to 14) (size 15 to 20)
#    0.000    1.714    0.000    6.857    0.000    8.286 
#    0.000    1.429    0.000    0.429    0.000    0.000 
#    0.000    0.000    0.000    0.000    0.000    0.000 
#
# Total GULP energy -693804.748895 kJ/mol
# GULP energy per Si atom -12389.370516 kJ/mol
# Density = 2.070618 g / cm^3
# Si number density = 20.753412 Si / 1000 Ang^3
#
#
#
# Elastic Constant Matrix: (Units=GPa)
#
#
# Indices 1 2 3 4 5 6 
#
# 1 105.2531 26.2430 47.9932 0.0000 0.0000 0.0000
# 2 26.2430 55.8734 37.8518 0.0000 0.0000 0.0000
# 3 47.9932 37.8518 135.7175 0.0000 0.0000 0.0000
# 4 0.0000 0.0000 0.0000 3.1863 0.0000 0.0000
# 5 0.0000 0.0000 0.0000 0.0000 37.9329 0.0000
# 6 0.0000 0.0000 0.0000 0.0000 0.0000 31.0967
#
#
#
# Elastic Compliance Matrix: (Units=1/GPa)
#
#
# Indices 1 2 3 4 5 6 
#
# 1 0.011816 -0.003352 -0.003243 0.000000 0.000000 0.000000
# 2 -0.003352 0.023018 -0.005234 0.000000 0.000000 0.000000
# 3 -0.003243 -0.005234 0.009975 0.000000 0.000000 0.000000
# 4 0.000000 0.000000 0.000000 0.313843 0.000000 0.000000
# 5 0.000000 0.000000 0.000000 0.000000 0.026362 0.000000
# 6 0.000000 0.000000 0.000000 0.000000 0.000000 0.032158
#
#
# Mechanical properties :
#
#
# Convention : Reuss Voigt Hill
#
# Bulk Modulus (GPa) = 47.28409 57.89109 52.58759
# Shear Modulus (GPa) = 11.16365 26.76023 18.96194
#
# Velocity S-wave (km/s) = 2.32182 3.59477 3.02599
# Velocity P-wave (km/s) = 5.47915 6.72199 6.13213
#
# Compressibility (1/GPa) = 0.02114876
#
# Stress axis : x y z
#
# Youngs Moduli (GPa) = 84.63335 43.44382 100.25043
#
# Poissons Ratio (x) = 0.14564 0.32514
# Poissons Ratio (y) = 0.28373 0.52474
# Poissons Ratio (z) = 0.27449 0.22740
#
# Static dielectric constant tensor:
#      x y z
#    x 3.936440 0.000000 0.000000 
#    y 0.000000 3.610850 0.000000 
#    z 0.000000 0.000000 4.907050 
# 
# 
# High freq. dielectric constant tensor:
#      x y z
#    x 1.815010 0.000000 0.000000 
#    y 0.000000 1.785900 0.000000 
#    z 0.000000 0.000000 1.825900 
# 
# From -- ./inp_files/21744.got.cif
#   From: 2010.03.12/outbox.cif.g09.slc.cpg/sg51_11_cif.got.tgz:21744.got - 2010.04.16 13:43:02.
