data_PCOD8214397
_publ_section_title
;
Structure prediction by ZEFSAII (Michael W. Deem and Ramdas Pophale) SiO2 
 PCOD8214397
Probable space group: P M M A
;
_chemical_formula_sum "Si O2"
_cell_formula_units_Z 38
_cell_length_a 17.207695
_cell_length_b 10.893884
_cell_length_c 9.766275
_cell_angle_alpha 90.000000
_cell_angle_beta 90.000000
_cell_angle_gamma 90.000000
_cell_volume 1830.772563
_symmetry_space_group_name_H-M "P M M A"
_symmetry_group_IT_number 51
_symmetry_cell_setting 'orthorhombic'
loop_
_space_group_symop_operation_xyz
x,y,z
1/2-x,-y,z
1/2+x,-y,-z
-x,y,-z
-x,-y,-z
1/2+x,y,-z
1/2-x,y,z
x,-y,z
loop_
_atom_site_type_symbol
_atom_site_label
_atom_site_fract_x
_atom_site_fract_y
_atom_site_fract_z
Si Si1 0.750000 0.147469 0.873385
Si Si2 0.000000 0.700526 0.500000
Si Si3 0.250000 0.231101 0.441211
Si Si4 0.666499 0.270553 0.103622
Si Si5 0.945330 0.500000 0.124541
Si Si6 0.383426 0.140750 0.634804
Si Si7 0.250000 0.500000 0.364534
Si Si8 0.578831 0.500000 0.654899
O O1 0.750000 0.198157 0.719765
O O2 0.750000 0.000000 0.874239
O O3 0.673590 0.201429 0.954966
O O4 0.963205 0.783943 0.381455
O O5 0.929045 0.620307 0.560999
O O6 0.325036 0.174076 0.512502
O O7 0.250000 0.379146 0.459148
O O8 0.750000 0.331582 0.138206
O O9 0.604186 0.377112 0.113907
O O10 0.650673 0.166328 0.215804
O O11 0.002193 0.500000 0.252811
O O12 0.000000 0.500000 0.000000
O O13 0.405224 0.000000 0.623737
O O14 0.166952 0.500000 0.278258
#
# Coordination Sequence:
#
# PCOD8214397 Si02
#       8
#     4   4   4   8   4   8   2   4
#     4  10  23  44  67  98 139 178 226 280 334 410
#     4  11  23  42  64  98 133 181 218 282 340 405
#     4  12  25  39  70 101 133 178 234 276 338 394
#     4  10  24  42  71 100 136 178 226 274 348 403
#     4  12  26  44  69  97 137 177 231 285 334 412
#     4  12  23  42  67 100 138 181 229 275 336 413
#     4  12  26  42  64  94 132 176 218 284 344 394
#     4  11  24  42  65  93 138 168 228 282 346 390
#
# _framework density 20.756264000000002
#
# number of rings (size 3 to 8) (size 9 to 14) (size 15 to 20)
#    0.632    0.211    5.263    2.211    2.947    0.842 
#    0.000    0.000    0.000    1.263    0.000    0.000 
#    0.000    0.000    0.000    0.000    0.000    0.000 
#
# Total GULP energy -470841.438150 kJ/mol
# GULP energy per Si atom -12390.564162 kJ/mol
# Density = 2.070902 g / cm^3
# Si number density = 20.756264 Si / 1000 Ang^3
#
#
#
# Elastic Constant Matrix: (Units=GPa)
#
#
# Indices 1 2 3 4 5 6 
#
# 1 117.6727 56.6811 20.1228 0.0000 0.0000 0.0000
# 2 56.6811 163.0430 46.2146 0.0000 0.0000 0.0000
# 3 20.1228 46.2146 115.3641 0.0000 0.0000 0.0000
# 4 0.0000 0.0000 0.0000 24.1296 0.0000 0.0000
# 5 0.0000 0.0000 0.0000 0.0000 31.7241 0.0000
# 6 0.0000 0.0000 0.0000 0.0000 0.0000 24.2639
#
#
#
# Elastic Compliance Matrix: (Units=1/GPa)
#
#
# Indices 1 2 3 4 5 6 
#
# 1 0.010224 -0.003439 -0.000406 0.000000 0.000000 0.000000
# 2 -0.003439 0.008076 -0.002635 0.000000 0.000000 0.000000
# 3 -0.000406 -0.002635 0.009795 0.000000 0.000000 0.000000
# 4 0.000000 0.000000 0.000000 0.041443 0.000000 0.000000
# 5 0.000000 0.000000 0.000000 0.000000 0.031522 0.000000
# 6 0.000000 0.000000 0.000000 0.000000 0.000000 0.041214
#
#
# Mechanical properties :
#
#
# Convention : Reuss Voigt Hill
#
# Bulk Modulus (GPa) = 66.07514 71.34631 68.71073
# Shear Modulus (GPa) = 31.19570 34.22760 32.71165
#
# Velocity S-wave (km/s) = 3.88100 4.06522 3.97418
# Velocity P-wave (km/s) = 7.21012 7.51550 7.36439
#
# Compressibility (1/GPa) = 0.01513428
#
# Stress axis : x y z
#
# Youngs Moduli (GPa) = 97.80681 123.82307 102.09658
#
# Poissons Ratio (x) = 0.42588 0.04141
# Poissons Ratio (y) = 0.33640 0.26906
# Poissons Ratio (z) = 0.03967 0.32631
#
# Static dielectric constant tensor:
#      x y z
#    x 3.803160 0.000000 0.000000 
#    y 0.000000 3.810060 0.000000 
#    z 0.000000 0.000000 3.705490 
# 
# 
# High freq. dielectric constant tensor:
#      x y z
#    x 1.814310 0.000000 0.000000 
#    y 0.000000 1.825250 0.000000 
#    z 0.000000 0.000000 1.802550 
# 
# From -- ./inp_files/9346.got.cif
#   From: 2010.03.12/outbox.cif.g09.slc.cpg/sg51_5_cif.got.tgz:9346.got - 2010.04.16 13:43:02.
