data_PCOD8214105
_publ_section_title
;
Structure prediction by ZEFSAII (Michael W. Deem and Ramdas Pophale) SiO2 
 PCOD8214105
Probable space group: P M M A
;
_chemical_formula_sum "Si O2"
_cell_formula_units_Z 64
_cell_length_a 8.829301
_cell_length_b 15.258594
_cell_length_c 24.896641
_cell_angle_alpha 90.000000
_cell_angle_beta 90.000000
_cell_angle_gamma 90.000000
_cell_volume 3354.143176
_symmetry_space_group_name_H-M "P M M A"
_symmetry_group_IT_number 51
_symmetry_cell_setting 'orthorhombic'
loop_
_space_group_symop_operation_xyz
x,y,z
1/2-x,-y,z
1/2+x,-y,-z
-x,y,-z
-x,-y,-z
1/2+x,y,-z
1/2-x,y,z
x,-y,z
loop_
_atom_site_type_symbol
_atom_site_label
_atom_site_fract_x
_atom_site_fract_y
_atom_site_fract_z
Si Si1 0.418283 0.372306 0.213487
Si Si2 0.422936 0.597778 0.893801
Si Si3 0.927984 0.225161 0.355610
Si Si4 0.427119 0.403223 0.333298
Si Si5 0.570881 0.762292 0.943364
Si Si6 0.927950 0.899767 0.556710
Si Si7 0.919754 0.179000 0.753168
Si Si8 0.930018 0.903515 0.858929
O O1 0.250000 0.409248 0.201221
O O2 0.533232 0.405669 0.168798
O O3 0.475988 0.406565 0.271065
O O4 0.413114 0.267968 0.213050
O O5 0.250000 0.629137 0.898894
O O6 0.443338 0.500000 0.917751
O O7 0.527814 0.663668 0.926941
O O8 0.750000 0.221614 0.363496
O O9 0.981960 0.326123 0.363291
O O10 0.005572 0.164994 0.399503
O O11 0.970047 0.186218 0.297490
O O12 0.250000 0.379316 0.337337
O O13 0.460909 0.500000 0.358475
O O14 0.750000 0.768320 0.947863
O O15 0.504130 0.831480 0.900035
O O16 0.500000 0.787912 0.000000
O O17 0.750000 0.885517 0.552614
O O18 0.000000 0.874662 0.500000
O O19 0.968067 0.000000 0.572403
O O20 0.750000 0.154554 0.732605
O O21 0.984382 0.110517 0.797047
O O22 0.750000 0.896031 0.858927
O O23 0.984523 0.000000 0.877291
#
# Coordination Sequence:
#
# PCOD8214105 Si02
#       8
#     8   8   8   8   8   8   8   8
#     4   9  16  30  52  78 107 143 184 224 269 322
#     4  11  23  36  53  79 108 139 176 219 270 328
#     4  11  22  34  53  85 123 159 193 236 286 339
#     4   9  18  33  53  78 112 155 200 240 279 330
#     4  11  23  41  61  81 104 136 175 221 275 330
#     4  10  21  39  63  88 115 151 196 245 293 342
#     4   9  17  33  54  79 112 150 190 225 268 326
#     4   9  18  35  60  85 108 138 178 221 268 328
#
# _framework density 19.080877999999998
#
# number of rings (size 3 to 8) (size 9 to 14) (size 15 to 20)
#    0.000    2.125    1.250    3.375    0.000    5.500 
#    0.000    1.250    0.000    3.000    0.000    0.000 
#    0.000    0.000    0.000    0.000    0.000    0.000 
#
# Total GULP energy -793456.203531 kJ/mol
# GULP energy per Si atom -12397.753180 kJ/mol
# Density = 1.903745 g / cm^3
# Si number density = 19.080878 Si / 1000 Ang^3
#
#
#
# Elastic Constant Matrix: (Units=GPa)
#
#
# Indices 1 2 3 4 5 6 
#
# 1 69.3402 35.4520 35.3510 0.0000 0.0000 0.0000
# 2 35.4520 121.8745 62.2890 0.0000 0.0000 0.0000
# 3 35.3510 62.2890 93.2017 0.0000 0.0000 0.0000
# 4 0.0000 0.0000 0.0000 19.0022 0.0000 0.0000
# 5 0.0000 0.0000 0.0000 0.0000 31.7357 0.0000
# 6 0.0000 0.0000 0.0000 0.0000 0.0000 8.1731
#
#
#
# Elastic Compliance Matrix: (Units=1/GPa)
#
#
# Indices 1 2 3 4 5 6 
#
# 1 0.018454 -0.002720 -0.005182 0.000000 0.000000 0.000000
# 2 -0.002720 0.012863 -0.007565 0.000000 0.000000 0.000000
# 3 -0.005182 -0.007565 0.017751 0.000000 0.000000 0.000000
# 4 0.000000 0.000000 0.000000 0.052625 0.000000 0.000000
# 5 0.000000 0.000000 0.000000 0.000000 0.031510 0.000000
# 6 0.000000 0.000000 0.000000 0.000000 0.000000 0.122353
#
#
# Mechanical properties :
#
#
# Convention : Reuss Voigt Hill
#
# Bulk Modulus (GPa) = 55.14366 61.17784 58.16075
# Shear Modulus (GPa) = 17.09205 21.87049 19.48127
#
# Velocity S-wave (km/s) = 2.99619 3.38923 3.19875
# Velocity P-wave (km/s) = 6.39783 6.88824 6.64756
#
# Compressibility (1/GPa) = 0.01813445
#
# Stress axis : x y z
#
# Youngs Moduli (GPa) = 54.18888 77.74472 56.33583
#
# Poissons Ratio (x) = 0.21144 0.29193
# Poissons Ratio (y) = 0.14737 0.42617
# Poissons Ratio (z) = 0.28080 0.58813
#
# Static dielectric constant tensor:
#      x y z
#    x 3.237100 0.000000 0.000000 
#    y 0.000000 3.698060 0.000000 
#    z 0.000000 0.000000 4.923030 
# 
# 
# High freq. dielectric constant tensor:
#      x y z
#    x 1.725720 0.000000 0.000000 
#    y 0.000000 1.751140 0.000000 
#    z 0.000000 0.000000 1.722040 
# 
# From -- ./inp_files/34905.got.cif
#   From: 2010.03.12/outbox.cif.g09.slc.cpg/sg51_18_cif.got.tgz:34905.got - 2010.04.16 13:43:02.
