data_PCOD8214237
_publ_section_title
;
Structure prediction by ZEFSAII (Michael W. Deem and Ramdas Pophale) SiO2 
 PCOD8214237
Probable space group: P M M A
;
_chemical_formula_sum "Si O2"
_cell_formula_units_Z 48
_cell_length_a 28.688009
_cell_length_b 9.131893
_cell_length_c 9.754474
_cell_angle_alpha 90.000000
_cell_angle_beta 90.000000
_cell_angle_gamma 90.000000
_cell_volume 2555.436408
_symmetry_space_group_name_H-M "P M M A"
_symmetry_group_IT_number 51
_symmetry_cell_setting 'orthorhombic'
loop_
_space_group_symop_operation_xyz
x,y,z
1/2-x,-y,z
1/2+x,-y,-z
-x,y,-z
-x,-y,-z
1/2+x,y,-z
1/2-x,y,z
x,-y,z
loop_
_atom_site_type_symbol
_atom_site_label
_atom_site_fract_x
_atom_site_fract_y
_atom_site_fract_z
Si Si1 0.695251 0.166055 0.288812
Si Si2 0.623865 0.328836 0.786812
Si Si3 0.980441 0.334538 0.848815
Si Si4 0.802830 0.827539 0.978523
Si Si5 0.034115 0.171723 0.622143
Si Si6 0.374609 0.327197 0.528155
O O1 0.750000 0.176400 0.312234
O O2 0.672071 0.275670 0.396491
O O3 0.677983 0.000000 0.315019
O O4 0.682635 0.214311 0.133715
O O5 0.633345 0.500000 0.800329
O O6 0.573417 0.285211 0.846355
O O7 0.663223 0.248324 0.872204
O O8 0.627055 0.276669 0.629546
O O9 0.984654 0.500000 0.789262
O O10 0.010806 0.222193 0.762392
O O11 0.000000 0.326924 0.000000
O O12 0.750000 0.774761 0.949465
O O13 0.806382 0.000000 0.958266
O O14 0.082551 0.253457 0.605292
O O15 0.000000 0.217106 0.500000
O O16 0.043638 0.000000 0.627391
O O17 0.379984 0.500000 0.540436
#
# Coordination Sequence:
#
# PCOD8214237 Si02
#       6
#     8   8   8   8   8   8
#     4   9  20  40  62  86 117 150 189 238 288 341
#     4  10  22  38  56  84 118 151 190 236 284 337
#     4  10  22  40  60  84 117 155 193 234 285 343
#     4   9  20  39  61  84 113 150 188 232 288 341
#     4  11  23  39  60  86 116 152 194 236 284 339
#     4  11  23  38  59  85 117 155 192 234 287 343
#
# _framework density 18.783484999999999
#
# number of rings (size 3 to 8) (size 9 to 14) (size 15 to 20)
#    0.000    2.000    1.667    2.000    2.333    5.000 
#    0.000    5.000    0.000    0.000    0.000    0.000 
#    0.000    0.000    0.000    0.000    0.000    0.000 
#
# Total GULP energy -595368.816971 kJ/mol
# GULP energy per Si atom -12403.517020 kJ/mol
# Density = 1.874073 g / cm^3
# Si number density = 18.783485 Si / 1000 Ang^3
#
#
#
# Elastic Constant Matrix: (Units=GPa)
#
#
# Indices 1 2 3 4 5 6 
#
# 1 108.0068 40.8096 69.1698 0.0000 0.0000 0.0000
# 2 40.8096 56.7727 44.5765 0.0000 0.0000 0.0000
# 3 69.1698 44.5765 108.3859 0.0000 0.0000 0.0000
# 4 0.0000 0.0000 0.0000 35.2491 0.0000 0.0000
# 5 0.0000 0.0000 0.0000 0.0000 35.9406 0.0000
# 6 0.0000 0.0000 0.0000 0.0000 0.0000 62.4532
#
#
#
# Elastic Compliance Matrix: (Units=1/GPa)
#
#
# Indices 1 2 3 4 5 6 
#
# 1 0.016698 -0.005370 -0.008448 0.000000 0.000000 0.000000
# 2 -0.005370 0.027742 -0.007983 0.000000 0.000000 0.000000
# 3 -0.008448 -0.007983 0.017900 0.000000 0.000000 0.000000
# 4 0.000000 0.000000 0.000000 0.028370 0.000000 0.000000
# 5 0.000000 0.000000 0.000000 0.000000 0.027824 0.000000
# 6 0.000000 0.000000 0.000000 0.000000 0.000000 0.016012
#
#
# Mechanical properties :
#
#
# Convention : Reuss Voigt Hill
#
# Bulk Modulus (GPa) = 53.36242 64.69745 59.02993
# Shear Modulus (GPa) = 27.11616 34.63589 30.87602
#
# Velocity S-wave (km/s) = 3.80362 4.29879 4.05876
# Velocity P-wave (km/s) = 6.91093 7.69142 7.31160
#
# Compressibility (1/GPa) = 0.01873978
#
# Stress axis : x y z
#
# Youngs Moduli (GPa) = 59.88857 36.04668 55.86440
#
# Poissons Ratio (x) = 0.19356 0.47192
# Poissons Ratio (y) = 0.32159 0.44594
# Poissons Ratio (z) = 0.50592 0.28775
#
# Static dielectric constant tensor:
#      x y z
#    x 3.484220 0.000000 0.000000 
#    y 0.000000 3.419170 0.000000 
#    z 0.000000 0.000000 3.512170 
# 
# 
# High freq. dielectric constant tensor:
#      x y z
#    x 1.739110 0.000000 0.000000 
#    y 0.000000 1.727210 0.000000 
#    z 0.000000 0.000000 1.735390 
# 
# From -- ./inp_files/12801.got.cif
#   From: 2010.03.12/outbox.cif.g09.slc.cpg/sg51_7_cif.got.tgz:12801.got - 2010.04.16 13:43:02.
