data_PCOD8214440
_publ_section_title
;
Structure prediction by ZEFSAII (Michael W. Deem and Ramdas Pophale) SiO2 
 PCOD8214440
Probable space group: P M M A
;
_chemical_formula_sum "Si O2"
_cell_formula_units_Z 56
_cell_length_a 22.087413
_cell_length_b 13.644686
_cell_length_c 9.955691
_cell_angle_alpha 90.000000
_cell_angle_beta 90.000000
_cell_angle_gamma 90.000000
_cell_volume 3000.404488
_symmetry_space_group_name_H-M "P M M A"
_symmetry_group_IT_number 51
_symmetry_cell_setting 'orthorhombic'
loop_
_space_group_symop_operation_xyz
x,y,z
1/2-x,-y,z
1/2+x,-y,-z
-x,y,-z
-x,-y,-z
1/2+x,y,-z
1/2-x,y,z
x,-y,z
loop_
_atom_site_type_symbol
_atom_site_label
_atom_site_fract_x
_atom_site_fract_y
_atom_site_fract_z
Si Si1 0.496897 0.615277 0.659072
Si Si2 0.680185 0.889053 0.657562
Si Si3 0.681374 0.391264 0.480000
Si Si4 0.627891 0.702017 0.237478
Si Si5 0.879455 0.299239 0.725405
Si Si6 0.680260 0.110621 0.341793
Si Si7 0.319741 0.385955 0.019747
O O1 0.500000 0.631753 0.500000
O O2 0.500381 0.500000 0.694859
O O3 0.437059 0.663400 0.718219
O O4 0.549964 0.674737 0.735079
O O5 0.750000 0.864648 0.692534
O O6 0.635813 0.816570 0.741332
O O7 0.669503 0.875146 0.499644
O O8 0.664515 0.000000 0.701047
O O9 0.750000 0.391011 0.530095
O O10 0.653406 0.500000 0.483250
O O11 0.678562 0.350782 0.328953
O O12 0.641686 0.325156 0.575965
O O13 0.635227 0.818779 0.258813
O O14 0.639874 0.676555 0.082977
O O15 0.842536 0.363459 0.831241
O O16 0.750000 0.134553 0.306651
O O17 0.664309 0.000000 0.298836
O O18 0.250000 0.354952 0.007193
O O19 0.328601 0.500000 0.988842
#
# Coordination Sequence:
#
# PCOD8214440 Si02
#       7
#     8   8   8   8   8   8   8
#     4  11  22  37  58  84 115 154 203 248 281 337
#     4   9  17  32  57  87 114 143 189 249 305 351
#     4  11  20  31  54  82 105 139 189 240 290 342
#     4  12  22  37  57  81 117 155 193 238 289 345
#     4  12  22  37  57  81 117 155 193 238 289 345
#     4   9  17  32  57  87 114 143 189 249 305 351
#     4  11  24  39  56  84 121 155 191 242 300 356
#
# _framework density 18.664151
#
# number of rings (size 3 to 8) (size 9 to 14) (size 15 to 20)
#    0.000    1.286    2.857    6.000    0.000    2.857 
#    0.000    2.857    0.000    5.143    0.000    2.000 
#    0.000    0.000    0.000    0.000    0.000    0.000 
#
# Total GULP energy -694477.689031 kJ/mol
# GULP energy per Si atom -12401.387304 kJ/mol
# Density = 1.862167 g / cm^3
# Si number density = 18.664151 Si / 1000 Ang^3
#
#
#
# Elastic Constant Matrix: (Units=GPa)
#
#
# Indices 1 2 3 4 5 6 
#
# 1 105.2564 68.7666 26.9735 0.0000 0.0000 0.0000
# 2 68.7666 134.1740 25.9743 0.0000 0.0000 0.0000
# 3 26.9735 25.9743 49.2764 0.0000 0.0000 0.0000
# 4 0.0000 0.0000 0.0000 26.5954 0.0000 0.0000
# 5 0.0000 0.0000 0.0000 0.0000 25.2378 0.0000
# 6 0.0000 0.0000 0.0000 0.0000 0.0000 29.7030
#
#
#
# Elastic Compliance Matrix: (Units=1/GPa)
#
#
# Indices 1 2 3 4 5 6 
#
# 1 0.015199 -0.006881 -0.004693 0.000000 0.000000 0.000000
# 2 -0.006881 0.011415 -0.002250 0.000000 0.000000 0.000000
# 3 -0.004693 -0.002250 0.024049 0.000000 0.000000 0.000000
# 4 0.000000 0.000000 0.000000 0.037600 0.000000 0.000000
# 5 0.000000 0.000000 0.000000 0.000000 0.039623 0.000000
# 6 0.000000 0.000000 0.000000 0.000000 0.000000 0.033667
#
#
# Mechanical properties :
#
#
# Convention : Reuss Voigt Hill
#
# Bulk Modulus (GPa) = 43.45117 59.12620 51.28868
# Shear Modulus (GPa) = 25.39708 27.44007 26.41858
#
# Velocity S-wave (km/s) = 3.69282 3.83848 3.76636
# Velocity P-wave (km/s) = 6.44311 7.16889 6.81567
#
# Compressibility (1/GPa) = 0.02301434
#
# Stress axis : x y z
#
# Youngs Moduli (GPa) = 65.79449 87.60054 41.58246
#
# Poissons Ratio (x) = 0.60280 0.19513
# Poissons Ratio (y) = 0.45275 0.09358
# Poissons Ratio (z) = 0.30874 0.19714
#
# Static dielectric constant tensor:
#      x y z
#    x 3.421630 0.000000 0.000000 
#    y 0.000000 3.638730 0.000000 
#    z 0.000000 0.000000 3.188910 
# 
# 
# High freq. dielectric constant tensor:
#      x y z
#    x 1.712480 0.000000 0.000000 
#    y 0.000000 1.732340 0.000000 
#    z 0.000000 0.000000 1.700610 
# 
# From -- ./inp_files/10979.got.cif
#   From: 2010.03.12/outbox.cif.g09.slc.cpg/sg51_6_cif.got.tgz:10979.got - 2010.04.16 13:43:02.
