data_PCOD8214913
_publ_section_title
;
Structure prediction by ZEFSAII (Michael W. Deem and Ramdas Pophale) SiO2 
 PCOD8214913
Probable space group: P N N A
;
_chemical_formula_sum "Si O2"
_cell_formula_units_Z 64
_cell_length_a 12.115596
_cell_length_b 17.345323
_cell_length_c 16.435888
_cell_angle_alpha 90.000000
_cell_angle_beta 90.000000
_cell_angle_gamma 90.000000
_cell_volume 3453.984210
_symmetry_space_group_name_H-M "P N N A"
_symmetry_group_IT_number 52
_symmetry_cell_setting 'orthorhombic'
loop_
_space_group_symop_operation_xyz
x,y,z
1/2-x,-y,z
x,1/2-y,1/2-z
1/2-x,1/2+y,1/2-z
-x,-y,-z
1/2+x,y,-z
-x,1/2+y,1/2+z
1/2+x,1/2-y,1/2+z
loop_
_atom_site_type_symbol
_atom_site_label
_atom_site_fract_x
_atom_site_fract_y
_atom_site_fract_z
Si Si1 0.749999 0.171044 0.800466
Si Si2 0.518865 0.798067 0.832085
Si Si3 0.750001 0.589193 0.856204
Si Si4 0.016203 0.645820 0.091473
Si Si5 0.123922 0.911530 0.739315
Si Si6 0.983798 0.645819 0.908528
Si Si7 0.623922 0.088471 0.260685
Si Si8 0.981136 0.701933 0.667915
O O1 0.750000 0.250000 0.750000
O O2 0.861544 0.165166 0.854652
O O3 0.749997 0.096951 0.741056
O O4 0.638456 0.165167 0.854653
O O5 0.533878 0.750000 0.750000
O O6 0.484231 0.737004 0.901810
O O7 0.427457 0.863369 0.814826
O O8 0.750000 0.500000 0.882168
O O9 0.644242 0.633589 0.890034
O O10 0.855758 0.633588 0.890037
O O11 0.940996 0.598060 0.154311
O O12 0.000002 0.616182 0.000000
O O13 0.250000 0.884539 0.726184
O O14 0.072543 0.863369 0.814826
O O15 0.059004 0.901940 0.654311
O O16 0.117661 0.000000 0.765751
O O17 0.015771 0.737003 0.901809
O O18 0.966122 0.750000 0.750000
#
# Coordination Sequence:
#
# PCOD8214913 Si02
#       8
#     8   8   8   8   8   8   8   8
#     4  10  14  32  56  74  96 130 174 228 253 293
#     4   9  17  33  56  73 101 134 181 221 256 297
#     4  12  22  34  54  80 107 140 173 214 269 316
#     4  11  23  36  51  78 111 145 176 210 258 321
#     4  10  21  36  54  79 107 138 177 220 262 309
#     4  11  23  36  51  78 111 145 176 210 258 321
#     4  10  21  36  54  79 107 138 177 220 262 309
#     4   9  17  33  56  73 101 134 181 221 256 297
#
# _framework density 18.529326000000001
#
# number of rings (size 3 to 8) (size 9 to 14) (size 15 to 20)
#    0.000    1.750    7.500    0.750    1.750    6.500 
#    0.000    0.000    0.000    0.750    0.000    0.000 
#    0.000    0.000    0.000    0.000    0.000    0.000 
#
# Total GULP energy -793125.019269 kJ/mol
# GULP energy per Si atom -12392.578426 kJ/mol
# Density = 1.848715 g / cm^3
# Si number density = 18.529326 Si / 1000 Ang^3
#
#
#
# Elastic Constant Matrix: (Units=GPa)
#
#
# Indices 1 2 3 4 5 6 
#
# 1 139.7636 42.6622 5.6829 0.0000 0.0000 0.0000
# 2 42.6622 91.3568 23.7128 0.0000 0.0000 0.0000
# 3 5.6829 23.7128 22.5425 0.0000 0.0000 0.0000
# 4 0.0000 0.0000 0.0000 14.5716 0.0000 0.0000
# 5 0.0000 0.0000 0.0000 0.0000 3.3720 0.0000
# 6 0.0000 0.0000 0.0000 0.0000 0.0000 17.0229
#
#
#
# Elastic Compliance Matrix: (Units=1/GPa)
#
#
# Indices 1 2 3 4 5 6 
#
# 1 0.008470 -0.004678 0.002786 0.000000 0.000000 0.000000
# 2 -0.004678 0.017641 -0.017378 0.000000 0.000000 0.000000
# 3 0.002786 -0.017378 0.061938 0.000000 0.000000 0.000000
# 4 0.000000 0.000000 0.000000 0.068627 0.000000 0.000000
# 5 0.000000 0.000000 0.000000 0.000000 0.296561 0.000000
# 6 0.000000 0.000000 0.000000 0.000000 0.000000 0.058745
#
#
# Mechanical properties :
#
#
# Convention : Reuss Voigt Hill
#
# Bulk Modulus (GPa) = 20.19834 44.19763 32.19798
# Shear Modulus (GPa) = 8.81795 19.10029 13.95912
#
# Velocity S-wave (km/s) = 2.18386 3.21411 2.74771
# Velocity P-wave (km/s) = 4.15733 6.13829 5.24223
#
# Compressibility (1/GPa) = 0.04950902
#
# Stress axis : x y z
#
# Youngs Moduli (GPa) = 118.06784 56.68459 16.14511
#
# Poissons Ratio (x) = 0.26519 -0.04498
# Poissons Ratio (y) = 0.55237 0.28057
# Poissons Ratio (z) = -0.32894 0.98506
#
# Static dielectric constant tensor:
#      x y z
#    x 3.744230 0.000000 0.000000 
#    y 0.000000 3.506300 0.000000 
#    z 0.000000 0.000000 3.166500 
# 
# 
# High freq. dielectric constant tensor:
#      x y z
#    x 1.739170 0.000000 0.000000 
#    y 0.000000 1.714040 0.000000 
#    z 0.000000 0.000000 1.658480 
# 
# From -- ./inp_files/32474.got.cif
#   From: 2010.06.25/outbox.cif.g09.slc.cpg/sg52_17_cif.got.tgz:32474.got - 2010.06.26 19:32:48.
