data_PCOD8214853
_publ_section_title
;
Structure prediction by ZEFSAII (Michael W. Deem and Ramdas Pophale) SiO2 
 PCOD8214853
Probable space group: P M M A
;
_chemical_formula_sum "Si O2"
_cell_formula_units_Z 48
_cell_length_a 18.016914
_cell_length_b 9.657500
_cell_length_c 16.489655
_cell_angle_alpha 90.000000
_cell_angle_beta 90.000000
_cell_angle_gamma 90.000000
_cell_volume 2869.172712
_symmetry_space_group_name_H-M "P M M A"
_symmetry_group_IT_number 51
_symmetry_cell_setting 'orthorhombic'
loop_
_space_group_symop_operation_xyz
x,y,z
1/2-x,-y,z
1/2+x,-y,-z
-x,y,-z
-x,-y,-z
1/2+x,y,-z
1/2-x,y,z
x,-y,z
loop_
_atom_site_type_symbol
_atom_site_label
_atom_site_fract_x
_atom_site_fract_y
_atom_site_fract_z
Si Si1 0.667095 0.164744 0.147659
Si Si2 0.981239 0.338125 0.590532
Si Si3 0.890901 0.157851 0.812690
Si Si4 0.954615 0.841587 0.272255
Si Si5 0.667711 0.658667 0.675373
Si Si6 0.417349 0.835260 0.008523
O O1 0.750000 0.223707 0.159305
O O2 0.617891 0.211675 0.224353
O O3 0.667172 0.000000 0.142701
O O4 0.633620 0.224512 0.063740
O O5 0.997291 0.500000 0.602629
O O6 0.894998 0.300735 0.609363
O O7 0.000000 0.289995 0.500000
O O8 0.035535 0.254563 0.649578
O O9 0.839463 0.251577 0.756430
O O10 0.882009 0.208760 0.905304
O O11 0.976925 0.172506 0.789086
O O12 0.864083 0.000000 0.802350
O O13 0.945701 0.000000 0.301626
O O14 0.750000 0.683691 0.637885
O O15 0.657142 0.500000 0.701436
O O16 0.422075 0.000000 0.003812
O O17 0.500000 0.772878 0.000000
#
# Coordination Sequence:
#
# PCOD8214853 Si02
#       6
#     8   8   8   8   8   8
#     4   9  16  25  39  62  92 125 158 190 225 264
#     4   9  18  33  52  71  89 113 149 186 220 271
#     4   9  16  26  45  69  91 118 153 190 224 260
#     4   9  16  28  46  67  91 119 149 184 225 269
#     4   9  18  32  48  66  92 122 147 179 228 277
#     4   9  14  23  40  63  93 125 156 190 225 261
#
# _framework density 16.729561
#
# number of rings (size 3 to 8) (size 9 to 14) (size 15 to 20)
#    0.000    3.000    1.667    0.000    0.000    1.333 
#    0.000    2.500    0.000    3.000    0.000    0.000 
#    0.000    0.000    0.000    0.000    0.000    0.000 
#
# Total GULP energy -595051.443499 kJ/mol
# GULP energy per Si atom -12396.905073 kJ/mol
# Density = 1.669148 g / cm^3
# Si number density = 16.729561 Si / 1000 Ang^3
#
#
#
# Elastic Constant Matrix: (Units=GPa)
#
#
# Indices 1 2 3 4 5 6 
#
# 1 115.2880 27.2004 69.7378 0.0000 0.0000 0.0000
# 2 27.2004 35.5874 44.4942 0.0000 0.0000 0.0000
# 3 69.7378 44.4942 147.8423 0.0000 0.0000 0.0000
# 4 0.0000 0.0000 0.0000 12.1871 0.0000 0.0000
# 5 0.0000 0.0000 0.0000 0.0000 21.0500 0.0000
# 6 0.0000 0.0000 0.0000 0.0000 0.0000 12.5814
#
#
#
# Elastic Compliance Matrix: (Units=1/GPa)
#
#
# Indices 1 2 3 4 5 6 
#
# 1 0.012399 -0.003470 -0.004804 0.000000 0.000000 0.000000
# 2 -0.003470 0.046023 -0.012214 0.000000 0.000000 0.000000
# 3 -0.004804 -0.012214 0.012706 0.000000 0.000000 0.000000
# 4 0.000000 0.000000 0.000000 0.082054 0.000000 0.000000
# 5 0.000000 0.000000 0.000000 0.000000 0.047506 0.000000
# 6 0.000000 0.000000 0.000000 0.000000 0.000000 0.079482
#
#
# Mechanical properties :
#
#
# Convention : Reuss Voigt Hill
#
# Bulk Modulus (GPa) = 33.16629 64.62027 48.89328
# Shear Modulus (GPa) = 15.09674 19.64939 17.37307
#
# Velocity S-wave (km/s) = 3.00726 3.43086 3.22602
# Velocity P-wave (km/s) = 5.65032 7.37595 6.57004
#
# Compressibility (1/GPa) = 0.03015109
#
# Stress axis : x y z
#
# Youngs Moduli (GPa) = 80.65368 21.72818 78.70270
#
# Poissons Ratio (x) = 0.07540 0.37810
# Poissons Ratio (y) = 0.27988 0.96129
# Poissons Ratio (z) = 0.38747 0.26539
#
# Static dielectric constant tensor:
#      x y z
#    x 3.271550 0.000000 0.000000 
#    y 0.000000 2.826200 0.000000 
#    z 0.000000 0.000000 3.129780 
# 
# 
# High freq. dielectric constant tensor:
#      x y z
#    x 1.643540 0.000000 0.000000 
#    y 0.000000 1.604050 0.000000 
#    z 0.000000 0.000000 1.638700 
# 
# From -- ./inp_files/25045.got.cif
#   From: 2010.03.12/outbox.cif.g09.slc.cpg/sg51_13_cif.got.tgz:25045.got - 2010.04.16 13:43:02.
