data_PCOD8214297
_publ_section_title
;
Structure prediction by ZEFSAII (Michael W. Deem and Ramdas Pophale) SiO2 
 PCOD8214297
Probable space group: P M M A
;
_chemical_formula_sum "Si O2"
_cell_formula_units_Z 40
_cell_length_a 7.689309
_cell_length_b 8.859376
_cell_length_c 29.952585
_cell_angle_alpha 90.000000
_cell_angle_beta 90.000000
_cell_angle_gamma 90.000000
_cell_volume 2040.444361
_symmetry_space_group_name_H-M "P M M A"
_symmetry_group_IT_number 51
_symmetry_cell_setting 'orthorhombic'
loop_
_space_group_symop_operation_xyz
x,y,z
1/2-x,-y,z
1/2+x,-y,-z
-x,y,-z
-x,-y,-z
1/2+x,y,-z
1/2-x,y,z
x,-y,z
loop_
_atom_site_type_symbol
_atom_site_label
_atom_site_fract_x
_atom_site_fract_y
_atom_site_fract_z
Si Si1 0.750000 0.820572 0.795731
Si Si2 0.250000 0.179228 0.305626
Si Si3 0.453055 0.165827 0.953842
Si Si4 0.546851 0.167553 0.452081
Si Si5 0.554946 0.819162 0.142090
Si Si6 0.047345 0.323062 0.637068
O O1 0.750000 0.762348 0.745191
O O2 0.577295 0.758133 0.820415
O O3 0.750000 0.000000 0.797016
O O4 0.427472 0.240071 0.327126
O O5 0.250000 0.000000 0.309259
O O6 0.250000 0.147586 0.949389
O O7 0.511113 0.242575 0.906826
O O8 0.542347 0.000000 0.957415
O O9 0.500000 0.256371 0.000000
O O10 0.500000 0.241341 0.500000
O O11 0.750000 0.152079 0.447626
O O12 0.480136 0.272721 0.411982
O O13 0.461074 0.000000 0.448461
O O14 0.750000 0.760999 0.153694
O O15 0.554635 0.000000 0.139963
O O16 0.250000 0.279561 0.645228
O O17 0.018365 0.500000 0.641313
#
# Coordination Sequence:
#
# PCOD8214297 Si02
#       6
#     4   4   8   8   8   8
#     4   9  18  29  43  63  85 119 163 213 270 315
#     4  11  23  37  57  83 107 139 189 239 286 333
#     4   8  13  18  26  43  66  99 143 191 243 293
#     4   9  18  32  52  81 114 148 183 218 261 316
#     4   8  14  24  35  50  77 110 149 201 255 306
#     4  10  22  40  59  81 112 148 184 226 278 333
#
# _framework density 19.603573000000001
#
# number of rings (size 3 to 8) (size 9 to 14) (size 15 to 20)
#    0.000    3.000    0.000    2.100    2.800    2.400 
#    0.000    2.000    0.000    0.000    0.000    0.000 
#    0.000    0.000    0.000    0.000    0.000    4.000 
#
# Total GULP energy -495525.598866 kJ/mol
# GULP energy per Si atom -12388.139972 kJ/mol
# Density = 1.955895 g / cm^3
# Si number density = 19.603573 Si / 1000 Ang^3
#
#
#
# Elastic Constant Matrix: (Units=GPa)
#
#
# Indices 1 2 3 4 5 6 
#
# 1 95.4997 26.8720 82.6079 0.0000 0.0000 0.0000
# 2 26.8720 43.4013 39.2737 0.0000 0.0000 0.0000
# 3 82.6079 39.2737 210.3151 0.0000 0.0000 0.0000
# 4 0.0000 0.0000 0.0000 7.0348 0.0000 0.0000
# 5 0.0000 0.0000 0.0000 0.0000 35.8878 0.0000
# 6 0.0000 0.0000 0.0000 0.0000 0.0000 16.0358
#
#
#
# Elastic Compliance Matrix: (Units=1/GPa)
#
#
# Indices 1 2 3 4 5 6 
#
# 1 0.016829 -0.005341 -0.005613 0.000000 0.000000 0.000000
# 2 -0.005341 0.029421 -0.003396 0.000000 0.000000 0.000000
# 3 -0.005613 -0.003396 0.007594 0.000000 0.000000 0.000000
# 4 0.000000 0.000000 0.000000 0.142150 0.000000 0.000000
# 5 0.000000 0.000000 0.000000 0.000000 0.027865 0.000000
# 6 0.000000 0.000000 0.000000 0.000000 0.000000 0.062360
#
#
# Mechanical properties :
#
#
# Convention : Reuss Voigt Hill
#
# Bulk Modulus (GPa) = 39.77115 71.85817 55.81466
# Shear Modulus (GPa) = 15.46555 25.15586 20.31070
#
# Velocity S-wave (km/s) = 2.81181 3.58610 3.22230
# Velocity P-wave (km/s) = 5.55639 7.34044 6.50982
#
# Compressibility (1/GPa) = 0.02514385
#
# Stress axis : x y z
#
# Youngs Moduli (GPa) = 59.42041 33.98964 131.68965
#
# Poissons Ratio (x) = 0.18153 0.73916
# Poissons Ratio (y) = 0.31735 0.44724
# Poissons Ratio (z) = 0.33352 0.11544
#
# Static dielectric constant tensor:
#      x y z
#    x 3.575770 0.000000 0.000000 
#    y 0.000000 3.032620 0.000000 
#    z 0.000000 0.000000 4.067720 
# 
# 
# High freq. dielectric constant tensor:
#      x y z
#    x 1.765950 0.000000 0.000000 
#    y 0.000000 1.689800 0.000000 
#    z 0.000000 0.000000 1.778750 
# 
# From -- ./inp_files/36005.got.cif
#   From: 2010.03.12/outbox.cif.g09.slc.cpg/sg51_19_cif.got.tgz:36005.got - 2010.04.16 13:43:02.
