data_PCOD8214703
_publ_section_title
;
Structure prediction by ZEFSAII (Michael W. Deem and Ramdas Pophale) SiO2 
 PCOD8214703
Probable space group: P M M A
;
_chemical_formula_sum "Si O2"
_cell_formula_units_Z 48
_cell_length_a 9.592585
_cell_length_b 9.714919
_cell_length_c 31.167965
_cell_angle_alpha 90.000000
_cell_angle_beta 90.000000
_cell_angle_gamma 90.000000
_cell_volume 2904.579632
_symmetry_space_group_name_H-M "P M M A"
_symmetry_group_IT_number 51
_symmetry_cell_setting 'orthorhombic'
loop_
_space_group_symop_operation_xyz
x,y,z
1/2-x,-y,z
1/2+x,-y,-z
-x,y,-z
-x,-y,-z
1/2+x,y,-z
1/2-x,y,z
x,-y,z
loop_
_atom_site_type_symbol
_atom_site_label
_atom_site_fract_x
_atom_site_fract_y
_atom_site_fract_z
Si Si1 0.912028 0.660462 0.709468
Si Si2 0.584209 0.153048 0.631715
Si Si3 0.907698 0.663781 0.209705
Si Si4 0.404847 0.836188 0.462318
Si Si5 0.405757 0.336271 0.037589
Si Si6 0.093005 0.663721 0.132584
O O1 0.750000 0.692380 0.719566
O O2 0.934656 0.500000 0.700412
O O3 0.967630 0.741371 0.667836
O O4 0.004690 0.712765 0.749127
O O5 0.750000 0.148058 0.630197
O O6 0.532615 0.203262 0.584614
O O7 0.526253 0.000000 0.642200
O O8 0.750000 0.722298 0.211737
O O9 0.904771 0.500000 0.207811
O O10 0.985025 0.723849 0.167478
O O11 0.500000 0.772777 0.500000
O O12 0.250000 0.774459 0.468156
O O13 0.398690 0.000000 0.465681
O O14 0.250000 0.282071 0.029857
O O15 0.409621 0.500000 0.034985
O O16 0.456912 0.289560 0.084996
O O17 0.500000 0.270646 0.000000
O O18 0.250000 0.718272 0.141807
O O19 0.095384 0.500000 0.135398
#
# Coordination Sequence:
#
# PCOD8214703 Si02
#       6
#     8   8   8   8   8   8
#     4   9  16  26  41  58  74  96 127 159 189 223
#     4   8  14  25  41  60  80 101 126 156 188 222
#     4   9  16  24  34  49  68  90 117 151 190 227
#     4   8  13  22  37  56  76  97 122 152 183 215
#     4   8  13  19  26  37  54  77 106 142 183 223
#     4   8  13  21  31  42  58  82 114 151 186 221
#
# _framework density 16.525628000000001
#
# number of rings (size 3 to 8) (size 9 to 14) (size 15 to 20)
#    0.000    3.667    0.000    2.500    0.000    2.667 
#    0.000    4.167    0.000    2.000    0.000    0.000 
#    0.000    0.000    0.000    0.000    0.000    0.833 
#
# Total GULP energy -594747.233662 kJ/mol
# GULP energy per Si atom -12390.567368 kJ/mol
# Density = 1.648801 g / cm^3
# Si number density = 16.525628 Si / 1000 Ang^3
#
#
#
# Elastic Constant Matrix: (Units=GPa)
#
#
# Indices 1 2 3 4 5 6 
#
# 1 89.5782 16.1507 85.1935 0.0000 0.0000 0.0000
# 2 16.1507 17.4448 30.7542 0.0000 0.0000 0.0000
# 3 85.1935 30.7542 186.7096 0.0000 0.0000 0.0000
# 4 0.0000 0.0000 0.0000 2.3624 0.0000 0.0000
# 5 0.0000 0.0000 0.0000 0.0000 31.1175 0.0000
# 6 0.0000 0.0000 0.0000 0.0000 0.0000 5.2997
#
#
#
# Elastic Compliance Matrix: (Units=1/GPa)
#
#
# Indices 1 2 3 4 5 6 
#
# 1 0.019864 -0.003398 -0.008504 0.000000 0.000000 0.000000
# 2 -0.003398 0.081363 -0.011851 0.000000 0.000000 0.000000
# 3 -0.008504 -0.011851 0.011188 0.000000 0.000000 0.000000
# 4 0.000000 0.000000 0.000000 0.423297 0.000000 0.000000
# 5 0.000000 0.000000 0.000000 0.000000 0.032136 0.000000
# 6 0.000000 0.000000 0.000000 0.000000 0.000000 0.188689
#
#
# Mechanical properties :
#
#
# Convention : Reuss Voigt Hill
#
# Bulk Modulus (GPa) = 15.40639 61.99217 38.69928
# Shear Modulus (GPa) = 6.05561 18.53154 12.29358
#
# Velocity S-wave (km/s) = 1.91633 3.35234 2.73043
# Velocity P-wave (km/s) = 3.77351 7.25110 5.78004
#
# Compressibility (1/GPa) = 0.06490812
#
# Stress axis : x y z
#
# Youngs Moduli (GPa) = 50.34299 12.29057 89.37988
#
# Poissons Ratio (x) = 0.04177 0.76007
# Poissons Ratio (y) = 0.17109 1.05926
# Poissons Ratio (z) = 0.42811 0.14566
#
# Static dielectric constant tensor:
#      x y z
#    x 3.190090 0.000000 0.000000 
#    y 0.000000 2.476800 0.000000 
#    z 0.000000 0.000000 3.558500 
# 
# 
# High freq. dielectric constant tensor:
#      x y z
#    x 1.619980 0.000000 0.000000 
#    y 0.000000 1.553410 0.000000 
#    z 0.000000 0.000000 1.655990 
# 
# From -- ./inp_files/37308.got.cif
#   From: 2010.03.12/outbox.cif.g09.slc.cpg/sg51_19_cif.got.tgz:37308.got - 2010.04.16 13:43:02.
