data_PCOD8214388
_publ_section_title
;
Structure prediction by ZEFSAII (Michael W. Deem and Ramdas Pophale) SiO2 
 PCOD8214388
Probable space group: P M M A
;
_chemical_formula_sum "Si O2"
_cell_formula_units_Z 40
_cell_length_a 18.602366
_cell_length_b 8.555703
_cell_length_c 12.302098
_cell_angle_alpha 90.000000
_cell_angle_beta 90.000000
_cell_angle_gamma 90.000000
_cell_volume 1957.956629
_symmetry_space_group_name_H-M "P M M A"
_symmetry_group_IT_number 51
_symmetry_cell_setting 'orthorhombic'
loop_
_space_group_symop_operation_xyz
x,y,z
1/2-x,-y,z
1/2+x,-y,-z
-x,y,-z
-x,-y,-z
1/2+x,y,-z
1/2-x,y,z
x,-y,z
loop_
_atom_site_type_symbol
_atom_site_label
_atom_site_fract_x
_atom_site_fract_y
_atom_site_fract_z
Si Si1 0.053906 0.818650 0.797996
Si Si2 0.832437 0.819509 0.022140
Si Si3 0.167736 0.181138 0.391835
Si Si4 0.929370 0.681542 0.434133
Si Si5 0.096853 0.319696 0.183806
O O1 0.121254 0.772812 0.873005
O O2 0.075229 0.780645 0.675170
O O3 0.985932 0.720423 0.840217
O O4 0.034646 0.000000 0.808916
O O5 0.750000 0.784546 0.051399
O O6 0.844151 0.000000 0.989840
O O7 0.855124 0.714108 0.920856
O O8 0.250000 0.227092 0.370005
O O9 0.140105 0.281899 0.493367
O O10 0.122513 0.216608 0.284573
O O11 0.158853 0.000000 0.421018
O O12 0.932225 0.500000 0.403455
O O13 0.000000 0.733208 0.500000
O O14 0.104276 0.500000 0.216301
#
# Coordination Sequence:
#
# PCOD8214388 Si02
#       5
#     8   8   8   8   8
#     4  11  23  40  66  93 122 164 211 257 306 366
#     4  10  23  43  64  89 123 162 206 255 308 368
#     4  11  24  41  64  93 124 163 210 257 308 368
#     4  11  23  40  63  93 127 163 203 253 311 369
#     4  12  24  39  62  93 126 162 206 256 311 371
#
# _framework density 20.429463999999999
#
# number of rings (size 3 to 8) (size 9 to 14) (size 15 to 20)
#    0.000    1.000    2.000    4.800    0.000   10.000 
#    0.000    2.000    0.000    0.000    0.000    0.000 
#    0.000    0.000    0.000    0.000    0.000    0.000 
#
# Total GULP energy -496348.163238 kJ/mol
# GULP energy per Si atom -12408.704081 kJ/mol
# Density = 2.038297 g / cm^3
# Si number density = 20.429464 Si / 1000 Ang^3
#
#
#
# Elastic Constant Matrix: (Units=GPa)
#
#
# Indices 1 2 3 4 5 6 
#
# 1 129.9583 26.4525 34.7784 0.0000 0.0000 0.0000
# 2 26.4525 51.9265 14.3577 0.0000 0.0000 0.0000
# 3 34.7784 14.3577 82.8947 0.0000 0.0000 0.0000
# 4 0.0000 0.0000 0.0000 22.8451 0.0000 0.0000
# 5 0.0000 0.0000 0.0000 0.0000 32.3322 0.0000
# 6 0.0000 0.0000 0.0000 0.0000 0.0000 21.5202
#
#
#
# Elastic Compliance Matrix: (Units=1/GPa)
#
#
# Indices 1 2 3 4 5 6 
#
# 1 0.009352 -0.003864 -0.003254 0.000000 0.000000 0.000000
# 2 -0.003864 0.021823 -0.002159 0.000000 0.000000 0.000000
# 3 -0.003254 -0.002159 0.013803 0.000000 0.000000 0.000000
# 4 0.000000 0.000000 0.000000 0.043773 0.000000 0.000000
# 5 0.000000 0.000000 0.000000 0.000000 0.030929 0.000000
# 6 0.000000 0.000000 0.000000 0.000000 0.000000 0.046468
#
#
# Mechanical properties :
#
#
# Convention : Reuss Voigt Hill
#
# Bulk Modulus (GPa) = 37.84484 46.21740 42.03112
# Shear Modulus (GPa) = 25.83831 27.95223 26.89527
#
# Velocity S-wave (km/s) = 3.56020 3.70297 3.63229
# Velocity P-wave (km/s) = 5.95524 6.39959 6.18141
#
# Compressibility (1/GPa) = 0.02642368
#
# Stress axis : x y z
#
# Youngs Moduli (GPa) = 106.92579 45.82223 72.44923
#
# Poissons Ratio (x) = 0.17708 0.23578
# Poissons Ratio (y) = 0.41321 0.15639
# Poissons Ratio (z) = 0.34798 0.09891
#
# Static dielectric constant tensor:
#      x y z
#    x 3.829810 0.000000 0.000000 
#    y 0.000000 3.702290 0.000000 
#    z 0.000000 0.000000 3.714800 
# 
# 
# High freq. dielectric constant tensor:
#      x y z
#    x 1.806630 0.000000 0.000000 
#    y 0.000000 1.801350 0.000000 
#    z 0.000000 0.000000 1.804500 
# 
# From -- ./inp_files/17063.got.cif
#   From: 2010.03.12/outbox.cif.g09.slc.cpg/sg51_9_cif.got.tgz:17063.got - 2010.04.16 13:43:02.
