data_PCOD8214693
_publ_section_title
;
Structure prediction by ZEFSAII (Michael W. Deem and Ramdas Pophale) SiO2 
 PCOD8214693
Probable space group: P M M A
;
_chemical_formula_sum "Si O2"
_cell_formula_units_Z 48
_cell_length_a 21.658081
_cell_length_b 9.332416
_cell_length_c 15.266851
_cell_angle_alpha 90.000000
_cell_angle_beta 90.000000
_cell_angle_gamma 90.000000
_cell_volume 3085.769842
_symmetry_space_group_name_H-M "P M M A"
_symmetry_group_IT_number 51
_symmetry_cell_setting 'orthorhombic'
loop_
_space_group_symop_operation_xyz
x,y,z
1/2-x,-y,z
1/2+x,-y,-z
-x,y,-z
-x,-y,-z
1/2+x,y,-z
1/2-x,y,z
x,-y,z
loop_
_atom_site_type_symbol
_atom_site_label
_atom_site_fract_x
_atom_site_fract_y
_atom_site_fract_z
Si Si1 0.903137 0.334811 0.141327
Si Si2 0.428212 0.838115 0.022247
Si Si3 0.680869 0.329295 0.300681
Si Si4 0.545251 0.334648 0.814987
Si Si5 0.412030 0.329637 0.557541
Si Si6 0.042773 0.330044 0.377373
O O1 0.890908 0.500000 0.117727
O O2 0.855795 0.277838 0.214656
O O3 0.971939 0.313699 0.177331
O O4 0.890878 0.242932 0.053955
O O5 0.417301 0.758652 0.114521
O O6 0.403622 0.000000 0.029555
O O7 0.500000 0.833392 0.000000
O O8 0.750000 0.265651 0.299070
O O9 0.682238 0.500000 0.302479
O O10 0.646506 0.270018 0.388103
O O11 0.563202 0.500000 0.830071
O O12 0.565080 0.277535 0.718359
O O13 0.412990 0.500000 0.563814
O O14 0.474850 0.268380 0.600508
O O15 0.409593 0.282714 0.454661
O O16 0.037193 0.500000 0.373652
#
# Coordination Sequence:
#
# PCOD8214693 Si02
#       6
#     8   8   8   8   8   8
#     4   9  15  24  37  54  77 103 130 159 190 231
#     4   9  17  26  36  53  77 103 127 156 197 237
#     4   9  15  22  34  54  80 106 129 156 194 236
#     4   9  14  22  37  57  77 101 131 160 190 230
#     4   8  12  19  30  50  77 102 126 156 191 226
#     4   8  12  18  32  52  76 100 125 158 192 226
#
# _framework density 15.555274000000001
#
# number of rings (size 3 to 8) (size 9 to 14) (size 15 to 20)
#    0.000    3.333    1.667    1.500    0.000    2.000 
#    0.000    0.000    0.000    0.500    0.000    4.667 
#    0.000    6.667    0.000    0.000    0.000    0.000 
#
# Total GULP energy -594754.587330 kJ/mol
# GULP energy per Si atom -12390.720569 kJ/mol
# Density = 1.551987 g / cm^3
# Si number density = 15.555274 Si / 1000 Ang^3
#
#
#
# Elastic Constant Matrix: (Units=GPa)
#
#
# Indices 1 2 3 4 5 6 
#
# 1 57.9641 15.8806 50.7060 0.0000 0.0000 0.0000
# 2 15.8806 44.1174 47.4547 0.0000 0.0000 0.0000
# 3 50.7060 47.4547 179.4067 0.0000 0.0000 0.0000
# 4 0.0000 0.0000 0.0000 2.5867 0.0000 0.0000
# 5 0.0000 0.0000 0.0000 0.0000 17.9151 0.0000
# 6 0.0000 0.0000 0.0000 0.0000 0.0000 4.4853
#
#
#
# Elastic Compliance Matrix: (Units=1/GPa)
#
#
# Indices 1 2 3 4 5 6 
#
# 1 0.023020 -0.001800 -0.006030 0.000000 0.000000 0.000000
# 2 -0.001800 0.031821 -0.007908 0.000000 0.000000 0.000000
# 3 -0.006030 -0.007908 0.009370 0.000000 0.000000 0.000000
# 4 0.000000 0.000000 0.000000 0.386598 0.000000 0.000000
# 5 0.000000 0.000000 0.000000 0.000000 0.055819 0.000000
# 6 0.000000 0.000000 0.000000 0.000000 0.000000 0.222953
#
#
# Mechanical properties :
#
#
# Convention : Reuss Voigt Hill
#
# Bulk Modulus (GPa) = 30.54873 56.61898 43.58386
# Shear Modulus (GPa) = 6.47693 16.16053 11.31873
#
# Velocity S-wave (km/s) = 2.04276 3.22671 2.70042
# Velocity P-wave (km/s) = 5.02447 7.09646 6.14838
#
# Compressibility (1/GPa) = 0.03273458
#
# Stress axis : x y z
#
# Youngs Moduli (GPa) = 43.43995 31.42553 106.72334
#
# Poissons Ratio (x) = 0.05657 0.64355
# Poissons Ratio (y) = 0.07820 0.84399
# Poissons Ratio (z) = 0.26195 0.24852
#
# Static dielectric constant tensor:
#      x y z
#    x 2.718030 0.000000 0.000000 
#    y 0.000000 2.567970 0.000000 
#    z 0.000000 0.000000 3.381860 
# 
# 
# High freq. dielectric constant tensor:
#      x y z
#    x 1.540830 0.000000 0.000000 
#    y 0.000000 1.545470 0.000000 
#    z 0.000000 0.000000 1.617090 
# 
# From -- ./inp_files/25475.got.cif
#   From: 2010.03.12/outbox.cif.g09.slc.cpg/sg51_13_cif.got.tgz:25475.got - 2010.04.16 13:43:02.
