data_PCOD8214939
_publ_section_title
;
Structure prediction by ZEFSAII (Michael W. Deem and Ramdas Pophale) SiO2 
 PCOD8214939
Probable space group: P N N A
;
_chemical_formula_sum "Si O2"
_cell_formula_units_Z 40
_cell_length_a 5.278689
_cell_length_b 20.273342
_cell_length_c 22.787526
_cell_angle_alpha 90.000000
_cell_angle_beta 90.000000
_cell_angle_gamma 90.000000
_cell_volume 2438.645091
_symmetry_space_group_name_H-M "P N N A"
_symmetry_group_IT_number 52
_symmetry_cell_setting 'orthorhombic'
loop_
_space_group_symop_operation_xyz
x,y,z
1/2-x,-y,z
x,1/2-y,1/2-z
1/2-x,1/2+y,1/2-z
-x,-y,-z
1/2+x,y,-z
-x,1/2+y,1/2+z
1/2+x,1/2-y,1/2+z
loop_
_atom_site_type_symbol
_atom_site_label
_atom_site_fract_x
_atom_site_fract_y
_atom_site_fract_z
Si Si1 0.822833 0.804535 0.198850
Si Si2 0.322602 0.928190 0.722556
Si Si3 0.061381 0.426719 0.023196
Si Si4 0.319293 0.747232 0.320433
Si Si5 0.675074 0.103785 0.653179
O O1 0.839097 0.750000 0.250000
O O2 0.824589 0.878473 0.223166
O O3 0.575766 0.789999 0.158725
O O4 0.076463 0.795965 0.159907
O O5 0.594858 0.929758 0.689451
O O6 0.101518 0.906800 0.679240
O O7 0.250000 0.000000 0.747419
O O8 0.166228 0.427807 0.089082
O O9 0.786576 0.391213 0.015276
O O10 0.000000 0.500000 0.000000
O O11 0.337513 0.750000 0.250000
O O12 0.283000 0.818074 0.349846
#
# Coordination Sequence:
#
# PCOD8214939 Si02
#       5
#     8   8   8   8   8
#     4  10  16  32  45  64  95 113 141 200 242 284
#     4  12  23  29  46  73  92 118 159 205 240 292
#     4  10  23  37  46  59  87 126 166 208 247 267
#     4  10  16  30  51  68  85 110 152 204 242 290
#     4  12  21  34  51  66  86 125 168 209 242 283
#
# _framework density 16.402550000000002
#
# number of rings (size 3 to 8) (size 9 to 14) (size 15 to 20)
#    0.000    1.200    8.000    1.800    8.400    0.000 
#    0.000    0.000    0.000    0.000    0.000    0.000 
#    0.000    0.000    0.000    0.000    0.000   20.000 
#
# Total GULP energy -495537.892665 kJ/mol
# GULP energy per Si atom -12388.447317 kJ/mol
# Density = 1.636522 g / cm^3
# Si number density = 16.402550 Si / 1000 Ang^3
#
#
#
# Elastic Constant Matrix: (Units=GPa)
#
#
# Indices 1 2 3 4 5 6 
#
# 1 153.2752 21.6675 11.0273 0.0000 0.0000 0.0000
# 2 21.6675 99.2173 29.6019 0.0000 0.0000 0.0000
# 3 11.0273 29.6019 27.3286 0.0000 0.0000 0.0000
# 4 0.0000 0.0000 0.0000 17.5594 0.0000 0.0000
# 5 0.0000 0.0000 0.0000 0.0000 -9.8119 0.0000
# 6 0.0000 0.0000 0.0000 0.0000 0.0000 22.5997
#
#
#
# Elastic Compliance Matrix: (Units=1/GPa)
#
#
# Indices 1 2 3 4 5 6 
#
# 1 0.006783 -0.000982 -0.001673 0.000000 0.000000 0.000000
# 2 -0.000982 0.015034 -0.015888 0.000000 0.000000 0.000000
# 3 -0.001673 -0.015888 0.054476 0.000000 0.000000 0.000000
# 4 0.000000 0.000000 0.000000 0.056949 0.000000 0.000000
# 5 0.000000 0.000000 0.000000 0.000000 -0.101917 0.000000
# 6 0.000000 0.000000 0.000000 0.000000 0.000000 0.044248
#
#
# Mechanical properties :
#
#
# Convention : Reuss Voigt Hill
#
# Bulk Modulus (GPa) = 25.50584 44.93495 35.22039
# Shear Modulus (GPa) = 39.76780 20.57107 30.16943
#
# Velocity S-wave (km/s) = 4.92925 3.54522 4.29337
# Velocity P-wave (km/s) = 6.92679 6.64926 6.78944
#
# Compressibility (1/GPa) = 0.03920671
#
# Stress axis : x y z
#
# Youngs Moduli (GPa) = 147.41787 66.51775 18.35662
#
# Poissons Ratio (x) = 0.06533 0.03072
# Poissons Ratio (y) = 0.14479 0.29165
# Poissons Ratio (z) = 0.24667 1.05682
#
# Static dielectric constant tensor:
#      x y z
#    x 24.405440 0.000000 0.000000 
#    y 0.000000 3.202720 0.000000 
#    z 0.000000 0.000000 2.673380 
# 
# 
# High freq. dielectric constant tensor:
#      x y z
#    x 1.684060 0.000000 0.000000 
#    y 0.000000 1.610150 0.000000 
#    z 0.000000 0.000000 1.549970 
# 
# From -- ./inp_files/35046.got.cif
#   From: 2010.06.25/outbox.cif.g09.slc.cpg/sg52_18_cif.got.tgz:35046.got - 2010.06.26 19:32:48.
