data_PCOD8214643
_publ_section_title
;
Structure prediction by ZEFSAII (Michael W. Deem and Ramdas Pophale) SiO2 
 PCOD8214643
Probable space group: P M M A
;
_chemical_formula_sum "Si O2"
_cell_formula_units_Z 64
_cell_length_a 15.900827
_cell_length_b 9.238782
_cell_length_c 21.640638
_cell_angle_alpha 90.000000
_cell_angle_beta 90.000000
_cell_angle_gamma 90.000000
_cell_volume 3179.102220
_symmetry_space_group_name_H-M "P M M A"
_symmetry_group_IT_number 51
_symmetry_cell_setting 'orthorhombic'
loop_
_space_group_symop_operation_xyz
x,y,z
1/2-x,-y,z
1/2+x,-y,-z
-x,y,-z
-x,-y,-z
1/2+x,y,-z
1/2-x,y,z
x,-y,z
loop_
_atom_site_type_symbol
_atom_site_label
_atom_site_fract_x
_atom_site_fract_y
_atom_site_fract_z
Si Si1 0.844508 0.340766 0.495540
Si Si2 0.346942 0.329418 0.139992
Si Si3 0.153078 0.339645 0.728581
Si Si4 0.498065 0.166471 0.072962
Si Si5 0.345806 0.330382 0.870426
Si Si6 0.915798 0.159444 0.606566
Si Si7 0.152226 0.664196 0.282002
Si Si8 0.892379 0.158804 0.382367
O O1 0.750000 0.359648 0.517746
O O2 0.886591 0.500000 0.488675
O O3 0.888613 0.252762 0.548863
O O4 0.844086 0.261226 0.429834
O O5 0.250000 0.286336 0.123116
O O6 0.359157 0.500000 0.129051
O O7 0.414129 0.244484 0.098378
O O8 0.365367 0.289841 0.211352
O O9 0.250000 0.341163 0.709633
O O10 0.114660 0.500000 0.718637
O O11 0.141544 0.291777 0.798923
O O12 0.105775 0.225587 0.686001
O O13 0.585187 0.238896 0.093643
O O14 0.495970 0.000000 0.094998
O O15 0.500000 0.178814 0.000000
O O16 0.250000 0.289396 0.890863
O O17 0.360974 0.500000 0.882505
O O18 0.898142 0.232361 0.672391
O O19 0.013483 0.141606 0.595557
O O20 0.872952 0.000000 0.605338
O O21 0.250000 0.678070 0.297473
O O22 0.121789 0.500000 0.292752
O O23 0.849229 0.000000 0.380721
#
# Coordination Sequence:
#
# PCOD8214643 Si02
#       8
#     8   8   8   8   8   8   8   8
#     4  11  24  41  60  80 104 141 192 243 288 340
#     4   9  20  40  65  92 122 159 207 260 307 357
#     4   9  19  37  60  86 114 146 189 238 288 344
#     4  11  25  41  59  89 129 168 205 248 303 369
#     4   9  20  40  65  92 122 159 207 260 307 357
#     4  11  24  38  54  82 117 149 185 231 284 345
#     4   9  19  37  60  86 114 146 189 238 288 344
#     4  11  24  38  54  82 117 149 185 231 284 345
#
# _framework density 20.131468999999999
#
# number of rings (size 3 to 8) (size 9 to 14) (size 15 to 20)
#    0.000    2.000    0.000    4.125    1.750   11.000 
#    0.000    5.000    0.000    0.000    0.000    0.000 
#    0.000    0.000    0.000    0.000    0.000    0.000 
#
# Total GULP energy -793481.200354 kJ/mol
# GULP energy per Si atom -12398.143756 kJ/mol
# Density = 2.008565 g / cm^3
# Si number density = 20.131469 Si / 1000 Ang^3
#
#
#
# Elastic Constant Matrix: (Units=GPa)
#
#
# Indices 1 2 3 4 5 6 
#
# 1 95.2079 54.0979 42.3816 0.0000 0.0000 0.0000
# 2 54.0979 142.0123 63.7051 0.0000 0.0000 0.0000
# 3 42.3816 63.7051 94.7178 0.0000 0.0000 0.0000
# 4 0.0000 0.0000 0.0000 65.5753 0.0000 0.0000
# 5 0.0000 0.0000 0.0000 0.0000 40.1031 0.0000
# 6 0.0000 0.0000 0.0000 0.0000 0.0000 28.8018
#
#
#
# Elastic Compliance Matrix: (Units=1/GPa)
#
#
# Indices 1 2 3 4 5 6 
#
# 1 0.014360 -0.003706 -0.003933 0.000000 0.000000 0.000000
# 2 -0.003706 0.011041 -0.005767 0.000000 0.000000 0.000000
# 3 -0.003933 -0.005767 0.016196 0.000000 0.000000 0.000000
# 4 0.000000 0.000000 0.000000 0.015250 0.000000 0.000000
# 5 0.000000 0.000000 0.000000 0.000000 0.024936 0.000000
# 6 0.000000 0.000000 0.000000 0.000000 0.000000 0.034720
#
#
# Mechanical properties :
#
#
# Convention : Reuss Voigt Hill
#
# Bulk Modulus (GPa) = 67.63837 72.47857 70.05847
# Shear Modulus (GPa) = 33.72851 38.34626 36.03738
#
# Velocity S-wave (km/s) = 4.09762 4.36913 4.23555
# Velocity P-wave (km/s) = 7.48723 7.84431 7.66785
#
# Compressibility (1/GPa) = 0.01478451
#
# Stress axis : x y z
#
# Youngs Moduli (GPa) = 69.63908 90.57490 61.74216
#
# Poissons Ratio (x) = 0.33567 0.24281
# Poissons Ratio (y) = 0.25808 0.35609
# Poissons Ratio (z) = 0.27387 0.52238
#
# Static dielectric constant tensor:
#      x y z
#    x 3.658410 0.000000 0.000000 
#    y 0.000000 4.009220 0.000000 
#    z 0.000000 0.000000 3.607150 
# 
# 
# High freq. dielectric constant tensor:
#      x y z
#    x 1.789180 0.000000 0.000000 
#    y 0.000000 1.789730 0.000000 
#    z 0.000000 0.000000 1.786230 
# 
# From -- ./inp_files/35746.got.cif
#   From: 2010.03.12/outbox.cif.g09.slc.cpg/sg51_18_cif.got.tgz:35746.got - 2010.04.16 13:43:02.
