data_PCOD8214246
_publ_section_title
;
Structure prediction by ZEFSAII (Michael W. Deem and Ramdas Pophale) SiO2 
 PCOD8214246
Probable space group: P M M A
;
_chemical_formula_sum "Si O2"
_cell_formula_units_Z 56
_cell_length_a 15.752423
_cell_length_b 9.026941
_cell_length_c 20.965945
_cell_angle_alpha 90.000000
_cell_angle_beta 90.000000
_cell_angle_gamma 90.000000
_cell_volume 2981.277562
_symmetry_space_group_name_H-M "P M M A"
_symmetry_group_IT_number 51
_symmetry_cell_setting 'orthorhombic'
loop_
_space_group_symop_operation_xyz
x,y,z
1/2-x,-y,z
1/2+x,-y,-z
-x,y,-z
-x,-y,-z
1/2+x,y,-z
1/2-x,y,z
x,-y,z
loop_
_atom_site_type_symbol
_atom_site_label
_atom_site_fract_x
_atom_site_fract_y
_atom_site_fract_z
Si Si1 0.583124 0.675853 0.804546
Si Si2 0.652665 0.330768 0.374136
Si Si3 0.750000 0.324961 0.733387
Si Si4 0.001400 0.326912 0.930138
Si Si5 0.656402 0.668104 0.153678
Si Si6 0.928427 0.825948 0.261273
Si Si7 0.750000 0.170615 0.596888
Si Si8 0.601547 0.828445 0.497650
O O1 0.571985 0.500000 0.801701
O O2 0.671904 0.729889 0.776574
O O3 0.568741 0.730196 0.878359
O O4 0.514340 0.747298 0.758744
O O5 0.750000 0.315270 0.352635
O O6 0.622125 0.500000 0.367553
O O7 0.593893 0.224615 0.332195
O O8 0.642712 0.278513 0.446127
O O9 0.750000 0.500000 0.725201
O O10 0.750000 0.260030 0.662703
O O11 0.986446 0.500000 0.939647
O O12 0.093770 0.288258 0.902944
O O13 0.000000 0.248830 0.000000
O O14 0.750000 0.685315 0.125259
O O15 0.638432 0.500000 0.177147
O O16 0.646538 0.776156 0.213817
O O17 0.940902 0.000000 0.259829
O O18 0.839373 0.206268 0.559879
O O19 0.750000 0.000000 0.615747
O O20 0.500000 0.792731 0.500000
O O21 0.613924 0.000000 0.478816
#
# Coordination Sequence:
#
# PCOD8214246 Si02
#       8
#     8   8   4   8   8   8   4   8
#     4   9  19  37  56  80 114 148 186 231 280 331
#     4  11  23  38  57  82 111 142 178 223 280 338
#     4  10  22  38  58  82 112 151 190 235 280 331
#     4   8  14  28  51  78 111 146 179 221 273 327
#     4   9  17  31  50  75 108 142 179 221 269 326
#     4  11  22  34  54  80 107 142 182 225 276 330
#     4  10  22  40  60  84 118 151 186 241 288 333
#     4  10  22  40  60  83 111 144 185 231 283 338
#
# _framework density 18.783892999999999
#
# number of rings (size 3 to 8) (size 9 to 14) (size 15 to 20)
#    0.000    2.286    0.714    3.000    2.000    4.286 
#    1.286    0.000    0.000    6.857    0.000    0.000 
#    0.000    0.000    0.000    0.000    0.000    0.000 
#
# Total GULP energy -693992.081719 kJ/mol
# GULP energy per Si atom -12392.715745 kJ/mol
# Density = 1.874114 g / cm^3
# Si number density = 18.783893 Si / 1000 Ang^3
#
#
#
# Elastic Constant Matrix: (Units=GPa)
#
#
# Indices 1 2 3 4 5 6 
#
# 1 123.8838 22.0220 65.7363 0.0000 0.0000 0.0000
# 2 22.0220 32.3372 21.7005 0.0000 0.0000 0.0000
# 3 65.7363 21.7005 131.9712 0.0000 0.0000 0.0000
# 4 0.0000 0.0000 0.0000 2.8176 0.0000 0.0000
# 5 0.0000 0.0000 0.0000 0.0000 20.4631 0.0000
# 6 0.0000 0.0000 0.0000 0.0000 0.0000 13.0317
#
#
#
# Elastic Compliance Matrix: (Units=1/GPa)
#
#
# Indices 1 2 3 4 5 6 
#
# 1 0.011525 -0.004492 -0.005002 0.000000 0.000000 0.000000
# 2 -0.004492 0.036510 -0.003766 0.000000 0.000000 0.000000
# 3 -0.005002 -0.003766 0.010688 0.000000 0.000000 0.000000
# 4 0.000000 0.000000 0.000000 0.354908 0.000000 0.000000
# 5 0.000000 0.000000 0.000000 0.000000 0.048868 0.000000
# 6 0.000000 0.000000 0.000000 0.000000 0.000000 0.076736
#
#
# Mechanical properties :
#
#
# Convention : Reuss Voigt Hill
#
# Bulk Modulus (GPa) = 31.05242 56.34552 43.69897
# Shear Modulus (GPa) = 8.67318 19.17806 13.92562
#
# Velocity S-wave (km/s) = 2.15113 3.19875 2.72575
# Velocity P-wave (km/s) = 4.76835 6.61094 5.76375
#
# Compressibility (1/GPa) = 0.03220361
#
# Stress axis : x y z
#
# Youngs Moduli (GPa) = 86.76970 27.38939 93.56082
#
# Poissons Ratio (x) = 0.12303 0.46799
# Poissons Ratio (y) = 0.38975 0.35236
# Poissons Ratio (z) = 0.43402 0.10315
#
# Static dielectric constant tensor:
#      x y z
#    x 3.697940 0.000000 0.000000 
#    y 0.000000 3.248510 0.000000 
#    z 0.000000 0.000000 3.557160 
# 
# 
# High freq. dielectric constant tensor:
#      x y z
#    x 1.735470 0.000000 0.000000 
#    y 0.000000 1.706340 0.000000 
#    z 0.000000 0.000000 1.729590 
# 
# From -- ./inp_files/33531.got.cif
#   From: 2010.03.12/outbox.cif.g09.slc.cpg/sg51_17_cif.got.tgz:33531.got - 2010.04.16 13:43:02.
