data_PCOD8214995
_publ_section_title
;
Structure prediction by ZEFSAII (Michael W. Deem and Ramdas Pophale) SiO2 
 PCOD8214995
Probable space group: P N N A
;
_chemical_formula_sum "Si O2"
_cell_formula_units_Z 60
_cell_length_a 5.191467
_cell_length_b 16.960351
_cell_length_c 32.975108
_cell_angle_alpha 90.000000
_cell_angle_beta 90.000000
_cell_angle_gamma 90.000000
_cell_volume 2903.428665
_symmetry_space_group_name_H-M "P N N A"
_symmetry_group_IT_number 52
_symmetry_cell_setting 'orthorhombic'
loop_
_space_group_symop_operation_xyz
x,y,z
1/2-x,-y,z
x,1/2-y,1/2-z
1/2-x,1/2+y,1/2-z
-x,-y,-z
1/2+x,y,-z
-x,1/2+y,1/2+z
1/2+x,1/2-y,1/2+z
loop_
_atom_site_type_symbol
_atom_site_label
_atom_site_fract_x
_atom_site_fract_y
_atom_site_fract_z
Si Si1 0.164488 0.756103 0.702759
Si Si2 0.713553 0.853331 0.984567
Si Si3 0.750000 0.500000 0.464833
Si Si4 0.329983 0.083909 0.655948
Si Si5 0.629281 0.580843 0.594407
Si Si6 0.663765 0.791606 0.840504
Si Si7 0.669695 0.632742 0.887076
Si Si8 0.262095 0.908271 0.475601
O O1 0.112176 0.750000 0.750000
O O2 0.162263 0.848163 0.689989
O O3 0.442867 0.720007 0.692962
O O4 0.942525 0.704356 0.680947
O O5 0.799667 0.867333 0.937625
O O6 0.441921 0.806721 0.991386
O O7 0.598927 0.937732 0.005216
O O8 0.612694 0.440155 0.433541
O O9 0.608218 0.080021 0.634286
O O10 0.112758 0.098311 0.621805
O O11 0.250000 0.000000 0.676474
O O12 0.750000 0.500000 0.609814
O O13 0.584887 0.629769 0.635239
O O14 0.677019 0.721632 0.872254
O O15 0.716298 0.639779 0.934700
O O16 0.541085 0.885193 0.492557
O O17 0.250000 0.000000 0.464443
#
# Coordination Sequence:
#
# PCOD8214995 Si02
#       8
#     8   8   4   8   8   8   8   8
#     4  10  22  44  64  84 120 150 177 222 296 374
#     4  10  17  30  48  73 104 150 203 242 277 319
#     4  10  18  32  52  80 110 160 204 248 284 314
#     4  10  19  34  63  92 106 142 190 233 273 324
#     4  11  20  34  55  81 118 150 203 253 276 332
#     4  10  24  38  61  87 110 153 187 230 301 342
#     4  10  20  37  53  81 121 142 187 240 280 330
#     4  10  19  30  49  74 106 150 185 219 274 332
#
# _framework density 20.665220000000001
#
# number of rings (size 3 to 8) (size 9 to 14) (size 15 to 20)
#    0.000    1.867    2.000    3.200    1.867    1.067 
#    0.000    4.000    0.000    0.000    0.000    0.000 
#    0.000    0.000    0.000    0.000    0.000    0.000 
#
# Total GULP energy -743529.516738 kJ/mol
# GULP energy per Si atom -12392.158612 kJ/mol
# Density = 2.061819 g / cm^3
# Si number density = 20.665220 Si / 1000 Ang^3
#
#
#
# Elastic Constant Matrix: (Units=GPa)
#
#
# Indices 1 2 3 4 5 6 
#
# 1 110.6283 15.5960 22.4608 0.0000 0.0000 0.0000
# 2 15.5960 52.0938 31.5100 0.0000 0.0000 0.0000
# 3 22.4608 31.5100 107.0161 0.0000 0.0000 0.0000
# 4 0.0000 0.0000 0.0000 -7.0258 0.0000 0.0000
# 5 0.0000 0.0000 0.0000 0.0000 22.8332 0.0000
# 6 0.0000 0.0000 0.0000 0.0000 0.0000 15.6876
#
#
#
# Elastic Compliance Matrix: (Units=1/GPa)
#
#
# Indices 1 2 3 4 5 6 
#
# 1 0.009613 -0.002017 -0.001424 0.000000 0.000000 0.000000
# 2 -0.002017 0.023779 -0.006578 0.000000 0.000000 0.000000
# 3 -0.001424 -0.006578 0.011580 0.000000 0.000000 0.000000
# 4 0.000000 0.000000 0.000000 -0.142332 0.000000 0.000000
# 5 0.000000 0.000000 0.000000 0.000000 0.043796 0.000000
# 6 0.000000 0.000000 0.000000 0.000000 0.000000 0.063745
#
#
# Mechanical properties :
#
#
# Convention : Reuss Voigt Hill
#
# Bulk Modulus (GPa) = 40.10533 45.43019 42.76776
# Shear Modulus (GPa) = 129.77271 19.64374 74.70823
#
# Velocity S-wave (km/s) = 7.93309 3.08648 6.01915
# Velocity P-wave (km/s) = 10.16667 5.89350 8.30947
#
# Compressibility (1/GPa) = 0.02493434
#
# Stress axis : x y z
#
# Youngs Moduli (GPa) = 104.02960 42.05418 86.35500
#
# Poissons Ratio (x) = 0.08481 0.12295
# Poissons Ratio (y) = 0.20980 0.56806
# Poissons Ratio (z) = 0.14811 0.27664
#
# Static dielectric constant tensor:
#      x y z
#    x 4.044770 0.000000 0.000000 
#    y 0.000000 3.611340 0.000000 
#    z 0.000000 0.000000 3.388060 
# 
# 
# High freq. dielectric constant tensor:
#      x y z
#    x 1.830400 0.000000 0.000000 
#    y 0.000000 1.789520 0.000000 
#    z 0.000000 0.000000 1.782720 
# 
# From -- ./inp_files/41815.got.cif
#   From: 2010.06.25/outbox.cif.g09.slc.cpg/sg52_21_cif.got.tgz:41815.got - 2010.06.26 19:32:48.
