data_PCOD8214151
_publ_section_title
;
Structure prediction by ZEFSAII (Michael W. Deem and Ramdas Pophale) SiO2 
 PCOD8214151
Probable space group: P M M A
;
_chemical_formula_sum "Si O2"
_cell_formula_units_Z 56
_cell_length_a 14.593111
_cell_length_b 19.382753
_cell_length_c 9.443267
_cell_angle_alpha 90.000000
_cell_angle_beta 90.000000
_cell_angle_gamma 90.000000
_cell_volume 2671.072133
_symmetry_space_group_name_H-M "P M M A"
_symmetry_group_IT_number 51
_symmetry_cell_setting 'orthorhombic'
loop_
_space_group_symop_operation_xyz
x,y,z
1/2-x,-y,z
1/2+x,-y,-z
-x,y,-z
-x,-y,-z
1/2+x,y,-z
1/2-x,y,z
x,-y,z
loop_
_atom_site_type_symbol
_atom_site_label
_atom_site_fract_x
_atom_site_fract_y
_atom_site_fract_z
Si Si1 0.107446 0.422150 0.491881
Si Si2 0.479870 0.840421 0.654711
Si Si3 0.641427 0.692280 0.012025
Si Si4 0.093285 0.077163 0.913550
Si Si5 0.854725 0.710411 0.327825
Si Si6 0.855413 0.425554 0.823233
Si Si7 0.352167 0.825131 0.143564
O O1 0.145886 0.500000 0.527986
O O2 0.145989 0.362199 0.590741
O O3 0.137422 0.398540 0.336321
O O4 0.000000 0.424232 0.500000
O O5 0.500000 0.874536 0.500000
O O6 0.415893 0.885845 0.759609
O O7 0.426879 0.768240 0.619093
O O8 0.580145 0.837590 0.725860
O O9 0.750000 0.692095 0.997011
O O10 0.610060 0.690836 0.172603
O O11 0.596526 0.627326 0.930959
O O12 0.603303 0.760275 0.936862
O O13 0.130071 0.000000 0.884563
O O14 0.160118 0.116241 0.022347
O O15 0.000000 0.075548 0.000000
O O16 0.750000 0.739513 0.329071
O O17 0.750000 0.432785 0.865731
O O18 0.904791 0.500000 0.837270
O O19 0.250000 0.812247 0.206208
#
# Coordination Sequence:
#
# PCOD8214151 Si02
#       7
#     8   8   8   8   8   8   8
#     4  10  22  39  55  78 114 155 204 257 315 387
#     4  11  24  39  60  94 132 168 206 257 318 374
#     4   9  19  34  55  82 112 147 195 255 305 359
#     4   9  19  39  66  92 121 161 205 250 301 364
#     4  11  23  38  58  86 122 162 208 261 317 377
#     4   9  18  34  55  77 104 144 193 244 303 367
#     4  10  21  40  63  91 124 165 213 255 307 376
#
# _framework density 20.965363
#
# number of rings (size 3 to 8) (size 9 to 14) (size 15 to 20)
#    0.000    2.143    1.429    0.857    4.000    2.571 
#    0.000    1.429    0.000    2.571    0.000    2.000 
#    0.000    0.000    0.000    0.000    0.000    0.000 
#
# Total GULP energy -693852.150673 kJ/mol
# GULP energy per Si atom -12390.216976 kJ/mol
# Density = 2.091765 g / cm^3
# Si number density = 20.965363 Si / 1000 Ang^3
#
#
#
# Elastic Constant Matrix: (Units=GPa)
#
#
# Indices 1 2 3 4 5 6 
#
# 1 69.1801 12.3592 18.6145 0.0000 0.0000 0.0000
# 2 12.3592 103.9771 42.9449 0.0000 0.0000 0.0000
# 3 18.6145 42.9449 124.7190 0.0000 0.0000 0.0000
# 4 0.0000 0.0000 0.0000 31.0297 0.0000 0.0000
# 5 0.0000 0.0000 0.0000 0.0000 19.1363 0.0000
# 6 0.0000 0.0000 0.0000 0.0000 0.0000 18.8143
#
#
#
# Elastic Compliance Matrix: (Units=1/GPa)
#
#
# Indices 1 2 3 4 5 6 
#
# 1 0.015150 -0.001011 -0.001913 0.000000 0.000000 0.000000
# 2 -0.001011 0.011279 -0.003733 0.000000 0.000000 0.000000
# 3 -0.001913 -0.003733 0.009589 0.000000 0.000000 0.000000
# 4 0.000000 0.000000 0.000000 0.032227 0.000000 0.000000
# 5 0.000000 0.000000 0.000000 0.000000 0.052257 0.000000
# 6 0.000000 0.000000 0.000000 0.000000 0.000000 0.053151
#
#
# Mechanical properties :
#
#
# Convention : Reuss Voigt Hill
#
# Bulk Modulus (GPa) = 44.04317 49.52372 46.78345
# Shear Modulus (GPa) = 25.70220 28.72657 27.21439
#
# Velocity S-wave (km/s) = 3.50514 3.70563 3.60677
# Velocity P-wave (km/s) = 6.11837 6.47934 6.30144
#
# Compressibility (1/GPa) = 0.02270499
#
# Stress axis : x y z
#
# Youngs Moduli (GPa) = 66.00499 88.65671 104.28628
#
# Poissons Ratio (x) = 0.08960 0.19952
# Poissons Ratio (y) = 0.06671 0.38931
# Poissons Ratio (z) = 0.12628 0.33096
#
# Static dielectric constant tensor:
#      x y z
#    x 3.563610 0.000000 0.000000 
#    y 0.000000 4.168480 0.000000 
#    z 0.000000 0.000000 3.744690 
# 
# 
# High freq. dielectric constant tensor:
#      x y z
#    x 1.812320 0.000000 0.000000 
#    y 0.000000 1.816080 0.000000 
#    z 0.000000 0.000000 1.817750 
# 
# From -- ./inp_files/8470.got.cif
#   From: 2010.03.12/outbox.cif.g09.slc.cpg/sg51_5_cif.got.tgz:8470.got - 2010.04.16 13:43:02.
