data_PCOD8214810
_publ_section_title
;
Structure prediction by ZEFSAII (Michael W. Deem and Ramdas Pophale) SiO2 
 PCOD8214810
Probable space group: P M M A
;
_chemical_formula_sum "Si O2"
_cell_formula_units_Z 56
_cell_length_a 17.597992
_cell_length_b 9.547302
_cell_length_c 20.487454
_cell_angle_alpha 90.000000
_cell_angle_beta 90.000000
_cell_angle_gamma 90.000000
_cell_volume 3442.165661
_symmetry_space_group_name_H-M "P M M A"
_symmetry_group_IT_number 51
_symmetry_cell_setting 'orthorhombic'
loop_
_space_group_symop_operation_xyz
x,y,z
1/2-x,-y,z
1/2+x,-y,-z
-x,y,-z
-x,-y,-z
1/2+x,y,-z
1/2-x,y,z
x,-y,z
loop_
_atom_site_type_symbol
_atom_site_label
_atom_site_fract_x
_atom_site_fract_y
_atom_site_fract_z
Si Si1 0.928362 0.658659 0.953280
Si Si2 0.667419 0.842311 0.369170
Si Si3 0.385250 0.342760 0.525112
Si Si4 0.337454 0.838081 0.950464
Si Si5 0.476140 0.835895 0.709370
Si Si6 0.458567 0.342309 0.396607
Si Si7 0.477457 0.836518 0.859218
O O1 0.902939 0.500000 0.934659
O O2 0.954561 0.745998 0.890215
O O3 0.858960 0.739643 0.988256
O O4 0.000000 0.653110 0.000000
O O5 0.750000 0.832282 0.335185
O O6 0.672108 0.757859 0.437045
O O7 0.606031 0.786784 0.317409
O O8 0.646458 0.000000 0.388722
O O9 0.353132 0.500000 0.527144
O O10 0.394276 0.295979 0.449199
O O11 0.463832 0.333674 0.563762
O O12 0.250000 0.807207 0.929601
O O13 0.394320 0.804545 0.890244
O O14 0.346850 0.000000 0.971822
O O15 0.541012 0.757791 0.666890
O O16 0.477086 0.789782 0.784216
O O17 0.490337 0.000000 0.701941
O O18 0.443521 0.500000 0.371991
O O19 0.497148 0.000000 0.868038
#
# Coordination Sequence:
#
# PCOD8214810 Si02
#       7
#     8   8   8   8   8   8   8
#     4   9  17  29  45  64  86 113 145 182 221 256
#     4   9  17  27  38  56  84 114 141 170 205 245
#     4   8  14  25  40  56  74 100 135 172 207 241
#     4   9  17  29  46  67  89 115 147 180 214 254
#     4   9  17  27  40  60  85 113 142 170 202 243
#     4   8  14  25  40  57  77 100 130 171 211 242
#     4   9  17  29  44  63  89 119 149 179 212 255
#
# _framework density 16.268827000000002
#
# number of rings (size 3 to 8) (size 9 to 14) (size 15 to 20)
#    0.000    3.286    0.000    1.286    0.000    4.000 
#    0.000    5.714    0.000    0.000    0.000    9.000 
#    0.000    5.714    0.000    0.000    0.000    0.000 
#
# Total GULP energy -693900.836235 kJ/mol
# GULP energy per Si atom -12391.086361 kJ/mol
# Density = 1.623180 g / cm^3
# Si number density = 16.268827 Si / 1000 Ang^3
#
#
#
# Elastic Constant Matrix: (Units=GPa)
#
#
# Indices 1 2 3 4 5 6 
#
# 1 21.0429 16.6215 29.7972 0.0000 0.0000 0.0000
# 2 16.6215 67.0900 57.1642 0.0000 0.0000 0.0000
# 3 29.7972 57.1642 127.0220 0.0000 0.0000 0.0000
# 4 0.0000 0.0000 0.0000 23.2142 0.0000 0.0000
# 5 0.0000 0.0000 0.0000 0.0000 15.4380 0.0000
# 6 0.0000 0.0000 0.0000 0.0000 0.0000 15.4572
#
#
#
# Elastic Compliance Matrix: (Units=1/GPa)
#
#
# Indices 1 2 3 4 5 6 
#
# 1 0.072445 -0.005625 -0.014463 0.000000 0.000000 0.000000
# 2 -0.005625 0.024612 -0.009757 0.000000 0.000000 0.000000
# 3 -0.014463 -0.009757 0.015656 0.000000 0.000000 0.000000
# 4 0.000000 0.000000 0.000000 0.043077 0.000000 0.000000
# 5 0.000000 0.000000 0.000000 0.000000 0.064775 0.000000
# 6 0.000000 0.000000 0.000000 0.000000 0.000000 0.064695
#
#
# Mechanical properties :
#
#
# Convention : Reuss Voigt Hill
#
# Bulk Modulus (GPa) = 18.85939 46.92451 32.89195
# Shear Modulus (GPa) = 13.78837 18.26002 16.02420
#
# Velocity S-wave (km/s) = 2.91440 3.35385 3.14182
# Velocity P-wave (km/s) = 4.78983 6.62598 5.78126
#
# Compressibility (1/GPa) = 0.05302398
#
# Stress axis : x y z
#
# Youngs Moduli (GPa) = 13.80361 40.63017 63.87204
#
# Poissons Ratio (x) = 0.22854 0.92378
# Poissons Ratio (y) = 0.07764 0.62319
# Poissons Ratio (z) = 0.19964 0.39642
#
# Static dielectric constant tensor:
#      x y z
#    x 2.910390 0.000000 0.000000 
#    y 0.000000 3.220030 0.000000 
#    z 0.000000 0.000000 3.133670 
# 
# 
# High freq. dielectric constant tensor:
#      x y z
#    x 1.591230 0.000000 0.000000 
#    y 0.000000 1.626940 0.000000 
#    z 0.000000 0.000000 1.611180 
# 
# From -- ./inp_files/33717.got.cif
#   From: 2010.03.12/outbox.cif.g09.slc.cpg/sg51_17_cif.got.tgz:33717.got - 2010.04.16 13:43:02.
