data_PCOD8214247
_publ_section_title
;
Structure prediction by ZEFSAII (Michael W. Deem and Ramdas Pophale) SiO2 
 PCOD8214247
Probable space group: P M M A
;
_chemical_formula_sum "Si O2"
_cell_formula_units_Z 48
_cell_length_a 19.304713
_cell_length_b 14.905027
_cell_length_c 8.623132
_cell_angle_alpha 90.000000
_cell_angle_beta 90.000000
_cell_angle_gamma 90.000000
_cell_volume 2481.196448
_symmetry_space_group_name_H-M "P M M A"
_symmetry_group_IT_number 51
_symmetry_cell_setting 'orthorhombic'
loop_
_space_group_symop_operation_xyz
x,y,z
1/2-x,-y,z
1/2+x,-y,-z
-x,y,-z
-x,-y,-z
1/2+x,y,-z
1/2-x,y,z
x,-y,z
loop_
_atom_site_type_symbol
_atom_site_label
_atom_site_fract_x
_atom_site_fract_y
_atom_site_fract_z
Si Si1 0.567076 0.242868 0.594623
Si Si2 0.951594 0.102639 0.858038
Si Si3 0.332006 0.758864 0.674503
Si Si4 0.593188 0.601850 0.155705
Si Si5 0.827658 0.898955 0.067596
Si Si6 0.068895 0.601633 0.191073
O O1 0.500000 0.275163 0.500000
O O2 0.540524 0.163151 0.706189
O O3 0.629390 0.212434 0.483115
O O4 0.599085 0.327350 0.687563
O O5 0.970814 0.000000 0.814934
O O6 0.872678 0.112577 0.913398
O O7 0.000000 0.136305 0.000000
O O8 0.250000 0.755019 0.645038
O O9 0.358625 0.663680 0.738318
O O10 0.353669 0.834525 0.796920
O O11 0.612207 0.500000 0.199453
O O12 0.512748 0.620528 0.183756
O O13 0.606541 0.618894 0.973173
O O14 0.750000 0.874838 0.017128
O O15 0.833993 0.000000 0.132726
O O16 0.083352 0.500000 0.246861
#
# Coordination Sequence:
#
# PCOD8214247 Si02
#       6
#     8   8   8   8   8   8
#     4  12  23  34  56  83 116 152 184 225 282 342
#     4  10  22  38  58  83 110 142 187 239 283 325
#     4  11  23  37  54  84 120 151 182 226 287 345
#     4   9  18  36  60  83 107 143 190 235 274 322
#     4   9  19  38  61  79 102 144 192 230 268 326
#     4   9  19  35  59  85 107 140 194 240 267 316
#
# _framework density 19.345504999999999
#
# number of rings (size 3 to 8) (size 9 to 14) (size 15 to 20)
#    0.000    2.000    1.667    3.000    2.333    3.000 
#    0.000    0.833    0.000    1.000    0.000    0.000 
#    0.000    0.000    0.000    0.000    0.000    0.000 
#
# Total GULP energy -595210.254914 kJ/mol
# GULP energy per Si atom -12400.213644 kJ/mol
# Density = 1.930147 g / cm^3
# Si number density = 19.345505 Si / 1000 Ang^3
#
#
#
# Elastic Constant Matrix: (Units=GPa)
#
#
# Indices 1 2 3 4 5 6 
#
# 1 51.3200 10.1431 19.8342 0.0000 0.0000 0.0000
# 2 10.1431 87.8646 42.4851 0.0000 0.0000 0.0000
# 3 19.8342 42.4851 84.9728 0.0000 0.0000 0.0000
# 4 0.0000 0.0000 0.0000 17.8413 0.0000 0.0000
# 5 0.0000 0.0000 0.0000 0.0000 31.6678 0.0000
# 6 0.0000 0.0000 0.0000 0.0000 0.0000 22.4160
#
#
#
# Elastic Compliance Matrix: (Units=1/GPa)
#
#
# Indices 1 2 3 4 5 6 
#
# 1 0.021418 -0.000073 -0.004963 0.000000 0.000000 0.000000
# 2 -0.000073 0.015010 -0.007488 0.000000 0.000000 0.000000
# 3 -0.004963 -0.007488 0.016671 0.000000 0.000000 0.000000
# 4 0.000000 0.000000 0.000000 0.056050 0.000000 0.000000
# 5 0.000000 0.000000 0.000000 0.000000 0.031578 0.000000
# 6 0.000000 0.000000 0.000000 0.000000 0.000000 0.044611
#
#
# Mechanical properties :
#
#
# Convention : Reuss Voigt Hill
#
# Bulk Modulus (GPa) = 35.64842 41.00913 38.32878
# Shear Modulus (GPa) = 22.75465 24.49802 23.62634
#
# Velocity S-wave (km/s) = 3.43333 3.56243 3.49848
# Velocity P-wave (km/s) = 5.84673 6.17782 6.01456
#
# Compressibility (1/GPa) = 0.02805173
#
# Stress axis : x y z
#
# Youngs Moduli (GPa) = 46.68959 66.62164 59.98531
#
# Poissons Ratio (x) = 0.00485 0.29771
# Poissons Ratio (y) = 0.00340 0.44916
# Poissons Ratio (z) = 0.23172 0.49885
#
# Static dielectric constant tensor:
#      x y z
#    x 3.391110 0.000000 0.000000 
#    y 0.000000 3.648940 0.000000 
#    z 0.000000 0.000000 3.537820 
# 
# 
# High freq. dielectric constant tensor:
#      x y z
#    x 1.735010 0.000000 0.000000 
#    y 0.000000 1.763600 0.000000 
#    z 0.000000 0.000000 1.745380 
# 
# From -- ./inp_files/9568.got.cif
#   From: 2010.03.12/outbox.cif.g09.slc.cpg/sg51_5_cif.got.tgz:9568.got - 2010.04.16 13:43:02.
