data_PCOD8214075
_publ_section_title
;
Structure prediction by ZEFSAII (Michael W. Deem and Ramdas Pophale) SiO2 
 PCOD8214075
Probable space group: P M M A
;
_chemical_formula_sum "Si O2"
_cell_formula_units_Z 44
_cell_length_a 9.956159
_cell_length_b 26.848334
_cell_length_c 9.045875
_cell_angle_alpha 90.000000
_cell_angle_beta 90.000000
_cell_angle_gamma 90.000000
_cell_volume 2418.019215
_symmetry_space_group_name_H-M "P M M A"
_symmetry_group_IT_number 51
_symmetry_cell_setting 'orthorhombic'
loop_
_space_group_symop_operation_xyz
x,y,z
1/2-x,-y,z
1/2+x,-y,-z
-x,y,-z
-x,-y,-z
1/2+x,y,-z
1/2-x,y,z
x,-y,z
loop_
_atom_site_type_symbol
_atom_site_label
_atom_site_fract_x
_atom_site_fract_y
_atom_site_fract_z
Si Si1 0.900139 0.000000 0.366218
Si Si2 0.750000 0.439994 0.829320
Si Si3 0.596953 0.809115 0.134192
Si Si4 0.093145 0.304043 0.858086
Si Si5 0.250000 0.442392 0.834602
Si Si6 0.595877 0.107331 0.360830
Si Si7 0.506445 0.393877 0.323895
O O1 0.920702 0.947320 0.279075
O O2 0.000000 0.000000 0.500000
O O3 0.750000 0.000000 0.432821
O O4 0.750000 0.500000 0.816861
O O5 0.625892 0.416340 0.745545
O O6 0.750000 0.420006 0.998872
O O7 0.750000 0.818794 0.083707
O O8 0.580409 0.753012 0.194783
O O9 0.550140 0.848238 0.256041
O O10 0.500000 0.819008 0.000000
O O11 0.250000 0.317576 0.891581
O O12 0.035214 0.337067 0.724655
O O13 0.000000 0.314271 0.000000
O O14 0.250000 0.500000 0.860746
O O15 0.377440 0.428091 0.739590
O O16 0.500000 0.109885 0.500000
O O17 0.750000 0.115333 0.410864
O O18 0.500000 0.396231 0.500000
#
# Coordination Sequence:
#
# PCOD8214075 Si02
#       7
#     4   4   8   8   4   8   8
#     4   8  14  26  45  70 100 138 182 222 271 326
#     4  11  25  43  65  89 115 153 193 222 265 336
#     4   9  19  35  54  77 106 141 180 224 270 324
#     4  10  21  39  61  82 107 145 188 226 272 336
#     4  11  23  43  65  85 113 153 193 224 263 330
#     4   9  17  30  50  75 105 141 181 229 276 325
#     4  12  25  39  60  90 120 146 180 234 286 322
#
# _framework density 18.196712999999999
#
# number of rings (size 3 to 8) (size 9 to 14) (size 15 to 20)
#    0.000    2.000    0.909    2.727    1.273    5.091 
#    0.000    0.455    0.000    0.000    0.000    0.000 
#    0.000    0.000    0.000    0.000    0.000    0.000 
#
# Total GULP energy -545239.205104 kJ/mol
# GULP energy per Si atom -12391.800116 kJ/mol
# Density = 1.815530 g / cm^3
# Si number density = 18.196713 Si / 1000 Ang^3
#
#
#
# Elastic Constant Matrix: (Units=GPa)
#
#
# Indices 1 2 3 4 5 6 
#
# 1 120.7389 57.7925 64.4512 0.0000 0.0000 0.0000
# 2 57.7925 130.7978 70.3184 0.0000 0.0000 0.0000
# 3 64.4512 70.3184 132.3393 0.0000 0.0000 0.0000
# 4 0.0000 0.0000 0.0000 29.4982 0.0000 0.0000
# 5 0.0000 0.0000 0.0000 0.0000 28.1113 0.0000
# 6 0.0000 0.0000 0.0000 0.0000 0.0000 29.1060
#
#
#
# Elastic Compliance Matrix: (Units=1/GPa)
#
#
# Indices 1 2 3 4 5 6 
#
# 1 0.011988 -0.003021 -0.004233 0.000000 0.000000 0.000000
# 2 -0.003021 0.011464 -0.004620 0.000000 0.000000 0.000000
# 3 -0.004233 -0.004620 0.012073 0.000000 0.000000 0.000000
# 4 0.000000 0.000000 0.000000 0.033900 0.000000 0.000000
# 5 0.000000 0.000000 0.000000 0.000000 0.035573 0.000000
# 6 0.000000 0.000000 0.000000 0.000000 0.000000 0.034357
#
#
# Mechanical properties :
#
#
# Convention : Reuss Voigt Hill
#
# Bulk Modulus (GPa) = 84.91622 85.44447 85.18034
# Shear Modulus (GPa) = 29.93485 30.09737 30.01611
#
# Velocity S-wave (km/s) = 4.06035 4.07135 4.06585
# Velocity P-wave (km/s) = 8.29149 8.31620 8.30385
#
# Compressibility (1/GPa) = 0.01177631
#
# Stress axis : x y z
#
# Youngs Moduli (GPa) = 83.41629 87.22896 82.83076
#
# Poissons Ratio (x) = 0.26353 0.35063
# Poissons Ratio (y) = 0.25201 0.38269
# Poissons Ratio (z) = 0.35311 0.40301
#
# Static dielectric constant tensor:
#      x y z
#    x 3.507430 0.000000 0.000000 
#    y 0.000000 3.927180 0.000000 
#    z 0.000000 0.000000 3.128910 
# 
# 
# High freq. dielectric constant tensor:
#      x y z
#    x 1.723940 0.000000 0.000000 
#    y 0.000000 1.731330 0.000000 
#    z 0.000000 0.000000 1.672230 
# 
# From -- ./inp_files/5922.got.cif
#   From: 2010.03.12/outbox.cif.g09.slc.cpg/sg51_3_cif.got.tgz:5922.got - 2010.04.16 13:43:02.
