data_PCOD8214358
_publ_section_title
;
Structure prediction by ZEFSAII (Michael W. Deem and Ramdas Pophale) SiO2 
 PCOD8214358
Probable space group: P M M A
;
_chemical_formula_sum "Si O2"
_cell_formula_units_Z 48
_cell_length_a 28.211361
_cell_length_b 8.548125
_cell_length_c 9.806608
_cell_angle_alpha 90.000000
_cell_angle_beta 90.000000
_cell_angle_gamma 90.000000
_cell_volume 2364.905102
_symmetry_space_group_name_H-M "P M M A"
_symmetry_group_IT_number 51
_symmetry_cell_setting 'orthorhombic'
loop_
_space_group_symop_operation_xyz
x,y,z
1/2-x,-y,z
1/2+x,-y,-z
-x,y,-z
-x,-y,-z
1/2+x,y,-z
1/2-x,y,z
x,-y,z
loop_
_atom_site_type_symbol
_atom_site_label
_atom_site_fract_x
_atom_site_fract_y
_atom_site_fract_z
Si Si1 0.520405 0.822434 0.149268
Si Si2 0.305944 0.321879 0.272615
Si Si3 0.128694 0.818980 0.489748
Si Si4 0.619641 0.317596 0.214318
Si Si5 0.805161 0.816817 0.014599
Si Si6 0.036393 0.680391 0.383785
O O1 0.575232 0.774405 0.152182
O O2 0.488602 0.709077 0.240397
O O3 0.516234 0.000000 0.202625
O O4 0.500000 0.804870 0.000000
O O5 0.250000 0.312575 0.285013
O O6 0.324333 0.500000 0.274360
O O7 0.325848 0.228799 0.401753
O O8 0.323181 0.242747 0.132233
O O9 0.126850 0.718984 0.627079
O O10 0.082754 0.786404 0.397365
O O11 0.131879 0.000000 0.529065
O O12 0.609722 0.500000 0.197895
O O13 0.666759 0.270703 0.133357
O O14 0.750000 0.776323 0.035395
O O15 0.815025 0.000000 0.024613
O O16 0.051195 0.500000 0.396926
O O17 0.000000 0.731245 0.500000
#
# Coordination Sequence:
#
# PCOD8214358 Si02
#       6
#     8   8   8   8   8   8
#     4  11  25  43  64  92 126 164 210 258 309 371
#     4  10  22  42  67  95 127 163 206 256 310 370
#     4  12  25  41  65  93 126 166 209 258 312 371
#     4  12  25  42  64  92 127 165 210 260 312 370
#     4  10  22  42  67  94 126 164 207 256 311 371
#     4  11  23  41  65  92 125 164 208 254 308 370
#
# _framework density 20.296797000000002
#
# number of rings (size 3 to 8) (size 9 to 14) (size 15 to 20)
#    0.000    1.000    1.667    5.000    2.333    4.667 
#    0.000    0.000    0.000    0.000    0.000    0.000 
#    0.000    0.000    0.000    0.000    0.000    0.000 
#
# Total GULP energy -595577.739805 kJ/mol
# GULP energy per Si atom -12407.869579 kJ/mol
# Density = 2.025060 g / cm^3
# Si number density = 20.296797 Si / 1000 Ang^3
#
#
#
# Elastic Constant Matrix: (Units=GPa)
#
#
# Indices 1 2 3 4 5 6 
#
# 1 69.5232 20.2569 51.0841 0.0000 0.0000 0.0000
# 2 20.2569 73.7311 39.8205 0.0000 0.0000 0.0000
# 3 51.0841 39.8205 99.9024 0.0000 0.0000 0.0000
# 4 0.0000 0.0000 0.0000 40.5928 0.0000 0.0000
# 5 0.0000 0.0000 0.0000 0.0000 36.1310 0.0000
# 6 0.0000 0.0000 0.0000 0.0000 0.0000 71.9977
#
#
#
# Elastic Compliance Matrix: (Units=1/GPa)
#
#
# Indices 1 2 3 4 5 6 
#
# 1 0.023041 0.000042 -0.011798 0.000000 0.000000 0.000000
# 2 0.000042 0.017283 -0.006910 0.000000 0.000000 0.000000
# 3 -0.011798 -0.006910 0.018797 0.000000 0.000000 0.000000
# 4 0.000000 0.000000 0.000000 0.024635 0.000000 0.000000
# 5 0.000000 0.000000 0.000000 0.000000 0.027677 0.000000
# 6 0.000000 0.000000 0.000000 0.000000 0.000000 0.013889
#
#
# Mechanical properties :
#
#
# Convention : Reuss Voigt Hill
#
# Bulk Modulus (GPa) = 45.89809 51.71996 48.80903
# Shear Modulus (GPa) = 29.42582 38.54398 33.98490
#
# Velocity S-wave (km/s) = 3.81172 4.36250 4.09638
# Velocity P-wave (km/s) = 6.48343 7.13529 6.81716
#
# Compressibility (1/GPa) = 0.02178740
#
# Stress axis : x y z
#
# Youngs Moduli (GPa) = 43.40167 57.85868 53.19960
#
# Poissons Ratio (x) = -0.00242 0.62766
# Poissons Ratio (y) = -0.00181 0.36763
# Poissons Ratio (z) = 0.51206 0.39983
#
# Static dielectric constant tensor:
#      x y z
#    x 3.690220 0.000000 0.000000 
#    y 0.000000 3.833330 0.000000 
#    z 0.000000 0.000000 3.646160 
# 
# 
# High freq. dielectric constant tensor:
#      x y z
#    x 1.797970 0.000000 0.000000 
#    y 0.000000 1.808620 0.000000 
#    z 0.000000 0.000000 1.800100 
# 
# From -- ./inp_files/12746.got.cif
#   From: 2010.03.12/outbox.cif.g09.slc.cpg/sg51_7_cif.got.tgz:12746.got - 2010.04.16 13:43:02.
