data_PCOD8214351
_publ_section_title
;
Structure prediction by ZEFSAII (Michael W. Deem and Ramdas Pophale) SiO2 
 PCOD8214351
Probable space group: P M M A
;
_chemical_formula_sum "Si O2"
_cell_formula_units_Z 30
_cell_length_a 15.148785
_cell_length_b 11.162100
_cell_length_c 8.680882
_cell_angle_alpha 90.000000
_cell_angle_beta 90.000000
_cell_angle_gamma 90.000000
_cell_volume 1467.869896
_symmetry_space_group_name_H-M "P M M A"
_symmetry_group_IT_number 51
_symmetry_cell_setting 'orthorhombic'
loop_
_space_group_symop_operation_xyz
x,y,z
1/2-x,-y,z
1/2+x,-y,-z
-x,y,-z
-x,-y,-z
1/2+x,y,-z
1/2-x,y,z
x,-y,z
loop_
_atom_site_type_symbol
_atom_site_label
_atom_site_fract_x
_atom_site_fract_y
_atom_site_fract_z
Si Si1 0.906905 0.138215 0.923355
Si Si2 0.590596 0.757042 0.592570
Si Si3 0.602312 0.500000 0.536584
Si Si4 0.250000 0.749343 0.902174
Si Si5 0.750000 0.500000 0.277312
Si Si6 0.750000 0.863743 0.412696
O O1 0.915250 0.161439 0.742200
O O2 0.878893 0.000000 0.949062
O O3 0.835941 0.229153 0.993501
O O4 0.000000 0.166936 0.000000
O O5 0.500000 0.761304 0.500000
O O6 0.619529 0.620416 0.635534
O O7 0.662956 0.804345 0.476791
O O8 0.500000 0.500000 0.500000
O O9 0.662101 0.500000 0.382038
O O10 0.250000 0.616102 0.832434
O O11 0.250000 0.849360 0.770198
O O12 0.750000 0.000000 0.461825
#
# Coordination Sequence:
#
# PCOD8214351 Si02
#       6
#     8   8   4   4   2   4
#     4  11  25  43  65  99 141 177 221 281 341 405
#     4  11  23  42  68  97 131 175 225 275 331 399
#     4  10  22  41  70 100 135 171 225 292 329 386
#     4  12  25  44  66  95 137 177 222 280 342 398
#     4  12  24  46  70 102 134 184 226 278 338 412
#     4  12  23  38  66  93 124 177 227 270 328 396
#
# _framework density 20.437778000000002
#
# number of rings (size 3 to 8) (size 9 to 14) (size 15 to 20)
#    0.000    0.800    2.667    4.400    3.733    5.333 
#    0.000    1.333    0.000    0.000    0.000    0.000 
#    0.000    0.000    0.000    0.000    0.000    0.000 
#
# Total GULP energy -372009.262914 kJ/mol
# GULP energy per Si atom -12400.308764 kJ/mol
# Density = 2.039126 g / cm^3
# Si number density = 20.437778 Si / 1000 Ang^3
#
#
#
# Elastic Constant Matrix: (Units=GPa)
#
#
# Indices 1 2 3 4 5 6 
#
# 1 145.0422 54.8278 51.6444 0.0000 0.0000 0.0000
# 2 54.8278 111.0333 7.3036 0.0000 0.0000 0.0000
# 3 51.6444 7.3036 97.0299 0.0000 0.0000 0.0000
# 4 0.0000 0.0000 0.0000 70.5579 0.0000 0.0000
# 5 0.0000 0.0000 0.0000 0.0000 56.1879 0.0000
# 6 0.0000 0.0000 0.0000 0.0000 0.0000 39.7360
#
#
#
# Elastic Compliance Matrix: (Units=1/GPa)
#
#
# Indices 1 2 3 4 5 6 
#
# 1 0.010631 -0.004901 -0.005289 0.000000 0.000000 0.000000
# 2 -0.004901 0.011311 0.001757 0.000000 0.000000 0.000000
# 3 -0.005289 0.001757 0.012989 0.000000 0.000000 0.000000
# 4 0.000000 0.000000 0.000000 0.014173 0.000000 0.000000
# 5 0.000000 0.000000 0.000000 0.000000 0.017797 0.000000
# 6 0.000000 0.000000 0.000000 0.000000 0.000000 0.025166
#
#
# Mechanical properties :
#
#
# Convention : Reuss Voigt Hill
#
# Bulk Modulus (GPa) = 55.35836 64.51744 59.93790
# Shear Modulus (GPa) = 43.49528 49.25167 46.37347
#
# Velocity S-wave (km/s) = 4.61823 4.91433 4.76858
# Velocity P-wave (km/s) = 7.45536 7.98982 7.72721
#
# Compressibility (1/GPa) = 0.01806412
#
# Stress axis : x y z
#
# Youngs Moduli (GPa) = 94.06742 88.40935 76.98800
#
# Poissons Ratio (x) = 0.43333 0.40721
# Poissons Ratio (y) = 0.46107 -0.13530
# Poissons Ratio (z) = 0.49755 -0.15537
#
# Static dielectric constant tensor:
#      x y z
#    x 3.850320 0.000000 0.000000 
#    y 0.000000 4.218170 0.000000 
#    z 0.000000 0.000000 3.626770 
# 
# 
# High freq. dielectric constant tensor:
#      x y z
#    x 1.819420 0.000000 0.000000 
#    y 0.000000 1.816890 0.000000 
#    z 0.000000 0.000000 1.790480 
# 
# From -- ./inp_files/7538.got.cif
#   From: 2010.03.12/outbox.cif.g09.slc.cpg/sg51_4_cif.got.tgz:7538.got - 2010.04.16 13:43:02.
