data_PCOD8214863
_publ_section_title
;
Structure prediction by ZEFSAII (Michael W. Deem and Ramdas Pophale) SiO2 
 PCOD8214863
Probable space group: P M M A
;
_chemical_formula_sum "Si O2"
_cell_formula_units_Z 48
_cell_length_a 9.072808
_cell_length_b 20.689237
_cell_length_c 20.595488
_cell_angle_alpha 90.000000
_cell_angle_beta 90.000000
_cell_angle_gamma 90.000000
_cell_volume 3865.968239
_symmetry_space_group_name_H-M "P M M A"
_symmetry_group_IT_number 51
_symmetry_cell_setting 'orthorhombic'
loop_
_space_group_symop_operation_xyz
x,y,z
1/2-x,-y,z
1/2+x,-y,-z
-x,y,-z
-x,-y,-z
1/2+x,y,-z
1/2-x,y,z
x,-y,z
loop_
_atom_site_type_symbol
_atom_site_label
_atom_site_fract_x
_atom_site_fract_y
_atom_site_fract_z
Si Si1 0.422843 0.925510 0.318879
Si Si2 0.922187 0.570300 0.430438
Si Si3 0.416445 0.922908 0.063540
Si Si4 0.078251 0.689754 0.430941
Si Si5 0.421088 0.167367 0.431793
Si Si6 0.583956 0.076899 0.189760
O O1 0.250000 0.915644 0.307269
O O2 0.480883 0.884368 0.379968
O O3 0.504497 0.899166 0.255025
O O4 0.461893 0.000000 0.332799
O O5 0.750000 0.584964 0.438898
O O6 0.945394 0.500000 0.395820
O O7 0.000000 0.567178 0.500000
O O8 0.999368 0.630370 0.391284
O O9 0.250000 0.896438 0.062770
O O10 0.497787 0.895465 0.127336
O O11 0.417237 0.000000 0.063987
O O12 0.500000 0.896541 0.000000
O O13 0.250000 0.673985 0.437927
O O14 0.052736 0.761008 0.400676
O O15 0.000000 0.692329 0.500000
O O16 0.500000 0.156384 0.500000
O O17 0.250000 0.156142 0.445766
O O18 0.750000 0.103874 0.188563
O O19 0.582838 0.000000 0.187256
#
# Coordination Sequence:
#
# PCOD8214863 Si02
#       6
#     8   8   8   8   8   8
#     4   9  17  29  41  50  62  81 104 132 169 209
#     4   9  15  21  30  45  63  80  97 116 139 172
#     4   9  15  22  33  49  68  88 106 123 146 179
#     4   9  15  23  34  46  61  79  98 121 150 186
#     4   9  18  29  39  51  64  79 102 133 169 207
#     4   9  16  25  36  50  66  82 102 128 157 191
#
# _framework density 12.416036
#
# number of rings (size 3 to 8) (size 9 to 14) (size 15 to 20)
#    0.000    3.000    0.000    3.000    0.000    6.667 
#    0.000    0.000    0.000    0.000    0.000    0.000 
#    0.000    0.000    0.000    0.000    0.000    0.000 
#
# Total GULP energy -594684.248148 kJ/mol
# GULP energy per Si atom -12389.255170 kJ/mol
# Density = 1.238778 g / cm^3
# Si number density = 12.416036 Si / 1000 Ang^3
#
#
#
# Elastic Constant Matrix: (Units=GPa)
#
#
# Indices 1 2 3 4 5 6 
#
# 1 85.8892 33.4064 42.1444 0.0000 0.0000 0.0000
# 2 33.4064 61.2548 36.3542 0.0000 0.0000 0.0000
# 3 42.1444 36.3542 79.0462 0.0000 0.0000 0.0000
# 4 0.0000 0.0000 0.0000 0.3756 0.0000 0.0000
# 5 0.0000 0.0000 0.0000 0.0000 18.1502 0.0000
# 6 0.0000 0.0000 0.0000 0.0000 0.0000 13.5659
#
#
#
# Elastic Compliance Matrix: (Units=1/GPa)
#
#
# Indices 1 2 3 4 5 6 
#
# 1 0.016948 -0.005337 -0.006582 0.000000 0.000000 0.000000
# 2 -0.005337 0.024135 -0.008254 0.000000 0.000000 0.000000
# 3 -0.006582 -0.008254 0.019956 0.000000 0.000000 0.000000
# 4 0.000000 0.000000 0.000000 2.662308 0.000000 0.000000
# 5 0.000000 0.000000 0.000000 0.000000 0.055096 0.000000
# 6 0.000000 0.000000 0.000000 0.000000 0.000000 0.073714
#
#
# Mechanical properties :
#
#
# Convention : Reuss Voigt Hill
#
# Bulk Modulus (GPa) = 48.32486 50.00005 49.16246
# Shear Modulus (GPa) = 1.72449 14.03735 7.88092
#
# Velocity S-wave (km/s) = 1.17981 3.36606 2.52213
# Velocity P-wave (km/s) = 6.39232 7.44749 6.93999
#
# Compressibility (1/GPa) = 0.02069328
#
# Stress axis : x y z
#
# Youngs Moduli (GPa) = 59.00344 41.43401 50.10970
#
# Poissons Ratio (x) = 0.22113 0.32980
# Poissons Ratio (y) = 0.31489 0.41363
# Poissons Ratio (z) = 0.38834 0.34201
#
# Static dielectric constant tensor:
#      x y z
#    x 2.715070 0.000000 0.000000 
#    y 0.000000 3.052850 0.000000 
#    z 0.000000 0.000000 2.342900 
# 
# 
# High freq. dielectric constant tensor:
#      x y z
#    x 1.489250 0.000000 0.000000 
#    y 0.000000 1.441090 0.000000 
#    z 0.000000 0.000000 1.428800 
# 
# From -- ./inp_files/32453.got.cif
#   From: 2010.03.12/outbox.cif.g09.slc.cpg/sg51_17_cif.got.tgz:32453.got - 2010.04.16 13:43:02.
