data_PCOD8214657
_publ_section_title
;
Structure prediction by ZEFSAII (Michael W. Deem and Ramdas Pophale) SiO2 
 PCOD8214657
Probable space group: P M M A
;
_chemical_formula_sum "Si O2"
_cell_formula_units_Z 20
_cell_length_a 16.269784
_cell_length_b 11.103779
_cell_length_c 4.969751
_cell_angle_alpha 90.000000
_cell_angle_beta 90.000000
_cell_angle_gamma 90.000000
_cell_volume 897.815764
_symmetry_space_group_name_H-M "P M M A"
_symmetry_group_IT_number 51
_symmetry_cell_setting 'orthorhombic'
loop_
_space_group_symop_operation_xyz
x,y,z
1/2-x,-y,z
1/2+x,-y,-z
-x,y,-z
-x,-y,-z
1/2+x,y,-z
1/2-x,y,z
x,-y,z
loop_
_atom_site_type_symbol
_atom_site_label
_atom_site_fract_x
_atom_site_fract_y
_atom_site_fract_z
Si Si1 0.156168 0.236426 0.870148
Si Si2 0.589704 0.638607 0.610560
Si Si3 0.440782 0.000000 0.752197
O O1 0.250000 0.215919 0.958248
O O2 0.153332 0.334113 0.629690
O O3 0.118312 0.114827 0.752043
O O4 0.105521 0.280651 0.128337
O O5 0.500000 0.671436 0.500000
O O6 0.597418 0.500000 0.697725
O O7 0.500000 0.000000 0.500000
O O8 0.500000 0.000000 0.000000
#
# Coordination Sequence:
#
# PCOD8214657 Si02
#       3
#     8   8   4
#     4  12  25  42  66  98 133 168 216 276 334 386
#     4  11  24  43  67  95 131 176 222 266 321 394
#     4  12  25  44  69  92 125 170 217 262 317 390
#
# _framework density 22.276285000000001
#
# number of rings (size 3 to 8) (size 9 to 14) (size 15 to 20)
#    0.000    0.400    0.000   10.200    0.000    8.000 
#    0.000    6.000    0.000    0.000    0.000    0.000 
#    0.000    0.000    0.000    0.000    0.000    0.000 
#
# Total GULP energy -248148.285315 kJ/mol
# GULP energy per Si atom -12407.414266 kJ/mol
# Density = 2.222558 g / cm^3
# Si number density = 22.276285 Si / 1000 Ang^3
#
#
#
# Elastic Constant Matrix: (Units=GPa)
#
#
# Indices 1 2 3 4 5 6 
#
# 1 131.2424 79.1736 46.6802 0.0000 0.0000 0.0000
# 2 79.1736 126.4143 62.7820 0.0000 0.0000 0.0000
# 3 46.6802 62.7820 165.1614 0.0000 0.0000 0.0000
# 4 0.0000 0.0000 0.0000 36.5680 0.0000 0.0000
# 5 0.0000 0.0000 0.0000 0.0000 34.2603 0.0000
# 6 0.0000 0.0000 0.0000 0.0000 0.0000 17.3039
#
#
#
# Elastic Compliance Matrix: (Units=1/GPa)
#
#
# Indices 1 2 3 4 5 6 
#
# 1 0.012307 -0.007372 -0.000676 0.000000 0.000000 0.000000
# 2 -0.007372 0.014168 -0.003302 0.000000 0.000000 0.000000
# 3 -0.000676 -0.003302 0.007501 0.000000 0.000000 0.000000
# 4 0.000000 0.000000 0.000000 0.027346 0.000000 0.000000
# 5 0.000000 0.000000 0.000000 0.000000 0.029188 0.000000
# 6 0.000000 0.000000 0.000000 0.000000 0.000000 0.057790
#
#
# Mechanical properties :
#
#
# Convention : Reuss Voigt Hill
#
# Bulk Modulus (GPa) = 88.68852 88.89886 88.79369
# Shear Modulus (GPa) = 28.61067 33.23860 30.92464
#
# Velocity S-wave (km/s) = 3.58768 3.86697 3.72994
# Velocity P-wave (km/s) = 7.55389 7.74158 7.64831
#
# Compressibility (1/GPa) = 0.01127542
#
# Stress axis : x y z
#
# Youngs Moduli (GPa) = 81.25151 70.58327 133.31820
#
# Poissons Ratio (x) = 0.52037 0.09013
# Poissons Ratio (y) = 0.59902 0.44019
# Poissons Ratio (z) = 0.05493 0.23305
#
# Static dielectric constant tensor:
#      x y z
#    x 4.043570 0.000000 0.000000 
#    y 0.000000 4.358060 0.000000 
#    z 0.000000 0.000000 4.027480 
# 
# 
# High freq. dielectric constant tensor:
#      x y z
#    x 1.883110 0.000000 0.000000 
#    y 0.000000 1.888130 0.000000 
#    z 0.000000 0.000000 1.893810 
# 
# From -- ./inp_files/1026.got.cif
#   From: 2010.03.12/outbox.cif.g09.slc.cpg/sg51_1_cif.got.tgz:1026.got - 2010.04.16 13:43:02.
