data_PCOD8214993
_publ_section_title
;
Structure prediction by ZEFSAII (Michael W. Deem and Ramdas Pophale) SiO2 
 PCOD8214993
Probable space group: P N N A
;
_chemical_formula_sum "Si O2"
_cell_formula_units_Z 48
_cell_length_a 9.701728
_cell_length_b 18.227813
_cell_length_c 14.367232
_cell_angle_alpha 90.000000
_cell_angle_beta 90.000000
_cell_angle_gamma 90.000000
_cell_volume 2540.719751
_symmetry_space_group_name_H-M "P N N A"
_symmetry_group_IT_number 52
_symmetry_cell_setting 'orthorhombic'
loop_
_space_group_symop_operation_xyz
x,y,z
1/2-x,-y,z
x,1/2-y,1/2-z
1/2-x,1/2+y,1/2-z
-x,-y,-z
1/2+x,y,-z
-x,1/2+y,1/2+z
1/2+x,1/2-y,1/2+z
loop_
_atom_site_type_symbol
_atom_site_label
_atom_site_fract_x
_atom_site_fract_y
_atom_site_fract_z
Si Si1 0.472948 0.818243 0.884815
Si Si2 0.474933 0.345802 0.180031
Si Si3 0.285225 0.203779 0.995245
Si Si4 0.104202 0.800969 0.660778
Si Si5 0.187856 0.163401 0.394322
Si Si6 0.302106 0.918467 0.583043
O O1 0.475593 0.730397 0.867635
O O2 0.476252 0.857344 0.785491
O O3 0.329522 0.841085 0.936149
O O4 0.606530 0.845046 0.944893
O O5 0.309860 0.351458 0.178947
O O6 0.540171 0.411154 0.118347
O O7 0.385766 0.250882 0.930022
O O8 0.199613 0.255284 0.064470
O O9 0.132942 0.750000 0.750000
O O10 0.216377 0.865307 0.652153
O O11 0.954686 0.839883 0.662670
O O12 0.201313 0.102888 0.474977
O O13 0.250000 0.000000 0.595750
#
# Coordination Sequence:
#
# PCOD8214993 Si02
#       6
#     8   8   8   8   8   8
#     4  10  18  30  51  72 113 138 186 238 290 340
#     4  10  20  32  49  78 106 150 186 235 287 334
#     4  10  17  30  46  75 108 142 175 228 292 335
#     4  11  21  33  53  83 114 146 193 244 280 339
#     4  10  20  32  49  77 111 145 190 228 285 343
#     4  11  22  38  56  79 116 162 189 224 286 360
#
# _framework density 18.892282999999999
#
# number of rings (size 3 to 8) (size 9 to 14) (size 15 to 20)
#    0.000    1.667    5.000    3.000    4.667    2.667 
#    0.000    0.000    0.000    0.000    0.000    4.667 
#    0.000    0.000    0.000    0.000    0.000    0.000 
#
# Total GULP energy -595018.934746 kJ/mol
# GULP energy per Si atom -12396.227807 kJ/mol
# Density = 1.884928 g / cm^3
# Si number density = 18.892283 Si / 1000 Ang^3
#
#
#
# Elastic Constant Matrix: (Units=GPa)
#
#
# Indices 1 2 3 4 5 6 
#
# 1 105.1285 4.4379 28.5639 0.0000 0.0000 0.0000
# 2 4.4379 44.3316 18.7475 0.0000 0.0000 0.0000
# 3 28.5639 18.7475 79.7074 0.0000 0.0000 0.0000
# 4 0.0000 0.0000 0.0000 13.4839 0.0000 0.0000
# 5 0.0000 0.0000 0.0000 0.0000 36.8132 0.0000
# 6 0.0000 0.0000 0.0000 0.0000 0.0000 10.4958
#
#
#
# Elastic Compliance Matrix: (Units=1/GPa)
#
#
# Indices 1 2 3 4 5 6 
#
# 1 0.010553 0.000603 -0.003923 0.000000 0.000000 0.000000
# 2 0.000603 0.025083 -0.006116 0.000000 0.000000 0.000000
# 3 -0.003923 -0.006116 0.015390 0.000000 0.000000 0.000000
# 4 0.000000 0.000000 0.000000 0.074162 0.000000 0.000000
# 5 0.000000 0.000000 0.000000 0.000000 0.027164 0.000000
# 6 0.000000 0.000000 0.000000 0.000000 0.000000 0.095277
#
#
# Mechanical properties :
#
#
# Convention : Reuss Voigt Hill
#
# Bulk Modulus (GPa) = 31.10074 36.96289 34.03181
# Shear Modulus (GPa) = 18.03623 23.98646 21.01135
#
# Velocity S-wave (km/s) = 3.09315 3.56707 3.33853
# Velocity P-wave (km/s) = 5.40876 6.04755 5.73705
#
# Compressibility (1/GPa) = 0.03215358
#
# Stress axis : x y z
#
# Youngs Moduli (GPa) = 94.76209 39.86737 64.97596
#
# Poissons Ratio (x) = -0.02403 0.25493
# Poissons Ratio (y) = -0.05712 0.39737
# Poissons Ratio (z) = 0.37179 0.24382
#
# Static dielectric constant tensor:
#      x y z
#    x 3.704080 0.000000 0.000000 
#    y 0.000000 2.788300 0.000000 
#    z 0.000000 0.000000 3.549730 
# 
# 
# High freq. dielectric constant tensor:
#      x y z
#    x 1.761110 0.000000 0.000000 
#    y 0.000000 1.646800 0.000000 
#    z 0.000000 0.000000 1.736270 
# 
# From -- ./inp_files/24702.got.cif
#   From: 2010.06.25/outbox.cif.g09.slc.cpg/sg52_13_cif.got.tgz:24702.got - 2010.06.26 19:32:48.
