data_PCOD8214272
_publ_section_title
;
Structure prediction by ZEFSAII (Michael W. Deem and Ramdas Pophale) SiO2 
 PCOD8214272
Probable space group: P M M A
;
_chemical_formula_sum "Si O2"
_cell_formula_units_Z 64
_cell_length_a 15.142918
_cell_length_b 22.678860
_cell_length_c 8.831534
_cell_angle_alpha 90.000000
_cell_angle_beta 90.000000
_cell_angle_gamma 90.000000
_cell_volume 3032.961768
_symmetry_space_group_name_H-M "P M M A"
_symmetry_group_IT_number 51
_symmetry_cell_setting 'orthorhombic'
loop_
_space_group_symop_operation_xyz
x,y,z
1/2-x,-y,z
1/2+x,-y,-z
-x,y,-z
-x,-y,-z
1/2+x,y,-z
1/2-x,y,z
x,-y,z
loop_
_atom_site_type_symbol
_atom_site_label
_atom_site_fract_x
_atom_site_fract_y
_atom_site_fract_z
Si Si1 0.346294 0.112877 0.730229
Si Si2 0.016798 0.933865 0.169626
Si Si3 0.598918 0.219072 0.049983
Si Si4 0.017726 0.363244 0.325062
Si Si5 0.092966 0.434824 0.083700
Si Si6 0.150260 0.654203 0.851338
Si Si7 0.093180 0.147883 0.421849
Si Si8 0.652169 0.259087 0.739317
O O1 0.250000 0.090335 0.781815
O O2 0.419445 0.063042 0.757714
O O3 0.369318 0.171392 0.827205
O O4 0.342537 0.121336 0.548792
O O5 0.081826 0.892803 0.270346
O O6 0.056603 0.000000 0.165213
O O7 0.000000 0.908574 0.000000
O O8 0.607711 0.282244 0.126156
O O9 0.500000 0.204534 0.000000
O O10 0.656637 0.223637 0.897993
O O11 0.076590 0.417056 0.259303
O O12 0.070928 0.304871 0.271332
O O13 0.000000 0.366500 0.500000
O O14 0.917956 0.373082 0.266235
O O15 0.136608 0.500000 0.077180
O O16 0.154442 0.385549 0.004094
O O17 0.000000 0.434242 0.000000
O O18 0.250000 0.658458 0.786412
O O19 0.135552 0.210438 0.387047
O O20 0.000000 0.159135 0.500000
O O21 0.750000 0.287785 0.713438
#
# Coordination Sequence:
#
# PCOD8214272 Si02
#       8
#     8   8   8   8   8   8   8   8
#     4  11  23  37  59  92 125 162 206 261 324 385
#     4  10  22  42  67  90 118 164 215 262 313 378
#     4  12  21  38  60  86 124 163 212 265 317 378
#     4  11  24  39  58  92 131 171 212 267 326 396
#     4   9  19  40  65  89 119 162 213 263 314 377
#     4  11  22  39  62  90 123 165 216 269 322 382
#     4  10  22  39  59  87 122 163 203 253 314 390
#     4  12  23  37  58  86 124 166 211 265 323 382
#
# _framework density 21.101486999999999
#
# number of rings (size 3 to 8) (size 9 to 14) (size 15 to 20)
#    0.000    1.250    2.500    4.875    1.750    3.500 
#    0.000    0.625    0.000    2.625    0.000    1.750 
#    0.000    0.000    0.000    0.000    0.000    0.000 
#
# Total GULP energy -792845.084738 kJ/mol
# GULP energy per Si atom -12388.204449 kJ/mol
# Density = 2.105346 g / cm^3
# Si number density = 21.101487 Si / 1000 Ang^3
#
#
#
# Elastic Constant Matrix: (Units=GPa)
#
#
# Indices 1 2 3 4 5 6 
#
# 1 110.5196 10.8518 16.8794 0.0000 0.0000 0.0000
# 2 10.8518 72.0905 22.2222 0.0000 0.0000 0.0000
# 3 16.8794 22.2222 126.6622 0.0000 0.0000 0.0000
# 4 0.0000 0.0000 0.0000 16.1433 0.0000 0.0000
# 5 0.0000 0.0000 0.0000 0.0000 17.1586 0.0000
# 6 0.0000 0.0000 0.0000 0.0000 0.0000 -14.3913
#
#
#
# Elastic Compliance Matrix: (Units=1/GPa)
#
#
# Indices 1 2 3 4 5 6 
#
# 1 0.009315 -0.001078 -0.001052 0.000000 0.000000 0.000000
# 2 -0.001078 0.014789 -0.002451 0.000000 0.000000 0.000000
# 3 -0.001052 -0.002451 0.008465 0.000000 0.000000 0.000000
# 4 0.000000 0.000000 0.000000 0.061945 0.000000 0.000000
# 5 0.000000 0.000000 0.000000 0.000000 0.058280 0.000000
# 6 0.000000 0.000000 0.000000 0.000000 0.000000 -0.069486
#
#
# Mechanical properties :
#
#
# Convention : Reuss Voigt Hill
#
# Bulk Modulus (GPa) = 42.72214 45.46434 44.09324
# Shear Modulus (GPa) = 49.86409 21.07004 35.46707
#
# Velocity S-wave (km/s) = 4.86641 3.16335 4.10419
# Velocity P-wave (km/s) = 7.20180 5.91056 6.58789
#
# Compressibility (1/GPa) = 0.02340707
#
# Stress axis : x y z
#
# Youngs Moduli (GPa) = 107.35720 67.61677 118.12987
#
# Poissons Ratio (x) = 0.07288 0.12430
# Poissons Ratio (y) = 0.11571 0.28954
# Poissons Ratio (z) = 0.11296 0.16573
#
# Static dielectric constant tensor:
#      x y z
#    x 3.818250 0.000000 0.000000 
#    y 0.000000 3.765750 0.000000 
#    z 0.000000 0.000000 3.994450 
# 
# 
# High freq. dielectric constant tensor:
#      x y z
#    x 1.821950 0.000000 0.000000 
#    y 0.000000 1.812630 0.000000 
#    z 0.000000 0.000000 1.828160 
# 
# From -- ./inp_files/8681.got.cif
#   From: 2010.03.12/outbox.cif.g09.slc.cpg/sg51_5_cif.got.tgz:8681.got - 2010.04.16 13:43:02.
