data_PCOD8214878
_publ_section_title
;
Structure prediction by ZEFSAII (Michael W. Deem and Ramdas Pophale) SiO2 
 PCOD8214878
Probable space group: P M M A
;
_chemical_formula_sum "Si O2"
_cell_formula_units_Z 64
_cell_length_a 17.407862
_cell_length_b 9.381933
_cell_length_c 22.995652
_cell_angle_alpha 90.000000
_cell_angle_beta 90.000000
_cell_angle_gamma 90.000000
_cell_volume 3755.635971
_symmetry_space_group_name_H-M "P M M A"
_symmetry_group_IT_number 51
_symmetry_cell_setting 'orthorhombic'
loop_
_space_group_symop_operation_xyz
x,y,z
1/2-x,-y,z
1/2+x,-y,-z
-x,y,-z
-x,-y,-z
1/2+x,y,-z
1/2-x,y,z
x,-y,z
loop_
_atom_site_type_symbol
_atom_site_label
_atom_site_fract_x
_atom_site_fract_y
_atom_site_fract_z
Si Si1 0.493042 0.333447 0.741566
Si Si2 0.833955 0.663924 0.308880
Si Si3 0.662348 0.335117 0.952825
Si Si4 0.950989 0.836742 0.635901
Si Si5 0.927322 0.839307 0.041532
Si Si6 0.021609 0.666267 0.127850
Si Si7 0.883567 0.163101 0.415278
Si Si8 0.663602 0.830608 0.540593
O O1 0.504378 0.500000 0.731066
O O2 0.402973 0.288828 0.734282
O O3 0.545450 0.252291 0.695125
O O4 0.522913 0.288521 0.804929
O O5 0.750000 0.688686 0.279048
O O6 0.845391 0.500000 0.325829
O O7 0.834525 0.750934 0.368505
O O8 0.750000 0.302567 0.933390
O O9 0.652267 0.500000 0.970374
O O10 0.604893 0.296603 0.899741
O O11 0.642533 0.241057 0.009435
O O12 0.884173 0.771417 0.595403
O O13 0.027045 0.821942 0.597748
O O14 0.935357 0.000000 0.653463
O O15 0.952017 0.753909 0.098981
O O16 0.901465 0.000000 0.057680
O O17 0.000000 0.841850 0.000000
O O18 0.002233 0.500000 0.120035
O O19 0.868477 0.227659 0.479255
O O20 0.855654 0.000000 0.412013
O O21 0.750000 0.777359 0.548973
O O22 0.656162 0.000000 0.540278
#
# Coordination Sequence:
#
# PCOD8214878 Si02
#       8
#     8   8   8   8   8   8   8   8
#     4   9  18  32  48  65  88 121 157 189 223 264
#     4   9  17  29  44  63  88 115 143 180 227 275
#     4   9  17  30  49  72  96 123 156 192 227 262
#     4   9  17  29  45  64  86 114 149 187 225 269
#     4   9  17  29  47  71  97 122 146 178 225 274
#     4   9  17  31  50  69  91 122 160 194 221 261
#     4   9  16  27  45  66  85 108 142 183 226 274
#     4   9  16  26  42  64  88 113 143 182 228 276
#
# _framework density 17.041056000000001
#
# number of rings (size 3 to 8) (size 9 to 14) (size 15 to 20)
#    0.000    3.000    0.000    1.125    0.000    4.500 
#    0.000    1.875    0.000    7.125    0.000    0.000 
#    0.000    0.000    0.000    0.000    0.000    0.000 
#
# Total GULP energy -793391.496864 kJ/mol
# GULP energy per Si atom -12396.742139 kJ/mol
# Density = 1.700227 g / cm^3
# Si number density = 17.041056 Si / 1000 Ang^3
#
#
#
# Elastic Constant Matrix: (Units=GPa)
#
#
# Indices 1 2 3 4 5 6 
#
# 1 89.9253 33.9493 63.9294 0.0000 0.0000 0.0000
# 2 33.9493 52.4001 46.0644 0.0000 0.0000 0.0000
# 3 63.9294 46.0644 123.5451 0.0000 0.0000 0.0000
# 4 0.0000 0.0000 0.0000 25.7599 0.0000 0.0000
# 5 0.0000 0.0000 0.0000 0.0000 18.9549 0.0000
# 6 0.0000 0.0000 0.0000 0.0000 0.0000 17.1809
#
#
#
# Elastic Compliance Matrix: (Units=1/GPa)
#
#
# Indices 1 2 3 4 5 6 
#
# 1 0.018539 -0.005322 -0.007609 0.000000 0.000000 0.000000
# 2 -0.005322 0.029917 -0.008401 0.000000 0.000000 0.000000
# 3 -0.007609 -0.008401 0.015164 0.000000 0.000000 0.000000
# 4 0.000000 0.000000 0.000000 0.038820 0.000000 0.000000
# 5 0.000000 0.000000 0.000000 0.000000 0.052757 0.000000
# 6 0.000000 0.000000 0.000000 0.000000 0.000000 0.058204
#
#
# Mechanical properties :
#
#
# Convention : Reuss Voigt Hill
#
# Bulk Modulus (GPa) = 47.71843 61.52853 54.62348
# Shear Modulus (GPa) = 19.00787 20.50764 19.75775
#
# Velocity S-wave (km/s) = 3.34341 3.47281 3.40872
# Velocity P-wave (km/s) = 6.55495 7.22945 6.90044
#
# Compressibility (1/GPa) = 0.02095626
#
# Stress axis : x y z
#
# Youngs Moduli (GPa) = 53.94115 33.42559 65.94779
#
# Poissons Ratio (x) = 0.17791 0.50176
# Poissons Ratio (y) = 0.28710 0.55400
# Poissons Ratio (z) = 0.41041 0.28080
#
# Static dielectric constant tensor:
#      x y z
#    x 3.228830 0.000000 0.000000 
#    y 0.000000 3.140520 0.000000 
#    z 0.000000 0.000000 3.130150 
# 
# 
# High freq. dielectric constant tensor:
#      x y z
#    x 1.652290 0.000000 0.000000 
#    y 0.000000 1.641670 0.000000 
#    z 0.000000 0.000000 1.644210 
# 
# From -- ./inp_files/35904.got.cif
#   From: 2010.03.12/outbox.cif.g09.slc.cpg/sg51_18_cif.got.tgz:35904.got - 2010.04.16 13:43:02.
