data_PCOD8214980
_publ_section_title
;
Structure prediction by ZEFSAII (Michael W. Deem and Ramdas Pophale) SiO2 
 PCOD8214980
Probable space group: P N N A
;
_chemical_formula_sum "Si O2"
_cell_formula_units_Z 48
_cell_length_a 7.941963
_cell_length_b 23.829350
_cell_length_c 15.618201
_cell_angle_alpha 90.000000
_cell_angle_beta 90.000000
_cell_angle_gamma 90.000000
_cell_volume 2955.772902
_symmetry_space_group_name_H-M "P N N A"
_symmetry_group_IT_number 52
_symmetry_cell_setting 'orthorhombic'
loop_
_space_group_symop_operation_xyz
x,y,z
1/2-x,-y,z
x,1/2-y,1/2-z
1/2-x,1/2+y,1/2-z
-x,-y,-z
1/2+x,y,-z
-x,1/2+y,1/2+z
1/2+x,1/2-y,1/2+z
loop_
_atom_site_type_symbol
_atom_site_label
_atom_site_fract_x
_atom_site_fract_y
_atom_site_fract_z
Si Si1 0.064052 0.238708 0.465199
Si Si2 0.173839 0.059565 0.437752
Si Si3 0.791833 0.440165 0.123227
Si Si4 0.833414 0.667459 0.212554
Si Si5 0.759056 0.224094 0.121632
Si Si6 0.139055 0.670725 0.096343
O O1 0.135958 0.276951 0.540973
O O2 0.205535 0.214256 0.401455
O O3 0.949879 0.282600 0.411968
O O4 0.965583 0.185518 0.509148
O O5 0.169474 0.064596 0.540737
O O6 0.295133 0.107522 0.402126
O O7 0.986009 0.065869 0.402594
O O8 0.250000 0.000000 0.408625
O O9 0.750000 0.500000 0.167024
O O10 0.741192 0.392938 0.190694
O O11 0.727382 0.714764 0.164696
O O12 0.808885 0.676228 0.314357
O O13 0.026937 0.676257 0.182297
#
# Coordination Sequence:
#
# PCOD8214980 Si02
#       6
#     8   8   8   8   8   8
#     4   9  17  31  49  64  87 122 155 184 226 274
#     4  11  19  28  43  64  90 127 164 183 207 265
#     4  11  20  30  44  64  92 127 157 188 223 263
#     4  10  19  31  45  68  97 121 148 189 232 267
#     4   9  18  32  48  68  93 120 151 189 228 274
#     4  10  17  28  46  67  93 123 152 187 222 262
#
# _framework density 16.239408000000001
#
# number of rings (size 3 to 8) (size 9 to 14) (size 15 to 20)
#    0.000    2.000    0.000    9.000    0.000    0.000 
#    0.000   18.333    0.000    0.000    0.000    1.167 
#    0.000    0.000    0.000    0.000    0.000    0.000 
#
# Total GULP energy -594956.778363 kJ/mol
# GULP energy per Si atom -12394.932883 kJ/mol
# Density = 1.620245 g / cm^3
# Si number density = 16.239408 Si / 1000 Ang^3
#
#
#
# Elastic Constant Matrix: (Units=GPa)
#
#
# Indices 1 2 3 4 5 6 
#
# 1 123.6284 47.1768 58.6579 0.0000 0.0000 0.0000
# 2 47.1768 90.0030 53.4293 0.0000 0.0000 0.0000
# 3 58.6579 53.4293 85.9376 0.0000 0.0000 0.0000
# 4 0.0000 0.0000 0.0000 18.6018 0.0000 0.0000
# 5 0.0000 0.0000 0.0000 0.0000 15.2325 0.0000
# 6 0.0000 0.0000 0.0000 0.0000 0.0000 18.4746
#
#
#
# Elastic Compliance Matrix: (Units=1/GPa)
#
#
# Indices 1 2 3 4 5 6 
#
# 1 0.012259 -0.002312 -0.006930 0.000000 0.000000 0.000000
# 2 -0.002312 0.018046 -0.009642 0.000000 0.000000 0.000000
# 3 -0.006930 -0.009642 0.022361 0.000000 0.000000 0.000000
# 4 0.000000 0.000000 0.000000 0.053758 0.000000 0.000000
# 5 0.000000 0.000000 0.000000 0.000000 0.065649 0.000000
# 6 0.000000 0.000000 0.000000 0.000000 0.000000 0.054128
#
#
# Mechanical properties :
#
#
# Convention : Reuss Voigt Hill
#
# Bulk Modulus (GPa) = 67.11956 68.67747 67.89851
# Shear Modulus (GPa) = 18.59172 19.81544 19.20358
#
# Velocity S-wave (km/s) = 3.38724 3.49694 3.44252
# Velocity P-wave (km/s) = 7.53119 7.66076 7.59625
#
# Compressibility (1/GPa) = 0.01489879
#
# Stress axis : x y z
#
# Youngs Moduli (GPa) = 81.57138 55.41316 44.71998
#
# Poissons Ratio (x) = 0.12810 0.30993
# Poissons Ratio (y) = 0.18857 0.43118
# Poissons Ratio (z) = 0.56533 0.53429
#
# Static dielectric constant tensor:
#      x y z
#    x 3.291230 0.000000 0.000000 
#    y 0.000000 2.996600 0.000000 
#    z 0.000000 0.000000 2.865390 
# 
# 
# High freq. dielectric constant tensor:
#      x y z
#    x 1.645670 0.000000 0.000000 
#    y 0.000000 1.601900 0.000000 
#    z 0.000000 0.000000 1.579090 
# 
# From -- ./inp_files/25014.got.cif
#   From: 2010.06.25/outbox.cif.g09.slc.cpg/sg52_13_cif.got.tgz:25014.got - 2010.06.26 19:32:48.
