data_PCOD8214841
_publ_section_title
;
Structure prediction by ZEFSAII (Michael W. Deem and Ramdas Pophale) SiO2 
 PCOD8214841
Probable space group: P M M A
;
_chemical_formula_sum "Si O2"
_cell_formula_units_Z 40
_cell_length_a 27.549348
_cell_length_b 9.312822
_cell_length_c 10.378896
_cell_angle_alpha 90.000000
_cell_angle_beta 90.000000
_cell_angle_gamma 90.000000
_cell_volume 2662.832123
_symmetry_space_group_name_H-M "P M M A"
_symmetry_group_IT_number 51
_symmetry_cell_setting 'orthorhombic'
loop_
_space_group_symop_operation_xyz
x,y,z
1/2-x,-y,z
1/2+x,-y,-z
-x,y,-z
-x,-y,-z
1/2+x,y,-z
1/2-x,y,z
x,-y,z
loop_
_atom_site_type_symbol
_atom_site_label
_atom_site_fract_x
_atom_site_fract_y
_atom_site_fract_z
Si Si1 0.694374 0.167388 0.114626
Si Si2 0.645708 0.337773 0.604495
Si Si3 0.635069 0.830100 0.364974
Si Si4 0.693769 0.333069 0.863849
Si Si5 0.052843 0.662483 0.532172
O O1 0.750000 0.209112 0.144088
O O2 0.662274 0.215885 0.235400
O O3 0.688821 0.000000 0.087091
O O4 0.674903 0.249618 0.989123
O O5 0.666070 0.500000 0.586088
O O6 0.664827 0.237710 0.486532
O O7 0.663505 0.275900 0.740949
O O8 0.586535 0.338018 0.597233
O O9 0.580461 0.762015 0.361934
O O10 0.632118 0.000000 0.381719
O O11 0.750000 0.299798 0.837208
O O12 0.684163 0.500000 0.888098
O O13 0.047360 0.500000 0.586455
O O14 0.000000 0.727544 0.500000
#
# Coordination Sequence:
#
# PCOD8214841 Si02
#       5
#     8   8   8   8   8
#     4   9  18  31  44  61  90 123 149 175 210 255
#     4   8  16  29  43  64  89 112 142 181 219 256
#     4   9  17  28  44  67  89 113 146 181 215 252
#     4   9  17  29  45  64  87 116 148 181 216 254
#     4   8  15  29  47  65  87 114 142 177 224 267
#
# _framework density 15.021599999999999
#
# number of rings (size 3 to 8) (size 9 to 14) (size 15 to 20)
#    1.200    2.200    0.000    0.000    0.000    3.600 
#    0.000    0.000    0.000    1.200    0.000    8.400 
#    0.000    0.000    0.000    0.000    0.000    0.000 
#
# Total GULP energy -495540.812871 kJ/mol
# GULP energy per Si atom -12388.520322 kJ/mol
# Density = 1.498741 g / cm^3
# Si number density = 15.021600 Si / 1000 Ang^3
#
#
#
# Elastic Constant Matrix: (Units=GPa)
#
#
# Indices 1 2 3 4 5 6 
#
# 1 67.6763 27.8711 57.6630 0.0000 0.0000 0.0000
# 2 27.8711 52.1451 51.6442 0.0000 0.0000 0.0000
# 3 57.6630 51.6442 131.8210 0.0000 0.0000 0.0000
# 4 0.0000 0.0000 0.0000 27.8268 0.0000 0.0000
# 5 0.0000 0.0000 0.0000 0.0000 7.4052 0.0000
# 6 0.0000 0.0000 0.0000 0.0000 0.0000 17.4445
#
#
#
# Elastic Compliance Matrix: (Units=1/GPa)
#
#
# Indices 1 2 3 4 5 6 
#
# 1 0.024051 -0.003979 -0.008962 0.000000 0.000000 0.000000
# 2 -0.003979 0.031994 -0.010794 0.000000 0.000000 0.000000
# 3 -0.008962 -0.010794 0.015735 0.000000 0.000000 0.000000
# 4 0.000000 0.000000 0.000000 0.035937 0.000000 0.000000
# 5 0.000000 0.000000 0.000000 0.000000 0.135040 0.000000
# 6 0.000000 0.000000 0.000000 0.000000 0.000000 0.057325
#
#
# Mechanical properties :
#
#
# Convention : Reuss Voigt Hill
#
# Bulk Modulus (GPa) = 41.13478 58.44433 49.78956
# Shear Modulus (GPa) = 14.05857 18.16624 16.11240
#
# Velocity S-wave (km/s) = 3.06255 3.48133 3.27863
# Velocity P-wave (km/s) = 6.32051 7.42636 6.89564
#
# Compressibility (1/GPa) = 0.02431033
#
# Stress axis : x y z
#
# Youngs Moduli (GPa) = 41.57889 31.25539 63.55290
#
# Poissons Ratio (x) = 0.12438 0.56953
# Poissons Ratio (y) = 0.16546 0.68599
# Poissons Ratio (z) = 0.37261 0.33737
#
# Static dielectric constant tensor:
#      x y z
#    x 2.771870 0.000000 0.000000 
#    y 0.000000 2.846450 0.000000 
#    z 0.000000 0.000000 2.816350 
# 
# 
# High freq. dielectric constant tensor:
#      x y z
#    x 1.554170 0.000000 0.000000 
#    y 0.000000 1.576390 0.000000 
#    z 0.000000 0.000000 1.559470 
# 
# From -- ./inp_files/12587.got.cif
#   From: 2010.03.12/outbox.cif.g09.slc.cpg/sg51_7_cif.got.tgz:12587.got - 2010.04.16 13:43:02.
