data_PCOD8214265
_publ_section_title
;
Structure prediction by ZEFSAII (Michael W. Deem and Ramdas Pophale) SiO2 
 PCOD8214265
Probable space group: P M M A
;
_chemical_formula_sum "Si O2"
_cell_formula_units_Z 56
_cell_length_a 15.132504
_cell_length_b 19.146429
_cell_length_c 9.312972
_cell_angle_alpha 90.000000
_cell_angle_beta 90.000000
_cell_angle_gamma 90.000000
_cell_volume 2698.279167
_symmetry_space_group_name_H-M "P M M A"
_symmetry_group_IT_number 51
_symmetry_cell_setting 'orthorhombic'
loop_
_space_group_symop_operation_xyz
x,y,z
1/2-x,-y,z
1/2+x,-y,-z
-x,y,-z
-x,-y,-z
1/2+x,y,-z
1/2-x,y,z
x,-y,z
loop_
_atom_site_type_symbol
_atom_site_label
_atom_site_fract_x
_atom_site_fract_y
_atom_site_fract_z
Si Si1 0.154877 0.173262 0.659791
Si Si2 0.098237 0.699481 0.504828
Si Si3 0.650659 0.710720 0.815002
Si Si4 0.479152 0.838424 0.158104
Si Si5 0.909113 0.922556 0.583202
Si Si6 0.895723 0.420975 0.998513
Si Si7 0.148974 0.577995 0.684433
O O1 0.250000 0.158063 0.735528
O O2 0.158126 0.252422 0.605044
O O3 0.151821 0.124570 0.517926
O O4 0.075474 0.166888 0.770888
O O5 0.142417 0.694589 0.351635
O O6 0.089973 0.624007 0.578072
O O7 0.000000 0.733455 0.500000
O O8 0.750000 0.739553 0.847503
O O9 0.574424 0.765606 0.862559
O O10 0.640019 0.635518 0.887681
O O11 0.419927 0.888997 0.257838
O O12 0.500000 0.869700 0.000000
O O13 0.000000 0.928761 0.500000
O O14 0.868026 0.000000 0.603538
O O15 0.862168 0.500000 0.960735
O O16 0.859552 0.396507 0.152358
O O17 0.000000 0.419679 0.000000
O O18 0.250000 0.582496 0.634385
O O19 0.111055 0.500000 0.672161
#
# Coordination Sequence:
#
# PCOD8214265 Si02
#       7
#     8   8   8   8   8   8   8
#     4  11  22  41  66  94 127 169 215 260 315 379
#     4  12  22  39  61  85 121 155 206 267 319 373
#     4  12  24  38  59  89 125 166 212 267 326 382
#     4  11  24  41  61  95 137 171 214 265 317 384
#     4   9  19  40  68  96 127 167 210 255 308 370
#     4  10  22  41  61  84 118 162 211 262 321 392
#     4  10  22  39  58  83 115 155 203 255 316 385
#
# _framework density 20.753969000000001
#
# number of rings (size 3 to 8) (size 9 to 14) (size 15 to 20)
#    0.000    1.286    2.857    3.429    2.000    2.857 
#    0.000    0.000    0.000    0.000    0.000    2.000 
#    0.000    0.000    0.000    0.000    0.000    0.000 
#
# Total GULP energy -694191.675048 kJ/mol
# GULP energy per Si atom -12396.279912 kJ/mol
# Density = 2.070673 g / cm^3
# Si number density = 20.753969 Si / 1000 Ang^3
#
#
#
# Elastic Constant Matrix: (Units=GPa)
#
#
# Indices 1 2 3 4 5 6 
#
# 1 119.0005 21.8002 21.9065 0.0000 0.0000 0.0000
# 2 21.8002 86.8835 34.1870 0.0000 0.0000 0.0000
# 3 21.9065 34.1870 103.4620 0.0000 0.0000 0.0000
# 4 0.0000 0.0000 0.0000 24.7287 0.0000 0.0000
# 5 0.0000 0.0000 0.0000 0.0000 20.9479 0.0000
# 6 0.0000 0.0000 0.0000 0.0000 0.0000 26.0881
#
#
#
# Elastic Compliance Matrix: (Units=1/GPa)
#
#
# Indices 1 2 3 4 5 6 
#
# 1 0.008964 -0.001727 -0.001327 0.000000 0.000000 0.000000
# 2 -0.001727 0.013562 -0.004116 0.000000 0.000000 0.000000
# 3 -0.001327 -0.004116 0.011306 0.000000 0.000000 0.000000
# 4 0.000000 0.000000 0.000000 0.040439 0.000000 0.000000
# 5 0.000000 0.000000 0.000000 0.000000 0.047737 0.000000
# 6 0.000000 0.000000 0.000000 0.000000 0.000000 0.038332
#
#
# Mechanical properties :
#
#
# Convention : Reuss Voigt Hill
#
# Bulk Modulus (GPa) = 51.30111 51.68149 51.49130
# Shear Modulus (GPa) = 27.59708 29.78309 28.69009
#
# Velocity S-wave (km/s) = 3.65050 3.79232 3.72208
# Velocity P-wave (km/s) = 6.52231 6.64317 6.58301
#
# Compressibility (1/GPa) = 0.01949276
#
# Stress axis : x y z
#
# Youngs Moduli (GPa) = 111.55683 73.73290 88.44526
#
# Poissons Ratio (x) = 0.12733 0.11740
# Poissons Ratio (y) = 0.19265 0.36402
# Poissons Ratio (z) = 0.14808 0.30347
#
# Static dielectric constant tensor:
#      x y z
#    x 3.751640 0.000000 0.000000 
#    y 0.000000 3.922750 0.000000 
#    z 0.000000 0.000000 3.710120 
# 
# 
# High freq. dielectric constant tensor:
#      x y z
#    x 1.815650 0.000000 0.000000 
#    y 0.000000 1.806630 0.000000 
#    z 0.000000 0.000000 1.805590 
# 
# From -- ./inp_files/8475.got.cif
#   From: 2010.03.12/outbox.cif.g09.slc.cpg/sg51_5_cif.got.tgz:8475.got - 2010.04.16 13:43:02.
