data_PCOD8214284
_publ_section_title
;
Structure prediction by ZEFSAII (Michael W. Deem and Ramdas Pophale) SiO2 
 PCOD8214284
Probable space group: P M M A
;
_chemical_formula_sum "Si O2"
_cell_formula_units_Z 40
_cell_length_a 14.826570
_cell_length_b 8.765477
_cell_length_c 15.232114
_cell_angle_alpha 90.000000
_cell_angle_beta 90.000000
_cell_angle_gamma 90.000000
_cell_volume 1979.595365
_symmetry_space_group_name_H-M "P M M A"
_symmetry_group_IT_number 51
_symmetry_cell_setting 'orthorhombic'
loop_
_space_group_symop_operation_xyz
x,y,z
1/2-x,-y,z
1/2+x,-y,-z
-x,y,-z
-x,-y,-z
1/2+x,y,-z
1/2-x,y,z
x,-y,z
loop_
_atom_site_type_symbol
_atom_site_label
_atom_site_fract_x
_atom_site_fract_y
_atom_site_fract_z
Si Si1 0.113958 0.822504 0.337139
Si Si2 0.750000 0.319000 0.335585
Si Si3 0.750000 0.818497 0.002475
Si Si4 0.070608 0.179340 0.742804
Si Si5 0.750000 0.320514 0.535174
Si Si6 0.250000 0.179182 0.192808
Si Si7 0.929211 0.319989 0.074706
O O1 0.158022 0.736523 0.419325
O O2 0.161822 0.768047 0.246891
O O3 0.007486 0.788301 0.329574
O O4 0.133532 0.000000 0.352114
O O5 0.750000 0.500000 0.328416
O O6 0.837680 0.255861 0.287740
O O7 0.750000 0.260866 0.435589
O O8 0.750000 0.746807 0.903977
O O9 0.750000 0.000000 0.002471
O O10 0.664736 0.758879 0.054575
O O11 0.036168 0.253150 0.833275
O O12 0.085131 0.000000 0.756057
O O13 0.750000 0.500000 0.538407
O O14 0.250000 0.000000 0.178902
O O15 0.916256 0.500000 0.081597
O O16 0.000000 0.273870 0.000000
#
# Coordination Sequence:
#
# PCOD8214284 Si02
#       7
#     8   4   4   8   4   4   8
#     4   9  19  37  61  87 116 146 185 241 294 340
#     4  11  25  43  60  83 121 160 193 235 286 345
#     4  11  21  35  58  83 113 154 199 247 290 337
#     4  11  23  40  63  88 113 150 198 243 289 340
#     4  10  22  39  61  89 118 152 190 228 281 352
#     4   8  15  31  55  83 112 144 182 230 289 340
#     4  11  24  40  58  84 120 158 195 238 290 347
#
# _framework density 20.206150000000001
#
# number of rings (size 3 to 8) (size 9 to 14) (size 15 to 20)
#    0.000    1.800    0.000    4.500    0.000    7.200 
#    0.000   10.000    0.000    0.000    0.000    0.000 
#    0.000    0.000    0.000    0.000    0.000    0.000 
#
# Total GULP energy -496081.248310 kJ/mol
# GULP energy per Si atom -12402.031208 kJ/mol
# Density = 2.016016 g / cm^3
# Si number density = 20.206150 Si / 1000 Ang^3
#
#
#
# Elastic Constant Matrix: (Units=GPa)
#
#
# Indices 1 2 3 4 5 6 
#
# 1 134.0483 42.8866 40.0831 0.0000 0.0000 0.0000
# 2 42.8866 79.7460 43.1084 0.0000 0.0000 0.0000
# 3 40.0831 43.1084 120.2822 0.0000 0.0000 0.0000
# 4 0.0000 0.0000 0.0000 31.6181 0.0000 0.0000
# 5 0.0000 0.0000 0.0000 0.0000 56.8601 0.0000
# 6 0.0000 0.0000 0.0000 0.0000 0.0000 53.8714
#
#
#
# Elastic Compliance Matrix: (Units=1/GPa)
#
#
# Indices 1 2 3 4 5 6 
#
# 1 0.009256 -0.004106 -0.001613 0.000000 0.000000 0.000000
# 2 -0.004106 0.017374 -0.004859 0.000000 0.000000 0.000000
# 3 -0.001613 -0.004859 0.010593 0.000000 0.000000 0.000000
# 4 0.000000 0.000000 0.000000 0.031627 0.000000 0.000000
# 5 0.000000 0.000000 0.000000 0.000000 0.017587 0.000000
# 6 0.000000 0.000000 0.000000 0.000000 0.000000 0.018563
#
#
# Mechanical properties :
#
#
# Convention : Reuss Voigt Hill
#
# Bulk Modulus (GPa) = 62.23543 65.13698 63.68621
# Shear Modulus (GPa) = 38.01969 42.33648 40.17808
#
# Velocity S-wave (km/s) = 4.34244 4.58233 4.46400
# Velocity P-wave (km/s) = 7.48395 7.76551 7.62603
#
# Compressibility (1/GPa) = 0.01606802
#
# Stress axis : x y z
#
# Youngs Moduli (GPa) = 108.03923 57.55622 94.40568
#
# Poissons Ratio (x) = 0.23632 0.15227
# Poissons Ratio (y) = 0.44359 0.45868
# Poissons Ratio (z) = 0.17426 0.27964
#
# Static dielectric constant tensor:
#      x y z
#    x 4.954740 0.000000 0.000000 
#    y 0.000000 3.578690 0.000000 
#    z 0.000000 0.000000 3.858150 
# 
# 
# High freq. dielectric constant tensor:
#      x y z
#    x 1.799110 0.000000 0.000000 
#    y 0.000000 1.784000 0.000000 
#    z 0.000000 0.000000 1.794360 
# 
# From -- ./inp_files/23873.got.cif
#   From: 2010.03.12/outbox.cif.g09.slc.cpg/sg51_12_cif.got.tgz:23873.got - 2010.04.16 13:43:02.
