data_PCOD8214080
_publ_section_title
;
Structure prediction by ZEFSAII (Michael W. Deem and Ramdas Pophale) SiO2 
 PCOD8214080
Probable space group: P M M A
;
_chemical_formula_sum "Si O2"
_cell_formula_units_Z 48
_cell_length_a 15.446781
_cell_length_b 8.995132
_cell_length_c 17.330798
_cell_angle_alpha 90.000000
_cell_angle_beta 90.000000
_cell_angle_gamma 90.000000
_cell_volume 2408.042183
_symmetry_space_group_name_H-M "P M M A"
_symmetry_group_IT_number 51
_symmetry_cell_setting 'orthorhombic'
loop_
_space_group_symop_operation_xyz
x,y,z
1/2-x,-y,z
1/2+x,-y,-z
-x,y,-z
-x,-y,-z
1/2+x,y,-z
1/2-x,y,z
x,-y,z
loop_
_atom_site_type_symbol
_atom_site_label
_atom_site_fract_x
_atom_site_fract_y
_atom_site_fract_z
Si Si1 0.599355 0.824257 0.188296
Si Si2 0.889833 0.663959 0.664357
Si Si3 0.750000 0.323439 0.093106
Si Si4 0.399993 0.827849 0.186247
Si Si5 0.750000 0.826921 0.931737
Si Si6 0.849495 0.332716 0.500442
Si Si7 0.409204 0.666033 0.659107
O O1 0.662349 0.743675 0.128569
O O2 0.499500 0.778183 0.169099
O O3 0.628546 0.771272 0.273898
O O4 0.612915 0.000000 0.181953
O O5 0.846090 0.500000 0.665025
O O6 0.856468 0.753747 0.738205
O O7 0.867400 0.747060 0.582936
O O8 0.990877 0.649967 0.674285
O O9 0.750000 0.500000 0.103989
O O10 0.750000 0.282014 0.003654
O O11 0.337738 0.789551 0.115022
O O12 0.400097 0.000000 0.205397
O O13 0.750000 0.000000 0.956767
O O14 0.750000 0.330838 0.480276
O O15 0.886942 0.500000 0.508887
O O16 0.894901 0.258826 0.425527
O O17 0.366229 0.500000 0.662174
#
# Coordination Sequence:
#
# PCOD8214080 Si02
#       7
#     8   8   4   8   4   8   8
#     4  10  21  39  61  86 116 151 189 232 282 339
#     4   9  17  30  50  75 106 145 190 236 282 327
#     4  12  26  42  62  89 116 145 182 229 284 341
#     4   9  20  38  61  86 115 152 191 230 280 337
#     4  10  22  42  64  87 116 151 186 223 276 343
#     4   9  17  27  43  72 107 145 188 234 281 328
#     4   9  17  31  51  75 105 146 192 237 280 327
#
# _framework density 19.933205999999998
#
# number of rings (size 3 to 8) (size 9 to 14) (size 15 to 20)
#    0.000    2.500    0.000    1.750    2.333    4.000 
#    0.000    4.167    0.000    5.000    0.000    0.000 
#    0.000    0.000    0.000    0.000    0.000    0.000 
#
# Total GULP energy -594827.358015 kJ/mol
# GULP energy per Si atom -12392.236625 kJ/mol
# Density = 1.988784 g / cm^3
# Si number density = 19.933206 Si / 1000 Ang^3
#
#
#
# Elastic Constant Matrix: (Units=GPa)
#
#
# Indices 1 2 3 4 5 6 
#
# 1 79.3812 36.2796 51.4475 0.0000 0.0000 0.0000
# 2 36.2796 71.7587 55.5639 0.0000 0.0000 0.0000
# 3 51.4475 55.5639 151.4867 0.0000 0.0000 0.0000
# 4 0.0000 0.0000 0.0000 20.0195 0.0000 0.0000
# 5 0.0000 0.0000 0.0000 0.0000 29.5567 0.0000
# 6 0.0000 0.0000 0.0000 0.0000 0.0000 16.5595
#
#
#
# Elastic Compliance Matrix: (Units=1/GPa)
#
#
# Indices 1 2 3 4 5 6 
#
# 1 0.017854 -0.006050 -0.003845 0.000000 0.000000 0.000000
# 2 -0.006050 0.021513 -0.005836 0.000000 0.000000 0.000000
# 3 -0.003845 -0.005836 0.010048 0.000000 0.000000 0.000000
# 4 0.000000 0.000000 0.000000 0.049951 0.000000 0.000000
# 5 0.000000 0.000000 0.000000 0.000000 0.033833 0.000000
# 6 0.000000 0.000000 0.000000 0.000000 0.000000 0.060388
#
#
# Mechanical properties :
#
#
# Convention : Reuss Voigt Hill
#
# Bulk Modulus (GPa) = 55.69836 65.46763 60.58299
# Shear Modulus (GPa) = 21.64188 23.84952 22.74570
#
# Velocity S-wave (km/s) = 3.29860 3.46276 3.38168
# Velocity P-wave (km/s) = 6.52003 6.99302 6.76067
#
# Compressibility (1/GPa) = 0.01795385
#
# Stress axis : x y z
#
# Youngs Moduli (GPa) = 56.00973 46.48275 99.52598
#
# Poissons Ratio (x) = 0.28121 0.38263
# Poissons Ratio (y) = 0.33884 0.58087
# Poissons Ratio (z) = 0.21533 0.27129
#
# Static dielectric constant tensor:
#      x y z
#    x 3.683440 0.000000 0.000000 
#    y 0.000000 3.606770 0.000000 
#    z 0.000000 0.000000 3.767140 
# 
# 
# High freq. dielectric constant tensor:
#      x y z
#    x 1.780360 0.000000 0.000000 
#    y 0.000000 1.740470 0.000000 
#    z 0.000000 0.000000 1.787330 
# 
# From -- ./inp_files/24959.got.cif
#   From: 2010.03.12/outbox.cif.g09.slc.cpg/sg51_13_cif.got.tgz:24959.got - 2010.04.16 13:43:02.
