data_PCOD8214223
_publ_section_title
;
Structure prediction by ZEFSAII (Michael W. Deem and Ramdas Pophale) SiO2 
 PCOD8214223
Probable space group: P M M A
;
_chemical_formula_sum "Si O2"
_cell_formula_units_Z 64
_cell_length_a 26.274911
_cell_length_b 13.833359
_cell_length_c 9.795713
_cell_angle_alpha 90.000000
_cell_angle_beta 90.000000
_cell_angle_gamma 90.000000
_cell_volume 3560.450513
_symmetry_space_group_name_H-M "P M M A"
_symmetry_group_IT_number 51
_symmetry_cell_setting 'orthorhombic'
loop_
_space_group_symop_operation_xyz
x,y,z
1/2-x,-y,z
1/2+x,-y,-z
-x,y,-z
-x,-y,-z
1/2+x,y,-z
1/2-x,y,z
x,-y,z
loop_
_atom_site_type_symbol
_atom_site_label
_atom_site_fract_x
_atom_site_fract_y
_atom_site_fract_z
Si Si1 0.308913 0.770391 0.049377
Si Si2 0.468987 0.753799 0.130116
Si Si3 0.387666 0.888168 0.547344
Si Si4 0.880596 0.112758 0.766401
Si Si5 0.627719 0.607865 0.283496
Si Si6 0.961560 0.724630 0.383935
Si Si7 0.808147 0.787741 0.264840
Si Si8 0.612465 0.390830 0.969306
O O1 0.250000 0.754207 0.083246
O O2 0.331633 0.849885 0.151249
O O3 0.336998 0.668131 0.072608
O O4 0.316968 0.808925 0.895304
O O5 0.432143 0.838188 0.181116
O O6 0.510129 0.726056 0.241446
O O7 0.437289 0.657418 0.095803
O O8 0.500000 0.792698 0.000000
O O9 0.371511 0.863604 0.392636
O O10 0.438579 0.830315 0.585790
O O11 0.341633 0.861920 0.648360
O O12 0.401188 0.000000 0.565173
O O13 0.886574 0.000000 0.793088
O O14 0.644049 0.500000 0.327455
O O15 0.583561 0.646205 0.382905
O O16 0.676761 0.676830 0.297061
O O17 0.605575 0.609642 0.131394
O O18 0.000000 0.691345 0.500000
O O19 0.750000 0.803031 0.307403
O O20 0.617904 0.500000 0.913282
#
# Coordination Sequence:
#
# PCOD8214223 Si02
#       8
#     8   8   8   8   8   8   8   8
#     4   9  19  36  57  82 110 137 172 222 271 313
#     4  11  21  36  55  80 110 142 178 218 266 316
#     4  10  22  38  56  78 105 141 183 220 260 319
#     4  10  22  38  55  79 107 139 180 221 265 318
#     4   9  18  33  54  81 109 139 178 218 259 312
#     4  11  21  36  55  78 108 144 178 218 265 309
#     4   9  19  36  57  81 109 140 174 218 269 316
#     4   9  18  33  55  81 108 140 178 217 258 313
#
# _framework density 17.975254
#
# number of rings (size 3 to 8) (size 9 to 14) (size 15 to 20)
#    0.000    2.250    2.500    0.000    1.750    4.000 
#    0.000    5.000    0.000    0.000    0.000    3.500 
#    0.000    0.000    0.000    0.000    0.000    0.000 
#
# Total GULP energy -793714.751943 kJ/mol
# GULP energy per Si atom -12401.792999 kJ/mol
# Density = 1.793434 g / cm^3
# Si number density = 17.975254 Si / 1000 Ang^3
#
#
#
# Elastic Constant Matrix: (Units=GPa)
#
#
# Indices 1 2 3 4 5 6 
#
# 1 76.1515 15.7256 25.1565 0.0000 0.0000 0.0000
# 2 15.7256 90.0610 23.4397 0.0000 0.0000 0.0000
# 3 25.1565 23.4397 71.6762 0.0000 0.0000 0.0000
# 4 0.0000 0.0000 0.0000 21.7065 0.0000 0.0000
# 5 0.0000 0.0000 0.0000 0.0000 27.1293 0.0000
# 6 0.0000 0.0000 0.0000 0.0000 0.0000 14.7658
#
#
#
# Elastic Compliance Matrix: (Units=1/GPa)
#
#
# Indices 1 2 3 4 5 6 
#
# 1 0.015006 -0.001366 -0.004820 0.000000 0.000000 0.000000
# 2 -0.001366 0.012261 -0.003530 0.000000 0.000000 0.000000
# 3 -0.004820 -0.003530 0.016798 0.000000 0.000000 0.000000
# 4 0.000000 0.000000 0.000000 0.046069 0.000000 0.000000
# 5 0.000000 0.000000 0.000000 0.000000 0.036861 0.000000
# 6 0.000000 0.000000 0.000000 0.000000 0.000000 0.067724
#
#
# Mechanical properties :
#
#
# Convention : Reuss Voigt Hill
#
# Bulk Modulus (GPa) = 40.59660 40.72581 40.66121
# Shear Modulus (GPa) = 22.48588 24.29143 23.38865
#
# Velocity S-wave (km/s) = 3.54069 3.68010 3.61107
# Velocity P-wave (km/s) = 6.27289 6.38462 6.32900
#
# Compressibility (1/GPa) = 0.02463260
#
# Stress axis : x y z
#
# Youngs Moduli (GPa) = 66.63976 81.56046 59.53143
#
# Poissons Ratio (x) = 0.11139 0.28695
# Poissons Ratio (y) = 0.09101 0.21016
# Poissons Ratio (z) = 0.32121 0.28793
#
# Static dielectric constant tensor:
#      x y z
#    x 3.329480 0.000000 0.000000 
#    y 0.000000 3.331380 0.000000 
#    z 0.000000 0.000000 3.349930 
# 
# 
# High freq. dielectric constant tensor:
#      x y z
#    x 1.699880 0.000000 0.000000 
#    y 0.000000 1.691840 0.000000 
#    z 0.000000 0.000000 1.694140 
# 
# From -- ./inp_files/11917.got.cif
#   From: 2010.03.12/outbox.cif.g09.slc.cpg/sg51_6_cif.got.tgz:11917.got - 2010.04.16 13:43:02.
