data_PCOD8214203
_publ_section_title
;
Structure prediction by ZEFSAII (Michael W. Deem and Ramdas Pophale) SiO2 
 PCOD8214203
Probable space group: P M M A
;
_chemical_formula_sum "Si O2"
_cell_formula_units_Z 48
_cell_length_a 9.994939
_cell_length_b 30.844709
_cell_length_c 7.738962
_cell_angle_alpha 90.000000
_cell_angle_beta 90.000000
_cell_angle_gamma 90.000000
_cell_volume 2385.852217
_symmetry_space_group_name_H-M "P M M A"
_symmetry_group_IT_number 51
_symmetry_cell_setting 'orthorhombic'
loop_
_space_group_symop_operation_xyz
x,y,z
1/2-x,-y,z
1/2+x,-y,-z
-x,y,-z
-x,-y,-z
1/2+x,y,-z
1/2-x,y,z
x,-y,z
loop_
_atom_site_type_symbol
_atom_site_label
_atom_site_fract_x
_atom_site_fract_y
_atom_site_fract_z
Si Si1 0.250000 0.656838 0.019005
Si Si2 0.488116 0.775864 0.206123
Si Si3 0.405348 0.551378 0.656933
Si Si4 0.594451 0.134048 0.841537
Si Si5 0.250000 0.716998 0.327295
Si Si6 0.500000 0.595419 0.000000
Si Si7 0.400742 0.953055 0.344031
Si Si8 0.750000 0.728466 0.286389
O O1 0.250000 0.674087 0.213573
O O2 0.376239 0.626942 0.003738
O O3 0.250000 0.694475 0.871844
O O4 0.443488 0.824013 0.274753
O O5 0.380722 0.743075 0.277731
O O6 0.627647 0.761765 0.285761
O O7 0.500000 0.772982 0.000000
O O8 0.500000 0.568497 0.500000
O O9 0.250000 0.568795 0.643490
O O10 0.400599 0.500000 0.655079
O O11 0.480352 0.565573 0.832074
O O12 0.750000 0.135251 0.894066
O O13 0.553638 0.087433 0.768385
O O14 0.500000 0.141021 0.000000
O O15 0.250000 0.703499 0.529678
O O16 0.500000 0.955412 0.500000
O O17 0.250000 0.945128 0.412152
O O18 0.408159 0.000000 0.245025
#
# Coordination Sequence:
#
# PCOD8214203 Si02
#       8
#     4   8   8   8   4   4   8   4
#     4  12  26  44  65  96 134 176 221 284 328 384
#     4  11  21  42  65  88 125 160 202 272 328 381
#     4  10  23  44  72 107 142 180 229 282 332 387
#     4  10  22  37  59  89 116 152 193 246 309 367
#     4  12  24  44  68  91 121 168 218 267 331 388
#     4  12  25  44  70  96 140 186 226 270 337 396
#     4   9  19  37  57  81 119 158 193 239 294 360
#     4  12  26  42  68  93 121 170 218 267 331 390
#
# _framework density 20.118596
#
# number of rings (size 3 to 8) (size 9 to 14) (size 15 to 20)
#    0.000    1.333    3.333    1.750    4.667    3.667 
#    0.000    0.000    0.000    0.000    0.000    0.000 
#    0.000    0.000    0.000    0.000    0.000    0.000 
#
# Total GULP energy -594741.954117 kJ/mol
# GULP energy per Si atom -12390.457377 kJ/mol
# Density = 2.007280 g / cm^3
# Si number density = 20.118596 Si / 1000 Ang^3
#
#
#
# Elastic Constant Matrix: (Units=GPa)
#
#
# Indices 1 2 3 4 5 6 
#
# 1 118.7334 26.8809 25.2386 0.0000 0.0000 0.0000
# 2 26.8809 55.1225 20.7387 0.0000 0.0000 0.0000
# 3 25.2386 20.7387 108.8689 0.0000 0.0000 0.0000
# 4 0.0000 0.0000 0.0000 7.8852 0.0000 0.0000
# 5 0.0000 0.0000 0.0000 0.0000 49.7671 0.0000
# 6 0.0000 0.0000 0.0000 0.0000 0.0000 31.5889
#
#
#
# Elastic Compliance Matrix: (Units=1/GPa)
#
#
# Indices 1 2 3 4 5 6 
#
# 1 0.009675 -0.004173 -0.001448 0.000000 0.000000 0.000000
# 2 -0.004173 0.021342 -0.003098 0.000000 0.000000 0.000000
# 3 -0.001448 -0.003098 0.010111 0.000000 0.000000 0.000000
# 4 0.000000 0.000000 0.000000 0.126820 0.000000 0.000000
# 5 0.000000 0.000000 0.000000 0.000000 0.020094 0.000000
# 6 0.000000 0.000000 0.000000 0.000000 0.000000 0.031657
#
#
# Mechanical properties :
#
#
# Convention : Reuss Voigt Hill
#
# Bulk Modulus (GPa) = 42.21242 47.60457 44.90850
# Shear Modulus (GPa) = 20.40541 31.83935 26.12238
#
# Velocity S-wave (km/s) = 3.18819 3.98248 3.60727
# Velocity P-wave (km/s) = 5.88049 6.69778 6.30240
#
# Compressibility (1/GPa) = 0.02368971
#
# Stress axis : x y z
#
# Youngs Moduli (GPa) = 103.36119 46.85577 98.90057
#
# Poissons Ratio (x) = 0.19554 0.14320
# Poissons Ratio (y) = 0.43135 0.30640
# Poissons Ratio (z) = 0.14966 0.14516
#
# Static dielectric constant tensor:
#      x y z
#    x 3.860670 0.000000 0.000000 
#    y 0.000000 4.380290 0.000000 
#    z 0.000000 0.000000 3.707130 
# 
# 
# High freq. dielectric constant tensor:
#      x y z
#    x 1.808360 0.000000 0.000000 
#    y 0.000000 1.800170 0.000000 
#    z 0.000000 0.000000 1.766830 
# 
# From -- ./inp_files/6307.got.cif
#   From: 2010.03.12/outbox.cif.g09.slc.cpg/sg51_4_cif.got.tgz:6307.got - 2010.04.16 13:43:02.
