data_PCOD8214668
_publ_section_title
;
Structure prediction by ZEFSAII (Michael W. Deem and Ramdas Pophale) SiO2 
 PCOD8214668
Probable space group: P M M A
;
_chemical_formula_sum "Si O2"
_cell_formula_units_Z 30
_cell_length_a 14.570910
_cell_length_b 11.695913
_cell_length_c 8.269432
_cell_angle_alpha 90.000000
_cell_angle_beta 90.000000
_cell_angle_gamma 90.000000
_cell_volume 1409.277393
_symmetry_space_group_name_H-M "P M M A"
_symmetry_group_IT_number 51
_symmetry_cell_setting 'orthorhombic'
loop_
_space_group_symop_operation_xyz
x,y,z
1/2-x,-y,z
1/2+x,-y,-z
-x,y,-z
-x,-y,-z
1/2+x,y,-z
1/2-x,y,z
x,-y,z
loop_
_atom_site_type_symbol
_atom_site_label
_atom_site_fract_x
_atom_site_fract_y
_atom_site_fract_z
Si Si1 0.548783 0.500000 0.827547
Si Si2 0.071042 0.287699 0.366839
Si Si3 0.099838 0.128734 0.073461
Si Si4 0.750000 0.263122 0.114364
Si Si5 0.750000 0.500000 0.941180
Si Si6 0.750000 0.367439 0.452135
O O1 0.516889 0.613641 0.733277
O O2 0.659365 0.500000 0.832202
O O3 0.500000 0.500000 0.000000
O O4 0.101936 0.185311 0.250183
O O5 0.160579 0.343696 0.442776
O O6 0.000000 0.239651 0.500000
O O7 0.137343 0.000000 0.092977
O O8 0.160659 0.197076 0.945705
O O9 0.000000 0.129376 0.000000
O O10 0.750000 0.275202 0.307049
O O11 0.750000 0.390448 0.051464
O O12 0.750000 0.500000 0.394744
#
# Coordination Sequence:
#
# PCOD8214668 Si02
#       6
#     4   8   8   4   2   4
#     4  12  25  40  67  99 137 186 226 269 337 406
#     4  12  25  42  65  99 140 174 219 281 340 405
#     4  11  25  47  71  95 130 180 236 282 326 391
#     4  12  24  43  70 101 130 178 226 275 330 408
#     4  12  24  38  70  94 138 168 220 268 334 394
#     4  12  26  41  64  99 143 175 210 269 348 414
#
# _framework density 21.287506
#
# number of rings (size 3 to 8) (size 9 to 14) (size 15 to 20)
#    0.000    0.267    4.667    4.800    3.733    0.533 
#    0.000    2.667    0.000    0.000    0.000    0.000 
#    0.000    0.000    0.000    0.000    0.000    0.000 
#
# Total GULP energy -372156.760461 kJ/mol
# GULP energy per Si atom -12405.225349 kJ/mol
# Density = 2.123905 g / cm^3
# Si number density = 21.287506 Si / 1000 Ang^3
#
#
#
# Elastic Constant Matrix: (Units=GPa)
#
#
# Indices 1 2 3 4 5 6 
#
# 1 94.4058 31.2984 39.9872 0.0000 0.0000 0.0000
# 2 31.2984 169.3256 68.4254 0.0000 0.0000 0.0000
# 3 39.9872 68.4254 149.4100 0.0000 0.0000 0.0000
# 4 0.0000 0.0000 0.0000 81.8358 0.0000 0.0000
# 5 0.0000 0.0000 0.0000 0.0000 29.7649 0.0000
# 6 0.0000 0.0000 0.0000 0.0000 0.0000 36.9230
#
#
#
# Elastic Compliance Matrix: (Units=1/GPa)
#
#
# Indices 1 2 3 4 5 6 
#
# 1 0.012124 -0.001141 -0.002722 0.000000 0.000000 0.000000
# 2 -0.001141 0.007354 -0.003063 0.000000 0.000000 0.000000
# 3 -0.002722 -0.003063 0.008824 0.000000 0.000000 0.000000
# 4 0.000000 0.000000 0.000000 0.012220 0.000000 0.000000
# 5 0.000000 0.000000 0.000000 0.000000 0.033597 0.000000
# 6 0.000000 0.000000 0.000000 0.000000 0.000000 0.027083
#
#
# Mechanical properties :
#
#
# Convention : Reuss Voigt Hill
#
# Bulk Modulus (GPa) = 69.20116 76.95147 73.07632
# Shear Modulus (GPa) = 41.71163 47.93344 44.82254
#
# Velocity S-wave (km/s) = 4.43136 4.75037 4.59364
# Velocity P-wave (km/s) = 7.66558 8.14341 7.90811
#
# Compressibility (1/GPa) = 0.01445062
#
# Stress axis : x y z
#
# Youngs Moduli (GPa) = 82.48183 135.97429 113.32475
#
# Poissons Ratio (x) = 0.15513 0.30850
# Poissons Ratio (y) = 0.09410 0.34708
# Poissons Ratio (z) = 0.22454 0.41645
#
# Static dielectric constant tensor:
#      x y z
#    x 3.393700 0.000000 0.000000 
#    y 0.000000 4.093050 0.000000 
#    z 0.000000 0.000000 3.950070 
# 
# 
# High freq. dielectric constant tensor:
#      x y z
#    x 1.846420 0.000000 0.000000 
#    y 0.000000 1.834310 0.000000 
#    z 0.000000 0.000000 1.845200 
# 
# From -- ./inp_files/7534.got.cif
#   From: 2010.03.12/outbox.cif.g09.slc.cpg/sg51_4_cif.got.tgz:7534.got - 2010.04.16 13:43:02.
