data_PCOD8214148
_publ_section_title
;
Structure prediction by ZEFSAII (Michael W. Deem and Ramdas Pophale) SiO2 
 PCOD8214148
Probable space group: P M M A
;
_chemical_formula_sum "Si O2"
_cell_formula_units_Z 56
_cell_length_a 16.688422
_cell_length_b 18.466833
_cell_length_c 9.183214
_cell_angle_alpha 90.000000
_cell_angle_beta 90.000000
_cell_angle_gamma 90.000000
_cell_volume 2830.104031
_symmetry_space_group_name_H-M "P M M A"
_symmetry_group_IT_number 51
_symmetry_cell_setting 'orthorhombic'
loop_
_space_group_symop_operation_xyz
x,y,z
1/2-x,-y,z
1/2+x,-y,-z
-x,y,-z
-x,-y,-z
1/2+x,y,-z
1/2-x,y,z
x,-y,z
loop_
_atom_site_type_symbol
_atom_site_label
_atom_site_fract_x
_atom_site_fract_y
_atom_site_fract_z
Si Si1 0.341377 0.582212 0.520300
Si Si2 0.049502 0.678507 0.720676
Si Si3 0.659137 0.835920 0.850754
Si Si4 0.493136 0.164897 0.336522
Si Si5 0.420839 0.918644 0.904498
Si Si6 0.339916 0.308718 0.989277
Si Si7 0.402036 0.417204 0.204090
O O1 0.250000 0.597176 0.567122
O O2 0.366459 0.500000 0.563807
O O3 0.398587 0.640110 0.595995
O O4 0.348381 0.592372 0.347638
O O5 0.005852 0.748864 0.657308
O O6 0.986817 0.621260 0.780342
O O7 0.103300 0.704647 0.853631
O O8 0.750000 0.847746 0.792679
O O9 0.595177 0.855835 0.725262
O O10 0.642966 0.752566 0.890677
O O11 0.648915 0.883316 0.997603
O O12 0.500000 0.134019 0.500000
O O13 0.562950 0.127266 0.241493
O O14 0.395418 0.000000 0.861056
O O15 0.500000 0.918453 0.000000
O O16 0.250000 0.304962 0.929478
O O17 0.354364 0.385386 0.066677
O O18 0.419576 0.500000 0.168364
#
# Coordination Sequence:
#
# PCOD8214148 Si02
#       7
#     8   8   8   8   8   8   8
#     4  10  22  40  58  79 113 154 197 247 306 370
#     4  12  22  37  58  85 114 155 199 248 294 359
#     4  10  21  40  63  89 122 163 207 250 299 357
#     4  11  22  38  61  94 129 166 202 248 305 362
#     4   9  19  38  66  94 122 160 202 241 288 354
#     4  11  23  38  57  82 113 150 195 250 305 354
#     4  11  23  38  58  82 111 152 199 249 305 363
#
# _framework density 19.787258000000001
#
# number of rings (size 3 to 8) (size 9 to 14) (size 15 to 20)
#    0.000    1.429    2.857    3.000    0.000    4.286 
#    0.000    1.429    0.000    0.000    0.000    0.000 
#    0.000    0.000    0.000    0.000    0.000    0.000 
#
# Total GULP energy -694567.348455 kJ/mol
# GULP energy per Si atom -12402.988365 kJ/mol
# Density = 1.974222 g / cm^3
# Si number density = 19.787258 Si / 1000 Ang^3
#
#
#
# Elastic Constant Matrix: (Units=GPa)
#
#
# Indices 1 2 3 4 5 6 
#
# 1 86.1134 25.0106 32.0634 0.0000 0.0000 0.0000
# 2 25.0106 98.2493 23.9845 0.0000 0.0000 0.0000
# 3 32.0634 23.9845 98.5297 0.0000 0.0000 0.0000
# 4 0.0000 0.0000 0.0000 23.2950 0.0000 0.0000
# 5 0.0000 0.0000 0.0000 0.0000 29.5472 0.0000
# 6 0.0000 0.0000 0.0000 0.0000 0.0000 17.4768
#
#
#
# Elastic Compliance Matrix: (Units=1/GPa)
#
#
# Indices 1 2 3 4 5 6 
#
# 1 0.013798 -0.002569 -0.003865 0.000000 0.000000 0.000000
# 2 -0.002569 0.011300 -0.001915 0.000000 0.000000 0.000000
# 3 -0.003865 -0.001915 0.011873 0.000000 0.000000 0.000000
# 4 0.000000 0.000000 0.000000 0.042928 0.000000 0.000000
# 5 0.000000 0.000000 0.000000 0.000000 0.033844 0.000000
# 6 0.000000 0.000000 0.000000 0.000000 0.000000 0.057219
#
#
# Mechanical properties :
#
#
# Convention : Reuss Voigt Hill
#
# Bulk Modulus (GPa) = 49.32497 49.44549 49.38523
# Shear Modulus (GPa) = 25.71816 27.51938 26.61877
#
# Velocity S-wave (km/s) = 3.60909 3.73334 3.67174
# Velocity P-wave (km/s) = 6.50762 6.60504 6.55651
#
# Compressibility (1/GPa) = 0.02027371
#
# Stress axis : x y z
#
# Youngs Moduli (GPa) = 72.47599 88.49919 84.22525
#
# Poissons Ratio (x) = 0.22735 0.32550
# Poissons Ratio (y) = 0.18619 0.16126
# Poissons Ratio (z) = 0.28010 0.16944
#
# Static dielectric constant tensor:
#      x y z
#    x 3.648570 0.000000 0.000000 
#    y 0.000000 3.709230 0.000000 
#    z 0.000000 0.000000 3.484980 
# 
# 
# High freq. dielectric constant tensor:
#      x y z
#    x 1.770000 0.000000 0.000000 
#    y 0.000000 1.769830 0.000000 
#    z 0.000000 0.000000 1.761920 
# 
# From -- ./inp_files/8488.got.cif
#   From: 2010.03.12/outbox.cif.g09.slc.cpg/sg51_5_cif.got.tgz:8488.got - 2010.04.16 13:43:02.
