data_PCOD8214797
_publ_section_title
;
Structure prediction by ZEFSAII (Michael W. Deem and Ramdas Pophale) SiO2 
 PCOD8214797
Probable space group: P M M A
;
_chemical_formula_sum "Si O2"
_cell_formula_units_Z 64
_cell_length_a 9.227986
_cell_length_b 18.420740
_cell_length_c 26.364086
_cell_angle_alpha 90.000000
_cell_angle_beta 90.000000
_cell_angle_gamma 90.000000
_cell_volume 4481.534245
_symmetry_space_group_name_H-M "P M M A"
_symmetry_group_IT_number 51
_symmetry_cell_setting 'orthorhombic'
loop_
_space_group_symop_operation_xyz
x,y,z
1/2-x,-y,z
1/2+x,-y,-z
-x,y,-z
-x,-y,-z
1/2+x,y,-z
1/2-x,y,z
x,-y,z
loop_
_atom_site_type_symbol
_atom_site_label
_atom_site_fract_x
_atom_site_fract_y
_atom_site_fract_z
Si Si1 0.079940 0.583488 0.846146
Si Si2 0.086240 0.086430 0.548499
Si Si3 0.082554 0.792282 0.891500
Si Si4 0.581620 0.914915 0.647602
Si Si5 0.081082 0.292791 0.195459
Si Si6 0.914718 0.655576 0.049571
Si Si7 0.582104 0.154561 0.749147
Si Si8 0.920232 0.083911 0.852773
O O1 0.250000 0.597493 0.839749
O O2 0.037781 0.500000 0.839313
O O3 0.027691 0.611158 0.901452
O O4 0.997498 0.628812 0.801770
O O5 0.250000 0.116614 0.547521
O O6 0.000000 0.117537 0.500000
O O7 0.006819 0.113719 0.599210
O O8 0.086084 0.000000 0.546793
O O9 0.250000 0.799850 0.875054
O O10 0.070275 0.742874 0.942049
O O11 0.990695 0.750882 0.849732
O O12 0.008291 0.871725 0.896501
O O13 0.750000 0.896588 0.638271
O O14 0.513935 0.873355 0.696455
O O15 0.558768 0.000000 0.656633
O O16 0.250000 0.304658 0.184540
O O17 0.057887 0.241887 0.245216
O O18 0.750000 0.633386 0.039875
O O19 0.000000 0.630852 0.000000
O O20 0.750000 0.134522 0.746523
O O21 0.520682 0.110323 0.797713
O O22 0.750000 0.100176 0.858702
O O23 0.956477 0.000000 0.860278
#
# Coordination Sequence:
#
# PCOD8214797 Si02
#       8
#     8   8   8   8   8   8   8   8
#     4   9  18  32  46  61  84 108 126 148 182 222
#     4   9  16  25  35  47  65  91 126 167 206 240
#     4   9  17  29  42  57  78 102 126 151 185 229
#     4   9  15  23  36  52  71  98 130 162 198 236
#     4   9  16  27  43  61  79 101 131 160 183 216
#     4   9  18  30  44  61  79 100 124 151 184 222
#     4   8  14  24  38  56  78 102 126 155 192 231
#     4   9  16  26  41  60  79  99 126 160 194 228
#
# _framework density 14.280824000000001
#
# number of rings (size 3 to 8) (size 9 to 14) (size 15 to 20)
#    0.000    3.125    0.000    3.000    0.000    6.250 
#    0.000    3.125    0.000    3.375    0.000    0.000 
#    0.000    0.000    0.000    0.000    0.000    0.625 
#
# Total GULP energy -793030.995377 kJ/mol
# GULP energy per Si atom -12391.109303 kJ/mol
# Density = 1.424832 g / cm^3
# Si number density = 14.280824 Si / 1000 Ang^3
#
#
#
# Elastic Constant Matrix: (Units=GPa)
#
#
# Indices 1 2 3 4 5 6 
#
# 1 60.5936 34.4407 24.8437 0.0000 0.0000 0.0000
# 2 34.4407 81.9157 19.5589 0.0000 0.0000 0.0000
# 3 24.8437 19.5589 41.1557 0.0000 0.0000 0.0000
# 4 0.0000 0.0000 0.0000 11.7704 0.0000 0.0000
# 5 0.0000 0.0000 0.0000 0.0000 18.9300 0.0000
# 6 0.0000 0.0000 0.0000 0.0000 0.0000 21.1116
#
#
#
# Elastic Compliance Matrix: (Units=1/GPa)
#
#
# Indices 1 2 3 4 5 6 
#
# 1 0.025946 -0.008087 -0.011819 0.000000 0.000000 0.000000
# 2 -0.008087 0.016291 -0.002860 0.000000 0.000000 0.000000
# 3 -0.011819 -0.002860 0.032792 0.000000 0.000000 0.000000
# 4 0.000000 0.000000 0.000000 0.084959 0.000000 0.000000
# 5 0.000000 0.000000 0.000000 0.000000 0.052826 0.000000
# 6 0.000000 0.000000 0.000000 0.000000 0.000000 0.047367
#
#
# Mechanical properties :
#
#
# Convention : Reuss Voigt Hill
#
# Bulk Modulus (GPa) = 33.90294 37.92796 35.91545
# Shear Modulus (GPa) = 15.84562 17.35052 16.59807
#
# Velocity S-wave (km/s) = 3.33464 3.48940 3.41290
# Velocity P-wave (km/s) = 6.21435 6.54606 6.38236
#
# Compressibility (1/GPa) = 0.02949596
#
# Stress axis : x y z
#
# Youngs Moduli (GPa) = 38.54221 61.38520 30.49527
#
# Poissons Ratio (x) = 0.49639 0.36042
# Poissons Ratio (y) = 0.31167 0.08723
# Poissons Ratio (z) = 0.45553 0.17559
#
# Static dielectric constant tensor:
#      x y z
#    x 2.858300 0.000000 0.000000 
#    y 0.000000 2.977940 0.000000 
#    z 0.000000 0.000000 2.746040 
# 
# 
# High freq. dielectric constant tensor:
#      x y z
#    x 1.545660 0.000000 0.000000 
#    y 0.000000 1.521570 0.000000 
#    z 0.000000 0.000000 1.513360 
# 
# From -- ./inp_files/36457.got.cif
#   From: 2010.03.12/outbox.cif.g09.slc.cpg/sg51_19_cif.got.tgz:36457.got - 2010.04.16 13:43:02.
