data_PCOD8214774
_publ_section_title
;
Structure prediction by ZEFSAII (Michael W. Deem and Ramdas Pophale) SiO2 
 PCOD8214774
Probable space group: P M M A
;
_chemical_formula_sum "Si O2"
_cell_formula_units_Z 64
_cell_length_a 9.259217
_cell_length_b 19.269461
_cell_length_c 20.741510
_cell_angle_alpha 90.000000
_cell_angle_beta 90.000000
_cell_angle_gamma 90.000000
_cell_volume 3700.702721
_symmetry_space_group_name_H-M "P M M A"
_symmetry_group_IT_number 51
_symmetry_cell_setting 'orthorhombic'
loop_
_space_group_symop_operation_xyz
x,y,z
1/2-x,-y,z
1/2+x,-y,-z
-x,y,-z
-x,-y,-z
1/2+x,y,-z
1/2-x,y,z
x,-y,z
loop_
_atom_site_type_symbol
_atom_site_label
_atom_site_fract_x
_atom_site_fract_y
_atom_site_fract_z
Si Si1 0.413515 0.582645 0.561606
Si Si2 0.590649 0.082440 0.558705
Si Si3 0.913185 0.173883 0.061164
Si Si4 0.082320 0.664083 0.187370
Si Si5 0.586724 0.339092 0.061530
Si Si6 0.422131 0.077306 0.300579
Si Si7 0.582650 0.580672 0.687009
Si Si8 0.081432 0.825049 0.186827
O O1 0.500000 0.612354 0.500000
O O2 0.250000 0.611029 0.559881
O O3 0.415229 0.500000 0.559613
O O4 0.490799 0.608736 0.626693
O O5 0.500000 0.115246 0.500000
O O6 0.750000 0.114909 0.553357
O O7 0.520645 0.100669 0.628571
O O8 0.598966 0.000000 0.552156
O O9 0.750000 0.144909 0.060119
O O10 0.912885 0.256512 0.058609
O O11 0.993469 0.147967 0.125228
O O12 0.000000 0.143808 0.000000
O O13 0.250000 0.651257 0.171589
O O14 0.031824 0.622029 0.249960
O O15 0.051114 0.744657 0.200941
O O16 0.991373 0.635946 0.126779
O O17 0.750000 0.368152 0.060260
O O18 0.500000 0.369048 0.000000
O O19 0.250000 0.076310 0.303903
O O20 0.477529 0.131644 0.247655
O O21 0.478840 0.000000 0.283135
O O22 0.750000 0.594671 0.671396
O O23 0.553148 0.500000 0.700045
O O24 0.250000 0.838785 0.173688
#
# Coordination Sequence:
#
# PCOD8214774 Si02
#       8
#     8   8   8   8   8   8   8   8
#     4   9  16  26  42  64  87 110 140 179 218 254
#     4   8  13  22  37  57  79 102 131 166 199 232
#     4   9  16  26  41  62  86 110 138 173 210 246
#     4   9  17  28  43  64  87 111 140 173 210 251
#     4   9  16  26  42  63  86 111 139 174 212 248
#     4   8  14  25  42  63  85 110 139 169 204 248
#     4   9  17  29  44  62  86 115 144 175 212 253
#     4   9  16  27  44  64  85 110 139 171 207 248
#
# _framework density 17.294011999999999
#
# number of rings (size 3 to 8) (size 9 to 14) (size 15 to 20)
#    0.000    3.250    0.000    1.875    0.000    5.000 
#    0.000    0.625    0.000    2.625    0.000    1.750 
#    0.000    0.000    0.000    0.000    0.000    0.000 
#
# Total GULP energy -793362.851707 kJ/mol
# GULP energy per Si atom -12396.294558 kJ/mol
# Density = 1.725465 g / cm^3
# Si number density = 17.294012 Si / 1000 Ang^3
#
#
#
# Elastic Constant Matrix: (Units=GPa)
#
#
# Indices 1 2 3 4 5 6 
#
# 1 102.0054 22.8507 87.1493 0.0000 0.0000 0.0000
# 2 22.8507 27.8458 44.2777 0.0000 0.0000 0.0000
# 3 87.1493 44.2777 196.0529 0.0000 0.0000 0.0000
# 4 0.0000 0.0000 0.0000 25.6208 0.0000 0.0000
# 5 0.0000 0.0000 0.0000 0.0000 36.2612 0.0000
# 6 0.0000 0.0000 0.0000 0.0000 0.0000 9.1680
#
#
#
# Elastic Compliance Matrix: (Units=1/GPa)
#
#
# Indices 1 2 3 4 5 6 
#
# 1 0.015948 -0.002832 -0.006450 0.000000 0.000000 0.000000
# 2 -0.002832 0.056538 -0.011510 0.000000 0.000000 0.000000
# 3 -0.006450 -0.011510 0.010567 0.000000 0.000000 0.000000
# 4 0.000000 0.000000 0.000000 0.039031 0.000000 0.000000
# 5 0.000000 0.000000 0.000000 0.000000 0.027578 0.000000
# 6 0.000000 0.000000 0.000000 0.000000 0.000000 0.109076
#
#
# Mechanical properties :
#
#
# Convention : Reuss Voigt Hill
#
# Bulk Modulus (GPa) = 24.11352 70.49551 47.30451
# Shear Modulus (GPa) = 15.91627 25.65176 20.78401
#
# Velocity S-wave (km/s) = 3.03699 3.85551 3.47047
# Velocity P-wave (km/s) = 5.12555 7.78918 6.59328
#
# Compressibility (1/GPa) = 0.04147052
#
# Stress axis : x y z
#
# Youngs Moduli (GPa) = 62.70330 17.68716 94.63203
#
# Poissons Ratio (x) = 0.05008 0.61035
# Poissons Ratio (y) = 0.17755 1.08924
# Poissons Ratio (z) = 0.40442 0.20358
#
# Static dielectric constant tensor:
#      x y z
#    x 3.263310 0.000000 0.000000 
#    y 0.000000 2.731390 0.000000 
#    z 0.000000 0.000000 3.518670 
# 
# 
# High freq. dielectric constant tensor:
#      x y z
#    x 1.658770 0.000000 0.000000 
#    y 0.000000 1.603890 0.000000 
#    z 0.000000 0.000000 1.685490 
# 
# From -- ./inp_files/32566.got.cif
#   From: 2010.03.12/outbox.cif.g09.slc.cpg/sg51_17_cif.got.tgz:32566.got - 2010.04.16 13:43:02.
