data_PCOD8214682
_publ_section_title
;
Structure prediction by ZEFSAII (Michael W. Deem and Ramdas Pophale) SiO2 
 PCOD8214682
Probable space group: P M M A
;
_chemical_formula_sum "Si O2"
_cell_formula_units_Z 64
_cell_length_a 9.726958
_cell_length_b 9.280819
_cell_length_c 41.709871
_cell_angle_alpha 90.000000
_cell_angle_beta 90.000000
_cell_angle_gamma 90.000000
_cell_volume 3765.322593
_symmetry_space_group_name_H-M "P M M A"
_symmetry_group_IT_number 51
_symmetry_cell_setting 'orthorhombic'
loop_
_space_group_symop_operation_xyz
x,y,z
1/2-x,-y,z
1/2+x,-y,-z
-x,y,-z
-x,-y,-z
1/2+x,y,-z
1/2-x,y,z
x,-y,z
loop_
_atom_site_type_symbol
_atom_site_label
_atom_site_fract_x
_atom_site_fract_y
_atom_site_fract_z
Si Si1 0.590235 0.668365 0.154211
Si Si2 0.095523 0.327602 0.349661
Si Si3 0.091705 0.167924 0.529561
Si Si4 0.408989 0.332470 0.969853
Si Si5 0.095646 0.672231 0.212181
Si Si6 0.908373 0.331570 0.407096
Si Si7 0.087006 0.657548 0.280933
Si Si8 0.413327 0.837468 0.907818
O O1 0.750000 0.700134 0.160392
O O2 0.563300 0.500000 0.148199
O O3 0.507758 0.727689 0.184941
O O4 0.532757 0.753203 0.123396
O O5 0.250000 0.275217 0.357711
O O6 0.091153 0.500000 0.347704
O O7 0.046118 0.264517 0.314657
O O8 0.994865 0.269581 0.377221
O O9 0.250000 0.203249 0.521601
O O10 0.041359 0.252064 0.560943
O O11 0.000000 0.222346 0.500000
O O12 0.068657 0.000000 0.536090
O O13 0.250000 0.297171 0.977422
O O14 0.428583 0.500000 0.961710
O O15 0.500000 0.285070 0.000000
O O16 0.465599 0.242915 0.939649
O O17 0.250000 0.725142 0.203834
O O18 0.093018 0.500000 0.214379
O O19 0.047027 0.735853 0.247186
O O20 0.750000 0.297257 0.399862
O O21 0.934984 0.500000 0.412135
O O22 0.250000 0.638982 0.281111
O O23 0.016851 0.500000 0.280839
O O24 0.250000 0.835815 0.907586
O O25 0.471183 0.000000 0.907499
#
# Coordination Sequence:
#
# PCOD8214682 Si02
#       8
#     8   8   8   8   8   8   8   8
#     4   9  16  26  41  61  83 105 133 172 210 239
#     4   8  13  22  37  57  81 109 138 165 195 236
#     4   9  18  32  47  61  79 105 135 165 199 240
#     4   9  17  30  48  68  88 110 137 169 205 244
#     4   8  13  22  37  57  81 109 138 167 203 246
#     4   9  17  28  41  60  86 110 131 161 203 244
#     4   7  10  18  33  53  78 107 136 164 196 237
#     4   9  17  29  45  63  83 111 144 171 199 242
#
# _framework density 16.997215000000001
#
# number of rings (size 3 to 8) (size 9 to 14) (size 15 to 20)
#    0.000    3.500    0.000    1.875    0.000    2.500 
#    0.000    1.250    0.000    7.875    0.000    0.875 
#    0.000    7.000    0.000    0.000    0.000    0.000 
#
# Total GULP energy -793028.722338 kJ/mol
# GULP energy per Si atom -12391.073787 kJ/mol
# Density = 1.695853 g / cm^3
# Si number density = 16.997215 Si / 1000 Ang^3
#
#
#
# Elastic Constant Matrix: (Units=GPa)
#
#
# Indices 1 2 3 4 5 6 
#
# 1 58.2241 22.9653 75.2185 0.0000 0.0000 0.0000
# 2 22.9653 37.9077 52.2884 0.0000 0.0000 0.0000
# 3 75.2185 52.2884 207.8723 0.0000 0.0000 0.0000
# 4 0.0000 0.0000 0.0000 2.5464 0.0000 0.0000
# 5 0.0000 0.0000 0.0000 0.0000 33.7137 0.0000
# 6 0.0000 0.0000 0.0000 0.0000 0.0000 10.0460
#
#
#
# Elastic Compliance Matrix: (Units=1/GPa)
#
#
# Indices 1 2 3 4 5 6 
#
# 1 0.032954 -0.005384 -0.010570 0.000000 0.000000 0.000000
# 2 -0.005384 0.041276 -0.008434 0.000000 0.000000 0.000000
# 3 -0.010570 -0.008434 0.010757 0.000000 0.000000 0.000000
# 4 0.000000 0.000000 0.000000 0.392714 0.000000 0.000000
# 5 0.000000 0.000000 0.000000 0.000000 0.029662 0.000000
# 6 0.000000 0.000000 0.000000 0.000000 0.000000 0.099542
#
#
# Mechanical properties :
#
#
# Convention : Reuss Voigt Hill
#
# Bulk Modulus (GPa) = 27.61710 67.21650 47.41680
# Shear Modulus (GPa) = 7.48782 19.49667 13.49225
#
# Velocity S-wave (km/s) = 2.10116 3.39049 2.82049
# Velocity P-wave (km/s) = 4.70848 7.41341 6.21001
#
# Compressibility (1/GPa) = 0.03620945
#
# Stress axis : x y z
#
# Youngs Moduli (GPa) = 30.34549 24.22735 92.96340
#
# Poissons Ratio (x) = 0.13045 0.98262
# Poissons Ratio (y) = 0.16339 0.78407
# Poissons Ratio (z) = 0.32075 0.20434
#
# Static dielectric constant tensor:
#      x y z
#    x 2.986290 0.000000 0.000000 
#    y 0.000000 2.804450 0.000000 
#    z 0.000000 0.000000 3.633730 
# 
# 
# High freq. dielectric constant tensor:
#      x y z
#    x 1.625640 0.000000 0.000000 
#    y 0.000000 1.607670 0.000000 
#    z 0.000000 0.000000 1.676430 
# 
# From -- ./inp_files/37764.got.cif
#   From: 2010.03.12/outbox.cif.g09.slc.cpg/sg51_19_cif.got.tgz:37764.got - 2010.04.16 13:43:02.
