data_PCOD8214861
_publ_section_title
;
Structure prediction by ZEFSAII (Michael W. Deem and Ramdas Pophale) SiO2 
 PCOD8214861
Probable space group: P M M A
;
_chemical_formula_sum "Si O2"
_cell_formula_units_Z 48
_cell_length_a 19.147742
_cell_length_b 23.085534
_cell_length_c 5.260194
_cell_angle_alpha 90.000000
_cell_angle_beta 90.000000
_cell_angle_gamma 90.000000
_cell_volume 2325.194321
_symmetry_space_group_name_H-M "P M M A"
_symmetry_group_IT_number 51
_symmetry_cell_setting 'orthorhombic'
loop_
_space_group_symop_operation_xyz
x,y,z
1/2-x,-y,z
1/2+x,-y,-z
-x,y,-z
-x,-y,-z
1/2+x,y,-z
1/2-x,y,z
x,-y,z
loop_
_atom_site_type_symbol
_atom_site_label
_atom_site_fract_x
_atom_site_fract_y
_atom_site_fract_z
Si Si1 0.671673 0.565270 0.501054
Si Si2 0.666814 0.130212 0.245350
Si Si3 0.166569 0.738617 0.727952
Si Si4 0.166729 0.934451 0.254576
Si Si5 0.465481 0.432684 0.751474
Si Si6 0.168598 0.677437 0.225399
O O1 0.750000 0.576365 0.393014
O O2 0.663303 0.500000 0.609653
O O3 0.618524 0.576032 0.266726
O O4 0.655431 0.608552 0.735035
O O5 0.750000 0.129212 0.245884
O O6 0.639185 0.195922 0.245420
O O7 0.637845 0.098289 0.994540
O O8 0.637908 0.097614 0.494694
O O9 0.250000 0.736382 0.727418
O O10 0.135423 0.700615 0.962635
O O11 0.136502 0.711487 0.467821
O O12 0.250000 0.933945 0.254131
O O13 0.138422 0.000000 0.253000
O O14 0.500000 0.404469 0.500000
O O15 0.485836 0.500000 0.758145
O O16 0.500000 0.402476 0.000000
O O17 0.250000 0.691758 0.215501
#
# Coordination Sequence:
#
# PCOD8214861 Si02
#       6
#     8   8   8   8   8   8
#     4   9  18  33  52  74  98 124 156 197 248 300
#     4   9  15  22  32  44  61  89 122 157 204 258
#     4   9  16  26  38  52  72 100 133 168 213 267
#     4   9  15  21  29  43  62  84 116 161 209 251
#     4   9  18  33  51  70  94 124 155 187 230 288
#     4   9  17  28  41  58  80 104 134 176 222 268
#
# _framework density 20.643436999999999
#
# number of rings (size 3 to 8) (size 9 to 14) (size 15 to 20)
#    0.000    3.000    0.000    1.500    0.000    7.333 
#    0.000    5.000    0.000   14.000    0.000    0.000 
#    0.000    0.000    0.000    0.000    0.000    0.000 
#
# Total GULP energy -594906.000803 kJ/mol
# GULP energy per Si atom -12393.875017 kJ/mol
# Density = 2.059645 g / cm^3
# Si number density = 20.643437 Si / 1000 Ang^3
#
#
#
# Elastic Constant Matrix: (Units=GPa)
#
#
# Indices 1 2 3 4 5 6 
#
# 1 40.4874 2.8882 10.2193 0.0000 0.0000 0.0000
# 2 2.8882 129.5704 47.9613 0.0000 0.0000 0.0000
# 3 10.2193 47.9613 156.3598 0.0000 0.0000 0.0000
# 4 0.0000 0.0000 0.0000 4.7712 0.0000 0.0000
# 5 0.0000 0.0000 0.0000 0.0000 4.0130 0.0000
# 6 0.0000 0.0000 0.0000 0.0000 0.0000 2.4191
#
#
#
# Elastic Compliance Matrix: (Units=1/GPa)
#
#
# Indices 1 2 3 4 5 6 
#
# 1 0.025114 0.000054 -0.001658 0.000000 0.000000 0.000000
# 2 0.000054 0.008706 -0.002674 0.000000 0.000000 0.000000
# 3 -0.001658 -0.002674 0.007324 0.000000 0.000000 0.000000
# 4 0.000000 0.000000 0.000000 0.209592 0.000000 0.000000
# 5 0.000000 0.000000 0.000000 0.000000 0.249187 0.000000
# 6 0.000000 0.000000 0.000000 0.000000 0.000000 0.413369
#
#
# Mechanical properties :
#
#
# Convention : Reuss Voigt Hill
#
# Bulk Modulus (GPa) = 30.68618 49.83948 40.26283
# Shear Modulus (GPa) = 5.36071 19.93058 12.64565
#
# Velocity S-wave (km/s) = 1.61321 3.11057 2.47771
# Velocity P-wave (km/s) = 4.28568 6.09067 5.26609
#
# Compressibility (1/GPa) = 0.03258796
#
# Stress axis : x y z
#
# Youngs Moduli (GPa) = 39.81899 114.85731 136.53527
#
# Poissons Ratio (x) = -0.00619 0.22636
# Poissons Ratio (y) = -0.00215 0.36511
# Poissons Ratio (z) = 0.06602 0.30714
#
# Static dielectric constant tensor:
#      x y z
#    x 3.018700 0.000000 0.000000 
#    y 0.000000 3.813520 0.000000 
#    z 0.000000 0.000000 4.012290 
# 
# 
# High freq. dielectric constant tensor:
#      x y z
#    x 1.719370 0.000000 0.000000 
#    y 0.000000 1.803610 0.000000 
#    z 0.000000 0.000000 1.818290 
# 
# From -- ./inp_files/2529.got.cif
#   From: 2010.03.12/outbox.cif.g09.slc.cpg/sg51_2_cif.got.tgz:2529.got - 2010.04.16 13:43:02.
