data_PCOD8214955
_publ_section_title
;
Structure prediction by ZEFSAII (Michael W. Deem and Ramdas Pophale) SiO2 
 PCOD8214955
Probable space group: P N N A
;
_chemical_formula_sum "Si O2"
_cell_formula_units_Z 52
_cell_length_a 5.415893
_cell_length_b 21.317357
_cell_length_c 18.434883
_cell_angle_alpha 90.000000
_cell_angle_beta 90.000000
_cell_angle_gamma 90.000000
_cell_volume 2128.353782
_symmetry_space_group_name_H-M "P N N A"
_symmetry_group_IT_number 52
_symmetry_cell_setting 'orthorhombic'
loop_
_space_group_symop_operation_xyz
x,y,z
1/2-x,-y,z
x,1/2-y,1/2-z
1/2-x,1/2+y,1/2-z
-x,-y,-z
1/2+x,y,-z
-x,1/2+y,1/2+z
1/2+x,1/2-y,1/2+z
loop_
_atom_site_type_symbol
_atom_site_label
_atom_site_fract_x
_atom_site_fract_y
_atom_site_fract_z
Si Si1 0.566353 0.763257 0.025969
Si Si2 0.975150 0.126859 0.809589
Si Si3 0.595210 0.595461 0.531350
Si Si4 0.838815 0.878751 0.469738
Si Si5 0.520416 0.702953 0.313530
Si Si6 0.750000 0.000000 0.551969
Si Si7 0.412930 0.939673 0.664820
O O1 0.490096 0.762927 0.109642
O O2 0.838839 0.730329 0.018823
O O3 0.619018 0.831673 0.991595
O O4 0.922119 0.087539 0.882294
O O5 0.245926 0.156811 0.818863
O O6 0.980372 0.081401 0.741281
O O7 0.744604 0.172696 0.795721
O O8 0.853687 0.563345 0.505590
O O9 0.598193 0.845184 0.506625
O O10 0.905969 0.950835 0.501059
O O11 0.777001 0.884140 0.382606
O O12 0.587842 0.750000 0.250000
O O13 0.628830 0.952693 0.609083
O O14 0.250000 0.000000 0.680649
#
# Coordination Sequence:
#
# PCOD8214955 Si02
#       7
#     8   8   8   8   8   4   8
#     4  10  16  33  63  86 102 148 213 239 263 356
#     4  12  24  37  63  96 120 158 195 254 308 353
#     4  10  16  34  60  86 104 145 212 240 265 356
#     4  10  17  32  57  81 103 160 220 232 259 340
#     4  12  24  41  61  92 125 156 196 256 309 357
#     4  10  18  36  58  86 110 174 212 236 264 366
#     4  11  22  36  58  92 127 152 202 253 297 350
#
# _framework density 24.432030000000001
#
# number of rings (size 3 to 8) (size 9 to 14) (size 15 to 20)
#    0.000    1.231    8.462    1.385    2.154    0.000 
#    0.000    0.000    0.000   12.000    0.000    0.000 
#    0.000    0.000    0.000    0.000    0.000    0.000 
#
# Total GULP energy -644498.709798 kJ/mol
# GULP energy per Si atom -12394.205958 kJ/mol
# Density = 2.437642 g / cm^3
# Si number density = 24.432030 Si / 1000 Ang^3
#
#
#
# Elastic Constant Matrix: (Units=GPa)
#
#
# Indices 1 2 3 4 5 6 
#
# 1 174.5266 25.0145 45.3955 0.0000 0.0000 0.0000
# 2 25.0145 11.6710 22.2767 0.0000 0.0000 0.0000
# 3 45.3955 22.2767 215.7695 0.0000 0.0000 0.0000
# 4 0.0000 0.0000 0.0000 28.9513 0.0000 0.0000
# 5 0.0000 0.0000 0.0000 0.0000 54.7106 0.0000
# 6 0.0000 0.0000 0.0000 0.0000 0.0000 34.7219
#
#
#
# Elastic Compliance Matrix: (Units=1/GPa)
#
#
# Indices 1 2 3 4 5 6 
#
# 1 0.008273 -0.017945 0.000112 0.000000 0.000000 0.000000
# 2 -0.017945 0.145636 -0.011261 0.000000 0.000000 0.000000
# 3 0.000112 -0.011261 0.005774 0.000000 0.000000 0.000000
# 4 0.000000 0.000000 0.000000 0.034541 0.000000 0.000000
# 5 0.000000 0.000000 0.000000 0.000000 0.018278 0.000000
# 6 0.000000 0.000000 0.000000 0.000000 0.000000 0.028800
#
#
# Mechanical properties :
#
#
# Convention : Reuss Voigt Hill
#
# Bulk Modulus (GPa) = 9.85258 65.26003 37.55630
# Shear Modulus (GPa) = 15.00061 44.29546 29.64803
#
# Velocity S-wave (km/s) = 2.48054 4.26256 3.48730
# Velocity P-wave (km/s) = 3.49935 7.14106 5.62318
#
# Compressibility (1/GPa) = 0.10149628
#
# Stress axis : x y z
#
# Youngs Moduli (GPa) = 120.88127 6.86642 173.20399
#
# Poissons Ratio (x) = 0.12322 -0.01944
# Poissons Ratio (y) = 2.16919 1.95037
# Poissons Ratio (z) = -0.01356 0.07732
#
# Static dielectric constant tensor:
#      x y z
#    x 5.209770 0.000000 0.000000 
#    y 0.000000 4.253020 0.000000 
#    z 0.000000 0.000000 4.565480 
# 
# 
# High freq. dielectric constant tensor:
#      x y z
#    x 2.014870 0.000000 0.000000 
#    y 0.000000 1.964670 0.000000 
#    z 0.000000 0.000000 1.974170 
# 
# From -- ./inp_files/30324.got.cif
#   From: 2010.06.25/outbox.cif.g09.slc.cpg/sg52_16_cif.got.tgz:30324.got - 2010.06.26 19:32:48.
