data_PCOD8214225
_publ_section_title
;
Structure prediction by ZEFSAII (Michael W. Deem and Ramdas Pophale) SiO2 
 PCOD8214225
Probable space group: P M M A
;
_chemical_formula_sum "Si O2"
_cell_formula_units_Z 48
_cell_length_a 15.700246
_cell_length_b 8.936836
_cell_length_c 16.770391
_cell_angle_alpha 90.000000
_cell_angle_beta 90.000000
_cell_angle_gamma 90.000000
_cell_volume 2353.062343
_symmetry_space_group_name_H-M "P M M A"
_symmetry_group_IT_number 51
_symmetry_cell_setting 'orthorhombic'
loop_
_space_group_symop_operation_xyz
x,y,z
1/2-x,-y,z
1/2+x,-y,-z
-x,y,-z
-x,-y,-z
1/2+x,y,-z
1/2-x,y,z
x,-y,z
loop_
_atom_site_type_symbol
_atom_site_label
_atom_site_fract_x
_atom_site_fract_y
_atom_site_fract_z
Si Si1 0.344676 0.672105 0.181761
Si Si2 0.845970 0.327734 0.180288
Si Si3 0.570521 0.671398 0.343386
Si Si4 0.396665 0.824096 0.334467
Si Si5 0.499196 0.175309 0.092264
Si Si6 0.349085 0.168981 0.510923
O O1 0.250000 0.688427 0.143493
O O2 0.372192 0.500000 0.188255
O O3 0.338632 0.741287 0.270030
O O4 0.414410 0.754215 0.128773
O O5 0.750000 0.273369 0.159971
O O6 0.858222 0.500000 0.155731
O O7 0.858414 0.308348 0.275322
O O8 0.913801 0.232462 0.131347
O O9 0.539813 0.500000 0.349312
O O10 0.493366 0.777392 0.317921
O O11 0.605226 0.719880 0.428899
O O12 0.367823 0.772692 0.422170
O O13 0.385064 0.000000 0.323405
O O14 0.493908 0.000000 0.106949
O O15 0.500000 0.218521 0.000000
O O16 0.250000 0.172618 0.528627
O O17 0.384801 0.000000 0.521940
#
# Coordination Sequence:
#
# PCOD8214225 Si02
#       6
#     8   8   8   8   8   8
#     4  11  24  42  66  96 128 166 211 257 311 374
#     4  10  22  41  65  93 127 167 209 255 311 372
#     4  11  22  37  59  88 122 162 209 258 310 366
#     4  11  22  38  61  88 121 164 212 259 311 366
#     4  11  25  44  67  96 128 163 205 255 311 373
#     4  10  22  38  55  81 119 163 211 259 308 365
#
# _framework density 20.398949999999999
#
# number of rings (size 3 to 8) (size 9 to 14) (size 15 to 20)
#    0.000    1.333    1.667    3.500    0.000    9.333 
#    0.000    3.333    0.000    0.000    0.000    0.000 
#    0.000    0.000    0.000    0.000    0.000    0.000 
#
# Total GULP energy -595360.539579 kJ/mol
# GULP energy per Si atom -12403.344575 kJ/mol
# Density = 2.035252 g / cm^3
# Si number density = 20.398950 Si / 1000 Ang^3
#
#
#
# Elastic Constant Matrix: (Units=GPa)
#
#
# Indices 1 2 3 4 5 6 
#
# 1 116.8662 37.4985 47.9600 0.0000 0.0000 0.0000
# 2 37.4985 73.6908 64.1267 0.0000 0.0000 0.0000
# 3 47.9600 64.1267 121.1916 0.0000 0.0000 0.0000
# 4 0.0000 0.0000 0.0000 0.6840 0.0000 0.0000
# 5 0.0000 0.0000 0.0000 0.0000 17.9020 0.0000
# 6 0.0000 0.0000 0.0000 0.0000 0.0000 27.3315
#
#
#
# Elastic Compliance Matrix: (Units=1/GPa)
#
#
# Indices 1 2 3 4 5 6 
#
# 1 0.010617 -0.003237 -0.002489 0.000000 0.000000 0.000000
# 2 -0.003237 0.026138 -0.012550 0.000000 0.000000 0.000000
# 3 -0.002489 -0.012550 0.015877 0.000000 0.000000 0.000000
# 4 0.000000 0.000000 0.000000 1.461884 0.000000 0.000000
# 5 0.000000 0.000000 0.000000 0.000000 0.055860 0.000000
# 6 0.000000 0.000000 0.000000 0.000000 0.000000 0.036588
#
#
# Mechanical properties :
#
#
# Convention : Reuss Voigt Hill
#
# Bulk Modulus (GPa) = 62.18408 67.87987 65.03197
# Shear Modulus (GPa) = 3.03237 19.99441 11.51339
#
# Velocity S-wave (km/s) = 1.22056 3.13416 2.37831
# Velocity P-wave (km/s) = 5.70408 6.81511 6.28419
#
# Compressibility (1/GPa) = 0.01608129
#
# Stress axis : x y z
#
# Youngs Moduli (GPa) = 94.19126 38.25816 62.98494
#
# Poissons Ratio (x) = 0.12383 0.15676
# Poissons Ratio (y) = 0.30487 0.79045
# Poissons Ratio (z) = 0.23442 0.48013
#
# Static dielectric constant tensor:
#      x y z
#    x 3.793810 0.000000 0.000000 
#    y 0.000000 3.780290 0.000000 
#    z 0.000000 0.000000 3.776350 
# 
# 
# High freq. dielectric constant tensor:
#      x y z
#    x 1.808610 0.000000 0.000000 
#    y 0.000000 1.801120 0.000000 
#    z 0.000000 0.000000 1.798130 
# 
# From -- ./inp_files/29422.got.cif
#   From: 2010.03.12/outbox.cif.g09.slc.cpg/sg51_15_cif.got.tgz:29422.got - 2010.04.16 13:43:02.
