data_PCOD8214135
_publ_section_title
;
Structure prediction by ZEFSAII (Michael W. Deem and Ramdas Pophale) SiO2 
 PCOD8214135
Probable space group: P M M A
;
_chemical_formula_sum "Si O2"
_cell_formula_units_Z 56
_cell_length_a 16.972801
_cell_length_b 18.735300
_cell_length_c 9.030835
_cell_angle_alpha 90.000000
_cell_angle_beta 90.000000
_cell_angle_gamma 90.000000
_cell_volume 2871.719905
_symmetry_space_group_name_H-M "P M M A"
_symmetry_group_IT_number 51
_symmetry_cell_setting 'orthorhombic'
loop_
_space_group_symop_operation_xyz
x,y,z
1/2-x,-y,z
1/2+x,-y,-z
-x,y,-z
-x,-y,-z
1/2+x,y,-z
1/2-x,y,z
x,-y,z
loop_
_atom_site_type_symbol
_atom_site_label
_atom_site_fract_x
_atom_site_fract_y
_atom_site_fract_z
Si Si1 0.083481 0.581428 0.938736
Si Si2 0.840616 0.082907 0.856299
Si Si3 0.159379 0.420158 0.242121
Si Si4 0.158169 0.304536 0.748063
Si Si5 0.918448 0.698226 0.558915
Si Si6 0.426422 0.179661 0.907754
Si Si7 0.035672 0.853605 0.345999
O O1 0.075646 0.500000 0.885927
O O2 0.110457 0.624919 0.794816
O O3 0.148099 0.591341 0.067261
O O4 0.000000 0.609526 0.000000
O O5 0.750000 0.105617 0.829712
O O6 0.889898 0.099655 0.706929
O O7 0.847258 0.000000 0.894013
O O8 0.876153 0.124836 0.995265
O O9 0.250000 0.411597 0.282266
O O10 0.129568 0.500000 0.285687
O O11 0.113425 0.360147 0.329722
O O12 0.250000 0.317922 0.767968
O O13 0.140472 0.286622 0.577135
O O14 0.132066 0.241251 0.856197
O O15 0.935020 0.771803 0.644991
O O16 0.000000 0.666518 0.500000
O O17 0.463175 0.138583 0.767700
O O18 0.500000 0.212318 0.000000
O O19 0.000000 0.882109 0.500000
#
# Coordination Sequence:
#
# PCOD8214135 Si02
#       7
#     8   8   8   8   8   8   8
#     4  10  22  39  59  82 112 153 201 251 301 359
#     4  10  23  42  65  96 129 160 198 246 301 360
#     4  10  22  39  57  81 114 154 200 248 304 363
#     4  12  23  35  57  88 119 153 197 250 307 357
#     4  11  22  39  59  83 119 156 199 250 298 358
#     4  10  21  39  64  87 121 159 202 244 294 357
#     4  10  21  41  64  90 123 163 204 252 293 360
#
# _framework density 19.500509000000001
#
# number of rings (size 3 to 8) (size 9 to 14) (size 15 to 20)
#    0.000    1.571    2.857    2.571    4.000    5.714 
#    0.000    0.000    0.000    1.714    0.000    0.000 
#    0.000    0.000    0.000    0.000    0.000    0.000 
#
# Total GULP energy -694477.221278 kJ/mol
# GULP energy per Si atom -12401.378951 kJ/mol
# Density = 1.945612 g / cm^3
# Si number density = 19.500509 Si / 1000 Ang^3
#
#
#
# Elastic Constant Matrix: (Units=GPa)
#
#
# Indices 1 2 3 4 5 6 
#
# 1 118.3247 38.5931 34.1628 0.0000 0.0000 0.0000
# 2 38.5931 77.5745 28.5165 0.0000 0.0000 0.0000
# 3 34.1628 28.5165 89.1155 0.0000 0.0000 0.0000
# 4 0.0000 0.0000 0.0000 12.8383 0.0000 0.0000
# 5 0.0000 0.0000 0.0000 0.0000 31.5872 0.0000
# 6 0.0000 0.0000 0.0000 0.0000 0.0000 39.7326
#
#
#
# Elastic Compliance Matrix: (Units=1/GPa)
#
#
# Indices 1 2 3 4 5 6 
#
# 1 0.010633 -0.004297 -0.002701 0.000000 0.000000 0.000000
# 2 -0.004297 0.016346 -0.003583 0.000000 0.000000 0.000000
# 3 -0.002701 -0.003583 0.013404 0.000000 0.000000 0.000000
# 4 0.000000 0.000000 0.000000 0.077892 0.000000 0.000000
# 5 0.000000 0.000000 0.000000 0.000000 0.031658 0.000000
# 6 0.000000 0.000000 0.000000 0.000000 0.000000 0.025168
#
#
# Mechanical properties :
#
#
# Convention : Reuss Voigt Hill
#
# Bulk Modulus (GPa) = 52.03080 54.17327 53.10204
# Shear Modulus (GPa) = 24.67073 29.08111 26.87592
#
# Velocity S-wave (km/s) = 3.56073 3.86592 3.71646
# Velocity P-wave (km/s) = 6.60642 6.91143 6.76065
#
# Compressibility (1/GPa) = 0.01921938
#
# Stress axis : x y z
#
# Youngs Moduli (GPa) = 94.05000 61.17811 74.60719
#
# Poissons Ratio (x) = 0.26287 0.20152
# Poissons Ratio (y) = 0.40411 0.26734
# Poissons Ratio (z) = 0.25404 0.21922
#
# Static dielectric constant tensor:
#      x y z
#    x 3.720940 0.000000 0.000000 
#    y 0.000000 3.401840 0.000000 
#    z 0.000000 0.000000 3.639580 
# 
# 
# High freq. dielectric constant tensor:
#      x y z
#    x 1.770960 0.000000 0.000000 
#    y 0.000000 1.749340 0.000000 
#    z 0.000000 0.000000 1.761400 
# 
# From -- ./inp_files/8514.got.cif
#   From: 2010.03.12/outbox.cif.g09.slc.cpg/sg51_5_cif.got.tgz:8514.got - 2010.04.16 13:43:02.
