data_PCOD8214838
_publ_section_title
;
Structure prediction by ZEFSAII (Michael W. Deem and Ramdas Pophale) SiO2 
 PCOD8214838
Probable space group: P M M A
;
_chemical_formula_sum "Si O2"
_cell_formula_units_Z 56
_cell_length_a 9.461503
_cell_length_b 18.512492
_cell_length_c 21.108503
_cell_angle_alpha 90.000000
_cell_angle_beta 90.000000
_cell_angle_gamma 90.000000
_cell_volume 3697.280922
_symmetry_space_group_name_H-M "P M M A"
_symmetry_group_IT_number 51
_symmetry_cell_setting 'orthorhombic'
loop_
_space_group_symop_operation_xyz
x,y,z
1/2-x,-y,z
1/2+x,-y,-z
-x,y,-z
-x,-y,-z
1/2+x,y,-z
1/2-x,y,z
x,-y,z
loop_
_atom_site_type_symbol
_atom_site_label
_atom_site_fract_x
_atom_site_fract_y
_atom_site_fract_z
Si Si1 0.413986 0.416823 0.560853
Si Si2 0.587652 0.419957 0.799363
Si Si3 0.584389 0.082398 0.806813
Si Si4 0.409442 0.847783 0.059571
Si Si5 0.586250 0.344657 0.310252
Si Si6 0.086191 0.795753 0.756978
Si Si7 0.409716 0.720132 0.138937
O O1 0.500000 0.389940 0.500000
O O2 0.250000 0.406365 0.545420
O O3 0.449145 0.500000 0.577081
O O4 0.462197 0.367567 0.619755
O O5 0.750000 0.422160 0.777791
O O6 0.534685 0.500000 0.818687
O O7 0.501309 0.390635 0.740025
O O8 0.570008 0.366918 0.860946
O O9 0.750000 0.091735 0.794699
O O10 0.543034 0.109688 0.877179
O O11 0.501709 0.129383 0.753452
O O12 0.535903 0.000000 0.799440
O O13 0.250000 0.868383 0.042435
O O14 0.426591 0.760699 0.071347
O O15 0.500000 0.873188 0.000000
O O16 0.750000 0.364311 0.299013
O O17 0.562371 0.257798 0.303079
O O18 0.250000 0.814982 0.766120
O O19 0.030844 0.751229 0.816686
O O20 0.250000 0.738897 0.164402
#
# Coordination Sequence:
#
# PCOD8214838 Si02
#       7
#     8   8   8   8   8   8   8
#     4   9  17  28  40  55  80 115 149 176 202 232
#     4   9  16  25  40  61  79  98 131 172 207 241
#     4   9  18  32  46  60  83 111 131 152 192 242
#     4   9  17  28  42  58  76 102 134 163 191 229
#     4   9  17  28  41  58  83 112 137 165 205 246
#     4   9  16  26  42  63  82 102 132 166 197 234
#     4   8  15  28  41  54  77 105 129 159 203 246
#
# _framework density 15.146266000000001
#
# number of rings (size 3 to 8) (size 9 to 14) (size 15 to 20)
#    0.000    3.143    0.000    1.714    0.000    4.857 
#    0.000    1.429    0.000    0.429    0.000    0.000 
#    0.000    0.571    0.000    1.286    0.000    3.143 
#
# Total GULP energy -693763.793508 kJ/mol
# GULP energy per Si atom -12388.639170 kJ/mol
# Density = 1.511179 g / cm^3
# Si number density = 15.146266 Si / 1000 Ang^3
#
#
#
# Elastic Constant Matrix: (Units=GPa)
#
#
# Indices 1 2 3 4 5 6 
#
# 1 47.4984 35.8260 23.3118 0.0000 0.0000 0.0000
# 2 35.8260 118.9025 30.2495 0.0000 0.0000 0.0000
# 3 23.3118 30.2495 41.5483 0.0000 0.0000 0.0000
# 4 0.0000 0.0000 0.0000 17.3977 0.0000 0.0000
# 5 0.0000 0.0000 0.0000 0.0000 20.3659 0.0000
# 6 0.0000 0.0000 0.0000 0.0000 0.0000 20.2620
#
#
#
# Elastic Compliance Matrix: (Units=1/GPa)
#
#
# Indices 1 2 3 4 5 6 
#
# 1 0.032521 -0.006329 -0.013639 0.000000 0.000000 0.000000
# 2 -0.006329 0.011554 -0.004861 0.000000 0.000000 0.000000
# 3 -0.013639 -0.004861 0.035260 0.000000 0.000000 0.000000
# 4 0.000000 0.000000 0.000000 0.057479 0.000000 0.000000
# 5 0.000000 0.000000 0.000000 0.000000 0.049102 0.000000
# 6 0.000000 0.000000 0.000000 0.000000 0.000000 0.049353
#
#
# Mechanical properties :
#
#
# Convention : Reuss Voigt Hill
#
# Bulk Modulus (GPa) = 33.69594 42.96933 38.33264
# Shear Modulus (GPa) = 16.95961 19.50924 18.23443
#
# Velocity S-wave (km/s) = 3.34986 3.59284 3.47347
# Velocity P-wave (km/s) = 6.10388 6.75593 6.43816
#
# Compressibility (1/GPa) = 0.02967717
#
# Stress axis : x y z
#
# Youngs Moduli (GPa) = 30.74957 86.55156 28.36089
#
# Poissons Ratio (x) = 0.54777 0.38681
# Poissons Ratio (y) = 0.19461 0.13786
# Poissons Ratio (z) = 0.41939 0.42071
#
# Static dielectric constant tensor:
#      x y z
#    x 2.950190 0.000000 0.000000 
#    y 0.000000 3.232400 0.000000 
#    z 0.000000 0.000000 2.669600 
# 
# 
# High freq. dielectric constant tensor:
#      x y z
#    x 1.586340 0.000000 0.000000 
#    y 0.000000 1.580040 0.000000 
#    z 0.000000 0.000000 1.533720 
# 
# From -- ./inp_files/32503.got.cif
#   From: 2010.03.12/outbox.cif.g09.slc.cpg/sg51_17_cif.got.tgz:32503.got - 2010.04.16 13:43:02.
