data_PCOD8214914
_publ_section_title
;
Structure prediction by ZEFSAII (Michael W. Deem and Ramdas Pophale) SiO2 
 PCOD8214914
Probable space group: P N N A
;
_chemical_formula_sum "Si O2"
_cell_formula_units_Z 64
_cell_length_a 12.206469
_cell_length_b 24.321124
_cell_length_c 16.077376
_cell_angle_alpha 90.000000
_cell_angle_beta 90.000000
_cell_angle_gamma 90.000000
_cell_volume 4772.971742
_symmetry_space_group_name_H-M "P N N A"
_symmetry_group_IT_number 52
_symmetry_cell_setting 'orthorhombic'
loop_
_space_group_symop_operation_xyz
x,y,z
1/2-x,-y,z
x,1/2-y,1/2-z
1/2-x,1/2+y,1/2-z
-x,-y,-z
1/2+x,y,-z
-x,1/2+y,1/2+z
1/2+x,1/2-y,1/2+z
loop_
_atom_site_type_symbol
_atom_site_label
_atom_site_fract_x
_atom_site_fract_y
_atom_site_fract_z
Si Si1 0.821045 0.360727 0.088777
Si Si2 0.739393 0.564632 0.940427
Si Si3 0.059774 0.136148 0.445882
Si Si4 0.896074 0.777711 0.131948
Si Si5 0.955114 0.373848 0.876817
Si Si6 0.129808 0.754012 0.346474
Si Si7 0.289197 0.732396 0.017400
Si Si8 0.352436 0.839572 0.715440
O O1 0.758376 0.364829 0.177119
O O2 0.950209 0.362402 0.110145
O O3 0.788902 0.412743 0.032182
O O4 0.792678 0.305226 0.037932
O O5 0.750000 0.500000 0.944074
O O6 0.855059 0.590735 0.910778
O O7 0.639983 0.579883 0.876905
O O8 0.028295 0.121926 0.540412
O O9 0.115125 0.195800 0.442531
O O10 0.839995 0.826246 0.186694
O O11 0.877927 0.717323 0.169122
O O12 0.027312 0.786091 0.134006
O O13 0.844138 0.779646 0.040228
O O14 0.042553 0.379675 0.801102
O O15 0.892237 0.316485 0.872255
O O16 0.164739 0.750000 0.250000
O O17 0.227992 0.735724 0.407799
#
# Coordination Sequence:
#
# PCOD8214914 Si02
#       8
#     8   8   8   8   8   8   8   8
#     4   9  16  25  40  52  75 105 135 164 199 238
#     4  10  19  26  37  56  78 109 141 172 203 241
#     4  10  15  26  40  51  76 111 134 168 205 233
#     4   9  15  23  42  57  74  99 142 173 194 233
#     4  10  15  26  40  54  72 102 142 174 192 234
#     4  11  16  24  42  60  74 102 144 172 199 240
#     4  10  15  25  38  57  79 104 132 170 203 236
#     4   9  14  26  39  59  69  97 142 173 192 227
#
# _framework density 13.408836000000001
#
# number of rings (size 3 to 8) (size 9 to 14) (size 15 to 20)
#    0.000    2.250   11.250    0.000    0.000    2.000 
#    0.000    0.000    8.250    0.000    0.000    0.000 
#    0.000    0.000    0.000    2.250    0.000    3.250 
#
# Total GULP energy -792996.569331 kJ/mol
# GULP energy per Si atom -12390.571396 kJ/mol
# Density = 1.337832 g / cm^3
# Si number density = 13.408836 Si / 1000 Ang^3
#
#
#
# Elastic Constant Matrix: (Units=GPa)
#
#
# Indices 1 2 3 4 5 6 
#
# 1 111.2466 29.4926 47.3176 0.0000 0.0000 0.0000
# 2 29.4926 34.0467 24.7066 0.0000 0.0000 0.0000
# 3 47.3176 24.7066 75.5958 0.0000 0.0000 0.0000
# 4 0.0000 0.0000 0.0000 8.6687 0.0000 0.0000
# 5 0.0000 0.0000 0.0000 0.0000 16.1820 0.0000
# 6 0.0000 0.0000 0.0000 0.0000 0.0000 9.2573
#
#
#
# Elastic Compliance Matrix: (Units=1/GPa)
#
#
# Indices 1 2 3 4 5 6 
#
# 1 0.013504 -0.007294 -0.006069 0.000000 0.000000 0.000000
# 2 -0.007294 0.042442 -0.009306 0.000000 0.000000 0.000000
# 3 -0.006069 -0.009306 0.020068 0.000000 0.000000 0.000000
# 4 0.000000 0.000000 0.000000 0.115357 0.000000 0.000000
# 5 0.000000 0.000000 0.000000 0.000000 0.061797 0.000000
# 6 0.000000 0.000000 0.000000 0.000000 0.000000 0.108023
#
#
# Mechanical properties :
#
#
# Convention : Reuss Voigt Hill
#
# Bulk Modulus (GPa) = 32.59672 47.10251 39.84961
# Shear Modulus (GPa) = 11.99749 14.77978 13.38863
#
# Velocity S-wave (km/s) = 2.99447 3.32360 3.16332
# Velocity P-wave (km/s) = 6.02648 7.06631 6.56701
#
# Compressibility (1/GPa) = 0.03067793
#
# Stress axis : x y z
#
# Youngs Moduli (GPa) = 74.05232 23.56131 49.83003
#
# Poissons Ratio (x) = 0.17185 0.30241
# Poissons Ratio (y) = 0.54012 0.46371
# Poissons Ratio (z) = 0.44940 0.21926
#
# Static dielectric constant tensor:
#      x y z
#    x 3.018100 0.000000 0.000000 
#    y 0.000000 2.287710 0.000000 
#    z 0.000000 0.000000 2.622100 
# 
# 
# High freq. dielectric constant tensor:
#      x y z
#    x 1.527590 0.000000 0.000000 
#    y 0.000000 1.453500 0.000000 
#    z 0.000000 0.000000 1.475560 
# 
# From -- ./inp_files/32508.got.cif
#   From: 2010.06.25/outbox.cif.g09.slc.cpg/sg52_17_cif.got.tgz:32508.got - 2010.06.26 19:32:48.
