data_PCOD8214441
_publ_section_title
;
Structure prediction by ZEFSAII (Michael W. Deem and Ramdas Pophale) SiO2 
 PCOD8214441
Probable space group: P M M A
;
_chemical_formula_sum "Si O2"
_cell_formula_units_Z 64
_cell_length_a 29.142249
_cell_length_b 14.236349
_cell_length_c 8.974543
_cell_angle_alpha 90.000000
_cell_angle_beta 90.000000
_cell_angle_gamma 90.000000
_cell_volume 3723.351466
_symmetry_space_group_name_H-M "P M M A"
_symmetry_group_IT_number 51
_symmetry_cell_setting 'orthorhombic'
loop_
_space_group_symop_operation_xyz
x,y,z
1/2-x,-y,z
1/2+x,-y,-z
-x,y,-z
-x,-y,-z
1/2+x,y,-z
1/2-x,y,z
x,-y,z
loop_
_atom_site_type_symbol
_atom_site_label
_atom_site_fract_x
_atom_site_fract_y
_atom_site_fract_z
Si Si1 0.932117 0.107339 0.261360
Si Si2 0.432111 0.607339 0.738649
Si Si3 0.870868 0.750003 0.423849
Si Si4 0.863864 0.607491 0.997933
Si Si5 0.994498 0.250007 0.676380
Si Si6 0.695876 0.249994 0.165661
Si Si7 0.888459 0.749996 0.753288
Si Si8 0.863873 0.107491 0.997933
O O1 0.900246 0.157557 0.383746
O O2 0.981575 0.157145 0.255253
O O3 0.938539 0.000000 0.310198
O O4 0.909184 0.116799 0.099289
O O5 0.438532 0.500000 0.689808
O O6 0.400242 0.657559 0.616258
O O7 0.481570 0.657143 0.744768
O O8 0.409176 0.616798 0.900716
O O9 0.823072 0.750006 0.334532
O O10 0.860207 0.750002 0.599038
O O11 0.850234 0.500000 0.968872
O O12 0.874499 0.656473 0.841519
O O13 0.821280 0.657348 0.079522
O O14 0.942209 0.250015 0.722701
O O15 0.000000 0.250016 0.500000
O O16 0.750000 0.249983 0.172500
O O17 0.678713 0.157343 0.079517
O O18 0.874508 0.843525 0.841522
O O19 0.850245 0.000000 0.968866
#
# Coordination Sequence:
#
# PCOD8214441 Si02
#       8
#     8   8   8   8   8   8   8   8
#     4   9  18  34  51  69 100 143 186 219 249 293
#     4   9  18  34  51  69 100 143 186 219 249 293
#     4   9  18  34  50  77 108 133 167 211 258 310
#     4   9  20  36  54  77 105 138 172 211 263 312
#     4  11  20  32  46  76 106 140 186 224 252 293
#     4   9  18  36  63  81  96 128 169 210 253 313
#     4  11  20  33  50  75 111 141 172 215 265 302
#     4   9  20  36  54  77 105 138 172 211 263 312
#
# _framework density 17.188815000000002
#
# number of rings (size 3 to 8) (size 9 to 14) (size 15 to 20)
#    0.000    2.500    2.500    2.250    0.000    5.000 
#    0.000    5.000    0.000    0.000    0.000    0.000 
#    0.000    0.000    0.000    0.000    0.000    0.000 
#
# Total GULP energy -793628.020206 kJ/mol
# GULP energy per Si atom -12400.437816 kJ/mol
# Density = 1.714969 g / cm^3
# Si number density = 17.188815 Si / 1000 Ang^3
#
#
#
# Elastic Constant Matrix: (Units=GPa)
#
#
# Indices 1 2 3 4 5 6 
#
# 1 126.4210 51.6639 49.6510 0.0000 0.0000 0.0000
# 2 51.6639 167.6965 60.6361 0.0000 0.0000 0.0000
# 3 49.6510 60.6361 132.3961 0.0000 0.0000 0.0000
# 4 0.0000 0.0000 0.0000 15.6476 0.0000 0.0000
# 5 0.0000 0.0000 0.0000 0.0000 16.3674 0.0000
# 6 0.0000 0.0000 0.0000 0.0000 0.0000 8.8089
#
#
#
# Elastic Compliance Matrix: (Units=1/GPa)
#
#
# Indices 1 2 3 4 5 6 
#
# 1 0.009821 -0.002030 -0.002753 0.000000 0.000000 0.000000
# 2 -0.002030 0.007566 -0.002704 0.000000 0.000000 0.000000
# 3 -0.002753 -0.002704 0.009824 0.000000 0.000000 0.000000
# 4 0.000000 0.000000 0.000000 0.063907 0.000000 0.000000
# 5 0.000000 0.000000 0.000000 0.000000 0.061097 0.000000
# 6 0.000000 0.000000 0.000000 0.000000 0.000000 0.113522
#
#
# Mechanical properties :
#
#
# Convention : Reuss Voigt Hill
#
# Bulk Modulus (GPa) = 81.72200 83.37952 82.55076
# Shear Modulus (GPa) = 17.55670 25.80228 21.67949
#
# Velocity S-wave (km/s) = 3.19941 3.87862 3.55527
# Velocity P-wave (km/s) = 7.82912 8.28683 8.06123
#
# Compressibility (1/GPa) = 0.01223661
#
# Stress axis : x y z
#
# Youngs Moduli (GPa) = 101.82201 132.16499 101.79131
#
# Poissons Ratio (x) = 0.26831 0.28026
# Poissons Ratio (y) = 0.20671 0.27524
# Poissons Ratio (z) = 0.28035 0.35737
#
# Static dielectric constant tensor:
#      x y z
#    x 3.071480 0.000000 0.000000 
#    y 0.000000 3.505410 0.000000 
#    z 0.000000 0.000000 3.305640 
# 
# 
# High freq. dielectric constant tensor:
#      x y z
#    x 1.639210 0.000000 0.000000 
#    y 0.000000 1.671960 0.000000 
#    z 0.000000 0.000000 1.660750 
# 
# From -- ./inp_files/13238.got.cif
#   From: 2010.03.12/outbox.cif.g09.slc.cpg/sg51_7_cif.got.tgz:13238.got - 2010.04.16 13:43:02.
