data_PCOD8214074
_publ_section_title
;
Structure prediction by ZEFSAII (Michael W. Deem and Ramdas Pophale) SiO2 
 PCOD8214074
Probable space group: P M M A
;
_chemical_formula_sum "Si O2"
_cell_formula_units_Z 52
_cell_length_a 9.038250
_cell_length_b 20.264164
_cell_length_c 13.990846
_cell_angle_alpha 90.000000
_cell_angle_beta 90.000000
_cell_angle_gamma 90.000000
_cell_volume 2562.459545
_symmetry_space_group_name_H-M "P M M A"
_symmetry_group_IT_number 51
_symmetry_cell_setting 'orthorhombic'
loop_
_space_group_symop_operation_xyz
x,y,z
1/2-x,-y,z
1/2+x,-y,-z
-x,y,-z
-x,-y,-z
1/2+x,y,-z
1/2-x,y,z
x,-y,z
loop_
_atom_site_type_symbol
_atom_site_label
_atom_site_fract_x
_atom_site_fract_y
_atom_site_fract_z
Si Si1 0.081218 0.695970 0.336025
Si Si2 0.581798 0.249915 0.156907
Si Si3 0.915456 0.166459 0.590885
Si Si4 0.925552 0.875131 0.802538
Si Si5 0.917228 0.389207 0.090779
Si Si6 0.927439 0.000000 0.103910
Si Si7 0.076793 0.574430 0.699235
O O1 0.250000 0.689323 0.298152
O O2 0.075785 0.753458 0.415568
O O3 0.967423 0.718033 0.255674
O O4 0.017986 0.624293 0.369180
O O5 0.750000 0.224014 0.165153
O O6 0.475060 0.187813 0.132871
O O7 0.569532 0.309332 0.081190
O O8 0.750000 0.141079 0.579637
O O9 0.973870 0.139236 0.692767
O O10 0.000000 0.136056 0.500000
O O11 0.750000 0.885892 0.814104
O O12 0.016835 0.937345 0.837529
O O13 0.750000 0.413259 0.083333
O O14 0.980642 0.416570 0.191282
O O15 0.000000 0.420754 0.000000
O O16 0.750000 0.000000 0.095119
O O17 0.000000 0.000000 0.000000
O O18 0.250000 0.591973 0.691724
O O19 0.045213 0.500000 0.664949
#
# Coordination Sequence:
#
# PCOD8214074 Si02
#       7
#     8   8   8   8   8   4   8
#     4   9  17  30  48  74 103 131 169 218 267 315
#     4   9  17  31  50  72  98 133 174 216 267 324
#     4   9  19  34  57  88 119 148 180 224 278 333
#     4  10  21  39  60  86 119 151 187 236 282 325
#     4   9  18  29  42  63  92 124 163 215 270 324
#     4  12  26  44  65  88 115 156 201 238 278 326
#     4   9  18  32  47  64  90 128 173 219 271 334
#
# _framework density 20.293005000000001
#
# number of rings (size 3 to 8) (size 9 to 14) (size 15 to 20)
#    0.000    2.615    0.000    3.923    0.000    8.000 
#    0.000    1.923    0.000    0.462    0.000    0.000 
#    0.000    0.000    0.000    0.000    0.000    0.000 
#
# Total GULP energy -644265.479684 kJ/mol
# GULP energy per Si atom -12389.720763 kJ/mol
# Density = 2.024682 g / cm^3
# Si number density = 20.293005 Si / 1000 Ang^3
#
#
#
# Elastic Constant Matrix: (Units=GPa)
#
#
# Indices 1 2 3 4 5 6 
#
# 1 95.1090 37.5186 34.3605 0.0000 0.0000 0.0000
# 2 37.5186 107.2344 17.9386 0.0000 0.0000 0.0000
# 3 34.3605 17.9386 55.9694 0.0000 0.0000 0.0000
# 4 0.0000 0.0000 0.0000 13.1417 0.0000 0.0000
# 5 0.0000 0.0000 0.0000 0.0000 28.4865 0.0000
# 6 0.0000 0.0000 0.0000 0.0000 0.0000 32.9895
#
#
#
# Elastic Compliance Matrix: (Units=1/GPa)
#
#
# Indices 1 2 3 4 5 6 
#
# 1 0.014905 -0.003893 -0.007903 0.000000 0.000000 0.000000
# 2 -0.003893 0.010870 -0.001094 0.000000 0.000000 0.000000
# 3 -0.007903 -0.001094 0.023069 0.000000 0.000000 0.000000
# 4 0.000000 0.000000 0.000000 0.076093 0.000000 0.000000
# 5 0.000000 0.000000 0.000000 0.000000 0.035104 0.000000
# 6 0.000000 0.000000 0.000000 0.000000 0.000000 0.030313
#
#
# Mechanical properties :
#
#
# Convention : Reuss Voigt Hill
#
# Bulk Modulus (GPa) = 43.35551 48.66090 46.00820
# Shear Modulus (GPa) = 22.33910 26.15656 24.24783
#
# Velocity S-wave (km/s) = 3.32147 3.59408 3.46046
# Velocity P-wave (km/s) = 6.01005 6.42296 6.21993
#
# Compressibility (1/GPa) = 0.02306512
#
# Stress axis : x y z
#
# Youngs Moduli (GPa) = 67.09169 91.99279 43.34783
#
# Poissons Ratio (x) = 0.35812 0.34257
# Poissons Ratio (y) = 0.26118 0.04743
# Poissons Ratio (z) = 0.53021 0.10065
#
# Static dielectric constant tensor:
#      x y z
#    x 3.683150 0.000000 0.000000 
#    y 0.000000 3.977630 0.000000 
#    z 0.000000 0.000000 3.327250 
# 
# 
# High freq. dielectric constant tensor:
#      x y z
#    x 1.793930 0.000000 0.000000 
#    y 0.000000 1.789150 0.000000 
#    z 0.000000 0.000000 1.756770 
# 
# From -- ./inp_files/21548.got.cif
#   From: 2010.03.12/outbox.cif.g09.slc.cpg/sg51_11_cif.got.tgz:21548.got - 2010.04.16 13:43:02.
