data_PCOD8214069
_publ_section_title
;
Structure prediction by ZEFSAII (Michael W. Deem and Ramdas Pophale) SiO2 
 PCOD8214069
Probable space group: P M M A
;
_chemical_formula_sum "Si O2"
_cell_formula_units_Z 64
_cell_length_a 18.797330
_cell_length_b 9.338910
_cell_length_c 20.140223
_cell_angle_alpha 90.000000
_cell_angle_beta 90.000000
_cell_angle_gamma 90.000000
_cell_volume 3535.547129
_symmetry_space_group_name_H-M "P M M A"
_symmetry_group_IT_number 51
_symmetry_cell_setting 'orthorhombic'
loop_
_space_group_symop_operation_xyz
x,y,z
1/2-x,-y,z
1/2+x,-y,-z
-x,y,-z
-x,-y,-z
1/2+x,y,-z
1/2-x,y,z
x,-y,z
loop_
_atom_site_type_symbol
_atom_site_label
_atom_site_fract_x
_atom_site_fract_y
_atom_site_fract_z
Si Si1 0.062554 0.667155 0.819093
Si Si2 0.834501 0.157887 0.420029
Si Si3 0.417690 0.170051 0.202229
Si Si4 0.666531 0.165746 0.272145
Si Si5 0.666798 0.666440 0.687445
Si Si6 0.831637 0.167150 0.928448
Si Si7 0.665583 0.342382 0.539252
Si Si8 0.424605 0.334562 0.973525
O O1 0.050415 0.500000 0.803308
O O2 0.128499 0.727769 0.778146
O O3 0.081015 0.691354 0.895632
O O4 0.993719 0.755910 0.798849
O O5 0.750000 0.153814 0.426159
O O6 0.854962 0.215309 0.346832
O O7 0.868447 0.249963 0.479711
O O8 0.866146 0.000000 0.428813
O O9 0.375434 0.228311 0.265055
O O10 0.375171 0.214472 0.136306
O O11 0.426449 0.000000 0.208486
O O12 0.750000 0.183824 0.260565
O O13 0.644442 0.000000 0.260525
O O14 0.750000 0.688831 0.700412
O O15 0.646501 0.500000 0.699289
O O16 0.646131 0.715116 0.612573
O O17 0.750000 0.210543 0.917079
O O18 0.839999 0.000000 0.942398
O O19 0.860785 0.249056 0.992499
O O20 0.750000 0.347424 0.532338
O O21 0.633468 0.500000 0.530619
O O22 0.416516 0.500000 0.993191
O O23 0.500000 0.275045 0.000000
#
# Coordination Sequence:
#
# PCOD8214069 Si02
#       8
#     8   8   8   8   8   8   8   8
#     4  11  23  38  58  81 107 140 181 222 265 322
#     4   8  14  26  46  72 102 136 173 214 261 315
#     4  11  22  36  55  78 108 144 183 224 267 317
#     4   9  19  36  56  80 111 143 176 218 270 324
#     4   9  18  32  50  75 109 146 182 222 269 318
#     4  10  22  38  57  84 113 140 176 221 267 317
#     4   8  14  25  43  70 103 138 176 217 262 313
#     4  10  21  39  59  79 106 139 178 220 264 318
#
# _framework density 18.101866000000001
#
# number of rings (size 3 to 8) (size 9 to 14) (size 15 to 20)
#    0.000    2.500    1.250    2.625    0.000    4.500 
#    0.000    5.000    0.000    0.750    0.000    5.250 
#    0.000    0.000    0.000    0.000    0.000    0.000 
#
# Total GULP energy -793488.377703 kJ/mol
# GULP energy per Si atom -12398.255902 kJ/mol
# Density = 1.806067 g / cm^3
# Si number density = 18.101866 Si / 1000 Ang^3
#
#
#
# Elastic Constant Matrix: (Units=GPa)
#
#
# Indices 1 2 3 4 5 6 
#
# 1 62.3469 42.5747 46.0900 0.0000 0.0000 0.0000
# 2 42.5747 85.9053 71.0221 0.0000 0.0000 0.0000
# 3 46.0900 71.0221 135.7879 0.0000 0.0000 0.0000
# 4 0.0000 0.0000 0.0000 38.4506 0.0000 0.0000
# 5 0.0000 0.0000 0.0000 0.0000 -29.7610 0.0000
# 6 0.0000 0.0000 0.0000 0.0000 0.0000 29.4155
#
#
#
# Elastic Compliance Matrix: (Units=1/GPa)
#
#
# Indices 1 2 3 4 5 6 
#
# 1 0.025184 -0.009539 -0.003559 0.000000 0.000000 0.000000
# 2 -0.009539 0.024122 -0.009379 0.000000 0.000000 0.000000
# 3 -0.003559 -0.009379 0.013478 0.000000 0.000000 0.000000
# 4 0.000000 0.000000 0.000000 0.026007 0.000000 0.000000
# 5 0.000000 0.000000 0.000000 0.000000 -0.033601 0.000000
# 6 0.000000 0.000000 0.000000 0.000000 0.000000 0.033996
#
#
# Mechanical properties :
#
#
# Convention : Reuss Voigt Hill
#
# Bulk Modulus (GPa) = 56.08350 67.04597 61.56474
# Shear Modulus (GPa) = 35.69284 15.91124 25.80204
#
# Velocity S-wave (km/s) = 4.44529 2.96798 3.77952
# Velocity P-wave (km/s) = 7.57607 6.99026 7.28905
#
# Compressibility (1/GPa) = 0.01783056
#
# Stress axis : x y z
#
# Youngs Moduli (GPa) = 39.70764 41.45519 74.19457
#
# Poissons Ratio (x) = 0.39544 0.26405
# Poissons Ratio (y) = 0.37877 0.69588
# Poissons Ratio (z) = 0.14132 0.38881
#
# Static dielectric constant tensor:
#      x y z
#    x 3.057900 0.000000 0.000000 
#    y 0.000000 3.470110 0.000000 
#    z 0.000000 0.000000 3.517020 
# 
# 
# High freq. dielectric constant tensor:
#      x y z
#    x 1.672850 0.000000 0.000000 
#    y 0.000000 1.700970 0.000000 
#    z 0.000000 0.000000 1.714700 
# 
# From -- ./inp_files/33779.got.cif
#   From: 2010.03.12/outbox.cif.g09.slc.cpg/sg51_17_cif.got.tgz:33779.got - 2010.04.16 13:43:02.
