data_PCOD8214466
_publ_section_title
;
Structure prediction by ZEFSAII (Michael W. Deem and Ramdas Pophale) SiO2 
 PCOD8214466
Probable space group: P M M A
;
_chemical_formula_sum "Si O2"
_cell_formula_units_Z 52
_cell_length_a 9.017697
_cell_length_b 26.812040
_cell_length_c 13.636592
_cell_angle_alpha 90.000000
_cell_angle_beta 90.000000
_cell_angle_gamma 90.000000
_cell_volume 3297.094114
_symmetry_space_group_name_H-M "P M M A"
_symmetry_group_IT_number 51
_symmetry_cell_setting 'orthorhombic'
loop_
_space_group_symop_operation_xyz
x,y,z
1/2-x,-y,z
1/2+x,-y,-z
-x,y,-z
-x,-y,-z
1/2+x,y,-z
1/2-x,y,z
x,-y,z
loop_
_atom_site_type_symbol
_atom_site_label
_atom_site_fract_x
_atom_site_fract_y
_atom_site_fract_z
Si Si1 0.077562 0.000000 0.897294
Si Si2 0.426728 0.701631 0.102373
Si Si3 0.423675 0.107308 0.895681
Si Si4 0.423612 0.648201 0.725180
Si Si5 0.423276 0.443985 0.599962
Si Si6 0.924395 0.792756 0.203405
Si Si7 0.579396 0.257764 0.399800
O O1 0.034499 0.053027 0.845926
O O2 0.250000 0.000000 0.918421
O O3 0.000000 0.000000 0.000000
O O4 0.250000 0.702084 0.093846
O O5 0.478040 0.659805 0.179989
O O6 0.484007 0.756132 0.133358
O O7 0.500000 0.686487 0.000000
O O8 0.250000 0.110845 0.915857
O O9 0.472496 0.150674 0.820907
O O10 0.500000 0.115224 0.000000
O O11 0.250000 0.652556 0.752975
O O12 0.467852 0.593200 0.687693
O O13 0.462873 0.687284 0.639046
O O14 0.500000 0.426812 0.500000
O O15 0.250000 0.440800 0.579604
O O16 0.472292 0.500000 0.630090
O O17 0.750000 0.782612 0.185125
O O18 0.965072 0.782597 0.316686
O O19 0.500000 0.244191 0.500000
O O20 0.750000 0.254501 0.425019
#
# Coordination Sequence:
#
# PCOD8214466 Si02
#       7
#     4   8   8   8   8   8   8
#     4   8  14  24  38  58  81 108 140 172 207 250
#     4  11  21  32  47  66  88 115 147 181 216 257
#     4   9  16  26  41  60  85 113 141 173 210 252
#     4   9  18  32  47  65  91 119 146 178 215 255
#     4   9  17  29  47  71  97 123 149 180 219 260
#     4   9  18  31  44  62  88 116 144 177 216 256
#     4   9  17  28  42  60  84 112 141 175 213 251
#
# _framework density 15.771464999999999
#
# number of rings (size 3 to 8) (size 9 to 14) (size 15 to 20)
#    0.000    2.769    0.000    3.231    0.000    4.923 
#    0.000    0.000    0.000    0.462    0.000    0.538 
#    0.000    0.000    0.000    0.000    0.000    0.000 
#
# Total GULP energy -644449.269421 kJ/mol
# GULP energy per Si atom -12393.255181 kJ/mol
# Density = 1.573557 g / cm^3
# Si number density = 15.771465 Si / 1000 Ang^3
#
#
#
# Elastic Constant Matrix: (Units=GPa)
#
#
# Indices 1 2 3 4 5 6 
#
# 1 55.3199 36.9470 43.4771 0.0000 0.0000 0.0000
# 2 36.9470 133.6608 63.5013 0.0000 0.0000 0.0000
# 3 43.4771 63.5013 103.7012 0.0000 0.0000 0.0000
# 4 0.0000 0.0000 0.0000 20.4087 0.0000 0.0000
# 5 0.0000 0.0000 0.0000 0.0000 27.0961 0.0000
# 6 0.0000 0.0000 0.0000 0.0000 0.0000 17.6762
#
#
#
# Elastic Compliance Matrix: (Units=1/GPa)
#
#
# Indices 1 2 3 4 5 6 
#
# 1 0.027803 -0.003029 -0.009802 0.000000 0.000000 0.000000
# 2 -0.003029 0.010881 -0.005393 0.000000 0.000000 0.000000
# 3 -0.009802 -0.005393 0.017055 0.000000 0.000000 0.000000
# 4 0.000000 0.000000 0.000000 0.048999 0.000000 0.000000
# 5 0.000000 0.000000 0.000000 0.000000 0.036906 0.000000
# 6 0.000000 0.000000 0.000000 0.000000 0.000000 0.056573
#
#
# Mechanical properties :
#
#
# Convention : Reuss Voigt Hill
#
# Bulk Modulus (GPa) = 51.83601 64.50365 58.16983
# Shear Modulus (GPa) = 20.73871 22.95329 21.84600
#
# Velocity S-wave (km/s) = 3.63016 3.81907 3.72581
# Velocity P-wave (km/s) = 7.10697 7.77398 7.44795
#
# Compressibility (1/GPa) = 0.01929161
#
# Stress axis : x y z
#
# Youngs Moduli (GPa) = 35.96738 91.90234 58.63317
#
# Poissons Ratio (x) = 0.27833 0.57472
# Poissons Ratio (y) = 0.10893 0.31623
# Poissons Ratio (z) = 0.35255 0.49566
#
# Static dielectric constant tensor:
#      x y z
#    x 2.976510 0.000000 0.000000 
#    y 0.000000 3.422610 0.000000 
#    z 0.000000 0.000000 2.841390 
# 
# 
# High freq. dielectric constant tensor:
#      x y z
#    x 1.604760 0.000000 0.000000 
#    y 0.000000 1.607640 0.000000 
#    z 0.000000 0.000000 1.580370 
# 
# From -- ./inp_files/14741.got.cif
#   From: 2010.03.12/outbox.cif.g09.slc.cpg/sg51_8_cif.got.tgz:14741.got - 2010.04.16 13:43:02.
