data_PCOD8214184
_publ_section_title
;
Structure prediction by ZEFSAII (Michael W. Deem and Ramdas Pophale) SiO2 
 PCOD8214184
Probable space group: P M M A
;
_chemical_formula_sum "Si O2"
_cell_formula_units_Z 48
_cell_length_a 18.290606
_cell_length_b 7.710950
_cell_length_c 17.100054
_cell_angle_alpha 90.000000
_cell_angle_beta 90.000000
_cell_angle_gamma 90.000000
_cell_volume 2411.756533
_symmetry_space_group_name_H-M "P M M A"
_symmetry_group_IT_number 51
_symmetry_cell_setting 'orthorhombic'
loop_
_space_group_symop_operation_xyz
x,y,z
1/2-x,-y,z
1/2+x,-y,-z
-x,y,-z
-x,-y,-z
1/2+x,y,-z
1/2-x,y,z
x,-y,z
loop_
_atom_site_type_symbol
_atom_site_label
_atom_site_fract_x
_atom_site_fract_y
_atom_site_fract_z
Si Si1 0.835242 0.700439 0.086151
Si Si2 0.836429 0.500000 0.505294
Si Si3 0.910948 0.803433 0.236507
Si Si4 0.329426 0.299900 0.085270
Si Si5 0.336834 0.500000 0.670141
Si Si6 0.076476 0.796797 0.229587
Si Si7 0.664136 0.199310 0.618929
O O1 0.750000 0.727057 0.104772
O O2 0.857479 0.500000 0.095817
O O3 0.882741 0.808526 0.147685
O O4 0.853629 0.775810 0.999368
O O5 0.750000 0.500000 0.501077
O O6 0.868886 0.500000 0.418022
O O7 0.862646 0.675220 0.549186
O O8 0.862583 0.675464 0.288441
O O9 0.993781 0.731949 0.238923
O O10 0.906456 0.000000 0.270247
O O11 0.250000 0.220226 0.111016
O O12 0.316976 0.500000 0.068605
O O13 0.390712 0.276572 0.149907
O O14 0.250000 0.500000 0.671189
O O15 0.123669 0.733906 0.303346
O O16 0.079880 0.000000 0.222330
O O17 0.750000 0.218930 0.634723
O O18 0.643802 0.000000 0.597764
#
# Coordination Sequence:
#
# PCOD8214184 Si02
#       7
#     8   4   8   8   4   8   8
#     4   9  18  36  57  79 112 150 194 246 292 335
#     4   9  20  37  61  90 111 138 185 235 286 341
#     4  11  24  39  58  86 117 153 194 236 287 341
#     4   9  19  33  55  86 114 150 198 241 282 331
#     4  11  24  43  65  87 112 143 185 240 293 343
#     4  10  22  37  53  81 121 157 191 233 280 337
#     4   9  18  35  59  85 116 152 187 228 278 334
#
# _framework density 19.902507
#
# number of rings (size 3 to 8) (size 9 to 14) (size 15 to 20)
#    0.000    2.333    0.833    2.000    2.333    4.333 
#    0.000    8.333    0.000    3.000    0.000    0.000 
#    0.000    0.000    0.000    0.000    0.000    0.000 
#
# Total GULP energy -595079.207401 kJ/mol
# GULP energy per Si atom -12397.483488 kJ/mol
# Density = 1.985721 g / cm^3
# Si number density = 19.902507 Si / 1000 Ang^3
#
#
#
# Elastic Constant Matrix: (Units=GPa)
#
#
# Indices 1 2 3 4 5 6 
#
# 1 89.0642 37.5843 58.7392 0.0000 0.0000 0.0000
# 2 37.5843 76.1128 51.6035 0.0000 0.0000 0.0000
# 3 58.7392 51.6035 155.0832 0.0000 0.0000 0.0000
# 4 0.0000 0.0000 0.0000 10.8827 0.0000 0.0000
# 5 0.0000 0.0000 0.0000 0.0000 4.8309 0.0000
# 6 0.0000 0.0000 0.0000 0.0000 0.0000 22.5808
#
#
#
# Elastic Compliance Matrix: (Units=1/GPa)
#
#
# Indices 1 2 3 4 5 6 
#
# 1 0.016314 -0.004993 -0.004518 0.000000 0.000000 0.000000
# 2 -0.004993 0.018494 -0.004263 0.000000 0.000000 0.000000
# 3 -0.004518 -0.004263 0.009578 0.000000 0.000000 0.000000
# 4 0.000000 0.000000 0.000000 0.091889 0.000000 0.000000
# 5 0.000000 0.000000 0.000000 0.000000 0.207001 0.000000
# 6 0.000000 0.000000 0.000000 0.000000 0.000000 0.044285
#
#
# Mechanical properties :
#
#
# Convention : Reuss Voigt Hill
#
# Bulk Modulus (GPa) = 59.38558 68.45715 63.92137
# Shear Modulus (GPa) = 11.88436 19.14776 15.51606
#
# Velocity S-wave (km/s) = 2.44627 3.10510 2.79517
# Velocity P-wave (km/s) = 6.15484 6.87942 6.52719
#
# Compressibility (1/GPa) = 0.01683910
#
# Stress axis : x y z
#
# Youngs Moduli (GPa) = 61.29538 54.07175 104.40895
#
# Poissons Ratio (x) = 0.26998 0.47170
# Poissons Ratio (y) = 0.30605 0.44506
# Poissons Ratio (z) = 0.27692 0.23049
#
# Static dielectric constant tensor:
#      x y z
#    x 3.864600 0.000000 0.000000 
#    y 0.000000 3.564080 0.000000 
#    z 0.000000 0.000000 3.838200 
# 
# 
# High freq. dielectric constant tensor:
#      x y z
#    x 1.763150 0.000000 0.000000 
#    y 0.000000 1.775100 0.000000 
#    z 0.000000 0.000000 1.775950 
# 
# From -- ./inp_files/24990.got.cif
#   From: 2010.03.12/outbox.cif.g09.slc.cpg/sg51_13_cif.got.tgz:24990.got - 2010.04.16 13:43:02.
