data_PCOD8214754
_publ_section_title
;
Structure prediction by ZEFSAII (Michael W. Deem and Ramdas Pophale) SiO2 
 PCOD8214754
Probable space group: P M M A
;
_chemical_formula_sum "Si O2"
_cell_formula_units_Z 40
_cell_length_a 9.229332
_cell_length_b 9.832792
_cell_length_c 25.993279
_cell_angle_alpha 90.000000
_cell_angle_beta 90.000000
_cell_angle_gamma 90.000000
_cell_volume 2358.892717
_symmetry_space_group_name_H-M "P M M A"
_symmetry_group_IT_number 51
_symmetry_cell_setting 'orthorhombic'
loop_
_space_group_symop_operation_xyz
x,y,z
1/2-x,-y,z
1/2+x,-y,-z
-x,y,-z
-x,-y,-z
1/2+x,y,-z
1/2-x,y,z
x,-y,z
loop_
_atom_site_type_symbol
_atom_site_label
_atom_site_fract_x
_atom_site_fract_y
_atom_site_fract_z
Si Si1 0.088559 0.838300 0.745321
Si Si2 0.913141 0.837746 0.648521
Si Si3 0.077425 0.151675 0.858373
Si Si4 0.080117 0.343691 0.948650
Si Si5 0.085979 0.162096 0.549577
O O1 0.250000 0.778222 0.736644
O O2 0.026740 0.797416 0.801738
O O3 0.983394 0.780420 0.701140
O O4 0.097028 0.000000 0.742221
O O5 0.750000 0.781461 0.644118
O O6 0.005884 0.782817 0.600450
O O7 0.912915 0.000000 0.648714
O O8 0.250000 0.148500 0.858309
O O9 0.018439 0.254653 0.901472
O O10 0.017381 0.000000 0.870051
O O11 0.250000 0.320408 0.956818
O O12 0.043889 0.500000 0.936251
O O13 0.000000 0.294597 0.000000
O O14 0.250000 0.218363 0.548563
O O15 0.000000 0.217680 0.500000
O O16 0.087274 0.000000 0.549335
#
# Coordination Sequence:
#
# PCOD8214754 Si02
#       5
#     8   8   8   8   8
#     4   8  13  22  35  48  62  84 115 148 182 222
#     4   9  15  21  29  42  61  84 110 144 187 230
#     4   8  14  25  41  59  78 101 130 163 197 234
#     4   9  17  29  44  61  81 105 132 161 194 234
#     4   9  15  21  28  38  54  79 114 154 191 226
#
# _framework density 16.957108999999999
#
# number of rings (size 3 to 8) (size 9 to 14) (size 15 to 20)
#    0.000    3.400    0.000    2.400    0.000    5.200 
#    0.000    1.000    0.000    1.200    0.000    0.000 
#    0.000    0.000    0.000    0.000    0.000    1.000 
#
# Total GULP energy -495774.464680 kJ/mol
# GULP energy per Si atom -12394.361617 kJ/mol
# Density = 1.691851 g / cm^3
# Si number density = 16.957109 Si / 1000 Ang^3
#
#
#
# Elastic Constant Matrix: (Units=GPa)
#
#
# Indices 1 2 3 4 5 6 
#
# 1 99.9429 17.9482 75.7441 0.0000 0.0000 0.0000
# 2 17.9482 25.5104 41.9167 0.0000 0.0000 0.0000
# 3 75.7441 41.9167 192.5835 0.0000 0.0000 0.0000
# 4 0.0000 0.0000 0.0000 1.7536 0.0000 0.0000
# 5 0.0000 0.0000 0.0000 0.0000 31.9812 0.0000
# 6 0.0000 0.0000 0.0000 0.0000 0.0000 6.3843
#
#
#
# Elastic Compliance Matrix: (Units=1/GPa)
#
#
# Indices 1 2 3 4 5 6 
#
# 1 0.014281 -0.001274 -0.005340 0.000000 0.000000 0.000000
# 2 -0.001274 0.061138 -0.012806 0.000000 0.000000 0.000000
# 3 -0.005340 -0.012806 0.010080 0.000000 0.000000 0.000000
# 4 0.000000 0.000000 0.000000 0.570264 0.000000 0.000000
# 5 0.000000 0.000000 0.000000 0.000000 0.031268 0.000000
# 6 0.000000 0.000000 0.000000 0.000000 0.000000 0.156634
#
#
# Mechanical properties :
#
#
# Convention : Reuss Voigt Hill
#
# Bulk Modulus (GPa) = 21.43178 65.47277 43.45227
# Shear Modulus (GPa) = 5.56757 20.18567 12.87662
#
# Velocity S-wave (km/s) = 1.81396 3.45395 2.75865
# Velocity P-wave (km/s) = 4.12959 7.38925 5.98559
#
# Compressibility (1/GPa) = 0.04665967
#
# Stress axis : x y z
#
# Youngs Moduli (GPa) = 70.02192 16.35654 99.20789
#
# Poissons Ratio (x) = 0.02084 0.52972
# Poissons Ratio (y) = 0.08923 1.27043
# Poissons Ratio (z) = 0.37388 0.20946
#
# Static dielectric constant tensor:
#      x y z
#    x 3.150100 0.000000 0.000000 
#    y 0.000000 2.595850 0.000000 
#    z 0.000000 0.000000 3.575490 
# 
# 
# High freq. dielectric constant tensor:
#      x y z
#    x 1.640040 0.000000 0.000000 
#    y 0.000000 1.572840 0.000000 
#    z 0.000000 0.000000 1.674020 
# 
# From -- ./inp_files/35977.got.cif
#   From: 2010.03.12/outbox.cif.g09.slc.cpg/sg51_18_cif.got.tgz:35977.got - 2010.04.16 13:43:02.
