data_PCOD8214384
_publ_section_title
;
Structure prediction by ZEFSAII (Michael W. Deem and Ramdas Pophale) SiO2 
 PCOD8214384
Probable space group: P M M A
;
_chemical_formula_sum "Si O2"
_cell_formula_units_Z 64
_cell_length_a 25.098126
_cell_length_b 8.916139
_cell_length_c 14.205846
_cell_angle_alpha 90.000000
_cell_angle_beta 90.000000
_cell_angle_gamma 90.000000
_cell_volume 3178.961205
_symmetry_space_group_name_H-M "P M M A"
_symmetry_group_IT_number 51
_symmetry_cell_setting 'orthorhombic'
loop_
_space_group_symop_operation_xyz
x,y,z
1/2-x,-y,z
1/2+x,-y,-z
-x,y,-z
-x,-y,-z
1/2+x,y,-z
1/2-x,y,z
x,-y,z
loop_
_atom_site_type_symbol
_atom_site_label
_atom_site_fract_x
_atom_site_fract_y
_atom_site_fract_z
Si Si1 0.098556 0.174743 0.120668
Si Si2 0.981777 0.173163 0.601211
Si Si3 0.188425 0.326616 0.233748
Si Si4 0.996841 0.322966 0.212502
Si Si5 0.142259 0.172226 0.409476
Si Si6 0.903440 0.826333 0.099301
Si Si7 0.688485 0.672636 0.418486
Si Si8 0.811573 0.326989 0.203041
O O1 0.155040 0.233479 0.157718
O O2 0.051595 0.258663 0.173460
O O3 0.093752 0.000000 0.144632
O O4 0.094133 0.207219 0.010793
O O5 0.012603 0.265770 0.681268
O O6 0.919130 0.196057 0.615549
O O7 0.000000 0.236225 0.500000
O O8 0.998490 0.000000 0.610454
O O9 0.250000 0.302269 0.208822
O O10 0.172177 0.500000 0.227605
O O11 0.177778 0.270496 0.339441
O O12 0.999792 0.500000 0.212408
O O13 0.948136 0.272557 0.148298
O O14 0.152214 0.223343 0.516301
O O15 0.158990 0.000000 0.398734
O O16 0.845443 0.780404 0.136276
O O17 0.914266 0.000000 0.120973
O O18 0.750000 0.711617 0.436263
O O19 0.677265 0.500000 0.442837
O O20 0.673073 0.706605 0.310907
O O21 0.750000 0.289976 0.184589
O O22 0.823651 0.500000 0.179034
#
# Coordination Sequence:
#
# PCOD8214384 Si02
#       8
#     8   8   8   8   8   8   8   8
#     4  11  24  44  66  91 123 162 205 256 314 367
#     4  10  23  42  62  89 128 167 201 246 306 367
#     4  11  24  41  63  92 126 166 209 257 315 374
#     4  12  25  42  67  96 125 160 205 255 307 368
#     4  11  22  36  59  89 122 162 204 250 305 366
#     4  11  25  42  65  93 124 162 206 254 308 372
#     4   9  19  36  57  82 117 159 199 244 297 354
#     4   9  20  40  63  90 126 164 204 254 309 363
#
# _framework density 20.132363000000002
#
# number of rings (size 3 to 8) (size 9 to 14) (size 15 to 20)
#    0.000    1.500    1.250    4.125    1.750    8.250 
#    0.000    3.750    0.000    0.000    0.000    0.000 
#    0.000    0.000    0.000    0.000    0.000    0.000 
#
# Total GULP energy -794004.001369 kJ/mol
# GULP energy per Si atom -12406.312521 kJ/mol
# Density = 2.008654 g / cm^3
# Si number density = 20.132363 Si / 1000 Ang^3
#
#
#
# Elastic Constant Matrix: (Units=GPa)
#
#
# Indices 1 2 3 4 5 6 
#
# 1 77.6386 47.3060 46.4701 0.0000 0.0000 0.0000
# 2 47.3060 112.4946 75.7702 0.0000 0.0000 0.0000
# 3 46.4701 75.7702 125.4584 0.0000 0.0000 0.0000
# 4 0.0000 0.0000 0.0000 30.8740 0.0000 0.0000
# 5 0.0000 0.0000 0.0000 0.0000 26.6137 0.0000
# 6 0.0000 0.0000 0.0000 0.0000 0.0000 31.8828
#
#
#
# Elastic Compliance Matrix: (Units=1/GPa)
#
#
# Indices 1 2 3 4 5 6 
#
# 1 0.018222 -0.005254 -0.003576 0.000000 0.000000 0.000000
# 2 -0.005254 0.016500 -0.008019 0.000000 0.000000 0.000000
# 3 -0.003576 -0.008019 0.014139 0.000000 0.000000 0.000000
# 4 0.000000 0.000000 0.000000 0.032390 0.000000 0.000000
# 5 0.000000 0.000000 0.000000 0.000000 0.037575 0.000000
# 6 0.000000 0.000000 0.000000 0.000000 0.000000 0.031365
#
#
# Mechanical properties :
#
#
# Convention : Reuss Voigt Hill
#
# Bulk Modulus (GPa) = 65.95484 72.74269 69.34877
# Shear Modulus (GPa) = 26.46315 27.61045 27.03680
#
# Velocity S-wave (km/s) = 3.62948 3.70732 3.66861
# Velocity P-wave (km/s) = 7.09901 7.38487 7.24335
#
# Compressibility (1/GPa) = 0.01516189
#
# Stress axis : x y z
#
# Youngs Moduli (GPa) = 54.87858 60.60696 70.72866
#
# Poissons Ratio (x) = 0.31841 0.25296
# Poissons Ratio (y) = 0.28832 0.56717
# Poissons Ratio (z) = 0.19627 0.48601
#
# Static dielectric constant tensor:
#      x y z
#    x 3.625600 0.000000 0.000000 
#    y 0.000000 3.655280 0.000000 
#    z 0.000000 0.000000 3.745470 
# 
# 
# High freq. dielectric constant tensor:
#      x y z
#    x 1.789930 0.000000 0.000000 
#    y 0.000000 1.789150 0.000000 
#    z 0.000000 0.000000 1.796820 
# 
# From -- ./inp_files/26296.got.cif
#   From: 2010.03.12/outbox.cif.g09.slc.cpg/sg51_14_cif.got.tgz:26296.got - 2010.04.16 13:43:02.
