data_PCOD8214623
_publ_section_title
;
Structure prediction by ZEFSAII (Michael W. Deem and Ramdas Pophale) SiO2 
 PCOD8214623
Probable space group: P M M A
;
_chemical_formula_sum "Si O2"
_cell_formula_units_Z 40
_cell_length_a 8.751528
_cell_length_b 25.845849
_cell_length_c 9.444168
_cell_angle_alpha 90.000000
_cell_angle_beta 90.000000
_cell_angle_gamma 90.000000
_cell_volume 2136.182699
_symmetry_space_group_name_H-M "P M M A"
_symmetry_group_IT_number 51
_symmetry_cell_setting 'orthorhombic'
loop_
_space_group_symop_operation_xyz
x,y,z
1/2-x,-y,z
1/2+x,-y,-z
-x,y,-z
-x,-y,-z
1/2+x,y,-z
1/2-x,y,z
x,-y,z
loop_
_atom_site_type_symbol
_atom_site_label
_atom_site_fract_x
_atom_site_fract_y
_atom_site_fract_z
Si Si1 0.928505 0.316155 0.352326
Si Si2 0.068915 0.409255 0.843780
Si Si3 0.571592 0.000000 0.152292
Si Si4 0.567438 0.500000 0.657557
Si Si5 0.569008 0.799657 0.352184
Si Si6 0.569561 0.111082 0.153589
O O1 0.750000 0.316576 0.379702
O O2 0.972042 0.353361 0.222135
O O3 0.985808 0.258429 0.311583
O O4 0.000000 0.335630 0.500000
O O5 0.250000 0.419303 0.850565
O O6 0.990594 0.450316 0.741616
O O7 0.000000 0.413160 0.000000
O O8 0.525328 0.054899 0.226340
O O9 0.750000 0.000000 0.128048
O O10 0.500000 0.000000 0.000000
O O11 0.750000 0.500000 0.649306
O O12 0.500000 0.500000 0.500000
O O13 0.500000 0.816539 0.500000
O O14 0.750000 0.802572 0.360558
O O15 0.501469 0.841284 0.242454
O O16 0.750000 0.116816 0.141469
O O17 0.500000 0.115324 0.000000
#
# Coordination Sequence:
#
# PCOD8214623 Si02
#       6
#     8   8   4   4   8   8
#     4   9  19  35  55  76 101 134 173 211 252 303
#     4  11  23  39  58  83 113 143 175 216 262 307
#     4   8  14  26  43  64  90 124 160 200 247 296
#     4  12  25  42  63  86 112 144 180 216 255 306
#     4   9  18  33  50  71  99 132 167 207 252 302
#     4   9  17  29  47  69  95 125 163 206 250 299
#
# _framework density 18.724989999999998
#
# number of rings (size 3 to 8) (size 9 to 14) (size 15 to 20)
#    0.000    2.400    0.000    2.400    0.000    4.800 
#    0.000    0.500    0.000    0.000    0.000    0.000 
#    0.000    0.000    0.000    0.000    0.000    0.000 
#
# Total GULP energy -495664.482069 kJ/mol
# GULP energy per Si atom -12391.612052 kJ/mol
# Density = 1.868237 g / cm^3
# Si number density = 18.724990 Si / 1000 Ang^3
#
#
#
# Elastic Constant Matrix: (Units=GPa)
#
#
# Indices 1 2 3 4 5 6 
#
# 1 51.2316 45.0827 42.1900 0.0000 0.0000 0.0000
# 2 45.0827 155.0967 92.7785 0.0000 0.0000 0.0000
# 3 42.1900 92.7785 135.6997 0.0000 0.0000 0.0000
# 4 0.0000 0.0000 0.0000 37.5602 0.0000 0.0000
# 5 0.0000 0.0000 0.0000 0.0000 31.7076 0.0000
# 6 0.0000 0.0000 0.0000 0.0000 0.0000 36.4363
#
#
#
# Elastic Compliance Matrix: (Units=1/GPa)
#
#
# Indices 1 2 3 4 5 6 
#
# 1 0.028378 -0.005027 -0.005386 0.000000 0.000000 0.000000
# 2 -0.005027 0.011800 -0.006505 0.000000 0.000000 0.000000
# 3 -0.005386 -0.006505 0.013491 0.000000 0.000000 0.000000
# 4 0.000000 0.000000 0.000000 0.026624 0.000000 0.000000
# 5 0.000000 0.000000 0.000000 0.000000 0.031538 0.000000
# 6 0.000000 0.000000 0.000000 0.000000 0.000000 0.027445
#
#
# Mechanical properties :
#
#
# Convention : Reuss Voigt Hill
#
# Bulk Modulus (GPa) = 50.41894 78.01449 64.21671
# Shear Modulus (GPa) = 27.82052 31.93926 29.87989
#
# Velocity S-wave (km/s) = 3.85872 4.13450 3.99898
# Velocity P-wave (km/s) = 6.84378 8.03404 7.46268
#
# Compressibility (1/GPa) = 0.01983382
#
# Stress axis : x y z
#
# Youngs Moduli (GPa) = 35.23820 84.74633 74.12277
#
# Poissons Ratio (x) = 0.42601 0.39923
# Poissons Ratio (y) = 0.17714 0.48215
# Poissons Ratio (z) = 0.18980 0.55125
#
# Static dielectric constant tensor:
#      x y z
#    x 3.409360 0.000000 0.000000 
#    y 0.000000 4.328330 0.000000 
#    z 0.000000 0.000000 3.306910 
# 
# 
# High freq. dielectric constant tensor:
#      x y z
#    x 1.723520 0.000000 0.000000 
#    y 0.000000 1.753130 0.000000 
#    z 0.000000 0.000000 1.708350 
# 
# From -- ./inp_files/5565.got.cif
#   From: 2010.03.12/outbox.cif.g09.slc.cpg/sg51_3_cif.got.tgz:5565.got - 2010.04.16 13:43:02.
