data_PCOD8214042
_publ_section_title
;
Structure prediction by ZEFSAII (Michael W. Deem and Ramdas Pophale) SiO2 
 PCOD8214042
Probable space group: P M M A
;
_chemical_formula_sum "Si O2"
_cell_formula_units_Z 40
_cell_length_a 8.911398
_cell_length_b 15.805329
_cell_length_c 14.558329
_cell_angle_alpha 90.000000
_cell_angle_beta 90.000000
_cell_angle_gamma 90.000000
_cell_volume 2050.505368
_symmetry_space_group_name_H-M "P M M A"
_symmetry_group_IT_number 51
_symmetry_cell_setting 'orthorhombic'
loop_
_space_group_symop_operation_xyz
x,y,z
1/2-x,-y,z
1/2+x,-y,-z
-x,y,-z
-x,-y,-z
1/2+x,y,-z
1/2-x,y,z
x,-y,z
loop_
_atom_site_type_symbol
_atom_site_label
_atom_site_fract_x
_atom_site_fract_y
_atom_site_fract_z
Si Si1 0.584307 0.837977 0.920569
Si Si2 0.577780 0.599472 0.096060
Si Si3 0.926044 0.000000 0.137598
Si Si4 0.570720 0.184780 0.404476
Si Si5 0.580285 0.714785 0.757627
Si Si6 0.071978 0.000000 0.658592
O O1 0.750000 0.862157 0.953277
O O2 0.588334 0.794531 0.823421
O O3 0.480880 0.919516 0.916638
O O4 0.500000 0.781859 0.000000
O O5 0.750000 0.629823 0.090678
O O6 0.565406 0.500000 0.111536
O O7 0.499991 0.639828 0.186080
O O8 0.500000 0.625349 0.000000
O O9 0.750000 0.000000 0.145394
O O10 0.996292 0.000000 0.239611
O O11 0.500000 0.214910 0.500000
O O12 0.750000 0.190010 0.406270
O O13 0.512322 0.253171 0.330268
O O14 0.515316 0.087475 0.388325
O O15 0.750000 0.686809 0.729790
O O16 0.250000 0.000000 0.659122
#
# Coordination Sequence:
#
# PCOD8214042 Si02
#       6
#     8   8   4   8   8   4
#     4  11  23  36  51  75 107 146 189 232 279 333
#     4  10  21  38  62  92 124 157 191 230 279 338
#     4  11  20  35  54  73 102 144 190 233 282 335
#     4  11  22  39  60  85 115 150 194 244 296 347
#     4  11  23  38  58  85 115 150 191 236 287 340
#     4   9  19  35  57  81 107 147 193 242 296 343
#
# _framework density 19.507387000000001
#
# number of rings (size 3 to 8) (size 9 to 14) (size 15 to 20)
#    0.000    1.400    2.000    3.900    0.000    5.200 
#    0.000    1.500    0.000    0.600    0.000    0.000 
#    0.000    0.000    0.000    0.000    0.000    0.000 
#
# Total GULP energy -495770.439864 kJ/mol
# GULP energy per Si atom -12394.260997 kJ/mol
# Density = 1.946299 g / cm^3
# Si number density = 19.507387 Si / 1000 Ang^3
#
#
#
# Elastic Constant Matrix: (Units=GPa)
#
#
# Indices 1 2 3 4 5 6 
#
# 1 139.9064 41.8529 60.9792 0.0000 0.0000 0.0000
# 2 41.8529 72.9981 33.9174 0.0000 0.0000 0.0000
# 3 60.9792 33.9174 141.8143 0.0000 0.0000 0.0000
# 4 0.0000 0.0000 0.0000 27.6760 0.0000 0.0000
# 5 0.0000 0.0000 0.0000 0.0000 35.8680 0.0000
# 6 0.0000 0.0000 0.0000 0.0000 0.0000 28.0812
#
#
#
# Elastic Compliance Matrix: (Units=1/GPa)
#
#
# Indices 1 2 3 4 5 6 
#
# 1 0.009782 -0.004111 -0.003223 0.000000 0.000000 0.000000
# 2 -0.004111 0.017139 -0.002331 0.000000 0.000000 0.000000
# 3 -0.003223 -0.002331 0.008995 0.000000 0.000000 0.000000
# 4 0.000000 0.000000 0.000000 0.036132 0.000000 0.000000
# 5 0.000000 0.000000 0.000000 0.000000 0.027880 0.000000
# 6 0.000000 0.000000 0.000000 0.000000 0.000000 0.035611
#
#
# Mechanical properties :
#
#
# Convention : Reuss Voigt Hill
#
# Bulk Modulus (GPa) = 60.29395 69.80196 65.04796
# Shear Modulus (GPa) = 31.17216 32.85632 32.01424
#
# Velocity S-wave (km/s) = 4.00179 4.10848 4.05549
# Velocity P-wave (km/s) = 7.23380 7.63977 7.43955
#
# Compressibility (1/GPa) = 0.01658541
#
# Stress axis : x y z
#
# Youngs Moduli (GPa) = 102.22604 58.34550 111.17302
#
# Poissons Ratio (x) = 0.23986 0.35832
# Poissons Ratio (y) = 0.42025 0.25920
# Poissons Ratio (z) = 0.32948 0.13603
#
# Static dielectric constant tensor:
#      x y z
#    x 3.759670 0.000000 0.000000 
#    y 0.000000 3.452990 0.000000 
#    z 0.000000 0.000000 3.643770 
# 
# 
# High freq. dielectric constant tensor:
#      x y z
#    x 1.769520 0.000000 0.000000 
#    y 0.000000 1.743140 0.000000 
#    z 0.000000 0.000000 1.762610 
# 
# From -- ./inp_files/20540.got.cif
#   From: 2010.03.12/outbox.cif.g09.slc.cpg/sg51_11_cif.got.tgz:20540.got - 2010.04.16 13:43:02.
