data_PCOD8214513
_publ_section_title
;
Structure prediction by ZEFSAII (Michael W. Deem and Ramdas Pophale) SiO2 
 PCOD8214513
Probable space group: P M M A
;
_chemical_formula_sum "Si O2"
_cell_formula_units_Z 48
_cell_length_a 16.848480
_cell_length_b 14.145094
_cell_length_c 9.854705
_cell_angle_alpha 90.000000
_cell_angle_beta 90.000000
_cell_angle_gamma 90.000000
_cell_volume 2348.606145
_symmetry_space_group_name_H-M "P M M A"
_symmetry_group_IT_number 51
_symmetry_cell_setting 'orthorhombic'
loop_
_space_group_symop_operation_xyz
x,y,z
1/2-x,-y,z
1/2+x,-y,-z
-x,y,-z
-x,-y,-z
1/2+x,y,-z
1/2-x,y,z
x,-y,z
loop_
_atom_site_type_symbol
_atom_site_label
_atom_site_fract_x
_atom_site_fract_y
_atom_site_fract_z
Si Si1 0.911485 0.000000 0.336579
Si Si2 0.901082 0.000000 0.639987
Si Si3 0.844447 0.500000 0.890603
Si Si4 0.840425 0.702079 0.976225
Si Si5 0.600130 0.199646 0.722970
Si Si6 0.843659 0.500000 0.585532
Si Si7 0.084404 0.201123 0.777468
Si Si8 0.343823 0.302912 0.531706
O O1 0.869019 0.000000 0.484349
O O2 0.886318 0.906058 0.253061
O O3 0.004341 0.000000 0.362871
O O4 0.871159 0.909139 0.723134
O O5 0.750000 0.500000 0.878606
O O6 0.880680 0.500000 0.737698
O O7 0.872331 0.593610 0.972394
O O8 0.750000 0.704790 0.027311
O O9 0.893610 0.769262 0.069935
O O10 0.844013 0.741562 0.823073
O O11 0.509260 0.210609 0.765019
O O12 0.609926 0.234375 0.569744
O O13 0.750000 0.500000 0.599869
O O14 0.871895 0.590717 0.500526
O O15 0.129037 0.276091 0.682084
O O16 0.250000 0.290471 0.515548
#
# Coordination Sequence:
#
# PCOD8214513 Si02
#       8
#     4   4   4   8   8   4   8   8
#     4   9  18  37  60  83 119 161 190 228 297 366
#     4   9  18  35  62  87 113 157 202 230 279 364
#     4   9  18  37  62  82 111 162 202 230 287 364
#     4  11  23  41  62  86 119 157 199 243 293 353
#     4  11  21  39  63  88 115 156 203 242 282 348
#     4   9  18  35  60  86 115 156 198 234 287 360
#     4  11  23  39  60  90 122 154 192 244 301 346
#     4  11  21  37  61  88 117 153 197 241 290 348
#
# _framework density 20.437653000000001
#
# number of rings (size 3 to 8) (size 9 to 14) (size 15 to 20)
#    0.000    1.667    3.333    2.000    0.000    1.333 
#    0.000   15.000    0.000    0.000    0.000    0.000 
#    0.000    0.000    0.000    0.000    0.000    0.000 
#
# Total GULP energy -595259.854476 kJ/mol
# GULP energy per Si atom -12401.246968 kJ/mol
# Density = 2.039114 g / cm^3
# Si number density = 20.437653 Si / 1000 Ang^3
#
#
#
# Elastic Constant Matrix: (Units=GPa)
#
#
# Indices 1 2 3 4 5 6 
#
# 1 37.7350 26.3693 7.9905 0.0000 0.0000 0.0000
# 2 26.3693 167.2657 36.9760 0.0000 0.0000 0.0000
# 3 7.9905 36.9760 72.8607 0.0000 0.0000 0.0000
# 4 0.0000 0.0000 0.0000 43.5258 0.0000 0.0000
# 5 0.0000 0.0000 0.0000 0.0000 30.5230 0.0000
# 6 0.0000 0.0000 0.0000 0.0000 0.0000 21.9621
#
#
#
# Elastic Compliance Matrix: (Units=1/GPa)
#
#
# Indices 1 2 3 4 5 6 
#
# 1 0.029846 -0.004485 -0.000997 0.000000 0.000000 0.000000
# 2 -0.004485 0.007408 -0.003268 0.000000 0.000000 0.000000
# 3 -0.000997 -0.003268 0.015492 0.000000 0.000000 0.000000
# 4 0.000000 0.000000 0.000000 0.022975 0.000000 0.000000
# 5 0.000000 0.000000 0.000000 0.000000 0.032762 0.000000
# 6 0.000000 0.000000 0.000000 0.000000 0.000000 0.045533
#
#
# Mechanical properties :
#
#
# Convention : Reuss Voigt Hill
#
# Bulk Modulus (GPa) = 28.37115 46.72589 37.54852
# Shear Modulus (GPa) = 27.28304 32.97055 30.12680
#
# Velocity S-wave (km/s) = 3.65765 4.02086 3.84354
# Velocity P-wave (km/s) = 5.63469 6.66848 6.17327
#
# Compressibility (1/GPa) = 0.03524707
#
# Stress axis : x y z
#
# Youngs Moduli (GPa) = 33.50568 134.99181 64.54760
#
# Poissons Ratio (x) = 0.60540 0.06436
# Poissons Ratio (y) = 0.15026 0.21091
# Poissons Ratio (z) = 0.03341 0.44110
#
# Static dielectric constant tensor:
#      x y z
#    x 3.301940 0.000000 0.000000 
#    y 0.000000 4.097160 0.000000 
#    z 0.000000 0.000000 3.627670 
# 
# 
# High freq. dielectric constant tensor:
#      x y z
#    x 1.770010 0.000000 0.000000 
#    y 0.000000 1.816450 0.000000 
#    z 0.000000 0.000000 1.793760 
# 
# From -- ./inp_files/9740.got.cif
#   From: 2010.03.12/outbox.cif.g09.slc.cpg/sg51_5_cif.got.tgz:9740.got - 2010.04.16 13:43:02.
