data_PCOD8214036
_publ_section_title
;
Structure prediction by ZEFSAII (Michael W. Deem and Ramdas Pophale) SiO2 
 PCOD8214036
Probable space group: P M M A
;
_chemical_formula_sum "Si O2"
_cell_formula_units_Z 52
_cell_length_a 8.643290
_cell_length_b 15.862793
_cell_length_c 17.835623
_cell_angle_alpha 90.000000
_cell_angle_beta 90.000000
_cell_angle_gamma 90.000000
_cell_volume 2445.383771
_symmetry_space_group_name_H-M "P M M A"
_symmetry_group_IT_number 51
_symmetry_cell_setting 'orthorhombic'
loop_
_space_group_symop_operation_xyz
x,y,z
1/2-x,-y,z
1/2+x,-y,-z
-x,y,-z
-x,-y,-z
1/2+x,y,-z
1/2-x,y,z
x,-y,z
loop_
_atom_site_type_symbol
_atom_site_label
_atom_site_fract_x
_atom_site_fract_y
_atom_site_fract_z
Si Si1 0.069135 0.156010 0.578893
Si Si2 0.575522 0.591109 0.569929
Si Si3 0.570092 0.000000 0.656808
Si Si4 0.573325 0.720470 0.691127
Si Si5 0.933053 0.852208 0.920526
Si Si6 0.568093 0.326095 0.856529
Si Si7 0.932806 0.000000 0.178828
Si Si8 0.432833 0.500000 0.917412
O O1 0.250000 0.135974 0.570456
O O2 0.000000 0.189322 0.500000
O O3 0.970864 0.076327 0.603107
O O4 0.044835 0.221012 0.646641
O O5 0.500000 0.642541 0.500000
O O6 0.750000 0.581921 0.545505
O O7 0.493810 0.500000 0.577120
O O8 0.562146 0.631235 0.650960
O O9 0.750000 0.000000 0.678493
O O10 0.472614 0.000000 0.733388
O O11 0.750000 0.756511 0.689737
O O12 0.515278 0.704995 0.774814
O O13 0.750000 0.863056 0.919366
O O14 0.978560 0.753549 0.908676
O O15 0.000317 0.914306 0.857334
O O16 0.000000 0.881632 0.000000
O O17 0.750000 0.344499 0.859713
O O18 0.484441 0.413481 0.877004
O O19 0.750000 0.000000 0.168269
O O20 0.250000 0.500000 0.921666
O O21 0.500000 0.500000 0.000000
#
# Coordination Sequence:
#
# PCOD8214036 Si02
#       8
#     8   8   4   8   8   8   4   4
#     4  12  25  42  64  92 128 169 216 265 317 374
#     4   9  18  32  52  79 111 152 198 245 297 354
#     4  12  25  44  67  92 126 164 210 262 317 378
#     4  10  21  38  62  90 122 161 208 257 313 371
#     4  11  23  41  65  95 129 171 218 267 323 387
#     4  10  23  42  67  95 128 168 213 267 328 388
#     4  12  25  42  67 100 136 172 210 262 323 388
#     4  12  26  44  68  96 129 168 215 268 326 392
#
# _framework density 21.264557
#
# number of rings (size 3 to 8) (size 9 to 14) (size 15 to 20)
#    0.000    1.231    0.000    6.231    1.077    6.154 
#    0.000    0.000    0.000    0.000    0.000    0.000 
#    0.000    0.000    0.000    0.000    0.000    0.000 
#
# Total GULP energy -644580.320194 kJ/mol
# GULP energy per Si atom -12395.775388 kJ/mol
# Density = 2.121616 g / cm^3
# Si number density = 21.264557 Si / 1000 Ang^3
#
#
#
# Elastic Constant Matrix: (Units=GPa)
#
#
# Indices 1 2 3 4 5 6 
#
# 1 108.4399 48.7647 36.6948 0.0000 0.0000 0.0000
# 2 48.7647 117.8414 32.1003 0.0000 0.0000 0.0000
# 3 36.6948 32.1003 121.5125 0.0000 0.0000 0.0000
# 4 0.0000 0.0000 0.0000 28.1326 0.0000 0.0000
# 5 0.0000 0.0000 0.0000 0.0000 34.1879 0.0000
# 6 0.0000 0.0000 0.0000 0.0000 0.0000 33.1160
#
#
#
# Elastic Compliance Matrix: (Units=1/GPa)
#
#
# Indices 1 2 3 4 5 6 
#
# 1 0.011990 -0.004284 -0.002489 0.000000 0.000000 0.000000
# 2 -0.004284 0.010674 -0.001526 0.000000 0.000000 0.000000
# 3 -0.002489 -0.001526 0.009385 0.000000 0.000000 0.000000
# 4 0.000000 0.000000 0.000000 0.035546 0.000000 0.000000
# 5 0.000000 0.000000 0.000000 0.000000 0.029250 0.000000
# 6 0.000000 0.000000 0.000000 0.000000 0.000000 0.030197
#
#
# Mechanical properties :
#
#
# Convention : Reuss Voigt Hill
#
# Bulk Modulus (GPa) = 64.72156 64.76815 64.74486
# Shear Modulus (GPa) = 33.60417 34.43624 34.02021
#
# Velocity S-wave (km/s) = 3.97960 4.02857 4.00416
# Velocity P-wave (km/s) = 7.18462 7.22243 7.20355
#
# Compressibility (1/GPa) = 0.01545080
#
# Stress axis : x y z
#
# Youngs Moduli (GPa) = 83.40004 93.68190 106.55846
#
# Poissons Ratio (x) = 0.40131 0.26525
# Poissons Ratio (y) = 0.35726 0.16264
# Poissons Ratio (z) = 0.20760 0.14298
#
# Static dielectric constant tensor:
#      x y z
#    x 3.805110 0.000000 0.000000 
#    y 0.000000 1.585460 0.000000 
#    z 0.000000 0.000000 3.985400 
# 
# 
# High freq. dielectric constant tensor:
#      x y z
#    x 1.829770 0.000000 0.000000 
#    y 0.000000 1.846500 0.000000 
#    z 0.000000 0.000000 1.847070 
# 
# From -- ./inp_files/28017.got.cif
#   From: 2010.03.12/outbox.cif.g09.slc.cpg/sg51_15_cif.got.tgz:28017.got - 2010.04.16 13:43:02.
