data_PCOD8214706
_publ_section_title
;
Structure prediction by ZEFSAII (Michael W. Deem and Ramdas Pophale) SiO2 
 PCOD8214706
Probable space group: P M M A
;
_chemical_formula_sum "Si O2"
_cell_formula_units_Z 48
_cell_length_a 9.577190
_cell_length_b 9.803870
_cell_length_c 31.137464
_cell_angle_alpha 90.000000
_cell_angle_beta 90.000000
_cell_angle_gamma 90.000000
_cell_volume 2923.606277
_symmetry_space_group_name_H-M "P M M A"
_symmetry_group_IT_number 51
_symmetry_cell_setting 'orthorhombic'
loop_
_space_group_symop_operation_xyz
x,y,z
1/2-x,-y,z
1/2+x,-y,-z
-x,y,-z
-x,-y,-z
1/2+x,y,-z
1/2-x,y,z
x,-y,z
loop_
_atom_site_type_symbol
_atom_site_label
_atom_site_fract_x
_atom_site_fract_y
_atom_site_fract_z
Si Si1 0.908591 0.162632 0.039995
Si Si2 0.407143 0.837854 0.117744
Si Si3 0.405966 0.837779 0.212934
Si Si4 0.595124 0.162362 0.288379
Si Si5 0.087614 0.657704 0.541272
Si Si6 0.083713 0.848038 0.617534
O O1 0.750000 0.219420 0.037273
O O2 0.982836 0.219822 0.083102
O O3 0.905228 0.000000 0.040148
O O4 0.000000 0.216189 0.000000
O O5 0.250000 0.783882 0.107971
O O6 0.455945 0.790986 0.165409
O O7 0.404262 0.000000 0.115254
O O8 0.250000 0.784061 0.221097
O O9 0.502627 0.773771 0.250115
O O10 0.409548 0.000000 0.215560
O O11 0.750000 0.223783 0.282986
O O12 0.531538 0.200955 0.335266
O O13 0.601141 0.000000 0.285037
O O14 0.250000 0.687926 0.532130
O O15 0.062048 0.500000 0.552215
O O16 0.029672 0.743981 0.581463
O O17 0.000000 0.703670 0.500000
O O18 0.250000 0.850972 0.618944
O O19 0.026982 0.000000 0.606916
#
# Coordination Sequence:
#
# PCOD8214706 Si02
#       6
#     8   8   8   8   8   8
#     4   9  15  20  25  32  42  58  83 118 159 200
#     4   8  13  20  27  34  46  65  88 114 149 195
#     4   8  13  20  29  41  58  78  97 122 160 202
#     4   8  13  21  33  47  62  82 107 132 160 199
#     4   9  17  29  44  60  78 101 128 156 186 221
#     4   8  14  25  40  57  77 100 124 151 185 223
#
# _framework density 16.41808
#
# number of rings (size 3 to 8) (size 9 to 14) (size 15 to 20)
#    0.000    3.667    0.000    2.500    0.000    3.000 
#    0.000    4.167    0.000    1.000    0.000    0.000 
#    0.000    0.000    0.000    0.000    0.000    0.000 
#
# Total GULP energy -594748.915142 kJ/mol
# GULP energy per Si atom -12390.602399 kJ/mol
# Density = 1.638071 g / cm^3
# Si number density = 16.418080 Si / 1000 Ang^3
#
#
#
# Elastic Constant Matrix: (Units=GPa)
#
#
# Indices 1 2 3 4 5 6 
#
# 1 88.1254 16.4531 83.1532 0.0000 0.0000 0.0000
# 2 16.4531 18.2145 33.2677 0.0000 0.0000 0.0000
# 3 83.1532 33.2677 183.5396 0.0000 0.0000 0.0000
# 4 0.0000 0.0000 0.0000 0.8930 0.0000 0.0000
# 5 0.0000 0.0000 0.0000 0.0000 33.8795 0.0000
# 6 0.0000 0.0000 0.0000 0.0000 0.0000 5.3557
#
#
#
# Elastic Compliance Matrix: (Units=1/GPa)
#
#
# Indices 1 2 3 4 5 6 
#
# 1 0.019882 -0.002254 -0.008599 0.000000 0.000000 0.000000
# 2 -0.002254 0.082327 -0.013901 0.000000 0.000000 0.000000
# 3 -0.008599 -0.013901 0.011864 0.000000 0.000000 0.000000
# 4 0.000000 0.000000 0.000000 1.119760 0.000000 0.000000
# 5 0.000000 0.000000 0.000000 0.000000 0.029516 0.000000
# 6 0.000000 0.000000 0.000000 0.000000 0.000000 0.186716
#
#
# Mechanical properties :
#
#
# Convention : Reuss Voigt Hill
#
# Bulk Modulus (GPa) = 15.48828 61.73641 38.61234
# Shear Modulus (GPa) = 3.28711 18.49268 10.88989
#
# Velocity S-wave (km/s) = 1.41650 3.35977 2.57823
# Velocity P-wave (km/s) = 3.48274 7.26189 5.69493
#
# Compressibility (1/GPa) = 0.06456496
#
# Stress axis : x y z
#
# Youngs Moduli (GPa) = 50.29605 12.14670 84.28839
#
# Poissons Ratio (x) = 0.02737 0.72482
# Poissons Ratio (y) = 0.11335 1.17172
# Poissons Ratio (z) = 0.43251 0.16885
#
# Static dielectric constant tensor:
#      x y z
#    x 3.165740 0.000000 0.000000 
#    y 0.000000 2.444770 0.000000 
#    z 0.000000 0.000000 3.542340 
# 
# 
# High freq. dielectric constant tensor:
#      x y z
#    x 1.617920 0.000000 0.000000 
#    y 0.000000 1.546180 0.000000 
#    z 0.000000 0.000000 1.651220 
# 
# From -- ./inp_files/37302.got.cif
#   From: 2010.03.12/outbox.cif.g09.slc.cpg/sg51_19_cif.got.tgz:37302.got - 2010.04.16 13:43:02.
