data_PCOD8214332
_publ_section_title
;
Structure prediction by ZEFSAII (Michael W. Deem and Ramdas Pophale) SiO2 
 PCOD8214332
Probable space group: P M M A
;
_chemical_formula_sum "Si O2"
_cell_formula_units_Z 40
_cell_length_a 16.260384
_cell_length_b 8.820029
_cell_length_c 13.858304
_cell_angle_alpha 90.000000
_cell_angle_beta 90.000000
_cell_angle_gamma 90.000000
_cell_volume 1987.517195
_symmetry_space_group_name_H-M "P M M A"
_symmetry_group_IT_number 51
_symmetry_cell_setting 'orthorhombic'
loop_
_space_group_symop_operation_xyz
x,y,z
1/2-x,-y,z
1/2+x,-y,-z
-x,y,-z
-x,-y,-z
1/2+x,y,-z
1/2-x,y,z
x,-y,z
loop_
_atom_site_type_symbol
_atom_site_label
_atom_site_fract_x
_atom_site_fract_y
_atom_site_fract_z
Si Si1 0.897502 0.176217 0.138229
Si Si2 0.943939 0.323308 0.777465
Si Si3 0.155526 0.827710 0.070159
Si Si4 0.250000 0.319077 0.532968
Si Si5 0.079773 0.679292 0.442912
Si Si6 0.250000 0.678339 0.750401
O O1 0.830842 0.270589 0.195469
O O2 0.985356 0.218966 0.179484
O O3 0.878667 0.000000 0.153691
O O4 0.896291 0.216616 0.024843
O O5 0.967122 0.500000 0.783671
O O6 0.864282 0.286528 0.842293
O O7 0.926866 0.273195 0.668328
O O8 0.250000 0.808496 0.041667
O O9 0.135796 0.000000 0.102110
O O10 0.250000 0.500000 0.527521
O O11 0.333471 0.255177 0.482875
O O12 0.250000 0.257041 0.641891
O O13 0.080477 0.500000 0.455625
O O14 0.000000 0.745605 0.500000
O O15 0.250000 0.500000 0.745532
#
# Coordination Sequence:
#
# PCOD8214332 Si02
#       6
#     8   8   8   4   8   4
#     4  11  22  40  61  83 117 163 200 230 290 368
#     4  11  23  36  59  92 119 148 197 253 296 331
#     4  10  22  41  60  81 115 162 201 229 285 367
#     4   9  18  33  56  83 116 156 191 237 306 365
#     4   9  18  34  55  83 119 154 192 239 296 360
#     4  11  21  35  62  93 116 144 197 259 300 331
#
# _framework density 20.125612
#
# number of rings (size 3 to 8) (size 9 to 14) (size 15 to 20)
#    0.000    1.800    1.000    3.300    1.400    7.600 
#    0.000    0.000    0.000   13.200    0.000    0.000 
#    0.000    0.000    0.000    0.000    0.000    0.000 
#
# Total GULP energy -496071.244382 kJ/mol
# GULP energy per Si atom -12401.781110 kJ/mol
# Density = 2.007980 g / cm^3
# Si number density = 20.125612 Si / 1000 Ang^3
#
#
#
# Elastic Constant Matrix: (Units=GPa)
#
#
# Indices 1 2 3 4 5 6 
#
# 1 117.4829 14.5632 58.8677 0.0000 0.0000 0.0000
# 2 14.5632 36.1257 40.2031 0.0000 0.0000 0.0000
# 3 58.8677 40.2031 160.1046 0.0000 0.0000 0.0000
# 4 0.0000 0.0000 0.0000 2.2285 0.0000 0.0000
# 5 0.0000 0.0000 0.0000 0.0000 51.8364 0.0000
# 6 0.0000 0.0000 0.0000 0.0000 0.0000 28.1335
#
#
#
# Elastic Compliance Matrix: (Units=1/GPa)
#
#
# Indices 1 2 3 4 5 6 
#
# 1 0.010434 0.000088 -0.003859 0.000000 0.000000 0.000000
# 2 0.000088 0.038417 -0.009679 0.000000 0.000000 0.000000
# 3 -0.003859 -0.009679 0.010095 0.000000 0.000000 0.000000
# 4 0.000000 0.000000 0.000000 0.448726 0.000000 0.000000
# 5 0.000000 0.000000 0.000000 0.000000 0.019291 0.000000
# 6 0.000000 0.000000 0.000000 0.000000 0.000000 0.035545
#
#
# Mechanical properties :
#
#
# Convention : Reuss Voigt Hill
#
# Bulk Modulus (GPa) = 31.20424 60.10901 45.65663
# Shear Modulus (GPa) = 8.33207 29.77831 19.05519
#
# Velocity S-wave (km/s) = 2.03691 3.85076 3.08037
# Velocity P-wave (km/s) = 4.59025 7.05003 5.94867
#
# Compressibility (1/GPa) = 0.03204693
#
# Stress axis : x y z
#
# Youngs Moduli (GPa) = 95.83647 26.03005 99.05811
#
# Poissons Ratio (x) = -0.00228 0.38222
# Poissons Ratio (y) = -0.00840 0.95878
# Poissons Ratio (z) = 0.36979 0.25194
#
# Static dielectric constant tensor:
#      x y z
#    x 7.698380 0.000000 0.000000 
#    y 0.000000 3.311280 0.000000 
#    z 0.000000 0.000000 3.826920 
# 
# 
# High freq. dielectric constant tensor:
#      x y z
#    x 1.800770 0.000000 0.000000 
#    y 0.000000 1.752260 0.000000 
#    z 0.000000 0.000000 1.799210 
# 
# From -- ./inp_files/23778.got.cif
#   From: 2010.03.12/outbox.cif.g09.slc.cpg/sg51_12_cif.got.tgz:23778.got - 2010.04.16 13:43:02.
