data_PCOD8214803
_publ_section_title
;
Structure prediction by ZEFSAII (Michael W. Deem and Ramdas Pophale) SiO2 
 PCOD8214803
Probable space group: P M M A
;
_chemical_formula_sum "Si O2"
_cell_formula_units_Z 36
_cell_length_a 21.710648
_cell_length_b 9.586135
_cell_length_c 10.858839
_cell_angle_alpha 90.000000
_cell_angle_beta 90.000000
_cell_angle_gamma 90.000000
_cell_volume 2259.954632
_symmetry_space_group_name_H-M "P M M A"
_symmetry_group_IT_number 51
_symmetry_cell_setting 'orthorhombic'
loop_
_space_group_symop_operation_xyz
x,y,z
1/2-x,-y,z
1/2+x,-y,-z
-x,y,-z
-x,-y,-z
1/2+x,y,-z
1/2-x,y,z
x,-y,z
loop_
_atom_site_type_symbol
_atom_site_label
_atom_site_fract_x
_atom_site_fract_y
_atom_site_fract_z
Si Si1 0.913569 0.154945 0.305315
Si Si2 0.000000 0.750104 0.500000
Si Si3 0.494218 0.336101 0.859015
Si Si4 0.902669 0.345146 0.672795
Si Si5 0.679219 0.836334 0.511500
O O1 0.969878 0.147016 0.400940
O O2 0.933572 0.259787 0.196390
O O3 0.853534 0.207201 0.382293
O O4 0.902369 0.000000 0.250605
O O5 0.049516 0.647136 0.439801
O O6 0.482360 0.500000 0.842765
O O7 0.558833 0.293671 0.792962
O O8 0.500000 0.290777 0.000000
O O9 0.875182 0.500000 0.694821
O O10 0.848197 0.240190 0.632965
O O11 0.750000 0.793466 0.498672
O O12 0.669890 0.000000 0.534504
#
# Coordination Sequence:
#
# PCOD8214803 Si02
#       5
#     8   4   8   8   8
#     4   9  16  26  43  65  86 111 144 177 209 253
#     4   8  14  24  40  62  90 112 128 166 226 272
#     4   9  18  31  45  63  90 119 142 172 218 261
#     4   9  16  26  43  65  86 111 144 177 209 253
#     4   9  18  31  45  63  90 119 142 172 218 261
#
# _framework density 15.929522
#
# number of rings (size 3 to 8) (size 9 to 14) (size 15 to 20)
#    0.000    3.111    0.000    0.667    0.000   11.556 
#    0.000    0.000    0.000    1.333    0.000    6.222 
#    0.000    0.000    0.000    0.000    0.000    0.000 
#
# Total GULP energy -446011.846158 kJ/mol
# GULP energy per Si atom -12389.217949 kJ/mol
# Density = 1.589327 g / cm^3
# Si number density = 15.929522 Si / 1000 Ang^3
#
#
#
# Elastic Constant Matrix: (Units=GPa)
#
#
# Indices 1 2 3 4 5 6 
#
# 1 103.9755 40.8363 48.4804 0.0000 0.0000 0.0000
# 2 40.8363 58.8785 40.8247 0.0000 0.0000 0.0000
# 3 48.4804 40.8247 104.6050 0.0000 0.0000 0.0000
# 4 0.0000 0.0000 0.0000 20.4823 0.0000 0.0000
# 5 0.0000 0.0000 0.0000 0.0000 19.0353 0.0000
# 6 0.0000 0.0000 0.0000 0.0000 0.0000 20.1901
#
#
#
# Elastic Compliance Matrix: (Units=1/GPa)
#
#
# Indices 1 2 3 4 5 6 
#
# 1 0.014220 -0.007257 -0.003758 0.000000 0.000000 0.000000
# 2 -0.007257 0.026988 -0.007170 0.000000 0.000000 0.000000
# 3 -0.003758 -0.007170 0.014100 0.000000 0.000000 0.000000
# 4 0.000000 0.000000 0.000000 0.048823 0.000000 0.000000
# 5 0.000000 0.000000 0.000000 0.000000 0.052534 0.000000
# 6 0.000000 0.000000 0.000000 0.000000 0.000000 0.049529
#
#
# Mechanical properties :
#
#
# Convention : Reuss Voigt Hill
#
# Bulk Modulus (GPa) = 52.80166 58.63798 55.71982
# Shear Modulus (GPa) = 20.09027 21.09605 20.59316
#
# Velocity S-wave (km/s) = 3.55519 3.64309 3.59941
# Velocity P-wave (km/s) = 7.07612 7.38830 7.23389
#
# Compressibility (1/GPa) = 0.01893880
#
# Stress axis : x y z
#
# Youngs Moduli (GPa) = 70.32292 37.05291 70.92298
#
# Poissons Ratio (x) = 0.26888 0.26656
# Poissons Ratio (y) = 0.51031 0.50850
# Poissons Ratio (z) = 0.26430 0.26566
#
# Static dielectric constant tensor:
#      x y z
#    x 2.977570 0.000000 0.000000 
#    y 0.000000 2.937670 0.000000 
#    z 0.000000 0.000000 2.981630 
# 
# 
# High freq. dielectric constant tensor:
#      x y z
#    x 1.590280 0.000000 0.000000 
#    y 0.000000 1.609770 0.000000 
#    z 0.000000 0.000000 1.589900 
# 
# From -- ./inp_files/18416.got.cif
#   From: 2010.03.12/outbox.cif.g09.slc.cpg/sg51_10_cif.got.tgz:18416.got - 2010.04.16 13:43:02.
