data_PCOD8214770
_publ_section_title
;
Structure prediction by ZEFSAII (Michael W. Deem and Ramdas Pophale) SiO2 
 PCOD8214770
Probable space group: P M M A
;
_chemical_formula_sum "Si O2"
_cell_formula_units_Z 48
_cell_length_a 9.403810
_cell_length_b 9.722043
_cell_length_c 30.917331
_cell_angle_alpha 90.000000
_cell_angle_beta 90.000000
_cell_angle_gamma 90.000000
_cell_volume 2826.593650
_symmetry_space_group_name_H-M "P M M A"
_symmetry_group_IT_number 51
_symmetry_cell_setting 'orthorhombic'
loop_
_space_group_symop_operation_xyz
x,y,z
1/2-x,-y,z
1/2+x,-y,-z
-x,y,-z
-x,-y,-z
1/2+x,y,-z
1/2-x,y,z
x,-y,z
loop_
_atom_site_type_symbol
_atom_site_label
_atom_site_fract_x
_atom_site_fract_y
_atom_site_fract_z
Si Si1 0.585327 0.840460 0.876190
Si Si2 0.080409 0.846595 0.633591
Si Si3 0.414849 0.658210 0.204921
Si Si4 0.907602 0.836237 0.461020
Si Si5 0.915986 0.341366 0.289085
Si Si6 0.088951 0.836491 0.959511
O O1 0.750000 0.815058 0.888211
O O2 0.537675 0.751714 0.835119
O O3 0.489564 0.788861 0.915930
O O4 0.557636 0.000000 0.865503
O O5 0.250000 0.847669 0.632340
O O6 0.026967 0.796736 0.586092
O O7 0.023179 0.744229 0.670369
O O8 0.023515 0.000000 0.643912
O O9 0.250000 0.679497 0.215809
O O10 0.448903 0.500000 0.193423
O O11 0.503479 0.708203 0.246236
O O12 0.750000 0.774103 0.466014
O O13 0.000000 0.772777 0.500000
O O14 0.901501 0.000000 0.464251
O O15 0.750000 0.313330 0.281768
O O16 0.947909 0.500000 0.298980
O O17 0.250000 0.778007 0.960352
O O18 0.092078 0.000000 0.962189
O O19 0.000000 0.776641 0.000000
#
# Coordination Sequence:
#
# PCOD8214770 Si02
#       6
#     8   8   8   8   8   8
#     4   9  17  29  45  65  88 113 142 176 211 246
#     4   8  14  25  41  61  84 109 136 168 208 249
#     4   9  18  32  47  62  84 115 144 170 209 258
#     4   8  13  22  37  56  78 104 133 164 199 241
#     4   9  17  29  45  63  81 105 140 176 206 243
#     4   9  16  26  42  65  92 119 145 174 210 251
#
# _framework density 16.981570999999999
#
# number of rings (size 3 to 8) (size 9 to 14) (size 15 to 20)
#    0.000    3.333    0.000    1.500    0.000    3.333 
#    0.000    0.833    0.000    2.000    0.000    0.000 
#    0.000    0.000    0.000    0.000    0.000    0.000 
#
# Total GULP energy -595017.097626 kJ/mol
# GULP energy per Si atom -12396.189534 kJ/mol
# Density = 1.694292 g / cm^3
# Si number density = 16.981571 Si / 1000 Ang^3
#
#
#
# Elastic Constant Matrix: (Units=GPa)
#
#
# Indices 1 2 3 4 5 6 
#
# 1 70.9233 27.6475 74.6003 0.0000 0.0000 0.0000
# 2 27.6475 45.6974 64.1140 0.0000 0.0000 0.0000
# 3 74.6003 64.1140 191.1030 0.0000 0.0000 0.0000
# 4 0.0000 0.0000 0.0000 5.4933 0.0000 0.0000
# 5 0.0000 0.0000 0.0000 0.0000 33.6842 0.0000
# 6 0.0000 0.0000 0.0000 0.0000 0.0000 12.5036
#
#
#
# Elastic Compliance Matrix: (Units=1/GPa)
#
#
# Indices 1 2 3 4 5 6 
#
# 1 0.024086 -0.002608 -0.008527 0.000000 0.000000 0.000000
# 2 -0.002608 0.041626 -0.012947 0.000000 0.000000 0.000000
# 3 -0.008527 -0.012947 0.012905 0.000000 0.000000 0.000000
# 4 0.000000 0.000000 0.000000 0.182039 0.000000 0.000000
# 5 0.000000 0.000000 0.000000 0.000000 0.029688 0.000000
# 6 0.000000 0.000000 0.000000 0.000000 0.000000 0.079977
#
#
# Mechanical properties :
#
#
# Convention : Reuss Voigt Hill
#
# Bulk Modulus (GPa) = 32.83886 71.16081 51.99984
# Shear Modulus (GPa) = 11.66489 19.76036 15.71262
#
# Velocity S-wave (km/s) = 2.62375 3.41491 3.04513
# Velocity P-wave (km/s) = 5.34403 7.58581 6.56137
#
# Compressibility (1/GPa) = 0.03045172
#
# Stress axis : x y z
#
# Youngs Moduli (GPa) = 41.51817 24.02334 77.48819
#
# Poissons Ratio (x) = 0.06266 0.66076
# Poissons Ratio (y) = 0.10830 1.00325
# Poissons Ratio (z) = 0.35403 0.31103
#
# Static dielectric constant tensor:
#      x y z
#    x 3.134530 0.000000 0.000000 
#    y 0.000000 2.893650 0.000000 
#    z 0.000000 0.000000 3.443750 
# 
# 
# High freq. dielectric constant tensor:
#      x y z
#    x 1.637720 0.000000 0.000000 
#    y 0.000000 1.613080 0.000000 
#    z 0.000000 0.000000 1.668220 
# 
# From -- ./inp_files/36125.got.cif
#   From: 2010.03.12/outbox.cif.g09.slc.cpg/sg51_19_cif.got.tgz:36125.got - 2010.04.16 13:43:02.
