data_PCOD8214956
_publ_section_title
;
Structure prediction by ZEFSAII (Michael W. Deem and Ramdas Pophale) SiO2 
 PCOD8214956
Probable space group: P N N A
;
_chemical_formula_sum "Si O2"
_cell_formula_units_Z 44
_cell_length_a 17.382624
_cell_length_b 15.968298
_cell_length_c 8.259000
_cell_angle_alpha 90.000000
_cell_angle_beta 90.000000
_cell_angle_gamma 90.000000
_cell_volume 2292.458229
_symmetry_space_group_name_H-M "P N N A"
_symmetry_group_IT_number 52
_symmetry_cell_setting 'orthorhombic'
loop_
_space_group_symop_operation_xyz
x,y,z
1/2-x,-y,z
x,1/2-y,1/2-z
1/2-x,1/2+y,1/2-z
-x,-y,-z
1/2+x,y,-z
-x,1/2+y,1/2+z
1/2+x,1/2-y,1/2+z
loop_
_atom_site_type_symbol
_atom_site_label
_atom_site_fract_x
_atom_site_fract_y
_atom_site_fract_z
Si Si1 0.109640 0.959398 0.203305
Si Si2 0.632997 0.072219 0.507198
Si Si3 0.965938 0.654304 0.258340
Si Si4 0.749131 0.156550 0.728125
Si Si5 0.750000 0.000000 0.281264
Si Si6 0.665775 0.092720 0.029549
O O1 0.181628 0.907928 0.269543
O O2 0.036774 0.900737 0.178912
O O3 0.092037 0.028886 0.340144
O O4 0.131327 0.003412 0.033002
O O5 0.565919 0.121616 0.413782
O O6 0.699474 0.137648 0.565827
O O7 0.673059 0.000368 0.393029
O O8 0.993669 0.750000 0.250000
O O9 0.899878 0.648600 0.391284
O O10 0.781463 0.250000 0.750000
O O11 0.694267 0.145638 0.880400
O O12 0.764624 0.921411 0.159228
#
# Coordination Sequence:
#
# PCOD8214956 Si02
#       6
#     8   8   8   8   4   8
#     4  11  20  38  57  85 109 151 191 225 275 336
#     4  10  20  36  59  81 108 150 191 224 272 343
#     4  11  23  36  55  84 117 145 180 234 289 323
#     4  11  20  35  59  84 114 143 187 239 281 323
#     4  10  16  34  58  82 104 132 196 234 258 324
#     4  10  20  36  59  81 108 150 191 224 272 343
#
# _framework density 19.193370999999999
#
# number of rings (size 3 to 8) (size 9 to 14) (size 15 to 20)
#    0.000    1.455    3.636    3.818    0.000    0.000 
#    0.000    0.000    0.000    0.000    0.000    0.000 
#    0.000    0.000    0.000    0.000    0.000    0.000 
#
# Total GULP energy -545341.880224 kJ/mol
# GULP energy per Si atom -12394.133641 kJ/mol
# Density = 1.914969 g / cm^3
# Si number density = 19.193371 Si / 1000 Ang^3
#
#
#
# Elastic Constant Matrix: (Units=GPa)
#
#
# Indices 1 2 3 4 5 6 
#
# 1 44.2667 9.6626 9.5347 0.0000 0.0000 0.0000
# 2 9.6626 83.6571 13.3466 0.0000 0.0000 0.0000
# 3 9.5347 13.3466 81.5566 0.0000 0.0000 0.0000
# 4 0.0000 0.0000 0.0000 17.0942 0.0000 0.0000
# 5 0.0000 0.0000 0.0000 0.0000 21.4426 0.0000
# 6 0.0000 0.0000 0.0000 0.0000 0.0000 18.5761
#
#
#
# Elastic Compliance Matrix: (Units=1/GPa)
#
#
# Indices 1 2 3 4 5 6 
#
# 1 0.023615 -0.002348 -0.002376 0.000000 0.000000 0.000000
# 2 -0.002348 0.012508 -0.001772 0.000000 0.000000 0.000000
# 3 -0.002376 -0.001772 0.012829 0.000000 0.000000 0.000000
# 4 0.000000 0.000000 0.000000 0.058499 0.000000 0.000000
# 5 0.000000 0.000000 0.000000 0.000000 0.046636 0.000000
# 6 0.000000 0.000000 0.000000 0.000000 0.000000 0.053833
#
#
# Mechanical properties :
#
#
# Convention : Reuss Voigt Hill
#
# Bulk Modulus (GPa) = 27.81074 30.50756 29.15915
# Shear Modulus (GPa) = 21.46846 23.21835 22.34341
#
# Velocity S-wave (km/s) = 3.34808 3.48186 3.41562
# Velocity P-wave (km/s) = 5.42839 5.66514 5.54803
#
# Compressibility (1/GPa) = 0.03595734
#
# Stress axis : x y z
#
# Youngs Moduli (GPa) = 42.34626 79.95169 77.94665
#
# Poissons Ratio (x) = 0.18776 0.18524
# Poissons Ratio (y) = 0.09945 0.13814
# Poissons Ratio (z) = 0.10063 0.14170
#
# Static dielectric constant tensor:
#      x y z
#    x 3.400930 0.000000 0.000000 
#    y 0.000000 3.633940 0.000000 
#    z 0.000000 0.000000 3.765530 
# 
# 
# High freq. dielectric constant tensor:
#      x y z
#    x 1.735750 0.000000 0.000000 
#    y 0.000000 1.729410 0.000000 
#    z 0.000000 0.000000 1.760110 
# 
# From -- ./inp_files/10323.got.cif
#   From: 2010.06.25/outbox.cif.g09.slc.cpg/sg52_6_cif.got.tgz:10323.got - 2010.06.26 19:32:48.
