data_PCOD8214854
_publ_section_title
;
Structure prediction by ZEFSAII (Michael W. Deem and Ramdas Pophale) SiO2 
 PCOD8214854
Probable space group: P M M A
;
_chemical_formula_sum "Si O2"
_cell_formula_units_Z 64
_cell_length_a 29.649906
_cell_length_b 9.618674
_cell_length_c 13.025257
_cell_angle_alpha 90.000000
_cell_angle_beta 90.000000
_cell_angle_gamma 90.000000
_cell_volume 3714.709253
_symmetry_space_group_name_H-M "P M M A"
_symmetry_group_IT_number 51
_symmetry_cell_setting 'orthorhombic'
loop_
_space_group_symop_operation_xyz
x,y,z
1/2-x,-y,z
1/2+x,-y,-z
-x,y,-z
-x,-y,-z
1/2+x,y,-z
1/2-x,y,z
x,-y,z
loop_
_atom_site_type_symbol
_atom_site_label
_atom_site_fract_x
_atom_site_fract_y
_atom_site_fract_z
Si Si1 0.636363 0.337328 0.894513
Si Si2 0.802509 0.837837 0.280538
Si Si3 0.473240 0.150411 0.260584
Si Si4 0.126692 0.158847 0.306635
Si Si5 0.137077 0.834878 0.532612
Si Si6 0.697414 0.660886 0.084331
Si Si7 0.964554 0.338467 0.921308
Si Si8 0.539035 0.843703 0.435312
O O1 0.640812 0.500000 0.867117
O O2 0.643601 0.252878 0.788525
O O3 0.587626 0.303451 0.945177
O O4 0.672487 0.291113 0.979998
O O5 0.750000 0.811425 0.299688
O O6 0.827237 0.779909 0.383149
O O7 0.819363 0.752275 0.180941
O O8 0.812999 0.000000 0.260504
O O9 0.427312 0.171586 0.326925
O O10 0.478023 0.278642 0.186916
O O11 0.520043 0.151032 0.320943
O O12 0.468775 0.000000 0.204065
O O13 0.149686 0.207631 0.414780
O O14 0.140329 0.000000 0.281192
O O15 0.087911 0.770760 0.561796
O O16 0.135764 0.000000 0.540795
O O17 0.750000 0.685616 0.064235
O O18 0.686540 0.500000 0.108604
O O19 0.973197 0.500000 0.914660
O O20 0.000000 0.270131 0.000000
O O21 0.500000 0.763491 0.500000
O O22 0.544522 0.000000 0.481465
#
# Coordination Sequence:
#
# PCOD8214854 Si02
#       8
#     8   8   8   8   8   8   8   8
#     4   9  18  32  49  67  89 119 153 188 228 272
#     4   9  18  32  49  70  96 123 150 185 231 278
#     4   9  16  26  43  65  87 113 148 188 222 253
#     4   9  16  28  46  68  93 122 152 182 221 270
#     4   9  16  27  45  68  95 126 156 186 227 276
#     4   9  18  34  54  71  89 117 154 194 234 275
#     4   9  18  31  44  59  86 123 151 174 217 274
#     4   9  14  23  41  66  91 115 148 186 220 257
#
# _framework density 17.228805000000001
#
# number of rings (size 3 to 8) (size 9 to 14) (size 15 to 20)
#    0.000    3.000    1.250    0.000    0.000    1.750 
#    0.000    1.250    0.000    1.875    0.000    0.000 
#    0.000    0.000    0.000    0.000    0.000    0.000 
#
# Total GULP energy -792924.874462 kJ/mol
# GULP energy per Si atom -12389.451163 kJ/mol
# Density = 1.718959 g / cm^3
# Si number density = 17.228805 Si / 1000 Ang^3
#
#
#
# Elastic Constant Matrix: (Units=GPa)
#
#
# Indices 1 2 3 4 5 6 
#
# 1 73.9491 30.1485 66.9735 0.0000 0.0000 0.0000
# 2 30.1485 32.1626 46.7014 0.0000 0.0000 0.0000
# 3 66.9735 46.7014 138.8281 0.0000 0.0000 0.0000
# 4 0.0000 0.0000 0.0000 24.5480 0.0000 0.0000
# 5 0.0000 0.0000 0.0000 0.0000 32.5830 0.0000
# 6 0.0000 0.0000 0.0000 0.0000 0.0000 14.3626
#
#
#
# Elastic Compliance Matrix: (Units=1/GPa)
#
#
# Indices 1 2 3 4 5 6 
#
# 1 0.026239 -0.012151 -0.008571 0.000000 0.000000 0.000000
# 2 -0.012151 0.066408 -0.016478 0.000000 0.000000 0.000000
# 3 -0.008571 -0.016478 0.016881 0.000000 0.000000 0.000000
# 4 0.000000 0.000000 0.000000 0.040736 0.000000 0.000000
# 5 0.000000 0.000000 0.000000 0.000000 0.030691 0.000000
# 6 0.000000 0.000000 0.000000 0.000000 0.000000 0.069625
#
#
# Mechanical properties :
#
#
# Convention : Reuss Voigt Hill
#
# Bulk Modulus (GPa) = 28.46605 59.17630 43.82117
# Shear Modulus (GPa) = 14.85053 21.03981 17.94517
#
# Velocity S-wave (km/s) = 2.93910 3.49836 3.23085
# Velocity P-wave (km/s) = 5.29868 7.12319 6.27757
#
# Compressibility (1/GPa) = 0.03512956
#
# Stress axis : x y z
#
# Youngs Moduli (GPa) = 38.11154 15.05839 59.23853
#
# Poissons Ratio (x) = 0.18297 0.50771
# Poissons Ratio (y) = 0.46308 0.97612
# Poissons Ratio (z) = 0.32664 0.24813
#
# Static dielectric constant tensor:
#      x y z
#    x 3.300640 0.000000 0.000000 
#    y 0.000000 2.982370 0.000000 
#    z 0.000000 0.000000 3.243820 
# 
# 
# High freq. dielectric constant tensor:
#      x y z
#    x 1.656810 0.000000 0.000000 
#    y 0.000000 1.631670 0.000000 
#    z 0.000000 0.000000 1.664880 
# 
# From -- ./inp_files/19221.got.cif
#   From: 2010.03.12/outbox.cif.g09.slc.cpg/sg51_10_cif.got.tgz:19221.got - 2010.04.16 13:43:02.
