data_PCOD8214083
_publ_section_title
;
Structure prediction by ZEFSAII (Michael W. Deem and Ramdas Pophale) SiO2 
 PCOD8214083
Probable space group: P M M A
;
_chemical_formula_sum "Si O2"
_cell_formula_units_Z 48
_cell_length_a 16.794610
_cell_length_b 8.979063
_cell_length_c 16.144784
_cell_angle_alpha 90.000000
_cell_angle_beta 90.000000
_cell_angle_gamma 90.000000
_cell_volume 2434.631187
_symmetry_space_group_name_H-M "P M M A"
_symmetry_group_IT_number 51
_symmetry_cell_setting 'orthorhombic'
loop_
_space_group_symop_operation_xyz
x,y,z
1/2-x,-y,z
1/2+x,-y,-z
-x,y,-z
-x,-y,-z
1/2+x,y,-z
1/2-x,y,z
x,-y,z
loop_
_atom_site_type_symbol
_atom_site_label
_atom_site_fract_x
_atom_site_fract_y
_atom_site_fract_z
Si Si1 0.750000 0.829769 0.969173
Si Si2 0.250000 0.674636 0.200589
Si Si3 0.921474 0.828058 0.055603
Si Si4 0.106469 0.176149 0.291534
Si Si5 0.547525 0.324208 0.224600
Si Si6 0.413352 0.175983 0.478048
Si Si7 0.659757 0.332737 0.373042
O O1 0.750000 0.713641 0.895299
O O2 0.750000 0.000000 0.937056
O O3 0.833855 0.799824 0.016220
O O4 0.250000 0.500000 0.212124
O O5 0.325231 0.742857 0.243809
O O6 0.921048 0.721159 0.134780
O O7 0.928923 0.000000 0.082361
O O8 0.000000 0.786957 0.000000
O O9 0.109135 0.231422 0.386531
O O10 0.027752 0.224543 0.244955
O O11 0.116568 0.000000 0.285304
O O12 0.528504 0.500000 0.226159
O O13 0.610960 0.276834 0.294064
O O14 0.500000 0.240877 0.500000
O O15 0.351287 0.233535 0.545439
O O16 0.413480 0.000000 0.481643
O O17 0.750000 0.321624 0.344286
O O18 0.634992 0.500000 0.397072
#
# Coordination Sequence:
#
# PCOD8214083 Si02
#       7
#     4   4   8   8   8   8   8
#     4  10  22  42  66  93 124 163 208 253 312 377
#     4  12  26  42  64  95 128 159 204 253 306 371
#     4  10  22  40  63  90 122 161 205 255 313 375
#     4  11  23  41  64  89 125 165 206 256 310 361
#     4  11  23  39  63  92 124 162 208 253 306 371
#     4  10  21  39  61  87 115 154 207 256 303 357
#     4  10  23  40  58  86 125 165 202 248 307 365
#
# _framework density 19.715513000000001
#
# number of rings (size 3 to 8) (size 9 to 14) (size 15 to 20)
#    0.000    1.500    1.667    2.750    2.333    5.000 
#    0.000    0.000    0.000    0.000    0.000    0.000 
#    0.000    0.000    0.000    0.000    0.000    0.000 
#
# Total GULP energy -595146.885706 kJ/mol
# GULP energy per Si atom -12398.893452 kJ/mol
# Density = 1.967064 g / cm^3
# Si number density = 19.715513 Si / 1000 Ang^3
#
#
#
# Elastic Constant Matrix: (Units=GPa)
#
#
# Indices 1 2 3 4 5 6 
#
# 1 136.1657 33.5826 59.3292 0.0000 0.0000 0.0000
# 2 33.5826 64.9866 49.4973 0.0000 0.0000 0.0000
# 3 59.3292 49.4973 134.0993 0.0000 0.0000 0.0000
# 4 0.0000 0.0000 0.0000 30.9170 0.0000 0.0000
# 5 0.0000 0.0000 0.0000 0.0000 33.6096 0.0000
# 6 0.0000 0.0000 0.0000 0.0000 0.0000 80.8585
#
#
#
# Elastic Compliance Matrix: (Units=1/GPa)
#
#
# Indices 1 2 3 4 5 6 
#
# 1 0.009346 -0.002337 -0.003272 0.000000 0.000000 0.000000
# 2 -0.002337 0.021990 -0.007083 0.000000 0.000000 0.000000
# 3 -0.003272 -0.007083 0.011519 0.000000 0.000000 0.000000
# 4 0.000000 0.000000 0.000000 0.032345 0.000000 0.000000
# 5 0.000000 0.000000 0.000000 0.000000 0.029753 0.000000
# 6 0.000000 0.000000 0.000000 0.000000 0.000000 0.012367
#
#
# Mechanical properties :
#
#
# Convention : Reuss Voigt Hill
#
# Bulk Modulus (GPa) = 57.23794 68.89662 63.06728
# Shear Modulus (GPa) = 33.66339 41.93318 37.79828
#
# Velocity S-wave (km/s) = 4.13662 4.61685 4.38332
# Velocity P-wave (km/s) = 7.20489 7.96503 7.59448
#
# Compressibility (1/GPa) = 0.01747093
#
# Stress axis : x y z
#
# Youngs Moduli (GPa) = 106.99480 45.47478 86.81189
#
# Poissons Ratio (x) = 0.10630 0.28407
# Poissons Ratio (y) = 0.25010 0.61486
# Poissons Ratio (z) = 0.35011 0.32208
#
# Static dielectric constant tensor:
#      x y z
#    x 3.744640 0.000000 0.000000 
#    y 0.000000 3.572550 0.000000 
#    z 0.000000 0.000000 3.706160 
# 
# 
# High freq. dielectric constant tensor:
#      x y z
#    x 1.784060 0.000000 0.000000 
#    y 0.000000 1.766200 0.000000 
#    z 0.000000 0.000000 1.778470 
# 
# From -- ./inp_files/24915.got.cif
#   From: 2010.03.12/outbox.cif.g09.slc.cpg/sg51_13_cif.got.tgz:24915.got - 2010.04.16 13:43:02.
