data_PCOD8214542
_publ_section_title
;
Structure prediction by ZEFSAII (Michael W. Deem and Ramdas Pophale) SiO2 
 PCOD8214542
Probable space group: P M M A
;
_chemical_formula_sum "Si O2"
_cell_formula_units_Z 48
_cell_length_a 30.349094
_cell_length_b 8.788232
_cell_length_c 9.501842
_cell_angle_alpha 90.000000
_cell_angle_beta 90.000000
_cell_angle_gamma 90.000000
_cell_volume 2534.282640
_symmetry_space_group_name_H-M "P M M A"
_symmetry_group_IT_number 51
_symmetry_cell_setting 'orthorhombic'
loop_
_space_group_symop_operation_xyz
x,y,z
1/2-x,-y,z
1/2+x,-y,-z
-x,y,-z
-x,-y,-z
1/2+x,y,-z
1/2-x,y,z
x,-y,z
loop_
_atom_site_type_symbol
_atom_site_label
_atom_site_fract_x
_atom_site_fract_y
_atom_site_fract_z
Si Si1 0.623288 0.819847 0.652957
Si Si2 0.301190 0.825853 0.835381
Si Si3 0.048161 0.680116 0.167263
Si Si4 0.449115 0.679902 0.851827
Si Si5 0.701346 0.180876 0.847408
Si Si6 0.627669 0.679101 0.348332
O O1 0.577858 0.764282 0.719433
O O2 0.664664 0.753106 0.741692
O O3 0.627004 0.761866 0.496009
O O4 0.624396 0.000000 0.653852
O O5 0.250000 0.812088 0.797805
O O6 0.326991 0.716711 0.729735
O O7 0.317042 0.000000 0.816757
O O8 0.310186 0.767451 0.993992
O O9 0.054547 0.500000 0.182741
O O10 0.997745 0.728832 0.198895
O O11 0.060689 0.737951 0.010322
O O12 0.446728 0.500000 0.856818
O O13 0.412849 0.744884 0.744610
O O14 0.750000 0.242768 0.804271
O O15 0.702367 0.000000 0.843533
O O16 0.623455 0.500000 0.372244
#
# Coordination Sequence:
#
# PCOD8214542 Si02
#       6
#     8   8   8   8   8   8
#     4  11  22  34  50  77 109 139 173 213 258 306
#     4   9  18  35  58  80 101 129 167 211 259 307
#     4   9  17  35  59  78  98 130 174 218 263 314
#     4   8  17  34  57  79  99 131 174 217 261 313
#     4   8  16  33  56  77  98 130 171 210 250 301
#     4  11  22  35  51  75 107 140 173 209 253 305
#
# _framework density 18.940270999999999
#
# number of rings (size 3 to 8) (size 9 to 14) (size 15 to 20)
#    0.000    2.667    0.000    4.000    0.000    1.667 
#    0.000   10.000    0.000    3.500    0.000    0.000 
#    0.000    0.000    0.000    0.000    0.000    0.000 
#
# Total GULP energy -595136.601778 kJ/mol
# GULP energy per Si atom -12398.679204 kJ/mol
# Density = 1.889716 g / cm^3
# Si number density = 18.940271 Si / 1000 Ang^3
#
#
#
# Elastic Constant Matrix: (Units=GPa)
#
#
# Indices 1 2 3 4 5 6 
#
# 1 118.2754 26.3892 77.2548 0.0000 0.0000 0.0000
# 2 26.3892 38.6067 24.3626 0.0000 0.0000 0.0000
# 3 77.2548 24.3626 130.7475 0.0000 0.0000 0.0000
# 4 0.0000 0.0000 0.0000 29.2270 0.0000 0.0000
# 5 0.0000 0.0000 0.0000 0.0000 18.6972 0.0000
# 6 0.0000 0.0000 0.0000 0.0000 0.0000 28.6617
#
#
#
# Elastic Compliance Matrix: (Units=1/GPa)
#
#
# Indices 1 2 3 4 5 6 
#
# 1 0.014619 -0.005147 -0.007679 0.000000 0.000000 0.000000
# 2 -0.005147 0.031166 -0.002766 0.000000 0.000000 0.000000
# 3 -0.007679 -0.002766 0.012701 0.000000 0.000000 0.000000
# 4 0.000000 0.000000 0.000000 0.034215 0.000000 0.000000
# 5 0.000000 0.000000 0.000000 0.000000 0.053484 0.000000
# 6 0.000000 0.000000 0.000000 0.000000 0.000000 0.034890
#
#
# Mechanical properties :
#
#
# Convention : Reuss Voigt Hill
#
# Bulk Modulus (GPa) = 36.62724 60.40474 48.51599
# Shear Modulus (GPa) = 22.58781 25.95872 24.27326
#
# Velocity S-wave (km/s) = 3.45712 3.70612 3.58378
# Velocity P-wave (km/s) = 5.94272 7.09050 6.54183
#
# Compressibility (1/GPa) = 0.02730208
#
# Stress axis : x y z
#
# Youngs Moduli (GPa) = 68.40513 32.08639 78.73457
#
# Poissons Ratio (x) = 0.16514 0.60458
# Poissons Ratio (y) = 0.35207 0.21779
# Poissons Ratio (z) = 0.52527 0.08875
#
# Static dielectric constant tensor:
#      x y z
#    x 3.811020 0.000000 0.000000 
#    y 0.000000 3.112730 0.000000 
#    z 0.000000 0.000000 3.558540 
# 
# 
# High freq. dielectric constant tensor:
#      x y z
#    x 1.749000 0.000000 0.000000 
#    y 0.000000 1.702790 0.000000 
#    z 0.000000 0.000000 1.737250 
# 
# From -- ./inp_files/12790.got.cif
#   From: 2010.03.12/outbox.cif.g09.slc.cpg/sg51_7_cif.got.tgz:12790.got - 2010.04.16 13:43:02.
