data_PCOD8214722
_publ_section_title
;
Structure prediction by ZEFSAII (Michael W. Deem and Ramdas Pophale) SiO2 
 PCOD8214722
Probable space group: P M M A
;
_chemical_formula_sum "Si O2"
_cell_formula_units_Z 64
_cell_length_a 9.893837
_cell_length_b 9.409481
_cell_length_c 41.109408
_cell_angle_alpha 90.000000
_cell_angle_beta 90.000000
_cell_angle_gamma 90.000000
_cell_volume 3827.116155
_symmetry_space_group_name_H-M "P M M A"
_symmetry_group_IT_number 51
_symmetry_cell_setting 'orthorhombic'
loop_
_space_group_symop_operation_xyz
x,y,z
1/2-x,-y,z
1/2+x,-y,-z
-x,y,-z
-x,-y,-z
1/2+x,y,-z
1/2-x,y,z
x,-y,z
loop_
_atom_site_type_symbol
_atom_site_label
_atom_site_fract_x
_atom_site_fract_y
_atom_site_fract_z
Si Si1 0.905842 0.164930 0.029945
Si Si2 0.094633 0.166174 0.593312
Si Si3 0.910689 0.659620 0.092383
Si Si4 0.901451 0.169142 0.721826
Si Si5 0.098627 0.831142 0.350380
Si Si6 0.900567 0.169498 0.223624
Si Si7 0.588999 0.841517 0.151942
Si Si8 0.405342 0.665005 0.529419
O O1 0.750000 0.199215 0.021186
O O2 0.923418 0.000000 0.038907
O O3 0.957587 0.255304 0.060553
O O4 0.000000 0.209320 0.000000
O O5 0.250000 0.197367 0.601967
O O6 0.049934 0.246730 0.560839
O O7 0.005761 0.228378 0.622975
O O8 0.068381 0.000000 0.587637
O O9 0.750000 0.658038 0.094217
O O10 0.968921 0.500000 0.090849
O O11 0.970136 0.736590 0.124477
O O12 0.750000 0.221519 0.729742
O O13 0.944053 0.222017 0.685702
O O14 0.001898 0.234824 0.748749
O O15 0.907362 0.000000 0.723047
O O16 0.250000 0.777487 0.358721
O O17 0.095383 0.000000 0.350733
O O18 0.750000 0.229537 0.229939
O O19 0.953738 0.215039 0.187772
O O20 0.897559 0.000000 0.225115
O O21 0.750000 0.847756 0.150290
O O22 0.531022 0.000000 0.145705
O O23 0.500000 0.715774 0.500000
O O24 0.250000 0.696533 0.519997
O O25 0.428039 0.500000 0.537301
#
# Coordination Sequence:
#
# PCOD8214722 Si02
#       8
#     8   8   8   8   8   8   8   8
#     4   9  17  29  45  64  85 109 136 166 202 243
#     4   9  17  28  42  62  86 109 135 168 204 241
#     4   9  16  25  39  60  83 107 137 170 202 239
#     4   8  13  21  33  51  78 108 133 160 197 238
#     4   8  14  24  37  55  81 111 138 164 199 242
#     4   8  13  20  32  52  75  99 129 163 197 233
#     4   8  13  22  36  54  77 103 131 166 205 240
#     4   9  18  32  47  62  82 108 136 166 202 243
#
# _framework density 16.722774000000001
#
# number of rings (size 3 to 8) (size 9 to 14) (size 15 to 20)
#    0.000    3.500    0.000    1.875    0.000    3.000 
#    0.000    2.500    0.000    0.750    0.000    4.375 
#    0.000    5.000    0.000    0.000    0.000    0.000 
#
# Total GULP energy -793238.282287 kJ/mol
# GULP energy per Si atom -12394.348161 kJ/mol
# Density = 1.668471 g / cm^3
# Si number density = 16.722774 Si / 1000 Ang^3
#
#
#
# Elastic Constant Matrix: (Units=GPa)
#
#
# Indices 1 2 3 4 5 6 
#
# 1 68.3094 26.2456 81.8825 0.0000 0.0000 0.0000
# 2 26.2456 45.8647 54.8689 0.0000 0.0000 0.0000
# 3 81.8825 54.8689 183.5454 0.0000 0.0000 0.0000
# 4 0.0000 0.0000 0.0000 3.0111 0.0000 0.0000
# 5 0.0000 0.0000 0.0000 0.0000 28.5842 0.0000
# 6 0.0000 0.0000 0.0000 0.0000 0.0000 9.3559
#
#
#
# Elastic Compliance Matrix: (Units=1/GPa)
#
#
# Indices 1 2 3 4 5 6 
#
# 1 0.031571 -0.001894 -0.013518 0.000000 0.000000 0.000000
# 2 -0.001894 0.034055 -0.009335 0.000000 0.000000 0.000000
# 3 -0.013518 -0.009335 0.014270 0.000000 0.000000 0.000000
# 4 0.000000 0.000000 0.000000 0.332100 0.000000 0.000000
# 5 0.000000 0.000000 0.000000 0.000000 0.034984 0.000000
# 6 0.000000 0.000000 0.000000 0.000000 0.000000 0.106884
#
#
# Mechanical properties :
#
#
# Convention : Reuss Voigt Hill
#
# Bulk Modulus (GPa) = 32.89403 69.30151 51.09777
# Shear Modulus (GPa) = 8.15004 17.17175 12.66089
#
# Velocity S-wave (km/s) = 2.21002 3.20792 2.75454
# Velocity P-wave (km/s) = 5.12105 7.43320 6.38269
#
# Compressibility (1/GPa) = 0.03040065
#
# Stress axis : x y z
#
# Youngs Moduli (GPa) = 31.67423 29.36386 70.07862
#
# Poissons Ratio (x) = 0.05562 0.94734
# Poissons Ratio (y) = 0.06000 0.65422
# Poissons Ratio (z) = 0.42818 0.27413
#
# Static dielectric constant tensor:
#      x y z
#    x 3.049870 0.000000 0.000000 
#    y 0.000000 2.841030 0.000000 
#    z 0.000000 0.000000 3.452330 
# 
# 
# High freq. dielectric constant tensor:
#      x y z
#    x 1.615870 0.000000 0.000000 
#    y 0.000000 1.600860 0.000000 
#    z 0.000000 0.000000 1.657180 
# 
# From -- ./inp_files/37768.got.cif
#   From: 2010.03.12/outbox.cif.g09.slc.cpg/sg51_19_cif.got.tgz:37768.got - 2010.04.16 13:43:02.
