data_PCOD8214716
_publ_section_title
;
Structure prediction by ZEFSAII (Michael W. Deem and Ramdas Pophale) SiO2 
 PCOD8214716
Probable space group: P M M A
;
_chemical_formula_sum "Si O2"
_cell_formula_units_Z 40
_cell_length_a 9.530600
_cell_length_b 9.375324
_cell_length_c 25.946096
_cell_angle_alpha 90.000000
_cell_angle_beta 90.000000
_cell_angle_gamma 90.000000
_cell_volume 2318.347581
_symmetry_space_group_name_H-M "P M M A"
_symmetry_group_IT_number 51
_symmetry_cell_setting 'orthorhombic'
loop_
_space_group_symop_operation_xyz
x,y,z
1/2-x,-y,z
1/2+x,-y,-z
-x,y,-z
-x,-y,-z
1/2+x,y,-z
1/2-x,y,z
x,-y,z
loop_
_atom_site_type_symbol
_atom_site_label
_atom_site_fract_x
_atom_site_fract_y
_atom_site_fract_z
Si Si1 0.911677 0.333214 0.645405
Si Si2 0.087482 0.165447 0.253518
Si Si3 0.592339 0.169530 0.159138
Si Si4 0.907574 0.830224 0.045838
Si Si5 0.090270 0.330357 0.547872
O O1 0.750000 0.298033 0.631166
O O2 0.931005 0.500000 0.655838
O O3 0.961255 0.250278 0.696107
O O4 0.011831 0.279544 0.599553
O O5 0.250000 0.190022 0.242226
O O6 0.006471 0.230160 0.204187
O O7 0.051954 0.000000 0.262620
O O8 0.750000 0.225472 0.168607
O O9 0.538703 0.220134 0.102492
O O10 0.589734 0.000000 0.160650
O O11 0.750000 0.775519 0.037458
O O12 0.912758 0.000000 0.043082
O O13 0.000000 0.762252 0.000000
O O14 0.250000 0.270422 0.546467
O O15 0.093889 0.500000 0.545115
O O16 0.000000 0.269621 0.500000
#
# Coordination Sequence:
#
# PCOD8214716 Si02
#       5
#     8   8   8   8   8
#     4   9  17  29  44  62  85 110 134 164 202 239
#     4   9  17  28  42  60  81 107 139 170 198 233
#     4   8  14  24  36  51  74 104 135 165 199 240
#     4   8  13  20  30  46  69  97 128 161 197 236
#     4   9  16  26  42  64  87 109 134 165 201 240
#
# _framework density 17.253668000000001
#
# number of rings (size 3 to 8) (size 9 to 14) (size 15 to 20)
#    0.000    3.400    0.000    1.800    0.000    4.000 
#    0.000    4.000    0.000    0.600    0.000    0.000 
#    0.000    0.800    0.000    1.800    0.000    3.600 
#
# Total GULP energy -495743.703164 kJ/mol
# GULP energy per Si atom -12393.592579 kJ/mol
# Density = 1.721440 g / cm^3
# Si number density = 17.253668 Si / 1000 Ang^3
#
#
#
# Elastic Constant Matrix: (Units=GPa)
#
#
# Indices 1 2 3 4 5 6 
#
# 1 108.5691 16.8556 104.9013 0.0000 0.0000 0.0000
# 2 16.8556 13.5473 28.4544 0.0000 0.0000 0.0000
# 3 104.9013 28.4544 201.4540 0.0000 0.0000 0.0000
# 4 0.0000 0.0000 0.0000 -2.2270 0.0000 0.0000
# 5 0.0000 0.0000 0.0000 0.0000 42.1878 0.0000
# 6 0.0000 0.0000 0.0000 0.0000 0.0000 9.1653
#
#
#
# Elastic Compliance Matrix: (Units=1/GPa)
#
#
# Indices 1 2 3 4 5 6 
#
# 1 0.018689 -0.003999 -0.009167 0.000000 0.000000 0.000000
# 2 -0.003999 0.105806 -0.012862 0.000000 0.000000 0.000000
# 3 -0.009167 -0.012862 0.011554 0.000000 0.000000 0.000000
# 4 0.000000 0.000000 0.000000 -0.449041 0.000000 0.000000
# 5 0.000000 0.000000 0.000000 0.000000 0.023704 0.000000
# 6 0.000000 0.000000 0.000000 0.000000 0.000000 0.109108
#
#
# Mechanical properties :
#
#
# Convention : Reuss Voigt Hill
#
# Bulk Modulus (GPa) = 11.90574 69.33253 40.61914
# Shear Modulus (GPa) = -49.93616 21.38250 -14.27683
#
# Velocity S-wave (km/s) = -5.38565 3.52419 -2.87969
# Velocity P-wave (km/s) = 5.63544 7.53866 3.54071
#
# Compressibility (1/GPa) = 0.08399308
#
# Stress axis : x y z
#
# Youngs Moduli (GPa) = 53.50853 9.45123 86.55045
#
# Poissons Ratio (x) = 0.03779 0.79338
# Poissons Ratio (y) = 0.21397 1.11324
# Poissons Ratio (z) = 0.49050 0.12156
#
# Static dielectric constant tensor:
#      x y z
#    x 3.381100 0.000000 0.000000 
#    y 0.000000 2.582000 0.000000 
#    z 0.000000 0.000000 3.612640 
# 
# 
# High freq. dielectric constant tensor:
#      x y z
#    x 1.667110 0.000000 0.000000 
#    y 0.000000 1.590890 0.000000 
#    z 0.000000 0.000000 1.683900 
# 
# From -- ./inp_files/31377.got.cif
#   From: 2010.03.12/outbox.cif.g09.slc.cpg/sg51_16_cif.got.tgz:31377.got - 2010.04.16 13:43:02.
