data_PCOD8214764
_publ_section_title
;
Structure prediction by ZEFSAII (Michael W. Deem and Ramdas Pophale) SiO2 
 PCOD8214764
Probable space group: P M M A
;
_chemical_formula_sum "Si O2"
_cell_formula_units_Z 64
_cell_length_a 15.299153
_cell_length_b 9.376845
_cell_length_c 25.466553
_cell_angle_alpha 90.000000
_cell_angle_beta 90.000000
_cell_angle_gamma 90.000000
_cell_volume 3653.375318
_symmetry_space_group_name_H-M "P M M A"
_symmetry_group_IT_number 51
_symmetry_cell_setting 'orthorhombic'
loop_
_space_group_symop_operation_xyz
x,y,z
1/2-x,-y,z
1/2+x,-y,-z
-x,y,-z
-x,-y,-z
1/2+x,y,-z
1/2-x,y,z
x,-y,z
loop_
_atom_site_type_symbol
_atom_site_label
_atom_site_fract_x
_atom_site_fract_y
_atom_site_fract_z
Si Si1 0.086779 0.838647 0.352606
Si Si2 0.154901 0.341212 0.628886
Si Si3 0.351027 0.669241 0.003338
Si Si4 0.007795 0.667969 0.803492
Si Si5 0.494520 0.332790 0.440308
Si Si6 0.495575 0.669248 0.922100
Si Si7 0.654280 0.659871 0.735255
Si Si8 0.911707 0.838966 0.284630
O O1 0.156956 0.759510 0.316177
O O2 0.077931 0.756198 0.408072
O O3 0.998910 0.832818 0.318942
O O4 0.116654 0.000000 0.364196
O O5 0.250000 0.338892 0.602161
O O6 0.129728 0.500000 0.648776
O O7 0.088111 0.293345 0.584154
O O8 0.159600 0.238823 0.679459
O O9 0.250000 0.731452 0.004484
O O10 0.343138 0.500000 0.003964
O O11 0.406948 0.720022 0.952151
O O12 0.412292 0.722564 0.052041
O O13 0.028357 0.500000 0.800617
O O14 0.010117 0.726337 0.862793
O O15 0.912810 0.707297 0.780290
O O16 0.079514 0.754019 0.770032
O O17 0.500000 0.279630 0.500000
O O18 0.471372 0.500000 0.437084
O O19 0.498357 0.500000 0.923517
O O20 0.750000 0.666036 0.761321
O O21 0.630443 0.500000 0.716252
O O22 0.882650 0.000000 0.272150
#
# Coordination Sequence:
#
# PCOD8214764 Si02
#       8
#     8   8   8   8   8   8   8   8
#     4   9  17  29  45  63  84 113 147 180 216 262
#     4   9  17  30  48  68  89 114 146 183 220 258
#     4   8  13  22  36  55  82 114 146 181 222 268
#     4   9  16  27  43  63  89 116 144 183 225 265
#     4   9  17  30  48  68  90 117 148 181 219 262
#     4   8  14  23  36  57  84 114 145 179 224 270
#     4   9  17  28  42  61  85 114 147 182 223 270
#     4   9  17  29  45  64  86 114 145 175 214 265
#
# _framework density 17.518046999999999
#
# number of rings (size 3 to 8) (size 9 to 14) (size 15 to 20)
#    0.000    3.250    0.000    1.500    0.000    4.250 
#    0.000    3.750    0.000    4.500    0.000    1.750 
#    0.000    1.000    0.000    0.000    0.000    0.000 
#
# Total GULP energy -792959.813653 kJ/mol
# GULP energy per Si atom -12389.997088 kJ/mol
# Density = 1.747817 g / cm^3
# Si number density = 17.518047 Si / 1000 Ang^3
#
#
#
# Elastic Constant Matrix: (Units=GPa)
#
#
# Indices 1 2 3 4 5 6 
#
# 1 82.4291 15.1964 37.8753 0.0000 0.0000 0.0000
# 2 15.1964 57.8756 43.6234 0.0000 0.0000 0.0000
# 3 37.8753 43.6234 146.6073 0.0000 0.0000 0.0000
# 4 0.0000 0.0000 0.0000 9.1246 0.0000 0.0000
# 5 0.0000 0.0000 0.0000 0.0000 16.2910 0.0000
# 6 0.0000 0.0000 0.0000 0.0000 0.0000 7.9731
#
#
#
# Elastic Compliance Matrix: (Units=1/GPa)
#
#
# Indices 1 2 3 4 5 6 
#
# 1 0.013831 -0.001210 -0.003213 0.000000 0.000000 0.000000
# 2 -0.001210 0.022380 -0.006347 0.000000 0.000000 0.000000
# 3 -0.003213 -0.006347 0.009540 0.000000 0.000000 0.000000
# 4 0.000000 0.000000 0.000000 0.109594 0.000000 0.000000
# 5 0.000000 0.000000 0.000000 0.000000 0.061384 0.000000
# 6 0.000000 0.000000 0.000000 0.000000 0.000000 0.125421
#
#
# Mechanical properties :
#
#
# Convention : Reuss Voigt Hill
#
# Bulk Modulus (GPa) = 41.30301 53.36691 47.33496
# Shear Modulus (GPa) = 13.44956 19.35885 16.40421
#
# Velocity S-wave (km/s) = 2.77384 3.32788 3.06341
# Velocity P-wave (km/s) = 5.82130 6.73027 6.29222
#
# Compressibility (1/GPa) = 0.02421131
#
# Stress axis : x y z
#
# Youngs Moduli (GPa) = 72.30078 44.68305 104.82675
#
# Poissons Ratio (x) = 0.05405 0.33684
# Poissons Ratio (y) = 0.08746 0.66530
# Poissons Ratio (z) = 0.23232 0.28359
#
# Static dielectric constant tensor:
#      x y z
#    x 3.209760 0.000000 0.000000 
#    y 0.000000 3.066550 0.000000 
#    z 0.000000 0.000000 3.328150 
# 
# 
# High freq. dielectric constant tensor:
#      x y z
#    x 1.664300 0.000000 0.000000 
#    y 0.000000 1.645400 0.000000 
#    z 0.000000 0.000000 1.667430 
# 
# From -- ./inp_files/35894.got.cif
#   From: 2010.03.12/outbox.cif.g09.slc.cpg/sg51_18_cif.got.tgz:35894.got - 2010.04.16 13:43:02.
