data_PCOD8214269
_publ_section_title
;
Structure prediction by ZEFSAII (Michael W. Deem and Ramdas Pophale) SiO2 
 PCOD8214269
Probable space group: P M M A
;
_chemical_formula_sum "Si O2"
_cell_formula_units_Z 40
_cell_length_a 14.440611
_cell_length_b 9.704355
_cell_length_c 14.604345
_cell_angle_alpha 90.000000
_cell_angle_beta 90.000000
_cell_angle_gamma 90.000000
_cell_volume 2046.606402
_symmetry_space_group_name_H-M "P M M A"
_symmetry_group_IT_number 51
_symmetry_cell_setting 'orthorhombic'
loop_
_space_group_symop_operation_xyz
x,y,z
1/2-x,-y,z
1/2+x,-y,-z
-x,y,-z
-x,-y,-z
1/2+x,y,-z
1/2-x,y,z
x,-y,z
loop_
_atom_site_type_symbol
_atom_site_label
_atom_site_fract_x
_atom_site_fract_y
_atom_site_fract_z
Si Si1 0.850983 0.000000 0.104510
Si Si2 0.141349 0.159863 0.596637
Si Si3 0.483478 0.652698 0.710965
Si Si4 0.648803 0.000000 0.891496
Si Si5 0.500257 0.777188 0.106365
Si Si6 0.144423 0.657142 0.425113
O O1 0.908361 0.864739 0.129461
O O2 0.750000 0.000000 0.154939
O O3 0.833840 0.000000 0.998004
O O4 0.250000 0.174837 0.613714
O O5 0.090202 0.231943 0.681440
O O6 0.111231 0.239370 0.504559
O O7 0.111621 0.000000 0.589592
O O8 0.448026 0.500000 0.684141
O O9 0.497781 0.652849 0.821254
O O10 0.581660 0.684458 0.663253
O O11 0.590741 0.864275 0.867289
O O12 0.750000 0.000000 0.841762
O O13 0.500000 0.727332 0.000000
O O14 0.250000 0.688251 0.396414
O O15 0.133669 0.500000 0.460922
#
# Coordination Sequence:
#
# PCOD8214269 Si02
#       6
#     4   8   8   4   8   8
#     4   8  15  31  54  75  99 136 180 230 282 324
#     4  10  22  39  59  84 112 142 180 232 286 332
#     4  11  23  36  55  83 114 152 190 225 272 331
#     4   8  15  31  54  77 101 134 180 232 282 324
#     4   9  19  34  52  79 112 145 187 230 271 323
#     4   9  19  38  60  80 108 146 184 224 276 338
#
# _framework density 19.544547999999999
#
# number of rings (size 3 to 8) (size 9 to 14) (size 15 to 20)
#    0.000    2.600    0.000    2.400    2.800    6.400 
#    0.000    0.000    0.000    0.000    0.000    8.400 
#    0.000    0.000    0.000    0.000    0.000    0.000 
#
# Total GULP energy -495759.262556 kJ/mol
# GULP energy per Si atom -12393.981564 kJ/mol
# Density = 1.950006 g / cm^3
# Si number density = 19.544548 Si / 1000 Ang^3
#
#
#
# Elastic Constant Matrix: (Units=GPa)
#
#
# Indices 1 2 3 4 5 6 
#
# 1 107.0288 41.4759 34.5156 0.0000 0.0000 0.0000
# 2 41.4759 107.9060 55.2118 0.0000 0.0000 0.0000
# 3 34.5156 55.2118 122.7841 0.0000 0.0000 0.0000
# 4 0.0000 0.0000 0.0000 30.9223 0.0000 0.0000
# 5 0.0000 0.0000 0.0000 0.0000 14.5259 0.0000
# 6 0.0000 0.0000 0.0000 0.0000 0.0000 20.5873
#
#
#
# Elastic Compliance Matrix: (Units=1/GPa)
#
#
# Indices 1 2 3 4 5 6 
#
# 1 0.011209 -0.003502 -0.001576 0.000000 0.000000 0.000000
# 2 -0.003502 0.013131 -0.004920 0.000000 0.000000 0.000000
# 3 -0.001576 -0.004920 0.010800 0.000000 0.000000 0.000000
# 4 0.000000 0.000000 0.000000 0.032339 0.000000 0.000000
# 5 0.000000 0.000000 0.000000 0.000000 0.068843 0.000000
# 6 0.000000 0.000000 0.000000 0.000000 0.000000 0.048574
#
#
# Mechanical properties :
#
#
# Convention : Reuss Voigt Hill
#
# Bulk Modulus (GPa) = 66.03668 66.68063 66.35866
# Shear Modulus (GPa) = 23.81650 26.97479 25.39565
#
# Velocity S-wave (km/s) = 3.49460 3.71909 3.60859
# Velocity P-wave (km/s) = 7.08125 7.25490 7.16860
#
# Compressibility (1/GPa) = 0.01514310
#
# Stress axis : x y z
#
# Youngs Moduli (GPa) = 89.21724 76.15724 92.59390
#
# Poissons Ratio (x) = 0.26668 0.14595
# Poissons Ratio (y) = 0.31242 0.45557
# Poissons Ratio (z) = 0.14062 0.37470
#
# Static dielectric constant tensor:
#      x y z
#    x 4.700910 0.000000 0.000000 
#    y 0.000000 3.446720 0.000000 
#    z 0.000000 0.000000 3.357360 
# 
# 
# High freq. dielectric constant tensor:
#      x y z
#    x 1.768860 0.000000 0.000000 
#    y 0.000000 1.745670 0.000000 
#    z 0.000000 0.000000 1.751110 
# 
# From -- ./inp_files/23773.got.cif
#   From: 2010.03.12/outbox.cif.g09.slc.cpg/sg51_12_cif.got.tgz:23773.got - 2010.04.16 13:43:02.
