data_PCOD8214186
_publ_section_title
;
Structure prediction by ZEFSAII (Michael W. Deem and Ramdas Pophale) SiO2 
 PCOD8214186
Probable space group: P M M A
;
_chemical_formula_sum "Si O2"
_cell_formula_units_Z 36
_cell_length_a 8.762859
_cell_length_b 23.692595
_cell_length_c 9.058791
_cell_angle_alpha 90.000000
_cell_angle_beta 90.000000
_cell_angle_gamma 90.000000
_cell_volume 1880.739710
_symmetry_space_group_name_H-M "P M M A"
_symmetry_group_IT_number 51
_symmetry_cell_setting 'orthorhombic'
loop_
_space_group_symop_operation_xyz
x,y,z
1/2-x,-y,z
1/2+x,-y,-z
-x,y,-z
-x,-y,-z
1/2+x,y,-z
1/2-x,y,z
x,-y,z
loop_
_atom_site_type_symbol
_atom_site_label
_atom_site_fract_x
_atom_site_fract_y
_atom_site_fract_z
Si Si1 0.928077 0.786731 0.157281
Si Si2 0.569231 0.318501 0.338454
Si Si3 0.929193 0.440438 0.340331
Si Si4 0.431444 0.000000 0.161588
Si Si5 0.429833 0.102517 0.661033
O O1 0.750000 0.780666 0.131879
O O2 0.995664 0.729286 0.228854
O O3 0.967694 0.837577 0.266450
O O4 0.000000 0.798945 0.000000
O O5 0.500000 0.310067 0.500000
O O6 0.750000 0.312136 0.354805
O O7 0.522487 0.380257 0.267797
O O8 0.750000 0.439757 0.360899
O O9 0.977142 0.500000 0.257071
O O10 0.000000 0.441947 0.500000
O O11 0.488091 0.055140 0.244503
O O12 0.250000 0.000000 0.152915
O O13 0.500000 0.000000 0.000000
O O14 0.500000 0.102251 0.500000
O O15 0.250000 0.090258 0.654047
#
# Coordination Sequence:
#
# PCOD8214186 Si02
#       5
#     8   8   8   4   8
#     4  10  22  37  54  76 104 138 176 217 262 313
#     4   9  17  30  48  73 101 130 168 212 258 309
#     4   8  13  22  39  64  94 126 160 202 252 303
#     4  12  25  42  63  88 118 150 182 218 261 310
#     4  11  23  40  61  86 113 143 180 221 266 314
#
# _framework density 19.141404999999999
#
# number of rings (size 3 to 8) (size 9 to 14) (size 15 to 20)
#    0.000    2.222    0.000    3.333    0.000    4.444 
#    0.000    0.000    0.000    0.667    0.000    0.000 
#    0.000    0.000    0.000    0.000    0.000    0.000 
#
# Total GULP energy -446008.108719 kJ/mol
# GULP energy per Si atom -12389.114131 kJ/mol
# Density = 1.909784 g / cm^3
# Si number density = 19.141405 Si / 1000 Ang^3
#
#
#
# Elastic Constant Matrix: (Units=GPa)
#
#
# Indices 1 2 3 4 5 6 
#
# 1 61.4373 63.2680 47.3006 0.0000 0.0000 0.0000
# 2 63.2680 181.7195 70.9406 0.0000 0.0000 0.0000
# 3 47.3006 70.9406 124.4497 0.0000 0.0000 0.0000
# 4 0.0000 0.0000 0.0000 45.0015 0.0000 0.0000
# 5 0.0000 0.0000 0.0000 0.0000 28.5483 0.0000
# 6 0.0000 0.0000 0.0000 0.0000 0.0000 -3.0579
#
#
#
# Elastic Compliance Matrix: (Units=1/GPa)
#
#
# Indices 1 2 3 4 5 6 
#
# 1 0.029300 -0.007529 -0.006844 0.000000 0.000000 0.000000
# 2 -0.007529 0.009013 -0.002276 0.000000 0.000000 0.000000
# 3 -0.006844 -0.002276 0.011934 0.000000 0.000000 0.000000
# 4 0.000000 0.000000 0.000000 0.022221 0.000000 0.000000
# 5 0.000000 0.000000 0.000000 0.000000 0.035028 0.000000
# 6 0.000000 0.000000 0.000000 0.000000 0.000000 -0.327017
#
#
# Mechanical properties :
#
#
# Convention : Reuss Voigt Hill
#
# Bulk Modulus (GPa) = 59.00462 81.18056 70.09259
# Shear Modulus (GPa) = -27.68974 26.50486 -0.59244
#
# Velocity S-wave (km/s) = -3.80753 3.72518 -0.55694
# Velocity P-wave (km/s) = 3.40042 7.81061 6.02364
#
# Compressibility (1/GPa) = 0.01694783
#
# Stress axis : x y z
#
# Youngs Moduli (GPa) = 34.13007 110.95250 83.79327
#
# Poissons Ratio (x) = 0.83538 0.57351
# Poissons Ratio (y) = 0.25697 0.19071
# Poissons Ratio (z) = 0.23360 0.25253
#
# Static dielectric constant tensor:
#      x y z
#    x 3.518960 0.000000 0.000000 
#    y 0.000000 4.517520 0.000000 
#    z 0.000000 0.000000 3.242000 
# 
# 
# High freq. dielectric constant tensor:
#      x y z
#    x 1.741680 0.000000 0.000000 
#    y 0.000000 1.782770 0.000000 
#    z 0.000000 0.000000 1.712610 
# 
# From -- ./inp_files/5235.got.cif
#   From: 2010.03.12/outbox.cif.g09.slc.cpg/sg51_3_cif.got.tgz:5235.got - 2010.04.16 13:43:02.
