data_PCOD8214812
_publ_section_title
;
Structure prediction by ZEFSAII (Michael W. Deem and Ramdas Pophale) SiO2 
 PCOD8214812
Probable space group: P M M A
;
_chemical_formula_sum "Si O2"
_cell_formula_units_Z 56
_cell_length_a 9.283210
_cell_length_b 18.396166
_cell_length_c 21.170971
_cell_angle_alpha 90.000000
_cell_angle_beta 90.000000
_cell_angle_gamma 90.000000
_cell_volume 3615.482569
_symmetry_space_group_name_H-M "P M M A"
_symmetry_group_IT_number 51
_symmetry_cell_setting 'orthorhombic'
loop_
_space_group_symop_operation_xyz
x,y,z
1/2-x,-y,z
1/2+x,-y,-z
-x,y,-z
-x,-y,-z
1/2+x,y,-z
1/2-x,y,z
x,-y,z
loop_
_atom_site_type_symbol
_atom_site_label
_atom_site_fract_x
_atom_site_fract_y
_atom_site_fract_z
Si Si1 0.416665 0.655203 0.187618
Si Si2 0.417957 0.793058 0.257499
Si Si3 0.419071 0.415821 0.316559
Si Si4 0.582547 0.415246 0.938053
Si Si5 0.918677 0.083852 0.308588
Si Si6 0.913614 0.156047 0.438655
Si Si7 0.916566 0.292736 0.364842
O O1 0.250000 0.634486 0.184140
O O2 0.439308 0.742675 0.195072
O O3 0.477710 0.610783 0.248041
O O4 0.485504 0.627896 0.121921
O O5 0.250000 0.804056 0.272335
O O6 0.495591 0.871696 0.253813
O O7 0.493158 0.749435 0.312879
O O8 0.250000 0.398904 0.324252
O O9 0.453798 0.500000 0.325602
O O10 0.507921 0.371909 0.370918
O O11 0.750000 0.397773 0.948139
O O12 0.555345 0.500000 0.925788
O O13 0.500000 0.387771 0.000000
O O14 0.750000 0.099192 0.299711
O O15 0.969597 0.111218 0.377665
O O16 0.958120 0.000000 0.300306
O O17 0.750000 0.134034 0.451549
O O18 0.928280 0.243404 0.427884
O O19 0.000000 0.131481 0.500000
O O20 0.750000 0.301098 0.344593
#
# Coordination Sequence:
#
# PCOD8214812 Si02
#       7
#     8   8   8   8   8   8   8
#     4   8  14  25  41  59  81 110 140 171 207 244
#     4   9  16  27  44  64  82 104 139 175 203 238
#     4   9  16  26  42  63  82 102 134 174 212 250
#     4   9  16  26  39  55  80 115 149 177 206 239
#     4   9  18  32  46  62  89 117 133 154 199 251
#     4   9  18  30  44  61  80 106 138 167 195 234
#     4   9  17  29  42  58  82 108 132 163 209 255
#
# _framework density 15.488942
#
# number of rings (size 3 to 8) (size 9 to 14) (size 15 to 20)
#    0.000    3.143    0.000    3.000    0.000    5.429 
#    0.000    3.571    0.000    3.857    0.000    0.000 
#    0.000    0.571    0.000    1.286    0.000    2.286 
#
# Total GULP energy -693859.125544 kJ/mol
# GULP energy per Si atom -12390.341528 kJ/mol
# Density = 1.545369 g / cm^3
# Si number density = 15.488942 Si / 1000 Ang^3
#
#
#
# Elastic Constant Matrix: (Units=GPa)
#
#
# Indices 1 2 3 4 5 6 
#
# 1 55.8146 40.5363 20.5991 0.0000 0.0000 0.0000
# 2 40.5363 100.1994 20.9717 0.0000 0.0000 0.0000
# 3 20.5991 20.9717 36.1647 0.0000 0.0000 0.0000
# 4 0.0000 0.0000 0.0000 18.5139 0.0000 0.0000
# 5 0.0000 0.0000 0.0000 0.0000 19.6374 0.0000
# 6 0.0000 0.0000 0.0000 0.0000 0.0000 26.1898
#
#
#
# Elastic Compliance Matrix: (Units=1/GPa)
#
#
# Indices 1 2 3 4 5 6 
#
# 1 0.028739 -0.009333 -0.010957 0.000000 0.000000 0.000000
# 2 -0.009333 0.014390 -0.003028 0.000000 0.000000 0.000000
# 3 -0.010957 -0.003028 0.035649 0.000000 0.000000 0.000000
# 4 0.000000 0.000000 0.000000 0.054014 0.000000 0.000000
# 5 0.000000 0.000000 0.000000 0.000000 0.050923 0.000000
# 6 0.000000 0.000000 0.000000 0.000000 0.000000 0.038183
#
#
# Mechanical properties :
#
#
# Convention : Reuss Voigt Hill
#
# Bulk Modulus (GPa) = 31.11426 39.59921 35.35673
# Shear Modulus (GPa) = 17.90530 20.20632 19.05581
#
# Velocity S-wave (km/s) = 3.40370 3.61579 3.51135
# Velocity P-wave (km/s) = 5.96477 6.56152 6.27025
#
# Compressibility (1/GPa) = 0.03213961
#
# Stress axis : x y z
#
# Youngs Moduli (GPa) = 34.79644 69.49414 28.05161
#
# Poissons Ratio (x) = 0.64859 0.30736
# Poissons Ratio (y) = 0.32476 0.08495
# Poissons Ratio (z) = 0.38127 0.21046
#
# Static dielectric constant tensor:
#      x y z
#    x 2.992260 0.000000 0.000000 
#    y 0.000000 3.347730 0.000000 
#    z 0.000000 0.000000 2.869810 
# 
# 
# High freq. dielectric constant tensor:
#      x y z
#    x 1.588550 0.000000 0.000000 
#    y 0.000000 1.590190 0.000000 
#    z 0.000000 0.000000 1.553600 
# 
# From -- ./inp_files/32515.got.cif
#   From: 2010.03.12/outbox.cif.g09.slc.cpg/sg51_17_cif.got.tgz:32515.got - 2010.04.16 13:43:02.
