data_PCOD8214159
_publ_section_title
;
Structure prediction by ZEFSAII (Michael W. Deem and Ramdas Pophale) SiO2 
 PCOD8214159
Probable space group: P M M A
;
_chemical_formula_sum "Si O2"
_cell_formula_units_Z 56
_cell_length_a 21.543996
_cell_length_b 8.695796
_cell_length_c 14.670356
_cell_angle_alpha 90.000000
_cell_angle_beta 90.000000
_cell_angle_gamma 90.000000
_cell_volume 2748.376683
_symmetry_space_group_name_H-M "P M M A"
_symmetry_group_IT_number 51
_symmetry_cell_setting 'orthorhombic'
loop_
_space_group_symop_operation_xyz
x,y,z
1/2-x,-y,z
1/2+x,-y,-z
-x,y,-z
-x,-y,-z
1/2+x,y,-z
1/2-x,y,z
x,-y,z
loop_
_atom_site_type_symbol
_atom_site_label
_atom_site_fract_x
_atom_site_fract_y
_atom_site_fract_z
Si Si1 0.082935 0.182302 0.236124
Si Si2 0.750000 0.182482 0.366973
Si Si3 0.874508 0.183148 0.459401
Si Si4 0.250000 0.179971 0.832945
Si Si5 0.374713 0.676574 0.864575
Si Si6 0.930827 0.832573 0.971713
Si Si7 0.677800 0.317433 0.636657
Si Si8 0.543005 0.316940 0.305661
O O1 0.075296 0.230246 0.130843
O O2 0.148093 0.256629 0.269099
O O3 0.025513 0.249839 0.293363
O O4 0.084303 0.000000 0.249136
O O5 0.810972 0.244858 0.415513
O O6 0.750000 0.254824 0.267157
O O7 0.750000 0.000000 0.366317
O O8 0.869052 0.244674 0.561974
O O9 0.931169 0.255843 0.402503
O O10 0.881698 0.000000 0.458829
O O11 0.188768 0.234570 0.882911
O O12 0.250000 0.000000 0.826511
O O13 0.361053 0.500000 0.847145
O O14 0.413441 0.742595 0.778029
O O15 0.408466 0.700682 0.960111
O O16 0.896346 0.000000 0.980987
O O17 0.000000 0.864658 0.000000
O O18 0.750000 0.261502 0.628188
O O19 0.674930 0.500000 0.631561
O O20 0.539459 0.500000 0.307126
#
# Coordination Sequence:
#
# PCOD8214159 Si02
#       8
#     8   4   8   4   8   8   8   8
#     4  11  24  43  68  94 121 160 211 262 308 365
#     4   9  18  31  55  88 119 158 203 251 298 352
#     4  11  21  38  64  94 125 162 211 255 301 363
#     4  11  21  37  59  86 125 168 209 255 312 372
#     4  11  23  37  58  91 129 167 207 255 315 379
#     4  10  21  40  66  92 120 159 207 257 311 372
#     4  11  25  45  67  92 125 166 207 254 314 371
#     4  11  23  38  60  95 134 167 201 252 315 374
#
# _framework density 20.375662999999999
#
# number of rings (size 3 to 8) (size 9 to 14) (size 15 to 20)
#    0.000    1.286    3.571    2.357    0.000    4.000 
#    1.286    2.857    0.000    0.000    0.000    0.000 
#    0.000    0.000    0.000    0.000    0.000    0.000 
#
# Total GULP energy -694315.538799 kJ/mol
# GULP energy per Si atom -12398.491764 kJ/mol
# Density = 2.032929 g / cm^3
# Si number density = 20.375663 Si / 1000 Ang^3
#
#
#
# Elastic Constant Matrix: (Units=GPa)
#
#
# Indices 1 2 3 4 5 6 
#
# 1 94.5270 34.7988 40.3548 0.0000 0.0000 0.0000
# 2 34.7988 79.3295 27.3491 0.0000 0.0000 0.0000
# 3 40.3548 27.3491 115.2714 0.0000 0.0000 0.0000
# 4 0.0000 0.0000 0.0000 46.0900 0.0000 0.0000
# 5 0.0000 0.0000 0.0000 0.0000 26.3763 0.0000
# 6 0.0000 0.0000 0.0000 0.0000 0.0000 34.8143
#
#
#
# Elastic Compliance Matrix: (Units=1/GPa)
#
#
# Indices 1 2 3 4 5 6 
#
# 1 0.013954 -0.004832 -0.003739 0.000000 0.000000 0.000000
# 2 -0.004832 0.015402 -0.001963 0.000000 0.000000 0.000000
# 3 -0.003739 -0.001963 0.010450 0.000000 0.000000 0.000000
# 4 0.000000 0.000000 0.000000 0.021697 0.000000 0.000000
# 5 0.000000 0.000000 0.000000 0.000000 0.037913 0.000000
# 6 0.000000 0.000000 0.000000 0.000000 0.000000 0.028724
#
#
# Mechanical properties :
#
#
# Convention : Reuss Voigt Hill
#
# Bulk Modulus (GPa) = 53.36506 54.90372 54.13439
# Shear Modulus (GPa) = 32.16431 33.89780 33.03106
#
# Velocity S-wave (km/s) = 3.97743 4.08320 4.03066
# Velocity P-wave (km/s) = 6.88046 7.01671 6.94892
#
# Compressibility (1/GPa) = 0.01873885
#
# Stress axis : x y z
#
# Youngs Moduli (GPa) = 71.66435 64.92686 95.69709
#
# Poissons Ratio (x) = 0.31374 0.35777
# Poissons Ratio (y) = 0.34629 0.18781
# Poissons Ratio (z) = 0.26792 0.12742
#
# Static dielectric constant tensor:
#      x y z
#    x 3.568020 0.000000 0.000000 
#    y 0.000000 3.551020 0.000000 
#    z 0.000000 0.000000 3.804340 
# 
# 
# High freq. dielectric constant tensor:
#      x y z
#    x 1.794510 0.000000 0.000000 
#    y 0.000000 1.795570 0.000000 
#    z 0.000000 0.000000 1.797710 
# 
# From -- ./inp_files/25897.got.cif
#   From: 2010.03.12/outbox.cif.g09.slc.cpg/sg51_13_cif.got.tgz:25897.got - 2010.04.16 13:43:02.
