data_PCOD8214581
_publ_section_title
;
Structure prediction by ZEFSAII (Michael W. Deem and Ramdas Pophale) SiO2 
 PCOD8214581
Probable space group: P M M A
;
_chemical_formula_sum "Si O2"
_cell_formula_units_Z 48
_cell_length_a 16.295135
_cell_length_b 15.845054
_cell_length_c 8.794424
_cell_angle_alpha 90.000000
_cell_angle_beta 90.000000
_cell_angle_gamma 90.000000
_cell_volume 2270.696479
_symmetry_space_group_name_H-M "P M M A"
_symmetry_group_IT_number 51
_symmetry_cell_setting 'orthorhombic'
loop_
_space_group_symop_operation_xyz
x,y,z
1/2-x,-y,z
1/2+x,-y,-z
-x,y,-z
-x,-y,-z
1/2+x,y,-z
1/2-x,y,z
x,-y,z
loop_
_atom_site_type_symbol
_atom_site_label
_atom_site_fract_x
_atom_site_fract_y
_atom_site_fract_z
Si Si1 0.653310 0.177140 0.638093
Si Si2 0.343102 0.000000 0.748421
Si Si3 0.070889 0.278353 0.613999
Si Si4 0.931310 0.159227 0.124326
Si Si5 0.908623 0.000000 0.566781
Si Si6 0.342920 0.723031 0.077690
Si Si7 0.652062 0.403672 0.162683
O O1 0.750000 0.160813 0.659196
O O2 0.636213 0.218977 0.474650
O O3 0.606566 0.086645 0.661938
O O4 0.618550 0.244235 0.763770
O O5 0.396874 0.076423 0.803382
O O6 0.250000 0.000000 0.810861
O O7 0.340615 0.000000 0.566193
O O8 0.031272 0.219704 0.744982
O O9 0.114601 0.359557 0.687400
O O10 0.000000 0.309597 0.500000
O O11 0.852920 0.203642 0.046944
O O12 0.000000 0.139682 0.000000
O O13 0.000000 0.000000 0.500000
O O14 0.250000 0.702317 0.112204
O O15 0.381095 0.639090 0.996049
O O16 0.750000 0.394848 0.172833
O O17 0.622906 0.500000 0.161693
#
# Coordination Sequence:
#
# PCOD8214581 Si02
#       7
#     8   4   8   8   4   8   8
#     4  11  22  39  62  87 122 166 214 259 307 365
#     4  12  25  40  60  87 122 168 218 267 313 374
#     4  11  22  37  60  89 123 162 205 254 311 375
#     4  11  23  38  60  84 118 161 209 262 314 368
#     4  12  26  38  60  90 128 169 209 262 315 364
#     4   9  20  37  60  87 117 156 203 253 309 370
#     4   9  19  39  65  92 123 160 202 252 314 383
#
# _framework density 21.138888000000001
#
# number of rings (size 3 to 8) (size 9 to 14) (size 15 to 20)
#    0.000    1.500    1.667    3.500    2.333    2.333 
#    0.000    1.667    0.000   20.000    0.000    0.000 
#    0.000    0.000    0.000    0.000    0.000    0.000 
#
# Total GULP energy -594828.587136 kJ/mol
# GULP energy per Si atom -12392.262232 kJ/mol
# Density = 2.109077 g / cm^3
# Si number density = 21.138888 Si / 1000 Ang^3
#
#
#
# Elastic Constant Matrix: (Units=GPa)
#
#
# Indices 1 2 3 4 5 6 
#
# 1 76.4893 37.9187 29.5307 0.0000 0.0000 0.0000
# 2 37.9187 154.3060 53.4753 0.0000 0.0000 0.0000
# 3 29.5307 53.4753 113.4077 0.0000 0.0000 0.0000
# 4 0.0000 0.0000 0.0000 37.1742 0.0000 0.0000
# 5 0.0000 0.0000 0.0000 0.0000 30.0900 0.0000
# 6 0.0000 0.0000 0.0000 0.0000 0.0000 19.6012
#
#
#
# Elastic Compliance Matrix: (Units=1/GPa)
#
#
# Indices 1 2 3 4 5 6 
#
# 1 0.015542 -0.002889 -0.002685 0.000000 0.000000 0.000000
# 2 -0.002889 0.008283 -0.003154 0.000000 0.000000 0.000000
# 3 -0.002685 -0.003154 0.011004 0.000000 0.000000 0.000000
# 4 0.000000 0.000000 0.000000 0.026900 0.000000 0.000000
# 5 0.000000 0.000000 0.000000 0.000000 0.033234 0.000000
# 6 0.000000 0.000000 0.000000 0.000000 0.000000 0.051017
#
#
# Mechanical properties :
#
#
# Convention : Reuss Voigt Hill
#
# Bulk Modulus (GPa) = 57.55449 65.11693 61.33571
# Shear Modulus (GPa) = 29.54597 32.25830 30.90213
#
# Velocity S-wave (km/s) = 3.74265 3.91066 3.82758
# Velocity P-wave (km/s) = 6.77956 7.15977 6.97226
#
# Compressibility (1/GPa) = 0.01737484
#
# Stress axis : x y z
#
# Youngs Moduli (GPa) = 64.33991 120.72277 90.87645
#
# Poissons Ratio (x) = 0.34875 0.24400
# Poissons Ratio (y) = 0.18587 0.28659
# Poissons Ratio (z) = 0.17275 0.38072
#
# Static dielectric constant tensor:
#      x y z
#    x 3.689820 0.000000 0.000000 
#    y 0.000000 3.902620 0.000000 
#    z 0.000000 0.000000 4.134620 
# 
# 
# High freq. dielectric constant tensor:
#      x y z
#    x 1.830530 0.000000 0.000000 
#    y 0.000000 1.815980 0.000000 
#    z 0.000000 0.000000 1.834120 
# 
# From -- ./inp_files/9702.got.cif
#   From: 2010.03.12/outbox.cif.g09.slc.cpg/sg51_5_cif.got.tgz:9702.got - 2010.04.16 13:43:02.
