data_PCOD8214482
_publ_section_title
;
Structure prediction by ZEFSAII (Michael W. Deem and Ramdas Pophale) SiO2 
 PCOD8214482
Probable space group: P M M A
;
_chemical_formula_sum "Si O2"
_cell_formula_units_Z 56
_cell_length_a 9.003569
_cell_length_b 18.377993
_cell_length_c 21.324825
_cell_angle_alpha 90.000000
_cell_angle_beta 90.000000
_cell_angle_gamma 90.000000
_cell_volume 3528.566079
_symmetry_space_group_name_H-M "P M M A"
_symmetry_group_IT_number 51
_symmetry_cell_setting 'orthorhombic'
loop_
_space_group_symop_operation_xyz
x,y,z
1/2-x,-y,z
1/2+x,-y,-z
-x,y,-z
-x,-y,-z
1/2+x,y,-z
1/2-x,y,z
x,-y,z
loop_
_atom_site_type_symbol
_atom_site_label
_atom_site_fract_x
_atom_site_fract_y
_atom_site_fract_z
Si Si1 0.924898 0.416443 0.810924
Si Si2 0.424710 0.664104 0.314266
Si Si3 0.582941 0.705814 0.124503
Si Si4 0.913923 0.212066 0.255716
Si Si5 0.923744 0.083455 0.176006
Si Si6 0.427055 0.164400 0.064166
Si Si7 0.925115 0.583571 0.563290
O O1 0.750000 0.405495 0.819285
O O2 0.972435 0.500000 0.816131
O O3 0.976991 0.387059 0.743000
O O4 0.007189 0.373000 0.866568
O O5 0.250000 0.666648 0.317643
O O6 0.480816 0.747057 0.305295
O O7 0.488124 0.630622 0.378659
O O8 0.750000 0.696386 0.097973
O O9 0.585378 0.745336 0.190707
O O10 0.486061 0.753929 0.076866
O O11 0.750000 0.210951 0.285497
O O12 0.966998 0.130028 0.238477
O O13 0.750000 0.097100 0.159612
O O14 0.023003 0.108114 0.117626
O O15 0.957348 0.000000 0.191597
O O16 0.250000 0.165118 0.059336
O O17 0.500000 0.135925 0.000000
O O18 0.750000 0.592115 0.556418
O O19 0.970009 0.500000 0.575420
O O20 0.000000 0.613300 0.500000
#
# Coordination Sequence:
#
# PCOD8214482 Si02
#       7
#     8   8   8   8   8   8   8
#     4   9  16  26  42  64  87 111 141 178 220 263
#     4   9  16  26  41  60  84 115 148 181 215 254
#     4   9  17  30  45  62  85 111 141 177 217 258
#     4   8  15  27  43  63  85 110 140 174 210 249
#     4   9  18  33  50  68  93 120 142 169 208 252
#     4  11  21  33  49  67  87 113 146 178 209 250
#     4   9  17  28  40  56  82 117 154 188 221 255
#
# _framework density 15.870469
#
# number of rings (size 3 to 8) (size 9 to 14) (size 15 to 20)
#    0.000    2.857    0.000    3.000    0.000    6.571 
#    0.000    0.000    0.000    3.000    0.000    0.000 
#    0.000    0.571    0.000    1.286    0.000    2.000 
#
# Total GULP energy -694192.534842 kJ/mol
# GULP energy per Si atom -12396.295265 kJ/mol
# Density = 1.583435 g / cm^3
# Si number density = 15.870469 Si / 1000 Ang^3
#
#
#
# Elastic Constant Matrix: (Units=GPa)
#
#
# Indices 1 2 3 4 5 6 
#
# 1 59.4944 34.2080 22.8720 0.0000 0.0000 0.0000
# 2 34.2080 115.5183 38.0095 0.0000 0.0000 0.0000
# 3 22.8720 38.0095 52.5865 0.0000 0.0000 0.0000
# 4 0.0000 0.0000 0.0000 18.0420 0.0000 0.0000
# 5 0.0000 0.0000 0.0000 0.0000 22.1045 0.0000
# 6 0.0000 0.0000 0.0000 0.0000 0.0000 24.2088
#
#
#
# Elastic Compliance Matrix: (Units=1/GPa)
#
#
# Indices 1 2 3 4 5 6 
#
# 1 0.021740 -0.004365 -0.006301 0.000000 0.000000 0.000000
# 2 -0.004365 0.012234 -0.006944 0.000000 0.000000 0.000000
# 3 -0.006301 -0.006944 0.026776 0.000000 0.000000 0.000000
# 4 0.000000 0.000000 0.000000 0.055426 0.000000 0.000000
# 5 0.000000 0.000000 0.000000 0.000000 0.045240 0.000000
# 6 0.000000 0.000000 0.000000 0.000000 0.000000 0.041307
#
#
# Mechanical properties :
#
#
# Convention : Reuss Voigt Hill
#
# Bulk Modulus (GPa) = 39.16879 46.41979 42.79429
# Shear Modulus (GPa) = 20.28777 21.70504 20.99640
#
# Velocity S-wave (km/s) = 3.57926 3.70217 3.64123
# Velocity P-wave (km/s) = 6.46648 6.89836 6.68591
#
# Compressibility (1/GPa) = 0.02553053
#
# Stress axis : x y z
#
# Youngs Moduli (GPa) = 45.99781 81.73900 37.34654
#
# Poissons Ratio (x) = 0.35676 0.23532
# Poissons Ratio (y) = 0.20076 0.25935
# Poissons Ratio (z) = 0.28983 0.56763
#
# Static dielectric constant tensor:
#      x y z
#    x 3.035880 0.000000 0.000000 
#    y 0.000000 3.158280 0.000000 
#    z 0.000000 0.000000 2.917570 
# 
# 
# High freq. dielectric constant tensor:
#      x y z
#    x 1.610250 0.000000 0.000000 
#    y 0.000000 1.600230 0.000000 
#    z 0.000000 0.000000 1.575440 
# 
# From -- ./inp_files/32211.got.cif
#   From: 2010.03.12/outbox.cif.g09.slc.cpg/sg51_17_cif.got.tgz:32211.got - 2010.04.16 13:43:02.
