data_PCOD8214753
_publ_section_title
;
Structure prediction by ZEFSAII (Michael W. Deem and Ramdas Pophale) SiO2 
 PCOD8214753
Probable space group: P M M A
;
_chemical_formula_sum "Si O2"
_cell_formula_units_Z 48
_cell_length_a 9.181948
_cell_length_b 9.822740
_cell_length_c 31.246139
_cell_angle_alpha 90.000000
_cell_angle_beta 90.000000
_cell_angle_gamma 90.000000
_cell_volume 2818.148266
_symmetry_space_group_name_H-M "P M M A"
_symmetry_group_IT_number 51
_symmetry_cell_setting 'orthorhombic'
loop_
_space_group_symop_operation_xyz
x,y,z
1/2-x,-y,z
1/2+x,-y,-z
-x,y,-z
-x,-y,-z
1/2+x,y,-z
1/2-x,y,z
x,-y,z
loop_
_atom_site_type_symbol
_atom_site_label
_atom_site_fract_x
_atom_site_fract_y
_atom_site_fract_z
Si Si1 0.423523 0.348124 0.118046
Si Si2 0.414722 0.337734 0.375563
Si Si3 0.587801 0.661886 0.787972
Si Si4 0.420931 0.156364 0.042875
Si Si5 0.414992 0.337715 0.541517
Si Si6 0.586200 0.337572 0.292940
O O1 0.250000 0.350934 0.118182
O O2 0.483575 0.500000 0.108324
O O3 0.474852 0.297195 0.165143
O O4 0.483054 0.245370 0.082130
O O5 0.250000 0.281476 0.376967
O O6 0.413795 0.500000 0.375761
O O7 0.502606 0.282137 0.416532
O O8 0.493012 0.282424 0.332909
O O9 0.750000 0.722132 0.780953
O O10 0.596193 0.500000 0.785440
O O11 0.483214 0.719953 0.750971
O O12 0.250000 0.178757 0.036453
O O13 0.458750 0.000000 0.052923
O O14 0.500000 0.206367 0.000000
O O15 0.500000 0.282335 0.500000
O O16 0.250000 0.281571 0.541126
O O17 0.413644 0.500000 0.541515
O O18 0.750000 0.281354 0.296823
O O19 0.585911 0.500000 0.292746
#
# Coordination Sequence:
#
# PCOD8214753 Si02
#       6
#     8   8   8   8   8   8
#     4   8  14  25  41  59  78 101 129 159 191 229
#     4   9  15  21  28  37  49  68  96 127 160 204
#     4   8  13  22  35  48  62  83 110 137 167 207
#     4   9  17  29  44  61  81 105 132 161 193 229
#     4   9  15  21  27  34  45  62  87 123 168 214
#     4   9  15  21  29  42  60  79  98 125 164 208
#
# _framework density 17.03246
#
# number of rings (size 3 to 8) (size 9 to 14) (size 15 to 20)
#    0.000    3.333    0.000    2.500    0.000    6.333 
#    0.000    0.833    0.000    1.000    0.000    0.000 
#    0.000    0.000    0.000    0.000    0.000    0.000 
#
# Total GULP energy -594950.245424 kJ/mol
# GULP energy per Si atom -12394.796780 kJ/mol
# Density = 1.699369 g / cm^3
# Si number density = 17.032460 Si / 1000 Ang^3
#
#
#
# Elastic Constant Matrix: (Units=GPa)
#
#
# Indices 1 2 3 4 5 6 
#
# 1 115.1547 15.7099 80.8807 0.0000 0.0000 0.0000
# 2 15.7099 19.8095 34.8890 0.0000 0.0000 0.0000
# 3 80.8807 34.8890 194.2995 0.0000 0.0000 0.0000
# 4 0.0000 0.0000 0.0000 1.1132 0.0000 0.0000
# 5 0.0000 0.0000 0.0000 0.0000 33.2001 0.0000
# 6 0.0000 0.0000 0.0000 0.0000 0.0000 5.2711
#
#
#
# Elastic Compliance Matrix: (Units=1/GPa)
#
#
# Indices 1 2 3 4 5 6 
#
# 1 0.012288 -0.001077 -0.004922 0.000000 0.000000 0.000000
# 2 -0.001077 0.073924 -0.012826 0.000000 0.000000 0.000000
# 3 -0.004922 -0.012826 0.009498 0.000000 0.000000 0.000000
# 4 0.000000 0.000000 0.000000 0.898303 0.000000 0.000000
# 5 0.000000 0.000000 0.000000 0.000000 0.030120 0.000000
# 6 0.000000 0.000000 0.000000 0.000000 0.000000 0.189714
#
#
# Mechanical properties :
#
#
# Convention : Reuss Voigt Hill
#
# Bulk Modulus (GPa) = 17.22306 65.80254 41.51280
# Shear Modulus (GPa) = 3.93438 21.10249 12.51844
#
# Velocity S-wave (km/s) = 1.52149 3.52370 2.71398
# Velocity P-wave (km/s) = 3.63599 7.43457 5.85206
#
# Compressibility (1/GPa) = 0.05806169
#
# Stress axis : x y z
#
# Youngs Moduli (GPa) = 81.38265 13.52747 105.28039
#
# Poissons Ratio (x) = 0.01456 0.51815
# Poissons Ratio (y) = 0.08762 1.35030
# Poissons Ratio (z) = 0.40054 0.17350
#
# Static dielectric constant tensor:
#      x y z
#    x 3.211160 0.000000 0.000000 
#    y 0.000000 2.504900 0.000000 
#    z 0.000000 0.000000 3.572170 
# 
# 
# High freq. dielectric constant tensor:
#      x y z
#    x 1.649600 0.000000 0.000000 
#    y 0.000000 1.565520 0.000000 
#    z 0.000000 0.000000 1.678340 
# 
# From -- ./inp_files/36138.got.cif
#   From: 2010.03.12/outbox.cif.g09.slc.cpg/sg51_19_cif.got.tgz:36138.got - 2010.04.16 13:43:02.
