data_PCOD8214138
_publ_section_title
;
Structure prediction by ZEFSAII (Michael W. Deem and Ramdas Pophale) SiO2 
 PCOD8214138
Probable space group: P M M A
;
_chemical_formula_sum "Si O2"
_cell_formula_units_Z 56
_cell_length_a 16.579317
_cell_length_b 30.891261
_cell_length_c 4.990409
_cell_angle_alpha 90.000000
_cell_angle_beta 90.000000
_cell_angle_gamma 90.000000
_cell_volume 2555.867955
_symmetry_space_group_name_H-M "P M M A"
_symmetry_group_IT_number 51
_symmetry_cell_setting 'orthorhombic'
loop_
_space_group_symop_operation_xyz
x,y,z
1/2-x,-y,z
1/2+x,-y,-z
-x,y,-z
-x,-y,-z
1/2+x,y,-z
1/2-x,y,z
x,-y,z
loop_
_atom_site_type_symbol
_atom_site_label
_atom_site_fract_x
_atom_site_fract_y
_atom_site_fract_z
Si Si1 0.657163 0.594259 0.384652
Si Si2 0.589176 0.450081 0.900646
Si Si3 0.341594 0.239616 0.688294
Si Si4 0.341443 0.049206 0.613094
Si Si5 0.443435 0.323310 0.750846
Si Si6 0.658317 0.816861 0.801024
Si Si7 0.588681 0.092183 0.887981
O O1 0.750000 0.599426 0.468330
O O2 0.607011 0.578520 0.640846
O O3 0.623149 0.639685 0.282654
O O4 0.650453 0.559966 0.142291
O O5 0.597311 0.500000 0.817446
O O6 0.500000 0.438227 0.000000
O O7 0.250000 0.256785 0.656416
O O8 0.396926 0.278492 0.789094
O O9 0.373147 0.219374 0.408665
O O10 0.346829 0.201631 0.902592
O O11 0.250000 0.054393 0.510131
O O12 0.400220 0.061969 0.370512
O O13 0.360739 0.000000 0.697649
O O14 0.350919 0.079443 0.873430
O O15 0.500000 0.319701 0.500000
O O16 0.500000 0.334165 0.000000
O O17 0.750000 0.829660 0.723820
O O18 0.602656 0.858922 0.788793
O O19 0.500000 0.085641 0.000000
#
# Coordination Sequence:
#
# PCOD8214138 Si02
#       7
#     8   8   8   8   8   8   8
#     4  12  25  42  66  95 130 170 217 270 319 381
#     4  11  24  43  67  95 130 171 214 265 328 391
#     4  10  22  41  64  91 121 158 205 255 308 366
#     4  11  24  43  66  90 122 168 217 261 314 386
#     4  12  25  42  65  92 126 166 208 257 316 378
#     4  10  21  39  64  90 123 164 203 248 305 376
#     4  12  25  40  63  96 130 164 207 265 323 376
#
# _framework density 21.910367000000001
#
# number of rings (size 3 to 8) (size 9 to 14) (size 15 to 20)
#    0.000    0.857    0.000    7.714    0.000    8.571 
#    0.000    4.286    0.000    0.000    0.000    0.000 
#    0.000    0.000    0.000    0.000    0.000    0.000 
#
# Total GULP energy -694821.950756 kJ/mol
# GULP energy per Si atom -12407.534835 kJ/mol
# Density = 2.186050 g / cm^3
# Si number density = 21.910367 Si / 1000 Ang^3
#
#
#
# Elastic Constant Matrix: (Units=GPa)
#
#
# Indices 1 2 3 4 5 6 
#
# 1 85.7621 54.0168 21.5100 0.0000 0.0000 0.0000
# 2 54.0168 109.3363 34.5288 0.0000 0.0000 0.0000
# 3 21.5100 34.5288 121.9673 0.0000 0.0000 0.0000
# 4 0.0000 0.0000 0.0000 36.0901 0.0000 0.0000
# 5 0.0000 0.0000 0.0000 0.0000 31.7009 0.0000
# 6 0.0000 0.0000 0.0000 0.0000 0.0000 27.6738
#
#
#
# Elastic Compliance Matrix: (Units=1/GPa)
#
#
# Indices 1 2 3 4 5 6 
#
# 1 0.016979 -0.008173 -0.000680 0.000000 0.000000 0.000000
# 2 -0.008173 0.013979 -0.002516 0.000000 0.000000 0.000000
# 3 -0.000680 -0.002516 0.009031 0.000000 0.000000 0.000000
# 4 0.000000 0.000000 0.000000 0.027708 0.000000 0.000000
# 5 0.000000 0.000000 0.000000 0.000000 0.031545 0.000000
# 6 0.000000 0.000000 0.000000 0.000000 0.000000 0.036135
#
#
# Mechanical properties :
#
#
# Convention : Reuss Voigt Hill
#
# Bulk Modulus (GPa) = 57.97400 59.68634 58.83017
# Shear Modulus (GPa) = 30.51268 32.89363 31.70316
#
# Velocity S-wave (km/s) = 3.73582 3.87884 3.80800
# Velocity P-wave (km/s) = 6.71756 6.88192 6.80023
#
# Compressibility (1/GPa) = 0.01724911
#
# Stress axis : x y z
#
# Youngs Moduli (GPa) = 58.89703 71.53792 110.72761
#
# Poissons Ratio (x) = 0.58470 0.07535
# Poissons Ratio (y) = 0.48139 0.27858
# Poissons Ratio (z) = 0.04008 0.17998
#
# Static dielectric constant tensor:
#      x y z
#    x 3.919710 0.000000 0.000000 
#    y 0.000000 3.988800 0.000000 
#    z 0.000000 0.000000 4.011250 
# 
# 
# High freq. dielectric constant tensor:
#      x y z
#    x 1.860490 0.000000 0.000000 
#    y 0.000000 1.868860 0.000000 
#    z 0.000000 0.000000 1.876710 
# 
# From -- ./inp_files/1479.got.cif
#   From: 2010.03.12/outbox.cif.g09.slc.cpg/sg51_1_cif.got.tgz:1479.got - 2010.04.16 13:43:02.
