data_PCOD8214484
_publ_section_title
;
Structure prediction by ZEFSAII (Michael W. Deem and Ramdas Pophale) SiO2 
 PCOD8214484
Probable space group: P M M A
;
_chemical_formula_sum "Si O2"
_cell_formula_units_Z 48
_cell_length_a 9.235650
_cell_length_b 18.656742
_cell_length_c 14.791541
_cell_angle_alpha 90.000000
_cell_angle_beta 90.000000
_cell_angle_gamma 90.000000
_cell_volume 2548.688115
_symmetry_space_group_name_H-M "P M M A"
_symmetry_group_IT_number 51
_symmetry_cell_setting 'orthorhombic'
loop_
_space_group_symop_operation_xyz
x,y,z
1/2-x,-y,z
1/2+x,-y,-z
-x,y,-z
-x,-y,-z
1/2+x,y,-z
1/2-x,y,z
x,-y,z
loop_
_atom_site_type_symbol
_atom_site_label
_atom_site_fract_x
_atom_site_fract_y
_atom_site_fract_z
Si Si1 0.588635 0.693519 0.263243
Si Si2 0.575084 0.223449 0.089558
Si Si3 0.909975 0.919728 0.647951
Si Si4 0.918773 0.080831 0.857226
Si Si5 0.409626 0.200857 0.576831
Si Si6 0.580188 0.417208 0.406765
O O1 0.750000 0.668067 0.239236
O O2 0.517852 0.722836 0.170017
O O3 0.587153 0.761699 0.327427
O O4 0.515621 0.627896 0.320558
O O5 0.750000 0.222848 0.084488
O O6 0.519634 0.141427 0.097963
O O7 0.500000 0.255901 0.000000
O O8 0.750000 0.886031 0.637108
O O9 0.955198 0.917365 0.752050
O O10 0.022669 0.877220 0.587429
O O11 0.912089 0.000000 0.611421
O O12 0.750000 0.098590 0.876126
O O13 0.954701 0.000000 0.893822
O O14 0.500000 0.243987 0.500000
O O15 0.250000 0.192112 0.538517
O O16 0.500000 0.397013 0.500000
O O17 0.750000 0.397954 0.420162
O O18 0.556163 0.500000 0.382931
#
# Coordination Sequence:
#
# PCOD8214484 Si02
#       6
#     8   8   8   8   8   8
#     4   9  19  35  53  76 107 138 171 211 257 309
#     4  11  22  37  55  77 104 136 177 223 267 318
#     4   9  18  33  51  70  95 128 168 214 259 306
#     4   9  18  34  55  77 101 130 170 222 276 325
#     4  11  21  33  49  72 100 133 171 212 255 306
#     4   9  17  32  56  85 115 145 175 208 249 301
#
# _framework density 18.833217999999999
#
# number of rings (size 3 to 8) (size 9 to 14) (size 15 to 20)
#    0.000    2.333    1.667    2.500    0.000    1.333 
#    0.000    4.167    0.000    0.500    0.000    0.000 
#    0.000    0.000    0.000    0.000    0.000    0.167 
#
# Total GULP energy -594630.208448 kJ/mol
# GULP energy per Si atom -12388.129343 kJ/mol
# Density = 1.879035 g / cm^3
# Si number density = 18.833218 Si / 1000 Ang^3
#
#
#
# Elastic Constant Matrix: (Units=GPa)
#
#
# Indices 1 2 3 4 5 6 
#
# 1 83.5808 31.6652 44.8151 0.0000 0.0000 0.0000
# 2 31.6652 94.1546 53.6298 0.0000 0.0000 0.0000
# 3 44.8151 53.6298 120.8321 0.0000 0.0000 0.0000
# 4 0.0000 0.0000 0.0000 21.9831 0.0000 0.0000
# 5 0.0000 0.0000 0.0000 0.0000 28.8764 0.0000
# 6 0.0000 0.0000 0.0000 0.0000 0.0000 16.1669
#
#
#
# Elastic Compliance Matrix: (Units=1/GPa)
#
#
# Indices 1 2 3 4 5 6 
#
# 1 0.015387 -0.002575 -0.004564 0.000000 0.000000 0.000000
# 2 -0.002575 0.014645 -0.005545 0.000000 0.000000 0.000000
# 3 -0.004564 -0.005545 0.012430 0.000000 0.000000 0.000000
# 4 0.000000 0.000000 0.000000 0.045489 0.000000 0.000000
# 5 0.000000 0.000000 0.000000 0.000000 0.034630 0.000000
# 6 0.000000 0.000000 0.000000 0.000000 0.000000 0.061855
#
#
# Mechanical properties :
#
#
# Convention : Reuss Voigt Hill
#
# Bulk Modulus (GPa) = 58.50056 62.08752 60.29404
# Shear Modulus (GPa) = 23.20152 24.63579 23.91866
#
# Velocity S-wave (km/s) = 3.51372 3.62069 3.56761
# Velocity P-wave (km/s) = 6.89866 7.10759 7.00390
#
# Compressibility (1/GPa) = 0.01709385
#
# Stress axis : x y z
#
# Youngs Moduli (GPa) = 64.98879 68.28121 80.45238
#
# Poissons Ratio (x) = 0.17585 0.36718
# Poissons Ratio (y) = 0.16737 0.44611
# Poissons Ratio (z) = 0.29660 0.37862
#
# Static dielectric constant tensor:
#      x y z
#    x 3.407840 0.000000 0.000000 
#    y 0.000000 3.404470 0.000000 
#    z 0.000000 0.000000 3.596690 
# 
# 
# High freq. dielectric constant tensor:
#      x y z
#    x 1.713770 0.000000 0.000000 
#    y 0.000000 1.714220 0.000000 
#    z 0.000000 0.000000 1.734050 
# 
# From -- ./inp_files/21114.got.cif
#   From: 2010.03.12/outbox.cif.g09.slc.cpg/sg51_11_cif.got.tgz:21114.got - 2010.04.16 13:43:02.
