data_PCOD8214242
_publ_section_title
;
Structure prediction by ZEFSAII (Michael W. Deem and Ramdas Pophale) SiO2 
 PCOD8214242
Probable space group: P M M A
;
_chemical_formula_sum "Si O2"
_cell_formula_units_Z 48
_cell_length_a 15.931914
_cell_length_b 9.278994
_cell_length_c 15.713063
_cell_angle_alpha 90.000000
_cell_angle_beta 90.000000
_cell_angle_gamma 90.000000
_cell_volume 2322.895641
_symmetry_space_group_name_H-M "P M M A"
_symmetry_group_IT_number 51
_symmetry_cell_setting 'orthorhombic'
loop_
_space_group_symop_operation_xyz
x,y,z
1/2-x,-y,z
1/2+x,-y,-z
-x,y,-z
-x,-y,-z
1/2+x,y,-z
1/2-x,y,z
x,-y,z
loop_
_atom_site_type_symbol
_atom_site_label
_atom_site_fract_x
_atom_site_fract_y
_atom_site_fract_z
Si Si1 0.156513 0.169078 0.285515
Si Si2 0.889404 0.663177 0.365983
Si Si3 0.847714 0.835466 0.521746
Si Si4 0.750000 0.168936 0.067495
Si Si5 0.250000 0.832160 0.732213
Si Si6 0.418611 0.331139 0.944014
Si Si7 0.987878 0.660392 0.778919
O O1 0.250000 0.215881 0.259239
O O2 0.138189 0.218828 0.382207
O O3 0.094095 0.240414 0.218037
O O4 0.145562 0.000000 0.279433
O O5 0.854783 0.500000 0.375143
O O6 0.901024 0.733493 0.459015
O O7 0.830496 0.760052 0.308392
O O8 0.977705 0.663666 0.317267
O O9 0.750000 0.822794 0.496509
O O10 0.878192 0.000000 0.511237
O O11 0.750000 0.195466 0.167815
O O12 0.664965 0.241888 0.029485
O O13 0.750000 0.000000 0.043525
O O14 0.250000 0.000000 0.709188
O O15 0.397178 0.500000 0.953309
O O16 0.442448 0.288559 0.846890
O O17 0.500000 0.288304 0.000000
O O18 0.959171 0.500000 0.804829
#
# Coordination Sequence:
#
# PCOD8214242 Si02
#       7
#     8   8   8   4   4   8   8
#     4   9  20  39  59  78 107 154 202 242 292 351
#     4  11  21  32  52  83 116 149 190 241 293 338
#     4   9  18  33  52  76 109 150 199 243 283 346
#     4  11  23  39  65  97 126 159 196 245 307 360
#     4  11  21  33  53  83 116 153 192 229 285 354
#     4  10  22  43  68  92 124 164 203 243 295 364
#     4  10  22  38  57  85 116 147 190 245 292 343
#
# _framework density 20.663864
#
# number of rings (size 3 to 8) (size 9 to 14) (size 15 to 20)
#    0.000    2.000    2.500    2.000    0.000    4.667 
#    1.500    5.000    0.000    0.000    0.000    0.000 
#    0.000    0.000    0.000    0.000    0.000    0.000 
#
# Total GULP energy -595116.626764 kJ/mol
# GULP energy per Si atom -12398.263058 kJ/mol
# Density = 2.061683 g / cm^3
# Si number density = 20.663864 Si / 1000 Ang^3
#
#
#
# Elastic Constant Matrix: (Units=GPa)
#
#
# Indices 1 2 3 4 5 6 
#
# 1 121.0232 59.3448 33.9873 0.0000 0.0000 0.0000
# 2 59.3448 95.3008 26.9086 0.0000 0.0000 0.0000
# 3 33.9873 26.9086 37.1943 0.0000 0.0000 0.0000
# 4 0.0000 0.0000 0.0000 27.4777 0.0000 0.0000
# 5 0.0000 0.0000 0.0000 0.0000 31.0391 0.0000
# 6 0.0000 0.0000 0.0000 0.0000 0.0000 40.8882
#
#
#
# Elastic Compliance Matrix: (Units=1/GPa)
#
#
# Indices 1 2 3 4 5 6 
#
# 1 0.013507 -0.006191 -0.007864 0.000000 0.000000 0.000000
# 2 -0.006191 0.016024 -0.005936 0.000000 0.000000 0.000000
# 3 -0.007864 -0.005936 0.038366 0.000000 0.000000 0.000000
# 4 0.000000 0.000000 0.000000 0.036393 0.000000 0.000000
# 5 0.000000 0.000000 0.000000 0.000000 0.032217 0.000000
# 6 0.000000 0.000000 0.000000 0.000000 0.000000 0.024457
#
#
# Mechanical properties :
#
#
# Convention : Reuss Voigt Hill
#
# Bulk Modulus (GPa) = 35.82116 54.88884 45.35500
# Shear Modulus (GPa) = 23.78122 28.76619 26.27370
#
# Velocity S-wave (km/s) = 3.39611 3.73513 3.56965
# Velocity P-wave (km/s) = 5.72284 6.72473 6.24391
#
# Compressibility (1/GPa) = 0.02791646
#
# Stress axis : x y z
#
# Youngs Moduli (GPa) = 74.03670 62.40623 26.06481
#
# Poissons Ratio (x) = 0.38633 0.20496
# Poissons Ratio (y) = 0.45832 0.15472
# Poissons Ratio (z) = 0.58220 0.37044
#
# Static dielectric constant tensor:
#      x y z
#    x 3.592500 0.000000 0.000000 
#    y 0.000000 3.657890 0.000000 
#    z 0.000000 0.000000 3.733850 
# 
# 
# High freq. dielectric constant tensor:
#      x y z
#    x 1.802710 0.000000 0.000000 
#    y 0.000000 1.801410 0.000000 
#    z 0.000000 0.000000 1.798900 
# 
# From -- ./inp_files/29568.got.cif
#   From: 2010.03.12/outbox.cif.g09.slc.cpg/sg51_15_cif.got.tgz:29568.got - 2010.04.16 13:43:02.
