data_PCOD8214586
_publ_section_title
;
Structure prediction by ZEFSAII (Michael W. Deem and Ramdas Pophale) SiO2 
 PCOD8214586
Probable space group: P M M A
;
_chemical_formula_sum "Si O2"
_cell_formula_units_Z 64
_cell_length_a 17.908132
_cell_length_b 14.608883
_cell_length_c 12.462782
_cell_angle_alpha 90.000000
_cell_angle_beta 90.000000
_cell_angle_gamma 90.000000
_cell_volume 3260.485673
_symmetry_space_group_name_H-M "P M M A"
_symmetry_group_IT_number 51
_symmetry_cell_setting 'orthorhombic'
loop_
_space_group_symop_operation_xyz
x,y,z
1/2-x,-y,z
1/2+x,-y,-z
-x,y,-z
-x,-y,-z
1/2+x,y,-z
1/2-x,y,z
x,-y,z
loop_
_atom_site_type_symbol
_atom_site_label
_atom_site_fract_x
_atom_site_fract_y
_atom_site_fract_z
Si Si1 0.661573 0.399851 0.901300
Si Si2 0.082831 0.108952 0.820790
Si Si3 0.337485 0.789159 0.013453
Si Si4 0.161785 0.206197 0.626240
Si Si5 0.667239 0.155096 0.610644
Si Si6 0.661468 0.599418 0.441142
Si Si7 0.912216 0.898682 0.807965
Si Si8 0.166876 0.638614 0.329488
O O1 0.750000 0.388783 0.889234
O O2 0.639910 0.500000 0.949484
O O3 0.635423 0.317504 0.979780
O O4 0.625826 0.391324 0.781155
O O5 0.120581 0.147381 0.714518
O O6 0.996470 0.137017 0.818447
O O7 0.095384 0.000000 0.827350
O O8 0.117610 0.158341 0.922807
O O9 0.250000 0.797024 0.988018
O O10 0.355040 0.834813 0.127759
O O11 0.250000 0.200904 0.646888
O O12 0.139783 0.161964 0.512024
O O13 0.133798 0.313264 0.628684
O O14 0.750000 0.111079 0.613202
O O15 0.610624 0.095676 0.682239
O O16 0.669148 0.252960 0.666454
O O17 0.750000 0.612718 0.453491
O O18 0.641724 0.500000 0.388119
O O19 0.626650 0.601327 0.562059
O O20 0.907450 0.000000 0.857606
O O21 0.250000 0.597128 0.326720
#
# Coordination Sequence:
#
# PCOD8214586 Si02
#       8
#     8   8   8   8   8   8   8   8
#     4   9  16  27  49  83 116 141 170 215 272 328
#     4  11  25  42  57  75 105 152 198 227 268 338
#     4  11  22  38  61  86 111 139 181 234 280 322
#     4   9  19  35  56  82 112 146 188 231 270 319
#     4   9  17  32  55  87 118 140 173 226 279 322
#     4   8  13  23  45  79 113 142 175 219 271 322
#     4  11  23  38  58  83 110 142 181 230 289 341
#     4   8  12  22  43  76 114 144 169 206 262 323
#
# _framework density 19.628976999999999
#
# number of rings (size 3 to 8) (size 9 to 14) (size 15 to 20)
#    0.000    2.500    1.250    3.375    0.000    6.000 
#    0.000    3.125    0.000    5.250    0.000    1.750 
#    0.000    0.000    0.000    0.000    0.000    0.000 
#
# Total GULP energy -792962.331696 kJ/mol
# GULP energy per Si atom -12390.036433 kJ/mol
# Density = 1.958430 g / cm^3
# Si number density = 19.628977 Si / 1000 Ang^3
#
#
#
# Elastic Constant Matrix: (Units=GPa)
#
#
# Indices 1 2 3 4 5 6 
#
# 1 32.0144 20.7660 15.1642 0.0000 0.0000 0.0000
# 2 20.7660 114.8223 43.4145 0.0000 0.0000 0.0000
# 3 15.1642 43.4145 86.8757 0.0000 0.0000 0.0000
# 4 0.0000 0.0000 0.0000 25.3464 0.0000 0.0000
# 5 0.0000 0.0000 0.0000 0.0000 24.4901 0.0000
# 6 0.0000 0.0000 0.0000 0.0000 0.0000 -8.9573
#
#
#
# Elastic Compliance Matrix: (Units=1/GPa)
#
#
# Indices 1 2 3 4 5 6 
#
# 1 0.036364 -0.005150 -0.003774 0.000000 0.000000 0.000000
# 2 -0.005150 0.011467 -0.004832 0.000000 0.000000 0.000000
# 3 -0.003774 -0.004832 0.014584 0.000000 0.000000 0.000000
# 4 0.000000 0.000000 0.000000 0.039453 0.000000 0.000000
# 5 0.000000 0.000000 0.000000 0.000000 0.040833 0.000000
# 6 0.000000 0.000000 0.000000 0.000000 0.000000 -0.111640
#
#
# Mechanical properties :
#
#
# Convention : Reuss Voigt Hill
#
# Bulk Modulus (GPa) = 28.64945 43.60019 36.12482
# Shear Modulus (GPa) = 71.21887 18.46702 44.84295
#
# Velocity S-wave (km/s) = 6.03003 3.07058 4.78486
# Velocity P-wave (km/s) = 7.94411 5.90184 6.99788
#
# Compressibility (1/GPa) = 0.03490468
#
# Stress axis : x y z
#
# Youngs Moduli (GPa) = 27.49987 87.20441 68.56839
#
# Poissons Ratio (x) = 0.44907 0.25877
# Poissons Ratio (y) = 0.14161 0.33130
# Poissons Ratio (z) = 0.10378 0.42135
#
# Static dielectric constant tensor:
#      x y z
#    x 3.149040 0.000000 0.000000 
#    y 0.000000 3.784670 0.000000 
#    z 0.000000 0.000000 3.523050 
# 
# 
# High freq. dielectric constant tensor:
#      x y z
#    x 1.710230 0.000000 0.000000 
#    y 0.000000 1.778970 0.000000 
#    z 0.000000 0.000000 1.756030 
# 
# From -- ./inp_files/17549.got.cif
#   From: 2010.03.12/outbox.cif.g09.slc.cpg/sg51_9_cif.got.tgz:17549.got - 2010.04.16 13:43:02.
