data_PCOD8214227
_publ_section_title
;
Structure prediction by ZEFSAII (Michael W. Deem and Ramdas Pophale) SiO2 
 PCOD8214227
Probable space group: P M M A
;
_chemical_formula_sum "Si O2"
_cell_formula_units_Z 52
_cell_length_a 9.551591
_cell_length_b 8.347908
_cell_length_c 35.498541
_cell_angle_alpha 90.000000
_cell_angle_beta 90.000000
_cell_angle_gamma 90.000000
_cell_volume 2830.504669
_symmetry_space_group_name_H-M "P M M A"
_symmetry_group_IT_number 51
_symmetry_cell_setting 'orthorhombic'
loop_
_space_group_symop_operation_xyz
x,y,z
1/2-x,-y,z
1/2+x,-y,-z
-x,y,-z
-x,-y,-z
1/2+x,y,-z
1/2-x,y,z
x,-y,z
loop_
_atom_site_type_symbol
_atom_site_label
_atom_site_fract_x
_atom_site_fract_y
_atom_site_fract_z
Si Si1 0.912859 0.183931 0.389383
Si Si2 0.913078 0.315025 0.913322
Si Si3 0.593634 0.312228 0.466658
Si Si4 0.089580 0.185810 0.763334
Si Si5 0.907492 0.313542 0.159536
Si Si6 0.086619 0.000000 0.037829
Si Si7 0.409499 0.313987 0.687012
O O1 0.750000 0.229658 0.386213
O O2 0.975457 0.274874 0.425830
O O3 0.984145 0.235334 0.349659
O O4 0.940932 0.000000 0.396483
O O5 0.750000 0.308161 0.903592
O O6 0.950277 0.500000 0.927493
O O7 0.997282 0.271464 0.875907
O O8 0.952106 0.169106 0.941572
O O9 0.500000 0.235768 0.500000
O O10 0.750000 0.236691 0.468960
O O11 0.602578 0.500000 0.472417
O O12 0.250000 0.244351 0.766210
O O13 0.021105 0.235142 0.803261
O O14 0.016470 0.267862 0.726742
O O15 0.074366 0.000000 0.756771
O O16 0.750000 0.246713 0.151994
O O17 0.902106 0.500000 0.167087
O O18 0.250000 0.000000 0.028247
O O19 0.000000 0.000000 0.000000
O O20 0.250000 0.249746 0.689813
O O21 0.416725 0.500000 0.680393
#
# Coordination Sequence:
#
# PCOD8214227 Si02
#       7
#     8   8   8   8   8   4   8
#     4   9  16  25  38  57  81 109 142 180 220 265
#     4   9  19  36  55  75 103 137 170 206 248 295
#     4   9  17  29  44  62  84 109 139 175 215 262
#     4   9  16  24  36  59  91 123 153 190 235 278
#     4   9  17  29  46  70  98 128 164 203 241 283
#     4  10  22  38  56  80 106 134 170 210 252 300
#     4   9  15  23  36  54  81 117 151 183 223 271
#
# _framework density 18.371282999999998
#
# number of rings (size 3 to 8) (size 9 to 14) (size 15 to 20)
#    0.000    2.923    0.000    1.385    1.077    6.769 
#    0.000    0.000    0.000    0.000    0.000    1.077 
#    0.000    8.615    0.000    0.000    0.000    0.000 
#
# Total GULP energy -644232.528870 kJ/mol
# GULP energy per Si atom -12389.087094 kJ/mol
# Density = 1.832947 g / cm^3
# Si number density = 18.371283 Si / 1000 Ang^3
#
#
#
# Elastic Constant Matrix: (Units=GPa)
#
#
# Indices 1 2 3 4 5 6 
#
# 1 28.7078 18.2301 45.4549 0.0000 0.0000 0.0000
# 2 18.2301 65.6068 59.5010 0.0000 0.0000 0.0000
# 3 45.4549 59.5010 174.6429 0.0000 0.0000 0.0000
# 4 0.0000 0.0000 0.0000 32.6132 0.0000 0.0000
# 5 0.0000 0.0000 0.0000 0.0000 18.0286 0.0000
# 6 0.0000 0.0000 0.0000 0.0000 0.0000 11.1768
#
#
#
# Elastic Compliance Matrix: (Units=1/GPa)
#
#
# Indices 1 2 3 4 5 6 
#
# 1 0.059841 -0.003621 -0.014341 0.000000 0.000000 0.000000
# 2 -0.003621 0.022277 -0.006647 0.000000 0.000000 0.000000
# 3 -0.014341 -0.006647 0.011723 0.000000 0.000000 0.000000
# 4 0.000000 0.000000 0.000000 0.030662 0.000000 0.000000
# 5 0.000000 0.000000 0.000000 0.000000 0.055467 0.000000
# 6 0.000000 0.000000 0.000000 0.000000 0.000000 0.089471
#
#
# Mechanical properties :
#
#
# Convention : Reuss Voigt Hill
#
# Bulk Modulus (GPa) = 22.41071 57.25884 39.83477
# Shear Modulus (GPa) = 14.99089 22.08181 18.53635
#
# Velocity S-wave (km/s) = 2.85966 3.47071 3.17990
# Velocity P-wave (km/s) = 4.80924 6.87723 5.93402
#
# Compressibility (1/GPa) = 0.04462153
#
# Stress axis : x y z
#
# Youngs Moduli (GPa) = 16.71104 44.88869 85.30004
#
# Poissons Ratio (x) = 0.16256 1.22329
# Poissons Ratio (y) = 0.06052 0.56702
# Poissons Ratio (z) = 0.23965 0.29839
#
# Static dielectric constant tensor:
#      x y z
#    x 2.977860 0.000000 0.000000 
#    y 0.000000 3.396710 0.000000 
#    z 0.000000 0.000000 3.650400 
# 
# 
# High freq. dielectric constant tensor:
#      x y z
#    x 1.637920 0.000000 0.000000 
#    y 0.000000 1.718790 0.000000 
#    z 0.000000 0.000000 1.730690 
# 
# From -- ./inp_files/37726.got.cif
#   From: 2010.03.12/outbox.cif.g09.slc.cpg/sg51_19_cif.got.tgz:37726.got - 2010.04.16 13:43:02.
