data_PCOD8214292
_publ_section_title
;
Structure prediction by ZEFSAII (Michael W. Deem and Ramdas Pophale) SiO2 
 PCOD8214292
Probable space group: P M M A
;
_chemical_formula_sum "Si O2"
_cell_formula_units_Z 48
_cell_length_a 8.657789
_cell_length_b 20.574254
_cell_length_c 14.454430
_cell_angle_alpha 90.000000
_cell_angle_beta 90.000000
_cell_angle_gamma 90.000000
_cell_volume 2574.732202
_symmetry_space_group_name_H-M "P M M A"
_symmetry_group_IT_number 51
_symmetry_cell_setting 'orthorhombic'
loop_
_space_group_symop_operation_xyz
x,y,z
1/2-x,-y,z
1/2+x,-y,-z
-x,y,-z
-x,-y,-z
1/2+x,y,-z
1/2-x,y,z
x,-y,z
loop_
_atom_site_type_symbol
_atom_site_label
_atom_site_fract_x
_atom_site_fract_y
_atom_site_fract_z
Si Si1 0.431820 0.927477 0.403155
Si Si2 0.072636 0.572691 0.727550
Si Si3 0.432427 0.691724 0.601958
Si Si4 0.067116 0.233595 0.903730
Si Si5 0.931717 0.375098 0.905050
Si Si6 0.432859 0.190924 0.279879
O O1 0.500000 0.903415 0.500000
O O2 0.250000 0.927267 0.413798
O O3 0.484886 0.877069 0.325113
O O4 0.492199 0.000000 0.377779
O O5 0.250000 0.585769 0.755348
O O6 0.049987 0.500000 0.687444
O O7 0.019379 0.623566 0.649395
O O8 0.969476 0.578151 0.819682
O O9 0.500000 0.693024 0.500000
O O10 0.250000 0.700376 0.596944
O O11 0.501998 0.749707 0.661346
O O12 0.250000 0.232466 0.907113
O O13 0.010058 0.306246 0.884413
O O14 0.005583 0.188326 0.821849
O O15 0.000000 0.206512 0.000000
O O16 0.750000 0.365540 0.916130
O O17 0.000000 0.405123 0.000000
O O18 0.250000 0.198427 0.273531
#
# Coordination Sequence:
#
# PCOD8214292 Si02
#       6
#     8   8   8   8   8   8
#     4   9  19  35  55  82 117 154 190 227 271 323
#     4  10  22  40  58  77 106 145 186 230 280 333
#     4  11  23  38  57  80 109 143 184 233 279 329
#     4  11  21  35  56  83 114 146 182 226 276 329
#     4  11  21  35  57  82 110 142 180 225 278 333
#     4  11  21  35  58  86 115 147 185 229 276 326
#
# _framework density 18.642716
#
# number of rings (size 3 to 8) (size 9 to 14) (size 15 to 20)
#    0.000    1.500    1.667    5.500    0.000    4.333 
#    0.000    0.000    0.000    0.500    0.000    0.000 
#    0.000    0.000    0.000    0.000    0.000    0.000 
#
# Total GULP energy -595335.640696 kJ/mol
# GULP energy per Si atom -12402.825848 kJ/mol
# Density = 1.860028 g / cm^3
# Si number density = 18.642716 Si / 1000 Ang^3
#
#
#
# Elastic Constant Matrix: (Units=GPa)
#
#
# Indices 1 2 3 4 5 6 
#
# 1 102.9344 46.6046 54.0617 0.0000 0.0000 0.0000
# 2 46.6046 108.8541 71.1873 0.0000 0.0000 0.0000
# 3 54.0617 71.1873 152.3043 0.0000 0.0000 0.0000
# 4 0.0000 0.0000 0.0000 83.5823 0.0000 0.0000
# 5 0.0000 0.0000 0.0000 0.0000 34.9869 0.0000
# 6 0.0000 0.0000 0.0000 0.0000 0.0000 21.2809
#
#
#
# Elastic Compliance Matrix: (Units=1/GPa)
#
#
# Indices 1 2 3 4 5 6 
#
# 1 0.012866 -0.003632 -0.002869 0.000000 0.000000 0.000000
# 2 -0.003632 0.014256 -0.005374 0.000000 0.000000 0.000000
# 3 -0.002869 -0.005374 0.010096 0.000000 0.000000 0.000000
# 4 0.000000 0.000000 0.000000 0.011964 0.000000 0.000000
# 5 0.000000 0.000000 0.000000 0.000000 0.028582 0.000000
# 6 0.000000 0.000000 0.000000 0.000000 0.000000 0.046990
#
#
# Mechanical properties :
#
#
# Convention : Reuss Voigt Hill
#
# Bulk Modulus (GPa) = 74.25255 78.64444 76.44849
# Shear Modulus (GPa) = 32.68061 40.78598 36.73330
#
# Velocity S-wave (km/s) = 4.19142 4.68244 4.44372
# Velocity P-wave (km/s) = 7.95863 8.45637 8.21127
#
# Compressibility (1/GPa) = 0.01346755
#
# Stress axis : x y z
#
# Youngs Moduli (GPa) = 77.72174 70.14516 99.04731
#
# Poissons Ratio (x) = 0.25477 0.28421
# Poissons Ratio (y) = 0.28229 0.53229
# Poissons Ratio (z) = 0.22301 0.37697
#
# Static dielectric constant tensor:
#      x y z
#    x 3.503320 0.000000 0.000000 
#    y 0.000000 3.531730 0.000000 
#    z 0.000000 0.000000 3.585390 
# 
# 
# High freq. dielectric constant tensor:
#      x y z
#    x 1.734650 0.000000 0.000000 
#    y 0.000000 1.708420 0.000000 
#    z 0.000000 0.000000 1.729530 
# 
# From -- ./inp_files/21091.got.cif
#   From: 2010.03.12/outbox.cif.g09.slc.cpg/sg51_11_cif.got.tgz:21091.got - 2010.04.16 13:43:02.
