data_PCOD8214811
_publ_section_title
;
Structure prediction by ZEFSAII (Michael W. Deem and Ramdas Pophale) SiO2 
 PCOD8214811
Probable space group: P M M A
;
_chemical_formula_sum "Si O2"
_cell_formula_units_Z 56
_cell_length_a 9.800790
_cell_length_b 18.191292
_cell_length_c 21.172697
_cell_angle_alpha 90.000000
_cell_angle_beta 90.000000
_cell_angle_gamma 90.000000
_cell_volume 3774.859668
_symmetry_space_group_name_H-M "P M M A"
_symmetry_group_IT_number 51
_symmetry_cell_setting 'orthorhombic'
loop_
_space_group_symop_operation_xyz
x,y,z
1/2-x,-y,z
1/2+x,-y,-z
-x,y,-z
-x,-y,-z
1/2+x,y,-z
1/2-x,y,z
x,-y,z
loop_
_atom_site_type_symbol
_atom_site_label
_atom_site_fract_x
_atom_site_fract_y
_atom_site_fract_z
Si Si1 0.910230 0.165706 0.559892
Si Si2 0.402525 0.784850 0.238608
Si Si3 0.592526 0.415121 0.057975
Si Si4 0.592485 0.327319 0.182446
Si Si5 0.400358 0.306894 0.366465
Si Si6 0.412286 0.081894 0.316282
Si Si7 0.092319 0.584200 0.691825
O O1 0.750000 0.153679 0.545618
O O2 0.939400 0.250878 0.577514
O O3 0.962155 0.113235 0.616488
O O4 0.000000 0.143676 0.500000
O O5 0.250000 0.789234 0.209248
O O6 0.503527 0.746921 0.188442
O O7 0.398437 0.738222 0.302088
O O8 0.459048 0.865871 0.257929
O O9 0.750000 0.402867 0.039731
O O10 0.563973 0.500000 0.074437
O O11 0.550072 0.367554 0.118305
O O12 0.500000 0.388390 0.000000
O O13 0.750000 0.303779 0.182176
O O14 0.561457 0.383411 0.239155
O O15 0.250000 0.340493 0.378571
O O16 0.508422 0.373045 0.362273
O O17 0.250000 0.082003 0.317167
O O18 0.471787 0.000000 0.305918
O O19 0.250000 0.592399 0.674062
O O20 0.045262 0.500000 0.692297
#
# Coordination Sequence:
#
# PCOD8214811 Si02
#       7
#     8   8   8   8   8   8   8
#     4   9  17  28  42  59  78 102 132 161 188 225
#     4   8  14  25  41  59  77 100 132 164 190 225
#     4   9  17  28  40  55  79 112 145 172 198 229
#     4   9  16  26  40  57  80 108 133 160 197 236
#     4   8  15  27  39  53  75 100 125 156 195 233
#     4   8  14  26  43  61  83 109 131 154 190 233
#     4   9  16  25  39  59  78  96 123 160 199 237
#
# _framework density 14.834989
#
# number of rings (size 3 to 8) (size 9 to 14) (size 15 to 20)
#    0.000    3.429    0.000    2.143    0.000    3.429 
#    0.000    2.143    0.000    4.286    0.000    0.000 
#    0.000    0.571    0.000    1.286    0.000    2.000 
#
# Total GULP energy -694105.083384 kJ/mol
# GULP energy per Si atom -12394.733632 kJ/mol
# Density = 1.480122 g / cm^3
# Si number density = 14.834989 Si / 1000 Ang^3
#
#
#
# Elastic Constant Matrix: (Units=GPa)
#
#
# Indices 1 2 3 4 5 6 
#
# 1 53.5567 48.8791 31.8793 0.0000 0.0000 0.0000
# 2 48.8791 111.7247 42.5106 0.0000 0.0000 0.0000
# 3 31.8793 42.5106 53.5860 0.0000 0.0000 0.0000
# 4 0.0000 0.0000 0.0000 19.7554 0.0000 0.0000
# 5 0.0000 0.0000 0.0000 0.0000 24.1691 0.0000
# 6 0.0000 0.0000 0.0000 0.0000 0.0000 16.8192
#
#
#
# Elastic Compliance Matrix: (Units=1/GPa)
#
#
# Indices 1 2 3 4 5 6 
#
# 1 0.036420 -0.011014 -0.012929 0.000000 0.000000 0.000000
# 2 -0.011014 0.016151 -0.006261 0.000000 0.000000 0.000000
# 3 -0.012929 -0.006261 0.031320 0.000000 0.000000 0.000000
# 4 0.000000 0.000000 0.000000 0.050619 0.000000 0.000000
# 5 0.000000 0.000000 0.000000 0.000000 0.041375 0.000000
# 6 0.000000 0.000000 0.000000 0.000000 0.000000 0.059456
#
#
# Mechanical properties :
#
#
# Convention : Reuss Voigt Hill
#
# Bulk Modulus (GPa) = 42.58316 51.71171 47.14744
# Shear Modulus (GPa) = 16.47028 18.52198 17.49613
#
# Velocity S-wave (km/s) = 3.33563 3.53729 3.43794
# Velocity P-wave (km/s) = 6.60319 7.18449 6.89996
#
# Compressibility (1/GPa) = 0.02348346
#
# Stress axis : x y z
#
# Youngs Moduli (GPa) = 27.45746 61.91454 31.92833
#
# Poissons Ratio (x) = 0.68193 0.41281
# Poissons Ratio (y) = 0.30242 0.19989
# Poissons Ratio (z) = 0.35501 0.38762
#
# Static dielectric constant tensor:
#      x y z
#    x 2.870740 0.000000 0.000000 
#    y 0.000000 3.079100 0.000000 
#    z 0.000000 0.000000 2.659780 
# 
# 
# High freq. dielectric constant tensor:
#      x y z
#    x 1.558530 0.000000 0.000000 
#    y 0.000000 1.557600 0.000000 
#    z 0.000000 0.000000 1.535850 
# 
# From -- ./inp_files/29179.got.cif
#   From: 2010.03.12/outbox.cif.g09.slc.cpg/sg51_15_cif.got.tgz:29179.got - 2010.04.16 13:43:02.
