data_PCOD8214867
_publ_section_title
;
Structure prediction by ZEFSAII (Michael W. Deem and Ramdas Pophale) SiO2 
 PCOD8214867
Probable space group: P M M A
;
_chemical_formula_sum "Si O2"
_cell_formula_units_Z 48
_cell_length_a 9.144652
_cell_length_b 9.243356
_cell_length_c 31.251704
_cell_angle_alpha 90.000000
_cell_angle_beta 90.000000
_cell_angle_gamma 90.000000
_cell_volume 2641.621345
_symmetry_space_group_name_H-M "P M M A"
_symmetry_group_IT_number 51
_symmetry_cell_setting 'orthorhombic'
loop_
_space_group_symop_operation_xyz
x,y,z
1/2-x,-y,z
1/2+x,-y,-z
-x,y,-z
-x,-y,-z
1/2+x,y,-z
1/2-x,y,z
x,-y,z
loop_
_atom_site_type_symbol
_atom_site_label
_atom_site_fract_x
_atom_site_fract_y
_atom_site_fract_z
Si Si1 0.920691 0.331809 0.125459
Si Si2 0.076077 0.836711 0.791669
Si Si3 0.079456 0.668372 0.708720
Si Si4 0.085032 0.672305 0.041176
Si Si5 0.915082 0.327776 0.624427
Si Si6 0.915448 0.327447 0.458353
O O1 0.750000 0.303493 0.117591
O O2 0.952030 0.500000 0.133950
O O3 0.981935 0.244652 0.166191
O O4 0.005565 0.273017 0.084019
O O5 0.250000 0.832766 0.791722
O O6 0.018362 0.755091 0.749544
O O7 0.015874 0.000000 0.791611
O O8 0.250000 0.697597 0.700622
O O9 0.049317 0.500000 0.717207
O O10 0.993149 0.726920 0.667493
O O11 0.250000 0.732097 0.040511
O O12 0.083264 0.500000 0.039819
O O13 0.000000 0.734895 0.000000
O O14 0.750000 0.267803 0.623060
O O15 0.916050 0.500000 0.623195
O O16 0.002917 0.266672 0.583624
O O17 0.750000 0.268031 0.458932
O O18 0.915161 0.500000 0.458073
O O19 0.000000 0.268813 0.500000
#
# Coordination Sequence:
#
# PCOD8214867 Si02
#       6
#     8   8   8   8   8   8
#     4   9  16  27  45  68  92 118 148 181 217 258
#     4   9  17  29  46  67  89 114 146 183 221 262
#     4   9  16  27  44  64  85 111 145 183 220 259
#     4   9  16  26  42  66  94 120 146 179 218 257
#     4   9  16  25  37  55  80 110 144 181 220 261
#     4   9  15  22  33  51  78 112 146 178 215 261
#
# _framework density 18.170659000000001
#
# number of rings (size 3 to 8) (size 9 to 14) (size 15 to 20)
#    0.000    3.000    0.000    2.000    0.000    8.000 
#    0.000    0.833    0.000    6.500    0.000    0.000 
#    0.000    0.667    0.000    1.833    0.000    3.333 
#
# Total GULP energy -595154.092179 kJ/mol
# GULP energy per Si atom -12399.043587 kJ/mol
# Density = 1.812930 g / cm^3
# Si number density = 18.170659 Si / 1000 Ang^3
#
#
#
# Elastic Constant Matrix: (Units=GPa)
#
#
# Indices 1 2 3 4 5 6 
#
# 1 112.9712 25.3957 88.7424 0.0000 0.0000 0.0000
# 2 25.3957 40.3479 47.9845 0.0000 0.0000 0.0000
# 3 88.7424 47.9845 216.1720 0.0000 0.0000 0.0000
# 4 0.0000 0.0000 0.0000 2.1306 0.0000 0.0000
# 5 0.0000 0.0000 0.0000 0.0000 33.6346 0.0000
# 6 0.0000 0.0000 0.0000 0.0000 0.0000 6.0199
#
#
#
# Elastic Compliance Matrix: (Units=1/GPa)
#
#
# Indices 1 2 3 4 5 6 
#
# 1 0.013254 -0.002543 -0.004877 0.000000 0.000000 0.000000
# 2 -0.002543 0.034162 -0.006539 0.000000 0.000000 0.000000
# 3 -0.004877 -0.006539 0.008079 0.000000 0.000000 0.000000
# 4 0.000000 0.000000 0.000000 0.469350 0.000000 0.000000
# 5 0.000000 0.000000 0.000000 0.000000 0.029731 0.000000
# 6 0.000000 0.000000 0.000000 0.000000 0.000000 0.166115
#
#
# Mechanical properties :
#
#
# Convention : Reuss Voigt Hill
#
# Bulk Modulus (GPa) = 36.26058 77.08180 56.67119
# Shear Modulus (GPa) = 6.59803 22.18160 14.38982
#
# Velocity S-wave (km/s) = 1.90762 3.49770 2.81717
# Velocity P-wave (km/s) = 4.98507 7.66974 6.46823
#
# Compressibility (1/GPa) = 0.02757816
#
# Stress axis : x y z
#
# Youngs Moduli (GPa) = 75.44786 29.27254 123.77154
#
# Poissons Ratio (x) = 0.07443 0.60359
# Poissons Ratio (y) = 0.19185 0.80936
# Poissons Ratio (z) = 0.36793 0.19142
#
# Static dielectric constant tensor:
#      x y z
#    x 3.300300 0.000000 0.000000 
#    y 0.000000 2.805640 0.000000 
#    z 0.000000 0.000000 3.622530 
# 
# 
# High freq. dielectric constant tensor:
#      x y z
#    x 1.691360 0.000000 0.000000 
#    y 0.000000 1.637550 0.000000 
#    z 0.000000 0.000000 1.724630 
# 
# From -- ./inp_files/37311.got.cif
#   From: 2010.03.12/outbox.cif.g09.slc.cpg/sg51_19_cif.got.tgz:37311.got - 2010.04.16 13:43:02.
