data_PCOD8214176
_publ_section_title
;
Structure prediction by ZEFSAII (Michael W. Deem and Ramdas Pophale) SiO2 
 PCOD8214176
Probable space group: P M M A
;
_chemical_formula_sum "Si O2"
_cell_formula_units_Z 40
_cell_length_a 20.292125
_cell_length_b 7.846434
_cell_length_c 12.227634
_cell_angle_alpha 90.000000
_cell_angle_beta 90.000000
_cell_angle_gamma 90.000000
_cell_volume 1946.893906
_symmetry_space_group_name_H-M "P M M A"
_symmetry_group_IT_number 51
_symmetry_cell_setting 'orthorhombic'
loop_
_space_group_symop_operation_xyz
x,y,z
1/2-x,-y,z
1/2+x,-y,-z
-x,y,-z
-x,-y,-z
1/2+x,y,-z
1/2-x,y,z
x,-y,z
loop_
_atom_site_type_symbol
_atom_site_label
_atom_site_fract_x
_atom_site_fract_y
_atom_site_fract_z
Si Si1 0.958157 0.195864 0.396148
Si Si2 0.674490 0.194011 0.508713
Si Si3 0.324955 0.500000 0.099244
Si Si4 0.604788 0.810708 0.983027
Si Si5 0.172619 0.500000 0.337099
Si Si6 0.489579 0.694863 0.839762
O O1 0.879018 0.219315 0.412181
O O2 0.981079 0.299322 0.290353
O O3 0.000000 0.264597 0.500000
O O4 0.976210 0.000000 0.376088
O O5 0.750000 0.230038 0.467640
O O6 0.652001 0.326256 0.601809
O O7 0.669449 0.000000 0.554576
O O8 0.250000 0.500000 0.129611
O O9 0.339172 0.669316 0.030355
O O10 0.362555 0.500000 0.217771
O O11 0.553666 0.792992 0.882864
O O12 0.635784 0.000000 0.978714
O O13 0.572416 0.783012 0.101529
O O14 0.250000 0.500000 0.325322
O O15 0.495042 0.500000 0.878974
#
# Coordination Sequence:
#
# PCOD8214176 Si02
#       6
#     8   8   4   8   4   8
#     4  10  22  36  55  89 125 154 198 257 301 352
#     4   9  19  37  58  81 115 160 201 236 294 368
#     4  11  24  41  59  93 126 153 206 256 297 360
#     4  11  22  41  66  87 119 163 201 247 306 368
#     4   9  20  36  56  80 116 154 192 242 288 350
#     4  11  21  39  63  90 120 157 203 254 307 363
#
# _framework density 20.545546999999999
#
# number of rings (size 3 to 8) (size 9 to 14) (size 15 to 20)
#    0.000    1.800    2.000    3.000    4.200    1.600 
#    0.000    3.000    0.000    2.400    0.000    0.000 
#    0.000    0.000    0.000    0.000    0.000    0.000 
#
# Total GULP energy -495864.134101 kJ/mol
# GULP energy per Si atom -12396.603353 kJ/mol
# Density = 2.049878 g / cm^3
# Si number density = 20.545547 Si / 1000 Ang^3
#
#
#
# Elastic Constant Matrix: (Units=GPa)
#
#
# Indices 1 2 3 4 5 6 
#
# 1 58.6210 12.4220 27.6117 0.0000 0.0000 0.0000
# 2 12.4220 140.3936 30.8826 0.0000 0.0000 0.0000
# 3 27.6117 30.8826 109.4441 0.0000 0.0000 0.0000
# 4 0.0000 0.0000 0.0000 28.5182 0.0000 0.0000
# 5 0.0000 0.0000 0.0000 0.0000 20.2231 0.0000
# 6 0.0000 0.0000 0.0000 0.0000 0.0000 14.0368
#
#
#
# Elastic Compliance Matrix: (Units=1/GPa)
#
#
# Indices 1 2 3 4 5 6 
#
# 1 0.019420 -0.000683 -0.004707 0.000000 0.000000 0.000000
# 2 -0.000683 0.007618 -0.001977 0.000000 0.000000 0.000000
# 3 -0.004707 -0.001977 0.010883 0.000000 0.000000 0.000000
# 4 0.000000 0.000000 0.000000 0.035065 0.000000 0.000000
# 5 0.000000 0.000000 0.000000 0.000000 0.049448 0.000000
# 6 0.000000 0.000000 0.000000 0.000000 0.000000 0.071241
#
#
# Mechanical properties :
#
#
# Convention : Reuss Voigt Hill
#
# Bulk Modulus (GPa) = 43.12792 50.03236 46.58014
# Shear Modulus (GPa) = 23.13321 28.39179 25.76250
#
# Velocity S-wave (km/s) = 3.35915 3.72142 3.54492
# Velocity P-wave (km/s) = 6.00684 6.54752 6.28300
#
# Compressibility (1/GPa) = 0.02318683
#
# Stress axis : x y z
#
# Youngs Moduli (GPa) = 51.49203 131.26414 91.89008
#
# Poissons Ratio (x) = 0.08964 0.43252
# Poissons Ratio (y) = 0.03517 0.18170
# Poissons Ratio (z) = 0.24237 0.25956
#
# Static dielectric constant tensor:
#      x y z
#    x 3.624900 0.000000 0.000000 
#    y 0.000000 3.937150 0.000000 
#    z 0.000000 0.000000 3.584630 
# 
# 
# High freq. dielectric constant tensor:
#      x y z
#    x 1.789730 0.000000 0.000000 
#    y 0.000000 1.816340 0.000000 
#    z 0.000000 0.000000 1.785260 
# 
# From -- ./inp_files/17988.got.cif
#   From: 2010.03.12/outbox.cif.g09.slc.cpg/sg51_9_cif.got.tgz:17988.got - 2010.04.16 13:43:02.
