data_PCOD8214068
_publ_section_title
;
Structure prediction by ZEFSAII (Michael W. Deem and Ramdas Pophale) SiO2 
 PCOD8214068
Probable space group: P M M A
;
_chemical_formula_sum "Si O2"
_cell_formula_units_Z 64
_cell_length_a 30.496508
_cell_length_b 9.603069
_cell_length_c 11.884098
_cell_angle_alpha 90.000000
_cell_angle_beta 90.000000
_cell_angle_gamma 90.000000
_cell_volume 3480.377779
_symmetry_space_group_name_H-M "P M M A"
_symmetry_group_IT_number 51
_symmetry_cell_setting 'orthorhombic'
loop_
_space_group_symop_operation_xyz
x,y,z
1/2-x,-y,z
1/2+x,-y,-z
-x,y,-z
-x,-y,-z
1/2+x,y,-z
1/2-x,y,z
x,-y,z
loop_
_atom_site_type_symbol
_atom_site_label
_atom_site_fract_x
_atom_site_fract_y
_atom_site_fract_z
Si Si1 0.202293 0.164340 0.767879
Si Si2 0.301706 0.155454 0.526706
Si Si3 0.930894 0.842271 0.491830
Si Si4 0.500112 0.842649 0.312959
Si Si5 0.127396 0.660942 0.142676
Si Si6 0.028920 0.663185 0.107267
Si Si7 0.301914 0.163109 0.012850
Si Si8 0.860325 0.339026 0.597529
O O1 0.250000 0.236390 0.768698
O O2 0.178055 0.203175 0.649979
O O3 0.208645 0.000000 0.769556
O O4 0.180163 0.205799 0.887411
O O5 0.250000 0.155059 0.539590
O O6 0.314224 0.262751 0.427600
O O7 0.318225 0.000000 0.495371
O O8 0.964759 0.815864 0.591395
O O9 0.892298 0.732688 0.507373
O O10 0.952608 0.816137 0.369974
O O11 0.912815 0.000000 0.498044
O O12 0.493459 0.737460 0.211930
O O13 0.496850 0.000000 0.266504
O O14 0.137370 0.500000 0.115319
O O15 0.080139 0.707164 0.091391
O O16 0.167841 0.751226 0.098112
O O17 0.124059 0.686267 0.276008
O O18 0.026782 0.500000 0.132119
O O19 0.000000 0.705617 0.000000
O O20 0.250000 0.199356 0.028057
O O21 0.309164 0.000000 0.036773
O O22 0.856162 0.500000 0.568368
#
# Coordination Sequence:
#
# PCOD8214068 Si02
#       8
#     8   8   8   8   8   8   8   8
#     4   7  12  28  53  76  99 129 167 213 264 315
#     4   9  18  34  56  79 106 143 180 217 269 325
#     4   9  18  34  56  81 107 134 168 217 271 321
#     4   9  18  34  58  84 106 131 171 222 270 317
#     4  10  22  38  53  75 109 147 185 222 271 324
#     4  10  21  39  59  77 107 151 189 224 269 326
#     4   9  18  34  58  85 108 137 182 228 269 319
#     4  11  22  35  52  76 108 145 182 222 266 319
#
# _framework density 18.388808999999998
#
# number of rings (size 3 to 8) (size 9 to 14) (size 15 to 20)
#    0.000    2.750    1.250    2.625    0.000    3.250 
#    2.250    4.375    0.000    2.250    0.000    0.000 
#    0.000    0.000    0.000    0.000    0.000    0.000 
#
# Total GULP energy -792911.840140 kJ/mol
# GULP energy per Si atom -12389.247502 kJ/mol
# Density = 1.834696 g / cm^3
# Si number density = 18.388809 Si / 1000 Ang^3
#
#
#
# Elastic Constant Matrix: (Units=GPa)
#
#
# Indices 1 2 3 4 5 6 
#
# 1 81.7038 45.8824 49.1670 0.0000 0.0000 0.0000
# 2 45.8824 82.1093 54.1554 0.0000 0.0000 0.0000
# 3 49.1670 54.1554 81.0059 0.0000 0.0000 0.0000
# 4 0.0000 0.0000 0.0000 25.7710 0.0000 0.0000
# 5 0.0000 0.0000 0.0000 0.0000 25.6693 0.0000
# 6 0.0000 0.0000 0.0000 0.0000 0.0000 26.5049
#
#
#
# Elastic Compliance Matrix: (Units=1/GPa)
#
#
# Indices 1 2 3 4 5 6 
#
# 1 0.020759 -0.005884 -0.008666 0.000000 0.000000 0.000000
# 2 -0.005884 0.023452 -0.012107 0.000000 0.000000 0.000000
# 3 -0.008666 -0.012107 0.025699 0.000000 0.000000 0.000000
# 4 0.000000 0.000000 0.000000 0.038803 0.000000 0.000000
# 5 0.000000 0.000000 0.000000 0.000000 0.038957 0.000000
# 6 0.000000 0.000000 0.000000 0.000000 0.000000 0.037729
#
#
# Mechanical properties :
#
#
# Convention : Reuss Voigt Hill
#
# Bulk Modulus (GPa) = 60.25882 60.35871 60.30877
# Shear Modulus (GPa) = 20.47125 21.96331 21.21728
#
# Velocity S-wave (km/s) = 3.34015 3.45974 3.40047
# Velocity P-wave (km/s) = 6.90767 6.98960 6.94876
#
# Compressibility (1/GPa) = 0.01659508
#
# Stress axis : x y z
#
# Youngs Moduli (GPa) = 48.17298 42.63949 38.91274
#
# Poissons Ratio (x) = 0.25091 0.33720
# Poissons Ratio (y) = 0.28347 0.47113
# Poissons Ratio (z) = 0.41745 0.51625
#
# Static dielectric constant tensor:
#      x y z
#    x 3.804910 0.000000 0.000000 
#    y 0.000000 3.219010 0.000000 
#    z 0.000000 0.000000 3.722770 
# 
# 
# High freq. dielectric constant tensor:
#      x y z
#    x 1.704440 0.000000 0.000000 
#    y 0.000000 1.694300 0.000000 
#    z 0.000000 0.000000 1.714370 
# 
# From -- ./inp_files/19484.got.cif
#   From: 2010.03.12/outbox.cif.g09.slc.cpg/sg51_10_cif.got.tgz:19484.got - 2010.04.16 13:43:02.
