data_PCOD8214403
_publ_section_title
;
Structure prediction by ZEFSAII (Michael W. Deem and Ramdas Pophale) SiO2 
 PCOD8214403
Probable space group: P M M A
;
_chemical_formula_sum "Si O2"
_cell_formula_units_Z 40
_cell_length_a 10.087119
_cell_length_b 9.100429
_cell_length_c 24.333903
_cell_angle_alpha 90.000000
_cell_angle_beta 90.000000
_cell_angle_gamma 90.000000
_cell_volume 2233.781977
_symmetry_space_group_name_H-M "P M M A"
_symmetry_group_IT_number 51
_symmetry_cell_setting 'orthorhombic'
loop_
_space_group_symop_operation_xyz
x,y,z
1/2-x,-y,z
1/2+x,-y,-z
-x,y,-z
-x,-y,-z
1/2+x,y,-z
1/2-x,y,z
x,-y,z
loop_
_atom_site_type_symbol
_atom_site_label
_atom_site_fract_x
_atom_site_fract_y
_atom_site_fract_z
Si Si1 0.407210 0.837631 0.346458
Si Si2 0.981017 0.330023 0.879685
Si Si3 0.750000 0.825581 0.944300
Si Si4 0.595502 0.171882 0.775013
Si Si5 0.900934 0.326366 0.546606
Si Si6 0.250000 0.666087 0.942988
O O1 0.250000 0.845320 0.344472
O O2 0.454373 0.783153 0.286260
O O3 0.455047 0.729896 0.394696
O O4 0.464468 0.000000 0.358685
O O5 0.937931 0.500000 0.879605
O O6 0.124361 0.306525 0.905047
O O7 0.879719 0.236782 0.915545
O O8 0.986904 0.269419 0.817659
O O9 0.750000 0.000000 0.938818
O O10 0.750000 0.781146 0.007771
O O11 0.750000 0.208134 0.783271
O O12 0.569227 0.000000 0.785222
O O13 0.750000 0.271493 0.535064
O O14 0.905367 0.500000 0.548305
O O15 0.000000 0.264603 0.500000
O O16 0.250000 0.500000 0.967096
#
# Coordination Sequence:
#
# PCOD8214403 Si02
#       6
#     8   8   4   8   8   4
#     4   8  15  28  47  72 100 130 163 205 252 292
#     4  11  22  37  58  81 106 139 175 214 261 310
#     4  12  24  38  58  84 108 134 175 218 257 308
#     4   9  17  31  52  78 106 132 166 215 260 303
#     4   9  17  29  46  69  97 128 164 206 249 294
#     4  10  24  42  56  76 110 142 173 214 259 310
#
# _framework density 17.906849999999999
#
# number of rings (size 3 to 8) (size 9 to 14) (size 15 to 20)
#    0.000    2.400    1.000    3.300    0.000    5.200 
#    0.000    2.000    2.200    0.000    0.000    0.000 
#    0.000    0.000    0.000    0.000    0.000    0.000 
#
# Total GULP energy -495923.209178 kJ/mol
# GULP energy per Si atom -12398.080229 kJ/mol
# Density = 1.786609 g / cm^3
# Si number density = 17.906850 Si / 1000 Ang^3
#
#
#
# Elastic Constant Matrix: (Units=GPa)
#
#
# Indices 1 2 3 4 5 6 
#
# 1 81.1694 46.4421 55.9321 0.0000 0.0000 0.0000
# 2 46.4421 84.1004 66.1752 0.0000 0.0000 0.0000
# 3 55.9321 66.1752 162.6837 0.0000 0.0000 0.0000
# 4 0.0000 0.0000 0.0000 38.4423 0.0000 0.0000
# 5 0.0000 0.0000 0.0000 0.0000 15.8074 0.0000
# 6 0.0000 0.0000 0.0000 0.0000 0.0000 15.6939
#
#
#
# Elastic Compliance Matrix: (Units=1/GPa)
#
#
# Indices 1 2 3 4 5 6 
#
# 1 0.019185 -0.007948 -0.003363 0.000000 0.000000 0.000000
# 2 -0.007948 0.020781 -0.005720 0.000000 0.000000 0.000000
# 3 -0.003363 -0.005720 0.009630 0.000000 0.000000 0.000000
# 4 0.000000 0.000000 0.000000 0.026013 0.000000 0.000000
# 5 0.000000 0.000000 0.000000 0.000000 0.063262 0.000000
# 6 0.000000 0.000000 0.000000 0.000000 0.000000 0.063719
#
#
# Mechanical properties :
#
#
# Convention : Reuss Voigt Hill
#
# Bulk Modulus (GPa) = 64.37992 73.89472 69.13732
# Shear Modulus (GPa) = 20.67570 24.61566 22.64568
#
# Velocity S-wave (km/s) = 3.40166 3.71165 3.56003
# Velocity P-wave (km/s) = 7.17350 7.72815 7.45598
#
# Compressibility (1/GPa) = 0.01553279
#
# Stress axis : x y z
#
# Youngs Moduli (GPa) = 52.12448 48.12108 103.84246
#
# Poissons Ratio (x) = 0.38248 0.34920
# Poissons Ratio (y) = 0.41430 0.59402
# Poissons Ratio (z) = 0.17528 0.27527
#
# Static dielectric constant tensor:
#      x y z
#    x 3.084810 0.000000 0.000000 
#    y 0.000000 3.356330 0.000000 
#    z 0.000000 0.000000 3.654840 
# 
# 
# High freq. dielectric constant tensor:
#      x y z
#    x 1.659280 0.000000 0.000000 
#    y 0.000000 1.691210 0.000000 
#    z 0.000000 0.000000 1.708700 
# 
# From -- ./inp_files/36016.got.cif
#   From: 2010.03.12/outbox.cif.g09.slc.cpg/sg51_19_cif.got.tgz:36016.got - 2010.04.16 13:43:02.
