data_PCOD8214805
_publ_section_title
;
Structure prediction by ZEFSAII (Michael W. Deem and Ramdas Pophale) SiO2 
 PCOD8214805
Probable space group: P M M A
;
_chemical_formula_sum "Si O2"
_cell_formula_units_Z 48
_cell_length_a 9.368662
_cell_length_b 9.752001
_cell_length_c 31.002480
_cell_angle_alpha 90.000000
_cell_angle_beta 90.000000
_cell_angle_gamma 90.000000
_cell_volume 2832.485818
_symmetry_space_group_name_H-M "P M M A"
_symmetry_group_IT_number 51
_symmetry_cell_setting 'orthorhombic'
loop_
_space_group_symop_operation_xyz
x,y,z
1/2-x,-y,z
1/2+x,-y,-z
-x,y,-z
-x,-y,-z
1/2+x,y,-z
1/2-x,y,z
x,-y,z
loop_
_atom_site_type_symbol
_atom_site_label
_atom_site_fract_x
_atom_site_fract_y
_atom_site_fract_z
Si Si1 0.407480 0.337144 0.038762
Si Si2 0.091534 0.162977 0.702625
Si Si3 0.083187 0.842038 0.799086
Si Si4 0.587674 0.836636 0.458846
Si Si5 0.080812 0.343911 0.134221
Si Si6 0.088922 0.836437 0.376880
O O1 0.250000 0.274230 0.033855
O O2 0.400039 0.500000 0.034554
O O3 0.469951 0.300115 0.086020
O O4 0.500000 0.272659 0.000000
O O5 0.250000 0.220428 0.692140
O O6 0.044062 0.207572 0.750619
O O7 0.979838 0.220254 0.667514
O O8 0.097740 0.000000 0.700594
O O9 0.250000 0.820415 0.807834
O O10 0.993297 0.753338 0.831844
O O11 0.040346 0.000000 0.805457
O O12 0.500000 0.781380 0.500000
O O13 0.750000 0.779760 0.459807
O O14 0.506687 0.781712 0.416417
O O15 0.590971 0.000000 0.459094
O O16 0.250000 0.328323 0.137772
O O17 0.034754 0.500000 0.143784
O O18 0.250000 0.779242 0.381002
O O19 0.091008 0.000000 0.377045
#
# Coordination Sequence:
#
# PCOD8214805 Si02
#       6
#     8   8   8   8   8   8
#     4   8  14  25  41  62  87 112 139 173 211 251
#     4   8  14  25  38  51  70  96 126 163 205 244
#     4   9  18  31  46  65  88 114 147 185 221 259
#     4   9  15  21  28  38  55  81 113 151 196 242
#     4   9  18  31  46  67  94 119 144 177 217 261
#     4   9  15  21  30  45  63  84 116 157 197 240
#
# _framework density 16.946245999999999
#
# number of rings (size 3 to 8) (size 9 to 14) (size 15 to 20)
#    0.000    3.333    0.000    3.000    0.000    6.000 
#    0.000    3.333    0.000    0.500    0.000    0.000 
#    0.000    0.000    0.000    0.000    0.000    0.833 
#
# Total GULP energy -594879.911612 kJ/mol
# GULP energy per Si atom -12393.331492 kJ/mol
# Density = 1.690768 g / cm^3
# Si number density = 16.946246 Si / 1000 Ang^3
#
#
#
# Elastic Constant Matrix: (Units=GPa)
#
#
# Indices 1 2 3 4 5 6 
#
# 1 113.9429 22.1022 87.4560 0.0000 0.0000 0.0000
# 2 22.1022 21.9708 31.2984 0.0000 0.0000 0.0000
# 3 87.4560 31.2984 166.6229 0.0000 0.0000 0.0000
# 4 0.0000 0.0000 0.0000 -25.0485 0.0000 0.0000
# 5 0.0000 0.0000 0.0000 0.0000 39.5244 0.0000
# 6 0.0000 0.0000 0.0000 0.0000 0.0000 14.8833
#
#
#
# Elastic Compliance Matrix: (Units=1/GPa)
#
#
# Indices 1 2 3 4 5 6 
#
# 1 0.015143 -0.005340 -0.006945 0.000000 0.000000 0.000000
# 2 -0.005340 0.064027 -0.009224 0.000000 0.000000 0.000000
# 3 -0.006945 -0.009224 0.011379 0.000000 0.000000 0.000000
# 4 0.000000 0.000000 0.000000 -0.039923 0.000000 0.000000
# 5 0.000000 0.000000 0.000000 0.000000 0.025301 0.000000
# 6 0.000000 0.000000 0.000000 0.000000 0.000000 0.067189
#
#
# Mechanical properties :
#
#
# Convention : Reuss Voigt Hill
#
# Bulk Modulus (GPa) = 21.03882 64.91662 42.97772
# Shear Modulus (GPa) = 24.75523 16.65052 20.70288
#
# Velocity S-wave (km/s) = 3.82620 3.13797 3.49904
# Velocity P-wave (km/s) = 5.65347 7.17772 6.46070
#
# Compressibility (1/GPa) = 0.04753118
#
# Stress axis : x y z
#
# Youngs Moduli (GPa) = 66.03852 15.61850 87.87779
#
# Poissons Ratio (x) = 0.08340 0.61031
# Poissons Ratio (y) = 0.35263 0.81058
# Poissons Ratio (z) = 0.45864 0.14407
#
# Static dielectric constant tensor:
#      x y z
#    x 3.426190 0.000000 0.000000 
#    y 0.000000 2.463430 0.000000 
#    z 0.000000 0.000000 3.497760 
# 
# 
# High freq. dielectric constant tensor:
#      x y z
#    x 1.658980 0.000000 0.000000 
#    y 0.000000 1.567350 0.000000 
#    z 0.000000 0.000000 1.672700 
# 
# From -- ./inp_files/36135.got.cif
#   From: 2010.03.12/outbox.cif.g09.slc.cpg/sg51_19_cif.got.tgz:36135.got - 2010.04.16 13:43:02.
