data_PCOD8214524
_publ_section_title
;
Structure prediction by ZEFSAII (Michael W. Deem and Ramdas Pophale) SiO2 
 PCOD8214524
Probable space group: P M M A
;
_chemical_formula_sum "Si O2"
_cell_formula_units_Z 48
_cell_length_a 14.670769
_cell_length_b 8.618800
_cell_length_c 19.286759
_cell_angle_alpha 90.000000
_cell_angle_beta 90.000000
_cell_angle_gamma 90.000000
_cell_volume 2438.703130
_symmetry_space_group_name_H-M "P M M A"
_symmetry_group_IT_number 51
_symmetry_cell_setting 'orthorhombic'
loop_
_space_group_symop_operation_xyz
x,y,z
1/2-x,-y,z
1/2+x,-y,-z
-x,y,-z
-x,-y,-z
1/2+x,y,-z
1/2-x,y,z
x,-y,z
loop_
_atom_site_type_symbol
_atom_site_label
_atom_site_fract_x
_atom_site_fract_y
_atom_site_fract_z
Si Si1 0.355400 0.322679 0.436355
Si Si2 0.439641 0.182523 0.935518
Si Si3 0.484837 0.177977 0.327836
Si Si4 0.441964 0.318289 0.183572
Si Si5 0.750000 0.683745 0.871214
Si Si6 0.250000 0.683597 0.972762
Si Si7 0.645621 0.679180 0.404474
O O1 0.250000 0.302410 0.417128
O O2 0.386124 0.500000 0.423577
O O3 0.413096 0.209160 0.388694
O O4 0.373184 0.276270 0.515825
O O5 0.487439 0.225991 0.863831
O O6 0.340017 0.258025 0.934083
O O7 0.427766 0.000000 0.941408
O O8 0.500000 0.246478 0.000000
O O9 0.463166 0.287472 0.263315
O O10 0.585982 0.213558 0.354862
O O11 0.478686 0.000000 0.304745
O O12 0.450859 0.500000 0.167307
O O13 0.339907 0.256198 0.168166
O O14 0.750000 0.500000 0.873028
O O15 0.750000 0.750635 0.949093
O O16 0.250000 0.500000 0.972112
O O17 0.750000 0.710730 0.385037
O O18 0.620305 0.500000 0.392344
#
# Coordination Sequence:
#
# PCOD8214524 Si02
#       7
#     8   8   8   8   4   4   8
#     4   9  19  37  62  89 116 152 200 249 292 346
#     4  11  23  40  62  93 128 159 194 245 307 361
#     4  12  25  38  55  87 126 161 193 239 303 363
#     4  11  23  42  64  88 119 160 206 249 290 349
#     4   9  20  37  63  93 117 148 197 250 291 337
#     4  11  21  39  67  95 119 154 205 252 291 349
#     4   9  19  39  65  88 111 149 204 254 294 347
#
# _framework density 19.682593000000001
#
# number of rings (size 3 to 8) (size 9 to 14) (size 15 to 20)
#    0.000    1.667    1.667    4.250    1.167    4.000 
#    1.500    2.917    0.000    0.000    0.000    0.000 
#    0.000    0.000    0.000    0.000    0.000    0.000 
#
# Total GULP energy -595438.682558 kJ/mol
# GULP energy per Si atom -12404.972553 kJ/mol
# Density = 1.963779 g / cm^3
# Si number density = 19.682593 Si / 1000 Ang^3
#
#
#
# Elastic Constant Matrix: (Units=GPa)
#
#
# Indices 1 2 3 4 5 6 
#
# 1 144.1386 30.5288 56.6705 0.0000 0.0000 0.0000
# 2 30.5288 60.7308 15.3548 0.0000 0.0000 0.0000
# 3 56.6705 15.3548 84.4132 0.0000 0.0000 0.0000
# 4 0.0000 0.0000 0.0000 28.3309 0.0000 0.0000
# 5 0.0000 0.0000 0.0000 0.0000 11.0461 0.0000
# 6 0.0000 0.0000 0.0000 0.0000 0.0000 18.8755
#
#
#
# Elastic Compliance Matrix: (Units=1/GPa)
#
#
# Indices 1 2 3 4 5 6 
#
# 1 0.010097 -0.003524 -0.006138 0.000000 0.000000 0.000000
# 2 -0.003524 0.018490 -0.000997 0.000000 0.000000 0.000000
# 3 -0.006138 -0.000997 0.016149 0.000000 0.000000 0.000000
# 4 0.000000 0.000000 0.000000 0.035297 0.000000 0.000000
# 5 0.000000 0.000000 0.000000 0.000000 0.090530 0.000000
# 6 0.000000 0.000000 0.000000 0.000000 0.000000 0.052979
#
#
# Mechanical properties :
#
#
# Convention : Reuss Voigt Hill
#
# Bulk Modulus (GPa) = 42.70384 54.93232 48.81808
# Shear Modulus (GPa) = 19.78898 24.09905 21.94401
#
# Velocity S-wave (km/s) = 3.17425 3.50292 3.34263
# Velocity P-wave (km/s) = 5.93109 6.65810 6.30508
#
# Compressibility (1/GPa) = 0.02341710
#
# Stress axis : x y z
#
# Youngs Moduli (GPa) = 99.03611 54.08391 61.92521
#
# Poissons Ratio (x) = 0.19059 0.38008
# Poissons Ratio (y) = 0.34900 0.06177
# Poissons Ratio (z) = 0.60786 0.05395
#
# Static dielectric constant tensor:
#      x y z
#    x 3.723050 0.000000 0.000000 
#    y 0.000000 3.377410 0.000000 
#    z 0.000000 0.000000 3.463810 
# 
# 
# High freq. dielectric constant tensor:
#      x y z
#    x 1.782170 0.000000 0.000000 
#    y 0.000000 1.755730 0.000000 
#    z 0.000000 0.000000 1.761490 
# 
# From -- ./inp_files/29649.got.cif
#   From: 2010.03.12/outbox.cif.g09.slc.cpg/sg51_15_cif.got.tgz:29649.got - 2010.04.16 13:43:02.
