data_PCOD8214308
_publ_section_title
;
Structure prediction by ZEFSAII (Michael W. Deem and Ramdas Pophale) SiO2 
 PCOD8214308
Probable space group: P M M A
;
_chemical_formula_sum "Si O2"
_cell_formula_units_Z 64
_cell_length_a 15.025960
_cell_length_b 21.923464
_cell_length_c 9.780559
_cell_angle_alpha 90.000000
_cell_angle_beta 90.000000
_cell_angle_gamma 90.000000
_cell_volume 3221.922437
_symmetry_space_group_name_H-M "P M M A"
_symmetry_group_IT_number 51
_symmetry_cell_setting 'orthorhombic'
loop_
_space_group_symop_operation_xyz
x,y,z
1/2-x,-y,z
1/2+x,-y,-z
-x,y,-z
-x,-y,-z
1/2+x,y,-z
1/2-x,y,z
x,-y,z
loop_
_atom_site_type_symbol
_atom_site_label
_atom_site_fract_x
_atom_site_fract_y
_atom_site_fract_z
Si Si1 0.354831 0.930417 0.227734
Si Si2 0.350425 0.429716 0.038229
Si Si3 0.100557 0.154159 0.461406
Si Si4 0.015266 0.310488 0.656171
Si Si5 0.846735 0.793663 0.269996
Si Si6 0.152804 0.744570 0.246456
Si Si7 0.399625 0.829792 0.017353
Si Si8 0.522138 0.429279 0.208125
O O1 0.250000 0.921840 0.221928
O O2 0.388595 0.908824 0.377790
O O3 0.396291 0.893307 0.100725
O O4 0.384828 0.000000 0.209901
O O5 0.250000 0.398526 0.053420
O O6 0.330998 0.500000 0.022535
O O7 0.405685 0.408793 0.905205
O O8 0.418911 0.419206 0.163534
O O9 0.151456 0.157446 0.605650
O O10 0.137718 0.206317 0.364122
O O11 0.000000 0.166979 0.500000
O O12 0.084118 0.261863 0.718141
O O13 0.000000 0.293632 0.500000
O O14 0.923339 0.306031 0.741807
O O15 0.044127 0.381460 0.670086
O O16 0.750000 0.762667 0.267033
O O17 0.859153 0.834482 0.134013
O O18 0.250000 0.714167 0.265445
O O19 0.151407 0.777096 0.099553
O O20 0.500000 0.808676 0.000000
O O21 0.536272 0.500000 0.253195
#
# Coordination Sequence:
#
# PCOD8214308 Si02
#       8
#     8   8   8   8   8   8   8   8
#     4  10  22  40  60  86 122 167 209 237 283 364
#     4   8  15  33  59  82 107 144 188 233 286 349
#     4  11  19  38  62  86 116 154 199 252 295 349
#     4  12  24  39  57  85 117 155 202 253 298 358
#     4  12  22  37  60  89 118 151 197 254 312 352
#     4  11  21  39  61  83 114 158 200 240 302 367
#     4  11  21  38  61  88 123 152 193 251 304 355
#     4   9  20  36  57  85 118 154 194 241 298 363
#
# _framework density 19.863917000000001
#
# number of rings (size 3 to 8) (size 9 to 14) (size 15 to 20)
#    0.000    1.500    3.750    4.500    0.000    3.750 
#    0.000    0.625    0.000    2.250    0.000    5.250 
#    0.000    0.000    0.000    0.000    0.000    0.000 
#
# Total GULP energy -792951.356178 kJ/mol
# GULP energy per Si atom -12389.864940 kJ/mol
# Density = 1.981871 g / cm^3
# Si number density = 19.863917 Si / 1000 Ang^3
#
#
#
# Elastic Constant Matrix: (Units=GPa)
#
#
# Indices 1 2 3 4 5 6 
#
# 1 136.7073 20.1961 24.6765 0.0000 0.0000 0.0000
# 2 20.1961 98.9019 47.3613 0.0000 0.0000 0.0000
# 3 24.6765 47.3613 125.3175 0.0000 0.0000 0.0000
# 4 0.0000 0.0000 0.0000 -131.8777 0.0000 0.0000
# 5 0.0000 0.0000 0.0000 0.0000 -3.4423 0.0000
# 6 0.0000 0.0000 0.0000 0.0000 0.0000 11.8065
#
#
#
# Elastic Compliance Matrix: (Units=1/GPa)
#
#
# Indices 1 2 3 4 5 6 
#
# 1 0.007669 -0.001029 -0.001121 0.000000 0.000000 0.000000
# 2 -0.001029 0.012483 -0.004515 0.000000 0.000000 0.000000
# 3 -0.001121 -0.004515 0.009907 0.000000 0.000000 0.000000
# 4 0.000000 0.000000 0.000000 -0.007583 0.000000 0.000000
# 5 0.000000 0.000000 0.000000 0.000000 -0.290507 0.000000
# 6 0.000000 0.000000 0.000000 0.000000 0.000000 0.084699
#
#
# Mechanical properties :
#
#
# Convention : Reuss Voigt Hill
#
# Bulk Modulus (GPa) = 59.77835 60.59939 60.18887
# Shear Modulus (GPa) = -30.40921 -6.78982 -18.59952
#
# Velocity S-wave (km/s) = -3.91689 -1.85084 -3.06330
# Velocity P-wave (km/s) = 3.11501 5.09961 4.22548
#
# Compressibility (1/GPa) = 0.01672846
#
# Stress axis : x y z
#
# Youngs Moduli (GPa) = 130.38948 80.10649 100.93934
#
# Poissons Ratio (x) = 0.08244 0.11318
# Poissons Ratio (y) = 0.13419 0.45576
# Poissons Ratio (z) = 0.14620 0.36170
#
# Static dielectric constant tensor:
#      x y z
#    x 4.072180 0.000000 0.000000 
#    y 0.000000 3.418380 0.000000 
#    z 0.000000 0.000000 2.475620 
# 
# 
# High freq. dielectric constant tensor:
#      x y z
#    x 1.789120 0.000000 0.000000 
#    y 0.000000 1.750520 0.000000 
#    z 0.000000 0.000000 1.769410 
# 
# From -- ./inp_files/8721.got.cif
#   From: 2010.03.12/outbox.cif.g09.slc.cpg/sg51_5_cif.got.tgz:8721.got - 2010.04.16 13:43:02.
