data_PCOD8214198
_publ_section_title
;
Structure prediction by ZEFSAII (Michael W. Deem and Ramdas Pophale) SiO2 
 PCOD8214198
Probable space group: P M M A
;
_chemical_formula_sum "Si O2"
_cell_formula_units_Z 64
_cell_length_a 17.764414
_cell_length_b 13.946371
_cell_length_c 12.870628
_cell_angle_alpha 90.000000
_cell_angle_beta 90.000000
_cell_angle_gamma 90.000000
_cell_volume 3188.686610
_symmetry_space_group_name_H-M "P M M A"
_symmetry_group_IT_number 51
_symmetry_cell_setting 'orthorhombic'
loop_
_space_group_symop_operation_xyz
x,y,z
1/2-x,-y,z
1/2+x,-y,-z
-x,y,-z
-x,-y,-z
1/2+x,y,-z
1/2-x,y,z
x,-y,z
loop_
_atom_site_type_symbol
_atom_site_label
_atom_site_fract_x
_atom_site_fract_y
_atom_site_fract_z
Si Si1 0.587630 0.388580 0.993833
Si Si2 0.162839 0.802731 0.512653
Si Si3 0.077302 0.887183 0.319016
Si Si4 0.594995 0.112820 0.285961
Si Si5 0.161527 0.218854 0.909372
Si Si6 0.667127 0.613060 0.787661
Si Si7 0.662369 0.109552 0.881198
Si Si8 0.838608 0.604542 0.561137
O O1 0.606205 0.500000 0.014017
O O2 0.632271 0.328235 0.081274
O O3 0.500000 0.367112 0.000000
O O4 0.613723 0.352042 0.880299
O O5 0.250000 0.816406 0.481812
O O6 0.111266 0.848727 0.425232
O O7 0.148946 0.852116 0.622225
O O8 0.142351 0.688519 0.520869
O O9 0.119130 0.843893 0.217522
O O10 0.989903 0.859846 0.315180
O O11 0.089897 0.000000 0.319563
O O12 0.617823 0.166200 0.181760
O O13 0.605909 0.000000 0.269173
O O14 0.250000 0.217271 0.885945
O O15 0.139912 0.165324 0.015304
O O16 0.750000 0.660720 0.803773
O O17 0.676019 0.500000 0.792703
O O18 0.631183 0.638851 0.674984
O O19 0.750000 0.117081 0.856761
O O20 0.637052 0.000000 0.898169
O O21 0.750000 0.591568 0.574548
O O22 0.872731 0.500000 0.527371
#
# Coordination Sequence:
#
# PCOD8214198 Si02
#       8
#     8   8   8   8   8   8   8   8
#     4  10  22  37  55  84 121 159 199 245 297 353
#     4  11  22  36  61  90 118 156 204 254 307 363
#     4  10  22  39  60  87 118 152 193 249 313 368
#     4  11  25  43  61  83 118 164 209 250 301 371
#     4  11  24  39  61  88 117 160 207 247 295 359
#     4   8  14  28  51  77 108 145 182 229 290 352
#     4   9  19  36  59  90 122 148 185 243 306 362
#     4   8  16  31  53  84 116 144 183 236 294 353
#
# _framework density 20.070958999999998
#
# number of rings (size 3 to 8) (size 9 to 14) (size 15 to 20)
#    0.000    2.250    0.000    3.000    3.500    4.500 
#    0.000    2.500    0.000    3.000    0.000    0.000 
#    0.000    0.000    0.000    0.000    0.000    0.000 
#
# Total GULP energy -793511.317737 kJ/mol
# GULP energy per Si atom -12398.614340 kJ/mol
# Density = 2.002528 g / cm^3
# Si number density = 20.070959 Si / 1000 Ang^3
#
#
#
# Elastic Constant Matrix: (Units=GPa)
#
#
# Indices 1 2 3 4 5 6 
#
# 1 56.0951 30.3471 19.1934 0.0000 0.0000 0.0000
# 2 30.3471 76.7777 43.1785 0.0000 0.0000 0.0000
# 3 19.1934 43.1785 82.7478 0.0000 0.0000 0.0000
# 4 0.0000 0.0000 0.0000 35.8199 0.0000 0.0000
# 5 0.0000 0.0000 0.0000 0.0000 21.2664 0.0000
# 6 0.0000 0.0000 0.0000 0.0000 0.0000 17.3668
#
#
#
# Elastic Compliance Matrix: (Units=1/GPa)
#
#
# Indices 1 2 3 4 5 6 
#
# 1 0.022716 -0.008514 -0.000826 0.000000 0.000000 0.000000
# 2 -0.008514 0.021625 -0.009309 0.000000 0.000000 0.000000
# 3 -0.000826 -0.009309 0.017134 0.000000 0.000000 0.000000
# 4 0.000000 0.000000 0.000000 0.027917 0.000000 0.000000
# 5 0.000000 0.000000 0.000000 0.000000 0.047023 0.000000
# 6 0.000000 0.000000 0.000000 0.000000 0.000000 0.057581
#
#
# Mechanical properties :
#
#
# Convention : Reuss Voigt Hill
#
# Bulk Modulus (GPa) = 41.36344 44.56209 42.96276
# Shear Modulus (GPa) = 20.88956 23.08405 21.98681
#
# Velocity S-wave (km/s) = 3.22962 3.39502 3.31335
# Velocity P-wave (km/s) = 5.87883 6.13341 6.00747
#
# Compressibility (1/GPa) = 0.02417594
#
# Stress axis : x y z
#
# Youngs Moduli (GPa) = 44.02275 46.24214 58.36237
#
# Poissons Ratio (x) = 0.39370 0.04822
# Poissons Ratio (y) = 0.37480 0.54332
# Poissons Ratio (z) = 0.03638 0.43049
#
# Static dielectric constant tensor:
#      x y z
#    x 3.556390 0.000000 0.000000 
#    y 0.000000 3.846210 0.000000 
#    z 0.000000 0.000000 3.686410 
# 
# 
# High freq. dielectric constant tensor:
#      x y z
#    x 1.769030 0.000000 0.000000 
#    y 0.000000 1.796720 0.000000 
#    z 0.000000 0.000000 1.775260 
# 
# From -- ./inp_files/17615.got.cif
#   From: 2010.03.12/outbox.cif.g09.slc.cpg/sg51_9_cif.got.tgz:17615.got - 2010.04.16 13:43:02.
