data_PCOD8214409
_publ_section_title
;
Structure prediction by ZEFSAII (Michael W. Deem and Ramdas Pophale) SiO2 
 PCOD8214409
Probable space group: P M M A
;
_chemical_formula_sum "Si O2"
_cell_formula_units_Z 32
_cell_length_a 17.565383
_cell_length_b 15.435351
_cell_length_c 5.040469
_cell_angle_alpha 90.000000
_cell_angle_beta 90.000000
_cell_angle_gamma 90.000000
_cell_volume 1366.611533
_symmetry_space_group_name_H-M "P M M A"
_symmetry_group_IT_number 51
_symmetry_cell_setting 'orthorhombic'
loop_
_space_group_symop_operation_xyz
x,y,z
1/2-x,-y,z
1/2+x,-y,-z
-x,y,-z
-x,-y,-z
1/2+x,y,-z
1/2-x,y,z
x,-y,z
loop_
_atom_site_type_symbol
_atom_site_label
_atom_site_fract_x
_atom_site_fract_y
_atom_site_fract_z
Si Si1 0.051080 0.902064 0.242516
Si Si2 0.948772 0.687050 0.254689
Si Si3 0.165642 0.404356 0.430637
Si Si4 0.663128 0.766256 0.911006
O O1 0.125514 0.841136 0.270449
O O2 0.000000 0.898856 0.500000
O O3 0.078783 0.000000 0.183491
O O4 0.000000 0.865945 0.000000
O O5 0.900907 0.603035 0.349409
O O6 0.000000 0.723285 0.500000
O O7 0.885155 0.760109 0.184499
O O8 0.000000 0.662617 0.000000
O O9 0.250000 0.394175 0.561239
O O10 0.158362 0.500000 0.299071
O O11 0.154475 0.328875 0.216371
O O12 0.750000 0.791286 0.971053
#
# Coordination Sequence:
#
# PCOD8214409 Si02
#       4
#     8   8   8   8
#     4  10  24  45  72 103 138 179 223 279 352 419
#     4  12  25  44  68  98 135 184 233 290 346 410
#     4  10  24  46  68  98 142 189 234 284 348 416
#     4  11  25  44  73 104 139 186 237 289 349 413
#
# _framework density 23.415576999999999
#
# number of rings (size 3 to 8) (size 9 to 14) (size 15 to 20)
#    0.000    1.250    2.500    1.500    7.000    2.500 
#    0.000    2.500    0.000    4.500    0.000    0.000 
#    0.000    0.000    0.000    0.000    0.000    0.000 
#
# Total GULP energy -396569.621918 kJ/mol
# GULP energy per Si atom -12392.800685 kJ/mol
# Density = 2.336228 g / cm^3
# Si number density = 23.415577 Si / 1000 Ang^3
#
#
#
# Elastic Constant Matrix: (Units=GPa)
#
#
# Indices 1 2 3 4 5 6 
#
# 1 202.9001 77.3492 68.9646 0.0000 0.0000 0.0000
# 2 77.3492 131.4057 14.9439 0.0000 0.0000 0.0000
# 3 68.9646 14.9439 120.8313 0.0000 0.0000 0.0000
# 4 0.0000 0.0000 0.0000 36.9191 0.0000 0.0000
# 5 0.0000 0.0000 0.0000 0.0000 23.9732 0.0000
# 6 0.0000 0.0000 0.0000 0.0000 0.0000 38.5163
#
#
#
# Elastic Compliance Matrix: (Units=1/GPa)
#
#
# Indices 1 2 3 4 5 6 
#
# 1 0.007875 -0.004183 -0.003977 0.000000 0.000000 0.000000
# 2 -0.004183 0.009941 0.001158 0.000000 0.000000 0.000000
# 3 -0.003977 0.001158 0.010403 0.000000 0.000000 0.000000
# 4 0.000000 0.000000 0.000000 0.027086 0.000000 0.000000
# 5 0.000000 0.000000 0.000000 0.000000 0.041713 0.000000
# 6 0.000000 0.000000 0.000000 0.000000 0.000000 0.025963
#
#
# Mechanical properties :
#
#
# Convention : Reuss Voigt Hill
#
# Bulk Modulus (GPa) = 70.35422 86.40585 78.38004
# Shear Modulus (GPa) = 35.27985 39.47369 37.37677
#
# Velocity S-wave (km/s) = 3.88581 4.11029 3.99963
# Velocity P-wave (km/s) = 7.08829 7.71408 7.40780
#
# Compressibility (1/GPa) = 0.01421379
#
# Stress axis : x y z
#
# Youngs Moduli (GPa) = 126.98180 100.59683 96.12732
#
# Poissons Ratio (x) = 0.42082 0.38234
# Poissons Ratio (y) = 0.53119 -0.11133
# Poissons Ratio (z) = 0.50506 -0.11651
#
# Static dielectric constant tensor:
#      x y z
#    x 4.733200 0.000000 0.000000 
#    y 0.000000 4.329660 0.000000 
#    z 0.000000 0.000000 4.099840 
# 
# 
# High freq. dielectric constant tensor:
#      x y z
#    x 1.942600 0.000000 0.000000 
#    y 0.000000 1.920210 0.000000 
#    z 0.000000 0.000000 1.914580 
# 
# From -- ./inp_files/1839.got.cif
#   From: 2010.03.12/outbox.cif.g09.slc.cpg/sg51_1_cif.got.tgz:1839.got - 2010.04.16 13:43:02.
