data_PCOD8214879
_publ_section_title
;
Structure prediction by ZEFSAII (Michael W. Deem and Ramdas Pophale) SiO2 
 PCOD8214879
Probable space group: P M M A
;
_chemical_formula_sum "Si O2"
_cell_formula_units_Z 40
_cell_length_a 9.226063
_cell_length_b 9.209074
_cell_length_c 25.977488
_cell_angle_alpha 90.000000
_cell_angle_beta 90.000000
_cell_angle_gamma 90.000000
_cell_volume 2207.138221
_symmetry_space_group_name_H-M "P M M A"
_symmetry_group_IT_number 51
_symmetry_cell_setting 'orthorhombic'
loop_
_space_group_symop_operation_xyz
x,y,z
1/2-x,-y,z
1/2+x,-y,-z
-x,y,-z
-x,-y,-z
1/2+x,y,-z
1/2-x,y,z
x,-y,z
loop_
_atom_site_type_symbol
_atom_site_label
_atom_site_fract_x
_atom_site_fract_y
_atom_site_fract_z
Si Si1 0.086327 0.672896 0.049137
Si Si2 0.580798 0.167835 0.449083
Si Si3 0.581434 0.669104 0.149774
Si Si4 0.577435 0.836114 0.250581
Si Si5 0.922750 0.664030 0.349073
O O1 0.250000 0.733393 0.048115
O O2 0.085939 0.500000 0.047220
O O3 0.007466 0.726729 0.100794
O O4 0.000000 0.735600 0.000000
O O5 0.500000 0.223235 0.500000
O O6 0.750000 0.194100 0.457682
O O7 0.520979 0.259389 0.400945
O O8 0.546094 0.000000 0.437823
O O9 0.750000 0.698971 0.138830
O O10 0.553335 0.500000 0.160544
O O11 0.523554 0.756803 0.199008
O O12 0.750000 0.835337 0.252406
O O13 0.514977 0.750688 0.299943
O O14 0.517108 0.000000 0.251397
O O15 0.750000 0.666353 0.347777
O O16 0.982096 0.500000 0.347355
#
# Coordination Sequence:
#
# PCOD8214879 Si02
#       5
#     8   8   8   8   8
#     4   9  16  26  42  65  92 120 149 182 220 261
#     4   9  17  29  45  65  90 120 152 185 222 265
#     4   9  16  26  42  65  91 116 143 178 219 261
#     4   9  16  26  42  64  89 116 146 181 221 265
#     4   9  16  26  42  65  91 117 147 185 226 265
#
# _framework density 18.123014999999999
#
# number of rings (size 3 to 8) (size 9 to 14) (size 15 to 20)
#    0.000    3.000    0.000    1.800    0.000    7.600 
#    0.000    0.000    0.000    2.400    0.000    0.000 
#    0.000    0.000    0.000    0.000    0.000    0.000 
#
# Total GULP energy -495976.162678 kJ/mol
# GULP energy per Si atom -12399.404067 kJ/mol
# Density = 1.808177 g / cm^3
# Si number density = 18.123015 Si / 1000 Ang^3
#
#
#
# Elastic Constant Matrix: (Units=GPa)
#
#
# Indices 1 2 3 4 5 6 
#
# 1 50.3764 26.5303 55.3172 0.0000 0.0000 0.0000
# 2 26.5303 97.5996 85.9349 0.0000 0.0000 0.0000
# 3 55.3172 85.9349 211.8986 0.0000 0.0000 0.0000
# 4 0.0000 0.0000 0.0000 19.9791 0.0000 0.0000
# 5 0.0000 0.0000 0.0000 0.0000 26.8145 0.0000
# 6 0.0000 0.0000 0.0000 0.0000 0.0000 8.6005
#
#
#
# Elastic Compliance Matrix: (Units=1/GPa)
#
#
# Indices 1 2 3 4 5 6 
#
# 1 0.028036 -0.001830 -0.006577 0.000000 0.000000 0.000000
# 2 -0.001830 0.016056 -0.006034 0.000000 0.000000 0.000000
# 3 -0.006577 -0.006034 0.008883 0.000000 0.000000 0.000000
# 4 0.000000 0.000000 0.000000 0.050052 0.000000 0.000000
# 5 0.000000 0.000000 0.000000 0.000000 0.037293 0.000000
# 6 0.000000 0.000000 0.000000 0.000000 0.000000 0.116272
#
#
# Mechanical properties :
#
#
# Convention : Reuss Voigt Hill
#
# Bulk Modulus (GPa) = 41.50430 77.27103 59.38766
# Shear Modulus (GPa) = 17.03546 23.88498 20.46022
#
# Velocity S-wave (km/s) = 3.06925 3.63428 3.36365
# Velocity P-wave (km/s) = 5.95916 7.76789 6.92285
#
# Compressibility (1/GPa) = 0.02409389
#
# Stress axis : x y z
#
# Youngs Moduli (GPa) = 35.66817 62.28193 112.57396
#
# Poissons Ratio (x) = 0.11400 0.74036
# Poissons Ratio (y) = 0.06528 0.67923
# Poissons Ratio (z) = 0.23458 0.37579
#
# Static dielectric constant tensor:
#      x y z
#    x 2.946770 0.000000 0.000000 
#    y 0.000000 3.224250 0.000000 
#    z 0.000000 0.000000 3.590630 
# 
# 
# High freq. dielectric constant tensor:
#      x y z
#    x 1.652420 0.000000 0.000000 
#    y 0.000000 1.681130 0.000000 
#    z 0.000000 0.000000 1.720990 
# 
# From -- ./inp_files/34336.got.cif
#   From: 2010.03.12/outbox.cif.g09.slc.cpg/sg51_18_cif.got.tgz:34336.got - 2010.04.16 13:43:02.
