data_PCOD8214427
_publ_section_title
;
Structure prediction by ZEFSAII (Michael W. Deem and Ramdas Pophale) SiO2 
 PCOD8214427
Probable space group: P M M A
;
_chemical_formula_sum "Si O2"
_cell_formula_units_Z 64
_cell_length_a 26.118056
_cell_length_b 9.116341
_cell_length_c 18.369588
_cell_angle_alpha 90.000000
_cell_angle_beta 90.000000
_cell_angle_gamma 90.000000
_cell_volume 4373.819197
_symmetry_space_group_name_H-M "P M M A"
_symmetry_group_IT_number 51
_symmetry_cell_setting 'orthorhombic'
loop_
_space_group_symop_operation_xyz
x,y,z
1/2-x,-y,z
1/2+x,-y,-z
-x,y,-z
-x,-y,-z
1/2+x,y,-z
1/2-x,y,z
x,-y,z
loop_
_atom_site_type_symbol
_atom_site_label
_atom_site_fract_x
_atom_site_fract_y
_atom_site_fract_z
Si Si1 0.309298 0.169700 0.840771
Si Si2 0.947536 0.665644 0.544059
Si Si3 0.554015 0.161451 0.960452
Si Si4 0.101697 0.171408 0.579811
Si Si5 0.999012 0.829739 0.665604
Si Si6 0.693627 0.174420 0.323564
Si Si7 0.898922 0.673729 0.085226
Si Si8 0.989417 0.173027 0.169576
O O1 0.250000 0.190646 0.861632
O O2 0.319375 0.225132 0.758350
O O3 0.342655 0.269938 0.894130
O O4 0.325515 0.000000 0.849383
O O5 0.929772 0.500000 0.557430
O O6 0.903961 0.747371 0.497382
O O7 0.955058 0.742805 0.622030
O O8 0.000000 0.675093 0.500000
O O9 0.540425 0.210581 0.877776
O O10 0.580148 0.000000 0.961328
O O11 0.500000 0.151638 0.000000
O O12 0.590253 0.276669 0.001788
O O13 0.152027 0.235695 0.619669
O O14 0.054549 0.204877 0.632947
O O15 0.106546 0.000000 0.563221
O O16 0.998721 0.775917 0.748694
O O17 0.985542 0.000000 0.658980
O O18 0.750000 0.232095 0.346468
O O19 0.692921 0.000000 0.324017
O O20 0.901422 0.500000 0.089360
O O21 0.940002 0.741066 0.140812
O O22 0.976531 0.000000 0.165669
#
# Coordination Sequence:
#
# PCOD8214427 Si02
#       8
#     8   8   8   8   8   8   8   8
#     4   9  17  30  46  60  77 105 140 174 204 235
#     4   9  17  27  37  52  77 105 131 160 193 232
#     4   8  15  28  43  57  76 104 136 167 197 233
#     4   9  15  24  40  58  77 103 132 161 193 232
#     4   9  16  26  41  59  77 100 133 168 199 231
#     4   8  14  25  42  62  79  98 131 172 204 228
#     4  11  20  27  39  59  84 111 136 165 200 239
#     4   9  17  29  44  60  79 105 137 170 200 235
#
# _framework density 14.63252
#
# number of rings (size 3 to 8) (size 9 to 14) (size 15 to 20)
#    0.000    3.000    0.000    3.750    0.000    6.500 
#    0.000    3.125    0.000    1.125    0.000    0.000 
#    0.000    1.000    0.000    8.000    0.000    3.625 
#
# Total GULP energy -793335.353615 kJ/mol
# GULP energy per Si atom -12395.864900 kJ/mol
# Density = 1.459922 g / cm^3
# Si number density = 14.632520 Si / 1000 Ang^3
#
#
#
# Elastic Constant Matrix: (Units=GPa)
#
#
# Indices 1 2 3 4 5 6 
#
# 1 69.2494 37.7918 47.7313 0.0000 0.0000 0.0000
# 2 37.7918 69.9876 45.8496 0.0000 0.0000 0.0000
# 3 47.7313 45.8496 105.9792 0.0000 0.0000 0.0000
# 4 0.0000 0.0000 0.0000 9.7946 0.0000 0.0000
# 5 0.0000 0.0000 0.0000 0.0000 25.1774 0.0000
# 6 0.0000 0.0000 0.0000 0.0000 0.0000 9.7832
#
#
#
# Elastic Compliance Matrix: (Units=1/GPa)
#
#
# Indices 1 2 3 4 5 6 
#
# 1 0.023870 -0.008159 -0.007221 0.000000 0.000000 0.000000
# 2 -0.008159 0.022728 -0.006158 0.000000 0.000000 0.000000
# 3 -0.007221 -0.006158 0.015352 0.000000 0.000000 0.000000
# 4 0.000000 0.000000 0.000000 0.102097 0.000000 0.000000
# 5 0.000000 0.000000 0.000000 0.000000 0.039718 0.000000
# 6 0.000000 0.000000 0.000000 0.000000 0.000000 0.102216
#
#
# Mechanical properties :
#
#
# Convention : Reuss Voigt Hill
#
# Bulk Modulus (GPa) = 52.98155 56.44017 54.71086
# Shear Modulus (GPa) = 14.07060 16.54059 15.30560
#
# Velocity S-wave (km/s) = 3.10433 3.36579 3.23770
# Velocity P-wave (km/s) = 7.00970 7.33213 7.17273
#
# Compressibility (1/GPa) = 0.01887449
#
# Stress axis : x y z
#
# Youngs Moduli (GPa) = 41.89293 43.99819 65.13682
#
# Poissons Ratio (x) = 0.35898 0.47036
# Poissons Ratio (y) = 0.34180 0.40113
# Poissons Ratio (z) = 0.30251 0.27095
#
# Static dielectric constant tensor:
#      x y z
#    x 2.743770 0.000000 0.000000 
#    y 0.000000 2.720250 0.000000 
#    z 0.000000 0.000000 3.052320 
# 
# 
# High freq. dielectric constant tensor:
#      x y z
#    x 1.525520 0.000000 0.000000 
#    y 0.000000 1.547750 0.000000 
#    z 0.000000 0.000000 1.551920 
# 
# From -- ./inp_files/30990.got.cif
#   From: 2010.03.12/outbox.cif.g09.slc.cpg/sg51_16_cif.got.tgz:30990.got - 2010.04.16 13:43:02.
