data_PCOD8214660
_publ_section_title
;
Structure prediction by ZEFSAII (Michael W. Deem and Ramdas Pophale) SiO2 
 PCOD8214660
Probable space group: P M M A
;
_chemical_formula_sum "Si O2"
_cell_formula_units_Z 30
_cell_length_a 14.417392
_cell_length_b 10.861763
_cell_length_c 8.854087
_cell_angle_alpha 90.000000
_cell_angle_beta 90.000000
_cell_angle_gamma 90.000000
_cell_volume 1386.534928
_symmetry_space_group_name_H-M "P M M A"
_symmetry_group_IT_number 51
_symmetry_cell_setting 'orthorhombic'
loop_
_space_group_symop_operation_xyz
x,y,z
1/2-x,-y,z
1/2+x,-y,-z
-x,y,-z
-x,-y,-z
1/2+x,y,-z
1/2-x,y,z
x,-y,z
loop_
_atom_site_type_symbol
_atom_site_label
_atom_site_fract_x
_atom_site_fract_y
_atom_site_fract_z
Si Si1 0.250000 0.243059 0.293476
Si Si2 0.923336 0.500000 0.372060
Si Si3 0.439129 0.857441 0.365807
Si Si4 0.250000 0.500000 0.412757
Si Si5 0.941373 0.274045 0.143337
Si Si6 0.750000 0.851748 0.042641
O O1 0.159782 0.205335 0.385712
O O2 0.250000 0.390337 0.290218
O O3 0.250000 0.175391 0.134053
O O4 0.832065 0.500000 0.469507
O O5 0.928600 0.382266 0.263172
O O6 0.000000 0.500000 0.500000
O O7 0.500000 0.801205 0.500000
O O8 0.490492 0.830869 0.208761
O O9 0.422515 0.000000 0.385318
O O10 0.841817 0.212099 0.110186
O O11 0.000000 0.324958 0.000000
O O12 0.750000 0.000000 0.071161
#
# Coordination Sequence:
#
# PCOD8214660 Si02
#       6
#     4   4   8   2   8   4
#     4  12  24  43  69 101 137 189 240 288 371 416
#     4  12  27  48  73 101 145 183 237 295 359 411
#     4  11  24  43  69 102 142 185 236 293 351 422
#     4  12  26  44  70  94 136 186 232 300 344 430
#     4  12  25  44  72 105 141 186 237 286 357 426
#     4  12  27  45  72 106 148 186 232 295 358 428
#
# _framework density 21.636669000000001
#
# number of rings (size 3 to 8) (size 9 to 14) (size 15 to 20)
#    0.000    0.267    2.667    7.200    0.000    3.200 
#    0.000    1.333    0.000    0.000    0.000    0.000 
#    0.000    0.000    0.000    0.000    0.000    0.000 
#
# Total GULP energy -371915.344068 kJ/mol
# GULP energy per Si atom -12397.178136 kJ/mol
# Density = 2.158742 g / cm^3
# Si number density = 21.636669 Si / 1000 Ang^3
#
#
#
# Elastic Constant Matrix: (Units=GPa)
#
#
# Indices 1 2 3 4 5 6 
#
# 1 208.1962 65.7557 56.0847 0.0000 0.0000 0.0000
# 2 65.7557 130.5372 48.9664 0.0000 0.0000 0.0000
# 3 56.0847 48.9664 98.7498 0.0000 0.0000 0.0000
# 4 0.0000 0.0000 0.0000 43.8744 0.0000 0.0000
# 5 0.0000 0.0000 0.0000 0.0000 5.3987 0.0000
# 6 0.0000 0.0000 0.0000 0.0000 0.0000 31.4905
#
#
#
# Elastic Compliance Matrix: (Units=1/GPa)
#
#
# Indices 1 2 3 4 5 6 
#
# 1 0.006143 -0.002194 -0.002401 0.000000 0.000000 0.000000
# 2 -0.002194 0.010195 -0.003809 0.000000 0.000000 0.000000
# 3 -0.002401 -0.003809 0.013379 0.000000 0.000000 0.000000
# 4 0.000000 0.000000 0.000000 0.022792 0.000000 0.000000
# 5 0.000000 0.000000 0.000000 0.000000 0.185230 0.000000
# 6 0.000000 0.000000 0.000000 0.000000 0.000000 0.031756
#
#
# Mechanical properties :
#
#
# Convention : Reuss Voigt Hill
#
# Bulk Modulus (GPa) = 77.46749 86.56633 82.01691
# Shear Modulus (GPa) = 17.20547 33.93114 25.56831
#
# Velocity S-wave (km/s) = 2.82299 3.96438 3.44133
# Velocity P-wave (km/s) = 6.81962 7.81351 7.33342
#
# Compressibility (1/GPa) = 0.01290864
#
# Stress axis : x y z
#
# Youngs Moduli (GPa) = 162.79241 98.09146 74.74339
#
# Poissons Ratio (x) = 0.21518 0.17946
# Poissons Ratio (y) = 0.35711 0.28471
# Poissons Ratio (z) = 0.39087 0.37365
#
# Static dielectric constant tensor:
#      x y z
#    x 4.330180 0.000000 0.000000 
#    y 0.000000 4.014030 0.000000 
#    z 0.000000 0.000000 4.118920 
# 
# 
# High freq. dielectric constant tensor:
#      x y z
#    x 1.877490 0.000000 0.000000 
#    y 0.000000 1.862180 0.000000 
#    z 0.000000 0.000000 1.858220 
# 
# From -- ./inp_files/7542.got.cif
#   From: 2010.03.12/outbox.cif.g09.slc.cpg/sg51_4_cif.got.tgz:7542.got - 2010.04.16 13:43:02.
