data_PCOD8214317
_publ_section_title
;
Structure prediction by ZEFSAII (Michael W. Deem and Ramdas Pophale) SiO2 
 PCOD8214317
Probable space group: P M M A
;
_chemical_formula_sum "Si O2"
_cell_formula_units_Z 32
_cell_length_a 13.040560
_cell_length_b 10.158030
_cell_length_c 11.618261
_cell_angle_alpha 90.000000
_cell_angle_beta 90.000000
_cell_angle_gamma 90.000000
_cell_volume 1539.029205
_symmetry_space_group_name_H-M "P M M A"
_symmetry_group_IT_number 51
_symmetry_cell_setting 'orthorhombic'
loop_
_space_group_symop_operation_xyz
x,y,z
1/2-x,-y,z
1/2+x,-y,-z
-x,y,-z
-x,-y,-z
1/2+x,y,-z
1/2-x,y,z
x,-y,z
loop_
_atom_site_type_symbol
_atom_site_label
_atom_site_fract_x
_atom_site_fract_y
_atom_site_fract_z
Si Si1 0.867282 0.236462 0.310321
Si Si2 0.870899 0.000000 0.469513
Si Si3 0.130344 0.000000 0.269783
Si Si4 0.373305 0.500000 0.180976
Si Si5 0.467082 0.771055 0.124929
Si Si6 0.541590 0.500000 0.375892
O O1 0.750000 0.208877 0.280123
O O2 0.909144 0.127780 0.399546
O O3 0.883164 0.377660 0.365284
O O4 0.925784 0.237758 0.190148
O O5 0.750000 0.000000 0.479965
O O6 0.918962 0.000000 0.599705
O O7 0.102638 0.871607 0.196400
O O8 0.250000 0.000000 0.288921
O O9 0.250000 0.500000 0.203568
O O10 0.406512 0.631889 0.111883
O O11 0.439539 0.500000 0.297440
O O12 0.500000 0.824158 0.000000
O O13 0.500000 0.500000 0.500000
#
# Coordination Sequence:
#
# PCOD8214317 Si02
#       6
#     8   4   4   4   8   4
#     4  10  22  40  62  91 126 165 207 255 313 369
#     4   9  21  39  62  91 121 162 204 246 310 377
#     4  11  24  41  64  93 126 163 208 260 314 370
#     4  10  23  42  64  90 124 163 207 257 312 368
#     4  11  24  42  63  93 124 163 215 258 308 368
#     4  10  23  38  60  94 126 164 200 255 310 373
#
# _framework density 20.792327
#
# number of rings (size 3 to 8) (size 9 to 14) (size 15 to 20)
#    0.000    1.750    0.000    2.625    7.000    4.000 
#    0.000    1.250    0.000    0.000    0.000    0.000 
#    0.000    0.000    0.000    0.000    0.000    0.000 
#
# Total GULP energy -396654.862282 kJ/mol
# GULP energy per Si atom -12395.464446 kJ/mol
# Density = 2.074500 g / cm^3
# Si number density = 20.792327 Si / 1000 Ang^3
#
#
#
# Elastic Constant Matrix: (Units=GPa)
#
#
# Indices 1 2 3 4 5 6 
#
# 1 107.6378 33.8962 18.1988 0.0000 0.0000 0.0000
# 2 33.8962 160.4643 54.5073 0.0000 0.0000 0.0000
# 3 18.1988 54.5073 130.3986 0.0000 0.0000 0.0000
# 4 0.0000 0.0000 0.0000 4.6425 0.0000 0.0000
# 5 0.0000 0.0000 0.0000 0.0000 27.1583 0.0000
# 6 0.0000 0.0000 0.0000 0.0000 0.0000 50.0138
#
#
#
# Elastic Compliance Matrix: (Units=1/GPa)
#
#
# Indices 1 2 3 4 5 6 
#
# 1 0.009992 -0.001908 -0.000597 0.000000 0.000000 0.000000
# 2 -0.001908 0.007628 -0.002922 0.000000 0.000000 0.000000
# 3 -0.000597 -0.002922 0.008974 0.000000 0.000000 0.000000
# 4 0.000000 0.000000 0.000000 0.215399 0.000000 0.000000
# 5 0.000000 0.000000 0.000000 0.000000 0.036821 0.000000
# 6 0.000000 0.000000 0.000000 0.000000 0.000000 0.019994
#
#
# Mechanical properties :
#
#
# Convention : Reuss Voigt Hill
#
# Bulk Modulus (GPa) = 63.53547 67.96723 65.75135
# Shear Modulus (GPa) = 15.87764 35.82282 25.85023
#
# Velocity S-wave (km/s) = 2.76638 4.15527 3.52981
# Velocity P-wave (km/s) = 6.38963 7.46869 6.95013
#
# Compressibility (1/GPa) = 0.01573924
#
# Stress axis : x y z
#
# Youngs Moduli (GPa) = 100.07821 131.10402 111.43850
#
# Poissons Ratio (x) = 0.25014 0.06653
# Poissons Ratio (y) = 0.19094 0.32563
# Poissons Ratio (z) = 0.05975 0.38310
#
# Static dielectric constant tensor:
#      x y z
#    x 3.599940 0.000000 0.000000 
#    y 0.000000 3.993040 0.000000 
#    z 0.000000 0.000000 3.706210 
# 
# 
# High freq. dielectric constant tensor:
#      x y z
#    x 1.826980 0.000000 0.000000 
#    y 0.000000 1.828320 0.000000 
#    z 0.000000 0.000000 1.811110 
# 
# From -- ./inp_files/15991.got.cif
#   From: 2010.03.12/outbox.cif.g09.slc.cpg/sg51_8_cif.got.tgz:15991.got - 2010.04.16 13:43:02.
