data_PCOD8214145
_publ_section_title
;
Structure prediction by ZEFSAII (Michael W. Deem and Ramdas Pophale) SiO2 
 PCOD8214145
Probable space group: P M M A
;
_chemical_formula_sum "Si O2"
_cell_formula_units_Z 64
_cell_length_a 30.755627
_cell_length_b 8.848256
_cell_length_c 11.914706
_cell_angle_alpha 90.000000
_cell_angle_beta 90.000000
_cell_angle_gamma 90.000000
_cell_volume 3242.392565
_symmetry_space_group_name_H-M "P M M A"
_symmetry_group_IT_number 51
_symmetry_cell_setting 'orthorhombic'
loop_
_space_group_symop_operation_xyz
x,y,z
1/2-x,-y,z
1/2+x,-y,-z
-x,y,-z
-x,-y,-z
1/2+x,y,-z
1/2-x,y,z
x,-y,z
loop_
_atom_site_type_symbol
_atom_site_label
_atom_site_fract_x
_atom_site_fract_y
_atom_site_fract_z
Si Si1 0.551339 0.672021 0.771865
Si Si2 0.201693 0.320643 0.240589
Si Si3 0.167964 0.321559 0.000931
Si Si4 0.046490 0.673436 0.784737
Si Si5 0.125256 0.677533 0.400885
Si Si6 0.075671 0.822171 0.000405
Si Si7 0.121595 0.178037 0.641664
Si Si8 0.201792 0.173820 0.790833
O O1 0.561809 0.500000 0.809480
O O2 0.501621 0.688499 0.731549
O O3 0.582204 0.718482 0.669308
O O4 0.560566 0.780194 0.875773
O O5 0.250000 0.257978 0.268517
O O6 0.202116 0.500000 0.237927
O O7 0.167669 0.263607 0.333610
O O8 0.187096 0.261881 0.118523
O O9 0.159960 0.500000 0.003627
O O10 0.200710 0.276705 0.902033
O O11 0.123584 0.236358 0.974169
O O12 0.060578 0.500000 0.796939
O O13 0.080039 0.754389 0.703348
O O14 0.044259 0.747939 0.907856
O O15 0.128091 0.500000 0.425837
O O16 0.122923 0.766995 0.515238
O O17 0.073896 0.000000 0.984931
O O18 0.166165 0.230923 0.701453
O O19 0.116782 0.000000 0.643787
O O20 0.250000 0.192532 0.737749
O O21 0.192844 0.000000 0.824074
#
# Coordination Sequence:
#
# PCOD8214145 Si02
#       8
#     8   8   8   8   8   8   8   8
#     4  10  22  41  63  89 118 156 200 244 295 352
#     4   9  18  34  59  90 120 150 190 244 295 340
#     4  11  20  35  61  90 122 158 198 242 292 353
#     4  11  23  40  64  89 117 154 200 246 294 354
#     4  10  21  40  62  84 116 155 200 248 293 344
#     4  12  23  36  59  91 126 159 192 237 300 361
#     4  11  24  41  60  85 119 157 200 247 297 350
#     4  10  22  40  60  85 121 160 195 240 298 356
#
# _framework density 19.738510999999999
#
# number of rings (size 3 to 8) (size 9 to 14) (size 15 to 20)
#    0.000    1.500    2.500    3.000    0.000    5.250 
#    0.000    2.500    0.000    1.500    0.000    0.000 
#    0.000    0.000    0.000    0.000    0.000    0.000 
#
# Total GULP energy -793812.834381 kJ/mol
# GULP energy per Si atom -12403.325537 kJ/mol
# Density = 1.969358 g / cm^3
# Si number density = 19.738511 Si / 1000 Ang^3
#
#
#
# Elastic Constant Matrix: (Units=GPa)
#
#
# Indices 1 2 3 4 5 6 
#
# 1 132.9296 39.8726 57.0658 0.0000 0.0000 0.0000
# 2 39.8726 77.9117 55.7127 0.0000 0.0000 0.0000
# 3 57.0658 55.7127 126.8860 0.0000 0.0000 0.0000
# 4 0.0000 0.0000 0.0000 25.0489 0.0000 0.0000
# 5 0.0000 0.0000 0.0000 0.0000 15.5152 0.0000
# 6 0.0000 0.0000 0.0000 0.0000 0.0000 22.6736
#
#
#
# Elastic Compliance Matrix: (Units=1/GPa)
#
#
# Indices 1 2 3 4 5 6 
#
# 1 0.009694 -0.002687 -0.003180 0.000000 0.000000 0.000000
# 2 -0.002687 0.019454 -0.007333 0.000000 0.000000 0.000000
# 3 -0.003180 -0.007333 0.012531 0.000000 0.000000 0.000000
# 4 0.000000 0.000000 0.000000 0.039922 0.000000 0.000000
# 5 0.000000 0.000000 0.000000 0.000000 0.064453 0.000000
# 6 0.000000 0.000000 0.000000 0.000000 0.000000 0.044104
#
#
# Mechanical properties :
#
#
# Convention : Reuss Voigt Hill
#
# Bulk Modulus (GPa) = 65.45187 71.44772 68.44979
# Shear Modulus (GPa) = 22.55794 24.98596 23.77195
#
# Velocity S-wave (km/s) = 3.38426 3.56174 3.47413
# Velocity P-wave (km/s) = 6.96437 7.29317 7.13066
#
# Compressibility (1/GPa) = 0.01527840
#
# Stress axis : x y z
#
# Youngs Moduli (GPa) = 103.15763 51.40297 79.80148
#
# Poissons Ratio (x) = 0.13813 0.25376
# Poissons Ratio (y) = 0.27720 0.58521
# Poissons Ratio (z) = 0.32803 0.37695
#
# Static dielectric constant tensor:
#      x y z
#    x 3.893890 0.000000 0.000000 
#    y 0.000000 3.454910 0.000000 
#    z 0.000000 0.000000 3.535060 
# 
# 
# High freq. dielectric constant tensor:
#      x y z
#    x 1.787260 0.000000 0.000000 
#    y 0.000000 1.757190 0.000000 
#    z 0.000000 0.000000 1.763580 
# 
# From -- ./inp_files/19530.got.cif
#   From: 2010.03.12/outbox.cif.g09.slc.cpg/sg51_10_cif.got.tgz:19530.got - 2010.04.16 13:43:02.
