data_PCOD8214796
_publ_section_title
;
Structure prediction by ZEFSAII (Michael W. Deem and Ramdas Pophale) SiO2 
 PCOD8214796
Probable space group: P M M A
;
_chemical_formula_sum "Si O2"
_cell_formula_units_Z 64
_cell_length_a 19.225608
_cell_length_b 9.227565
_cell_length_c 21.425897
_cell_angle_alpha 90.000000
_cell_angle_beta 90.000000
_cell_angle_gamma 90.000000
_cell_volume 3801.072988
_symmetry_space_group_name_H-M "P M M A"
_symmetry_group_IT_number 51
_symmetry_cell_setting 'orthorhombic'
loop_
_space_group_symop_operation_xyz
x,y,z
1/2-x,-y,z
1/2+x,-y,-z
-x,y,-z
-x,-y,-z
1/2+x,y,-z
1/2-x,y,z
x,-y,z
loop_
_atom_site_type_symbol
_atom_site_label
_atom_site_fract_x
_atom_site_fract_y
_atom_site_fract_z
Si Si1 0.825452 0.834359 0.615182
Si Si2 0.827662 0.171944 0.965700
Si Si3 0.671843 0.827863 0.103689
Si Si4 0.941677 0.170406 0.199751
Si Si5 0.527121 0.170353 0.567036
Si Si6 0.519686 0.662854 0.316274
Si Si7 0.594743 0.830452 0.845171
Si Si8 0.863642 0.338263 0.730888
O O1 0.750000 0.816190 0.580508
O O2 0.890665 0.787110 0.571909
O O3 0.819836 0.740785 0.677712
O O4 0.837323 0.000000 0.635626
O O5 0.750000 0.227090 0.948694
O O6 0.882756 0.225639 0.913861
O O7 0.827533 0.000000 0.968046
O O8 0.848929 0.230353 0.034545
O O9 0.750000 0.776977 0.120616
O O10 0.618685 0.766757 0.155098
O O11 0.667250 0.000000 0.103845
O O12 0.933516 0.251756 0.265937
O O13 0.013964 0.205826 0.165056
O O14 0.934474 0.000000 0.212941
O O15 0.500000 0.221921 0.500000
O O16 0.480551 0.252969 0.618047
O O17 0.515573 0.000000 0.576941
O O18 0.548759 0.500000 0.326105
O O19 0.442926 0.658579 0.289650
O O20 0.643200 0.748036 0.795496
O O21 0.609523 0.000000 0.836915
O O22 0.834191 0.500000 0.739983
#
# Coordination Sequence:
#
# PCOD8214796 Si02
#       8
#     8   8   8   8   8   8   8   8
#     4   9  17  29  45  65  89 116 146 179 212 247
#     4   8  14  24  37  55  81 110 139 175 219 266
#     4   8  14  25  41  61  83 107 139 181 228 271
#     4   9  16  26  43  65  86 108 138 181 223 256
#     4   9  17  30  49  71  93 118 147 177 210 250
#     4   9  17  29  45  65  89 115 142 173 210 254
#     4   9  16  25  39  61  86 111 141 176 216 261
#     4   9  17  28  41  59  85 115 145 176 210 250
#
# _framework density 16.837350000000001
#
# number of rings (size 3 to 8) (size 9 to 14) (size 15 to 20)
#    0.000    3.250    0.000    1.500    0.000    4.500 
#    0.000    3.750    0.000    1.875    0.000    8.750 
#    0.000    0.000    0.000    0.000    0.000    0.000 
#
# Total GULP energy -793141.846209 kJ/mol
# GULP energy per Si atom -12392.841347 kJ/mol
# Density = 1.679903 g / cm^3
# Si number density = 16.837350 Si / 1000 Ang^3
#
#
#
# Elastic Constant Matrix: (Units=GPa)
#
#
# Indices 1 2 3 4 5 6 
#
# 1 78.6156 27.7039 68.5799 0.0000 0.0000 0.0000
# 2 27.7039 51.7204 46.2215 0.0000 0.0000 0.0000
# 3 68.5799 46.2215 150.1108 0.0000 0.0000 0.0000
# 4 0.0000 0.0000 0.0000 5.7627 0.0000 0.0000
# 5 0.0000 0.0000 0.0000 0.0000 20.6900 0.0000
# 6 0.0000 0.0000 0.0000 0.0000 0.0000 7.4383
#
#
#
# Elastic Compliance Matrix: (Units=1/GPa)
#
#
# Indices 1 2 3 4 5 6 
#
# 1 0.021679 -0.003809 -0.008732 0.000000 0.000000 0.000000
# 2 -0.003809 0.027344 -0.006679 0.000000 0.000000 0.000000
# 3 -0.008732 -0.006679 0.012708 0.000000 0.000000 0.000000
# 4 0.000000 0.000000 0.000000 0.173530 0.000000 0.000000
# 5 0.000000 0.000000 0.000000 0.000000 0.048333 0.000000
# 6 0.000000 0.000000 0.000000 0.000000 0.000000 0.134439
#
#
# Mechanical properties :
#
#
# Convention : Reuss Voigt Hill
#
# Bulk Modulus (GPa) = 42.93535 62.82860 52.88197
# Shear Modulus (GPa) = 10.77034 15.97430 13.37232
#
# Velocity S-wave (km/s) = 2.53191 3.08351 2.82122
# Velocity P-wave (km/s) = 5.83977 7.07625 6.48754
#
# Compressibility (1/GPa) = 0.02329083
#
# Stress axis : x y z
#
# Youngs Moduli (GPa) = 46.12666 36.57044 78.69318
#
# Poissons Ratio (x) = 0.13931 0.68711
# Poissons Ratio (y) = 0.17571 0.52563
# Poissons Ratio (z) = 0.40276 0.24427
#
# Static dielectric constant tensor:
#      x y z
#    x 3.114110 0.000000 0.000000 
#    y 0.000000 3.020170 0.000000 
#    z 0.000000 0.000000 3.269720 
# 
# 
# High freq. dielectric constant tensor:
#      x y z
#    x 1.630300 0.000000 0.000000 
#    y 0.000000 1.622230 0.000000 
#    z 0.000000 0.000000 1.641050 
# 
# From -- ./inp_files/30794.got.cif
#   From: 2010.03.12/outbox.cif.g09.slc.cpg/sg51_16_cif.got.tgz:30794.got - 2010.04.16 13:43:02.
