data_PCOD8214989
_publ_section_title
;
Structure prediction by ZEFSAII (Michael W. Deem and Ramdas Pophale) SiO2 
 PCOD8214989
Probable space group: P N N A
;
_chemical_formula_sum "Si O2"
_cell_formula_units_Z 64
_cell_length_a 18.403487
_cell_length_b 20.049367
_cell_length_c 9.567599
_cell_angle_alpha 90.000000
_cell_angle_beta 90.000000
_cell_angle_gamma 90.000000
_cell_volume 3530.236079
_symmetry_space_group_name_H-M "P N N A"
_symmetry_group_IT_number 52
_symmetry_cell_setting 'orthorhombic'
loop_
_space_group_symop_operation_xyz
x,y,z
1/2-x,-y,z
x,1/2-y,1/2-z
1/2-x,1/2+y,1/2-z
-x,-y,-z
1/2+x,y,-z
-x,1/2+y,1/2+z
1/2+x,1/2-y,1/2+z
loop_
_atom_site_type_symbol
_atom_site_label
_atom_site_fract_x
_atom_site_fract_y
_atom_site_fract_z
Si Si1 0.519516 0.644583 0.108130
Si Si2 0.832811 0.478545 0.665734
Si Si3 0.627953 0.087097 0.630810
Si Si4 0.383767 0.025599 0.580593
Si Si5 0.397809 0.266694 0.089625
Si Si6 0.293431 0.116268 0.395982
Si Si7 0.677560 0.957273 0.138001
Si Si8 0.135943 0.813712 0.831042
O O1 0.433651 0.643947 0.143253
O O2 0.544429 0.570500 0.059927
O O3 0.562520 0.668285 0.246048
O O4 0.534337 0.693605 0.977549
O O5 0.750000 0.500000 0.658308
O O6 0.878665 0.537972 0.736131
O O7 0.835193 0.411792 0.759062
O O8 0.863255 0.464403 0.511096
O O9 0.706810 0.121214 0.621733
O O10 0.610300 0.045510 0.491706
O O11 0.312959 0.066345 0.523434
O O12 0.374104 0.011485 0.744808
O O13 0.416480 0.250000 0.250000
O O14 0.324025 0.310161 0.078209
O O15 0.383189 0.202124 0.992807
O O16 0.689771 0.877799 0.169005
O O17 0.750000 0.000000 0.137460
O O18 0.172065 0.750000 0.750000
#
# Coordination Sequence:
#
# PCOD8214989 Si02
#       8
#     8   8   8   8   8   8   8   8
#     4   9  19  33  50  70  98 136 169 202 251 312
#     4   8  16  28  46  74 107 132 158 209 268 308
#     4  10  17  31  50  73 103 132 166 210 256 309
#     4   9  17  29  48  74 101 132 165 199 248 308
#     4  10  19  34  54  71  91 127 175 215 251 309
#     4   9  17  30  51  76  96 126 170 211 252 300
#     4  10  17  29  50  76 103 132 170 220 267 307
#     4   9  19  34  50  70  99 137 176 208 257 321
#
# _framework density 18.129097999999999
#
# number of rings (size 3 to 8) (size 9 to 14) (size 15 to 20)
#    0.000    2.750    0.000    3.750    0.000    0.000 
#    0.000    5.625    0.000    6.750    0.000    0.000 
#    0.000    0.000    0.000    0.000    0.000    0.000 
#
# Total GULP energy -793152.841162 kJ/mol
# GULP energy per Si atom -12393.013143 kJ/mol
# Density = 1.808784 g / cm^3
# Si number density = 18.129098 Si / 1000 Ang^3
#
#
#
# Elastic Constant Matrix: (Units=GPa)
#
#
# Indices 1 2 3 4 5 6 
#
# 1 88.2057 38.0402 25.2054 0.0000 0.0000 0.0000
# 2 38.0402 84.9671 38.1026 0.0000 0.0000 0.0000
# 3 25.2054 38.1026 141.2963 0.0000 0.0000 0.0000
# 4 0.0000 0.0000 0.0000 22.0713 0.0000 0.0000
# 5 0.0000 0.0000 0.0000 0.0000 14.2049 0.0000
# 6 0.0000 0.0000 0.0000 0.0000 0.0000 18.7009
#
#
#
# Elastic Compliance Matrix: (Units=1/GPa)
#
#
# Indices 1 2 3 4 5 6 
#
# 1 0.014156 -0.005921 -0.000928 0.000000 0.000000 0.000000
# 2 -0.005921 0.015865 -0.003222 0.000000 0.000000 0.000000
# 3 -0.000928 -0.003222 0.008112 0.000000 0.000000 0.000000
# 4 0.000000 0.000000 0.000000 0.045308 0.000000 0.000000
# 5 0.000000 0.000000 0.000000 0.000000 0.070398 0.000000
# 6 0.000000 0.000000 0.000000 0.000000 0.000000 0.053473
#
#
# Mechanical properties :
#
#
# Convention : Reuss Voigt Hill
#
# Bulk Modulus (GPa) = 55.58829 57.46286 56.52557
# Shear Modulus (GPa) = 21.41764 25.20349 23.31056
#
# Velocity S-wave (km/s) = 3.44087 3.73261 3.58971
# Velocity P-wave (km/s) = 6.82020 7.09520 6.95906
#
# Compressibility (1/GPa) = 0.01798940
#
# Stress axis : x y z
#
# Youngs Moduli (GPa) = 70.64059 63.03119 123.27712
#
# Poissons Ratio (x) = 0.37323 0.11446
# Poissons Ratio (y) = 0.41829 0.39720
# Poissons Ratio (z) = 0.06559 0.20308
#
# Static dielectric constant tensor:
#      x y z
#    x 2.952040 0.000000 0.000000 
#    y 0.000000 3.339720 0.000000 
#    z 0.000000 0.000000 3.837010 
# 
# 
# High freq. dielectric constant tensor:
#      x y z
#    x 1.659290 0.000000 0.000000 
#    y 0.000000 1.692640 0.000000 
#    z 0.000000 0.000000 1.716920 
# 
# From -- ./inp_files/13672.got.cif
#   From: 2010.06.25/outbox.cif.g09.slc.cpg/sg52_7_cif.got.tgz:13672.got - 2010.06.26 19:32:48.
