data_PCOD8214784
_publ_section_title
;
Structure prediction by ZEFSAII (Michael W. Deem and Ramdas Pophale) SiO2 
 PCOD8214784
Probable space group: P M M A
;
_chemical_formula_sum "Si O2"
_cell_formula_units_Z 48
_cell_length_a 9.417145
_cell_length_b 9.706591
_cell_length_c 30.901631
_cell_angle_alpha 90.000000
_cell_angle_beta 90.000000
_cell_angle_gamma 90.000000
_cell_volume 2824.667872
_symmetry_space_group_name_H-M "P M M A"
_symmetry_group_IT_number 51
_symmetry_cell_setting 'orthorhombic'
loop_
_space_group_symop_operation_xyz
x,y,z
1/2-x,-y,z
1/2+x,-y,-z
-x,y,-z
-x,-y,-z
1/2+x,y,-z
1/2-x,y,z
x,-y,z
loop_
_atom_site_type_symbol
_atom_site_label
_atom_site_fract_x
_atom_site_fract_y
_atom_site_fract_z
Si Si1 0.091451 0.835977 0.714886
Si Si2 0.085096 0.840314 0.877094
Si Si3 0.418984 0.153324 0.619774
Si Si4 0.409806 0.163946 0.205758
Si Si5 0.084346 0.659267 0.542127
Si Si6 0.585096 0.341676 0.042066
O O1 0.250000 0.776223 0.722661
O O2 0.032335 0.793616 0.667326
O O3 0.986933 0.775855 0.751524
O O4 0.098533 0.000000 0.717430
O O5 0.250000 0.815598 0.866253
O O6 0.035092 0.752223 0.918158
O O7 0.994909 0.786552 0.836431
O O8 0.054648 0.000000 0.887229
O O9 0.250000 0.148990 0.619715
O O10 0.475880 0.256064 0.583001
O O11 0.479158 0.000000 0.610460
O O12 0.250000 0.222589 0.203933
O O13 0.409028 0.000000 0.207744
O O14 0.250000 0.687979 0.534150
O O15 0.054214 0.500000 0.551905
O O16 0.000000 0.709671 0.500000
O O17 0.750000 0.319474 0.032046
O O18 0.550859 0.500000 0.053572
O O19 0.500000 0.292761 0.000000
#
# Coordination Sequence:
#
# PCOD8214784 Si02
#       6
#     8   8   8   8   8   8
#     4   8  13  23  40  59  79 107 141 172 204 246
#     4   9  17  29  45  65  88 114 144 176 209 246
#     4   8  14  25  42  63  84 107 138 174 208 243
#     4   9  16  25  39  62  90 115 139 171 210 249
#     4   9  17  29  44  61  82 109 140 172 207 249
#     4   9  18  32  48  65  86 113 144 176 211 252
#
# _framework density 16.993148000000001
#
# number of rings (size 3 to 8) (size 9 to 14) (size 15 to 20)
#    0.000    3.333    0.000    1.500    0.000    3.333 
#    0.000    0.833    0.000    2.000    0.000    4.667 
#    0.000    0.000    0.000    0.000    0.000    0.000 
#
# Total GULP energy -595043.080270 kJ/mol
# GULP energy per Si atom -12396.730839 kJ/mol
# Density = 1.695447 g / cm^3
# Si number density = 16.993148 Si / 1000 Ang^3
#
#
#
# Elastic Constant Matrix: (Units=GPa)
#
#
# Indices 1 2 3 4 5 6 
#
# 1 71.1613 27.6082 75.0125 0.0000 0.0000 0.0000
# 2 27.6082 44.4615 62.9596 0.0000 0.0000 0.0000
# 3 75.0125 62.9596 193.3841 0.0000 0.0000 0.0000
# 4 0.0000 0.0000 0.0000 5.9546 0.0000 0.0000
# 5 0.0000 0.0000 0.0000 0.0000 30.6419 0.0000
# 6 0.0000 0.0000 0.0000 0.0000 0.0000 12.1330
#
#
#
# Elastic Compliance Matrix: (Units=1/GPa)
#
#
# Indices 1 2 3 4 5 6 
#
# 1 0.024015 -0.003193 -0.008276 0.000000 0.000000 0.000000
# 2 -0.003193 0.042154 -0.012485 0.000000 0.000000 0.000000
# 3 -0.008276 -0.012485 0.012446 0.000000 0.000000 0.000000
# 4 0.000000 0.000000 0.000000 0.167936 0.000000 0.000000
# 5 0.000000 0.000000 0.000000 0.000000 0.032635 0.000000
# 6 0.000000 0.000000 0.000000 0.000000 0.000000 0.082420
#
#
# Mechanical properties :
#
#
# Convention : Reuss Voigt Hill
#
# Bulk Modulus (GPa) = 32.56653 71.12975 51.84814
# Shear Modulus (GPa) = 11.91185 19.30768 15.60976
#
# Velocity S-wave (km/s) = 2.65047 3.37442 3.03412
# Velocity P-wave (km/s) = 5.34535 7.55851 6.54614
#
# Compressibility (1/GPa) = 0.03070638
#
# Stress axis : x y z
#
# Youngs Moduli (GPa) = 41.64070 23.72252 80.34752
#
# Poissons Ratio (x) = 0.07575 0.66492
# Poissons Ratio (y) = 0.13297 1.00316
# Poissons Ratio (z) = 0.34460 0.29618
#
# Static dielectric constant tensor:
#      x y z
#    x 3.114470 0.000000 0.000000 
#    y 0.000000 2.904860 0.000000 
#    z 0.000000 0.000000 3.472490 
# 
# 
# High freq. dielectric constant tensor:
#      x y z
#    x 1.636640 0.000000 0.000000 
#    y 0.000000 1.613390 0.000000 
#    z 0.000000 0.000000 1.668750 
# 
# From -- ./inp_files/37064.got.cif
#   From: 2010.03.12/outbox.cif.g09.slc.cpg/sg51_19_cif.got.tgz:37064.got - 2010.04.16 13:43:02.
