data_PCOD8214923
_publ_section_title
;
Structure prediction by ZEFSAII (Michael W. Deem and Ramdas Pophale) SiO2 
 PCOD8214923
Probable space group: P N N A
;
_chemical_formula_sum "Si O2"
_cell_formula_units_Z 32
_cell_length_a 5.281857
_cell_length_b 7.441405
_cell_length_c 35.460372
_cell_angle_alpha 90.000000
_cell_angle_beta 90.000000
_cell_angle_gamma 90.000000
_cell_volume 1393.749960
_symmetry_space_group_name_H-M "P N N A"
_symmetry_group_IT_number 52
_symmetry_cell_setting 'orthorhombic'
loop_
_space_group_symop_operation_xyz
x,y,z
1/2-x,-y,z
x,1/2-y,1/2-z
1/2-x,1/2+y,1/2-z
-x,-y,-z
1/2+x,y,-z
-x,1/2+y,1/2+z
1/2+x,1/2-y,1/2+z
loop_
_atom_site_type_symbol
_atom_site_label
_atom_site_fract_x
_atom_site_fract_y
_atom_site_fract_z
Si Si1 0.322395 0.700415 0.484387
Si Si2 0.495809 0.611990 0.717309
Si Si3 0.969956 0.800115 0.897805
Si Si4 0.972358 0.702907 0.366238
O O1 0.250000 0.500000 0.499330
O O2 0.546839 0.795759 0.509403
O O3 0.417860 0.700089 0.441912
O O4 0.750000 0.500000 0.710161
O O5 0.561181 0.750000 0.750000
O O6 0.426006 0.711517 0.678440
O O7 0.250000 0.500000 0.730160
O O8 0.735158 0.698448 0.877306
O O9 0.233446 0.701017 0.886982
O O10 0.999278 0.000682 0.881747
#
# Coordination Sequence:
#
# PCOD8214923 Si02
#       4
#     8   8   8   8
#     4  10  18  22  31  54  84 122 168 206 242 294
#     4  12  23  40  59  84 111 142 184 240 283 334
#     4  10  16  27  43  57  92 126 176 210 246 307
#     4  10  17  29  45  65  88 124 175 213 245 312
#
# _framework density 22.959643
#
# number of rings (size 3 to 8) (size 9 to 14) (size 15 to 20)
#    0.000    1.500    7.500    2.250    7.000    0.000 
#    0.000    0.000    0.000    0.000    0.000    0.000 
#    0.000    0.000    0.000    0.000    0.000  145.000 
#
# Total GULP energy -396430.519332 kJ/mol
# GULP energy per Si atom -12388.453729 kJ/mol
# Density = 2.290739 g / cm^3
# Si number density = 22.959643 Si / 1000 Ang^3
#
#
#
# Elastic Constant Matrix: (Units=GPa)
#
#
# Indices 1 2 3 4 5 6 
#
# 1 270.8116 8.4451 66.1206 0.0000 0.0000 0.0000
# 2 8.4451 5.9337 13.1409 0.0000 0.0000 0.0000
# 3 66.1206 13.1409 178.5467 0.0000 0.0000 0.0000
# 4 0.0000 0.0000 0.0000 24.5440 0.0000 0.0000
# 5 0.0000 0.0000 0.0000 0.0000 41.5282 0.0000
# 6 0.0000 0.0000 0.0000 0.0000 0.0000 0.9805
#
#
#
# Elastic Compliance Matrix: (Units=1/GPa)
#
#
# Indices 1 2 3 4 5 6 
#
# 1 0.004103 -0.002956 -0.001302 0.000000 0.000000 0.000000
# 2 -0.002956 0.203476 -0.013881 0.000000 0.000000 0.000000
# 3 -0.001302 -0.013881 0.007104 0.000000 0.000000 0.000000
# 4 0.000000 0.000000 0.000000 0.040743 0.000000 0.000000
# 5 0.000000 0.000000 0.000000 0.000000 0.024080 0.000000
# 6 0.000000 0.000000 0.000000 0.000000 0.000000 1.019937
#
#
# Mechanical properties :
#
#
# Convention : Reuss Voigt Hill
#
# Bulk Modulus (GPa) = 5.60520 70.07836 37.84178
# Shear Modulus (GPa) = 3.58374 37.91624 20.74999
#
# Velocity S-wave (km/s) = 1.25071 4.06819 3.00952
# Velocity P-wave (km/s) = 2.12893 7.25641 5.34733
#
# Compressibility (1/GPa) = 0.17840566
#
# Stress axis : x y z
#
# Youngs Moduli (GPa) = 243.74666 4.91458 140.75658
#
# Poissons Ratio (x) = 0.01453 0.18323
# Poissons Ratio (y) = 0.72056 1.95383
# Poissons Ratio (z) = 0.31729 0.06822
#
# Static dielectric constant tensor:
#      x y z
#    x 12.501500 0.000000 0.000000 
#    y 0.000000 3.188440 0.000000 
#    z 0.000000 0.000000 4.007650 
# 
# 
# High freq. dielectric constant tensor:
#      x y z
#    x 1.961580 0.000000 0.000000 
#    y 0.000000 1.813500 0.000000 
#    z 0.000000 0.000000 1.910530 
# 
# From -- ./inp_files/43553.got.cif
#   From: 2010.06.25/outbox.cif.g09.slc.cpg/sg52_22_cif.got.tgz:43553.got - 2010.06.26 19:32:48.
