data_PCOD8214363
_publ_section_title
;
Structure prediction by ZEFSAII (Michael W. Deem and Ramdas Pophale) SiO2 
 PCOD8214363
Probable space group: P M M A
;
_chemical_formula_sum "Si O2"
_cell_formula_units_Z 64
_cell_length_a 14.757062
_cell_length_b 22.929650
_cell_length_c 8.972827
_cell_angle_alpha 90.000000
_cell_angle_beta 90.000000
_cell_angle_gamma 90.000000
_cell_volume 3036.173756
_symmetry_space_group_name_H-M "P M M A"
_symmetry_group_IT_number 51
_symmetry_cell_setting 'orthorhombic'
loop_
_space_group_symop_operation_xyz
x,y,z
1/2-x,-y,z
1/2+x,-y,-z
-x,y,-z
-x,-y,-z
1/2+x,y,-z
1/2-x,y,z
x,-y,z
loop_
_atom_site_type_symbol
_atom_site_label
_atom_site_fract_x
_atom_site_fract_y
_atom_site_fract_z
Si Si1 0.515257 0.433662 0.332384
Si Si2 0.100253 0.729518 0.438827
Si Si3 0.849279 0.762956 0.252125
Si Si4 0.646133 0.357661 0.125634
Si Si5 0.353594 0.624237 0.216315
Si Si6 0.019607 0.133907 0.828508
Si Si7 0.353172 0.065313 0.648504
Si Si8 0.354672 0.142492 0.361437
O O1 0.500000 0.410313 0.500000
O O2 0.550772 0.500000 0.329268
O O3 0.585048 0.393596 0.241706
O O4 0.415425 0.430248 0.261873
O O5 0.161737 0.732267 0.586255
O O6 0.125967 0.680065 0.320004
O O7 0.117629 0.790265 0.356930
O O8 0.000000 0.720310 0.500000
O O9 0.750000 0.791703 0.217191
O O10 0.870642 0.711173 0.138855
O O11 0.930941 0.808974 0.240984
O O12 0.750000 0.375166 0.158607
O O13 0.619827 0.366903 0.954970
O O14 0.250000 0.605845 0.235734
O O15 0.086096 0.079843 0.793073
O O16 0.923134 0.115655 0.758157
O O17 0.000000 0.143533 0.000000
O O18 0.250000 0.070211 0.699908
O O19 0.374568 0.112402 0.519953
O O20 0.374837 0.000000 0.590571
O O21 0.250000 0.132850 0.314236
#
# Coordination Sequence:
#
# PCOD8214363 Si02
#       8
#     8   8   8   8   8   8   8   8
#     4  11  25  44  67  94 126 171 223 273 318 381
#     4  12  21  37  63  92 129 167 214 272 325 384
#     4  11  22  39  61  88 128 170 213 267 328 393
#     4  10  24  43  64  94 132 172 213 266 332 399
#     4  11  24  40  63  96 130 169 212 267 336 398
#     4  12  26  39  60  96 135 177 218 271 332 402
#     4  10  22  45  73  96 125 169 223 280 334 396
#     4  11  23  41  63  93 128 171 223 273 327 388
#
# _framework density 21.079163000000001
#
# number of rings (size 3 to 8) (size 9 to 14) (size 15 to 20)
#    0.000    1.000    2.500    4.125    1.750    5.250 
#    0.000    2.500    0.000    1.500    0.000    0.000 
#    0.000    0.000    0.000    0.000    0.000    0.000 
#
# Total GULP energy -793218.622563 kJ/mol
# GULP energy per Si atom -12394.040978 kJ/mol
# Density = 2.103119 g / cm^3
# Si number density = 21.079163 Si / 1000 Ang^3
#
#
#
# Elastic Constant Matrix: (Units=GPa)
#
#
# Indices 1 2 3 4 5 6 
#
# 1 141.8909 38.5870 62.3542 0.0000 0.0000 0.0000
# 2 38.5870 67.2571 28.3637 0.0000 0.0000 0.0000
# 3 62.3542 28.3637 125.9190 0.0000 0.0000 0.0000
# 4 0.0000 0.0000 0.0000 11.5528 0.0000 0.0000
# 5 0.0000 0.0000 0.0000 0.0000 28.8255 0.0000
# 6 0.0000 0.0000 0.0000 0.0000 0.0000 41.3049
#
#
#
# Elastic Compliance Matrix: (Units=1/GPa)
#
#
# Indices 1 2 3 4 5 6 
#
# 1 0.009889 -0.003987 -0.003999 0.000000 0.000000 0.000000
# 2 -0.003987 0.018037 -0.002088 0.000000 0.000000 0.000000
# 3 -0.003999 -0.002088 0.010392 0.000000 0.000000 0.000000
# 4 0.000000 0.000000 0.000000 0.086559 0.000000 0.000000
# 5 0.000000 0.000000 0.000000 0.000000 0.034691 0.000000
# 6 0.000000 0.000000 0.000000 0.000000 0.000000 0.024210
#
#
# Mechanical properties :
#
#
# Convention : Reuss Voigt Hill
#
# Bulk Modulus (GPa) = 55.03870 65.96408 60.50139
# Shear Modulus (GPa) = 23.81128 30.05413 26.93270
#
# Velocity S-wave (km/s) = 3.36462 3.78004 3.57836
# Velocity P-wave (km/s) = 6.42350 7.10021 6.77032
#
# Compressibility (1/GPa) = 0.01816903
#
# Stress axis : x y z
#
# Youngs Moduli (GPa) = 101.11866 55.44270 96.22521
#
# Poissons Ratio (x) = 0.22107 0.38480
# Poissons Ratio (y) = 0.40319 0.20095
# Poissons Ratio (z) = 0.40437 0.11578
#
# Static dielectric constant tensor:
#      x y z
#    x 4.059220 0.000000 0.000000 
#    y 0.000000 3.702750 0.000000 
#    z 0.000000 0.000000 3.865530 
# 
# 
# High freq. dielectric constant tensor:
#      x y z
#    x 1.845870 0.000000 0.000000 
#    y 0.000000 1.814690 0.000000 
#    z 0.000000 0.000000 1.822020 
# 
# From -- ./inp_files/8689.got.cif
#   From: 2010.03.12/outbox.cif.g09.slc.cpg/sg51_5_cif.got.tgz:8689.got - 2010.04.16 13:43:02.
