data_PCOD8214375
_publ_section_title
;
Structure prediction by ZEFSAII (Michael W. Deem and Ramdas Pophale) SiO2 
 PCOD8214375
Probable space group: P M M A
;
_chemical_formula_sum "Si O2"
_cell_formula_units_Z 56
_cell_length_a 21.663238
_cell_length_b 9.026702
_cell_length_c 14.714846
_cell_angle_alpha 90.000000
_cell_angle_beta 90.000000
_cell_angle_gamma 90.000000
_cell_volume 2877.452728
_symmetry_space_group_name_H-M "P M M A"
_symmetry_group_IT_number 51
_symmetry_cell_setting 'orthorhombic'
loop_
_space_group_symop_operation_xyz
x,y,z
1/2-x,-y,z
1/2+x,-y,-z
-x,y,-z
-x,-y,-z
1/2+x,y,-z
1/2-x,y,z
x,-y,z
loop_
_atom_site_type_symbol
_atom_site_label
_atom_site_fract_x
_atom_site_fract_y
_atom_site_fract_z
Si Si1 0.681805 0.324032 0.226173
Si Si2 0.426072 0.675431 0.642813
Si Si3 0.138606 0.170516 0.146596
Si Si4 0.750000 0.332342 0.547549
Si Si5 0.375924 0.826643 0.474262
Si Si6 0.178420 0.328864 0.977180
Si Si7 0.250000 0.666714 0.237814
Si Si8 0.954344 0.831232 0.700519
O O1 0.750000 0.267720 0.256390
O O2 0.681857 0.500000 0.222538
O O3 0.630847 0.265319 0.296108
O O4 0.666952 0.266579 0.124329
O O5 0.423737 0.500000 0.628540
O O6 0.423820 0.757053 0.546073
O O7 0.489155 0.718705 0.692616
O O8 0.134491 0.238391 0.045641
O O9 0.189467 0.252542 0.205007
O O10 0.073822 0.190572 0.198947
O O11 0.157380 0.000000 0.139340
O O12 0.750000 0.500000 0.508974
O O13 0.810226 0.250453 0.510232
O O14 0.750000 0.331285 0.654811
O O15 0.402089 0.793599 0.374135
O O16 0.368399 0.000000 0.492046
O O17 0.250000 0.306149 0.005434
O O18 0.159841 0.500000 0.983565
O O19 0.250000 0.500000 0.199150
O O20 0.977316 0.000000 0.686506
#
# Coordination Sequence:
#
# PCOD8214375 Si02
#       8
#     8   8   8   4   8   8   4   8
#     4   8  17  36  59  83 114 146 181 233 296 342
#     4  11  23  38  61  87 110 147 197 246 285 329
#     4  11  21  34  55  83 116 153 189 228 279 339
#     4  11  23  37  57  88 119 146 187 243 284 324
#     4  11  23  40  60  82 116 158 192 228 287 349
#     4   9  17  32  56  84 112 146 184 229 285 341
#     4  11  21  33  53  82 117 150 183 233 286 330
#     4  10  23  41  57  77 114 161 193 225 281 345
#
# _framework density 19.461656999999999
#
# number of rings (size 3 to 8) (size 9 to 14) (size 15 to 20)
#    0.000    1.857    2.143    3.000    1.000    4.571 
#    0.000    2.143    0.000    6.000    0.000    0.000 
#    0.000    0.000    0.000    0.000    0.000    0.000 
#
# Total GULP energy -694527.107870 kJ/mol
# GULP energy per Si atom -12402.269783 kJ/mol
# Density = 1.941736 g / cm^3
# Si number density = 19.461657 Si / 1000 Ang^3
#
#
#
# Elastic Constant Matrix: (Units=GPa)
#
#
# Indices 1 2 3 4 5 6 
#
# 1 84.7075 40.0890 20.7499 0.0000 0.0000 0.0000
# 2 40.0890 96.3334 32.2412 0.0000 0.0000 0.0000
# 3 20.7499 32.2412 73.5653 0.0000 0.0000 0.0000
# 4 0.0000 0.0000 0.0000 23.1191 0.0000 0.0000
# 5 0.0000 0.0000 0.0000 0.0000 24.7377 0.0000
# 6 0.0000 0.0000 0.0000 0.0000 0.0000 32.7976
#
#
#
# Elastic Compliance Matrix: (Units=1/GPa)
#
#
# Indices 1 2 3 4 5 6 
#
# 1 0.014888 -0.005614 -0.001739 0.000000 0.000000 0.000000
# 2 -0.005614 0.014282 -0.004676 0.000000 0.000000 0.000000
# 3 -0.001739 -0.004676 0.016133 0.000000 0.000000 0.000000
# 4 0.000000 0.000000 0.000000 0.043254 0.000000 0.000000
# 5 0.000000 0.000000 0.000000 0.000000 0.040424 0.000000
# 6 0.000000 0.000000 0.000000 0.000000 0.000000 0.030490
#
#
# Mechanical properties :
#
#
# Convention : Reuss Voigt Hill
#
# Bulk Modulus (GPa) = 47.06795 48.97404 48.02100
# Shear Modulus (GPa) = 26.23157 26.89930 26.56544
#
# Velocity S-wave (km/s) = 3.67530 3.72179 3.69862
# Velocity P-wave (km/s) = 6.49984 6.60968 6.55499
#
# Compressibility (1/GPa) = 0.02124588
#
# Stress axis : x y z
#
# Youngs Moduli (GPa) = 67.16794 70.02005 61.98425
#
# Poissons Ratio (x) = 0.39307 0.10780
# Poissons Ratio (y) = 0.37705 0.28982
# Poissons Ratio (z) = 0.11681 0.32740
#
# Static dielectric constant tensor:
#      x y z
#    x 3.112710 0.000000 0.000000 
#    y 0.000000 3.456210 0.000000 
#    z 0.000000 0.000000 3.688110 
# 
# 
# High freq. dielectric constant tensor:
#      x y z
#    x 1.744120 0.000000 0.000000 
#    y 0.000000 1.749130 0.000000 
#    z 0.000000 0.000000 1.765380 
# 
# From -- ./inp_files/25927.got.cif
#   From: 2010.03.12/outbox.cif.g09.slc.cpg/sg51_13_cif.got.tgz:25927.got - 2010.04.16 13:43:02.
