data_PCOD8214977
_publ_section_title
;
Structure prediction by ZEFSAII (Michael W. Deem and Ramdas Pophale) SiO2 
 PCOD8214977
Probable space group: P N N A
;
_chemical_formula_sum "Si O2"
_cell_formula_units_Z 48
_cell_length_a 8.139743
_cell_length_b 22.670059
_cell_length_c 15.621490
_cell_angle_alpha 90.000000
_cell_angle_beta 90.000000
_cell_angle_gamma 90.000000
_cell_volume 2882.609400
_symmetry_space_group_name_H-M "P N N A"
_symmetry_group_IT_number 52
_symmetry_cell_setting 'orthorhombic'
loop_
_space_group_symop_operation_xyz
x,y,z
1/2-x,-y,z
x,1/2-y,1/2-z
1/2-x,1/2+y,1/2-z
-x,-y,-z
1/2+x,y,-z
-x,1/2+y,1/2+z
1/2+x,1/2-y,1/2+z
loop_
_atom_site_type_symbol
_atom_site_label
_atom_site_fract_x
_atom_site_fract_y
_atom_site_fract_z
Si Si1 0.816272 0.748575 0.533522
Si Si2 0.913826 0.832997 0.206803
Si Si3 0.409755 0.568717 0.422499
Si Si4 0.013266 0.781231 0.378183
Si Si5 0.886949 0.181106 0.098780
Si Si6 0.459186 0.439506 0.392998
O O1 0.888934 0.788126 0.457116
O O2 0.698460 0.791893 0.588022
O O3 0.719553 0.693269 0.488190
O O4 0.959334 0.725926 0.596958
O O5 0.951569 0.827817 0.307631
O O6 0.026043 0.785895 0.156857
O O7 0.726971 0.812865 0.183272
O O8 0.952042 0.899996 0.179180
O O9 0.542789 0.615751 0.393308
O O10 0.446743 0.508676 0.369089
O O11 0.221913 0.587784 0.406541
O O12 0.425225 0.561728 0.524147
#
# Coordination Sequence:
#
# PCOD8214977 Si02
#       6
#     8   8   8   8   8   8
#     4   9  17  31  49  65  88 124 157 188 225 276
#     4  10  19  30  43  66  96 121 150 194 232 265
#     4  10  18  28  42  62  89 128 159 179 218 275
#     4   9  18  32  47  64  90 121 155 191 234 272
#     4  10  17  27  46  67  91 118 152 185 225 272
#     4  10  19  28  41  62  92 124 159 189 216 263
#
# _framework density 16.651579000000002
#
# number of rings (size 3 to 8) (size 9 to 14) (size 15 to 20)
#    0.000    2.333    0.000    6.000    0.000    2.000 
#    0.000   18.333    0.000    0.000    0.000    0.000 
#    0.000   16.000    0.000    0.000    0.000    0.000 
#
# Total GULP energy -594732.192496 kJ/mol
# GULP energy per Si atom -12390.254010 kJ/mol
# Density = 1.661368 g / cm^3
# Si number density = 16.651579 Si / 1000 Ang^3
#
#
#
# Elastic Constant Matrix: (Units=GPa)
#
#
# Indices 1 2 3 4 5 6 
#
# 1 119.3661 28.2550 57.0464 0.0000 0.0000 0.0000
# 2 28.2550 59.6105 40.7118 0.0000 0.0000 0.0000
# 3 57.0464 40.7118 91.7134 0.0000 0.0000 0.0000
# 4 0.0000 0.0000 0.0000 23.0628 0.0000 0.0000
# 5 0.0000 0.0000 0.0000 0.0000 17.0642 0.0000
# 6 0.0000 0.0000 0.0000 0.0000 0.0000 17.5034
#
#
#
# Elastic Compliance Matrix: (Units=1/GPa)
#
#
# Indices 1 2 3 4 5 6 
#
# 1 0.011951 -0.000844 -0.007059 0.000000 0.000000 0.000000
# 2 -0.000844 0.024134 -0.010188 0.000000 0.000000 0.000000
# 3 -0.007059 -0.010188 0.019817 0.000000 0.000000 0.000000
# 4 0.000000 0.000000 0.000000 0.043360 0.000000 0.000000
# 5 0.000000 0.000000 0.000000 0.000000 0.058602 0.000000
# 6 0.000000 0.000000 0.000000 0.000000 0.000000 0.057132
#
#
# Mechanical properties :
#
#
# Convention : Reuss Voigt Hill
#
# Bulk Modulus (GPa) = 50.71091 58.07960 54.39525
# Shear Modulus (GPa) = 19.39862 21.17120 20.28491
#
# Velocity S-wave (km/s) = 3.41687 3.56957 3.49405
# Velocity P-wave (km/s) = 6.78873 7.20723 7.00111
#
# Compressibility (1/GPa) = 0.01971962
#
# Stress axis : x y z
#
# Youngs Moduli (GPa) = 83.67587 41.43594 50.46188
#
# Poissons Ratio (x) = 0.03495 0.35621
# Poissons Ratio (y) = 0.07058 0.51412
# Poissons Ratio (z) = 0.59067 0.42216
#
# Static dielectric constant tensor:
#      x y z
#    x 3.376060 0.000000 0.000000 
#    y 0.000000 2.901760 0.000000 
#    z 0.000000 0.000000 2.849980 
# 
# 
# High freq. dielectric constant tensor:
#      x y z
#    x 1.664350 0.000000 0.000000 
#    y 0.000000 1.603560 0.000000 
#    z 0.000000 0.000000 1.596640 
# 
# From -- ./inp_files/25024.got.cif
#   From: 2010.06.25/outbox.cif.g09.slc.cpg/sg52_13_cif.got.tgz:25024.got - 2010.06.26 19:32:48.
