data_PCOD8214729
_publ_section_title
;
Structure prediction by ZEFSAII (Michael W. Deem and Ramdas Pophale) SiO2 
 PCOD8214729
Probable space group: P M M A
;
_chemical_formula_sum "Si O2"
_cell_formula_units_Z 56
_cell_length_a 20.064698
_cell_length_b 9.274055
_cell_length_c 18.882649
_cell_angle_alpha 90.000000
_cell_angle_beta 90.000000
_cell_angle_gamma 90.000000
_cell_volume 3513.704339
_symmetry_space_group_name_H-M "P M M A"
_symmetry_group_IT_number 51
_symmetry_cell_setting 'orthorhombic'
loop_
_space_group_symop_operation_xyz
x,y,z
1/2-x,-y,z
1/2+x,-y,-z
-x,y,-z
-x,-y,-z
1/2+x,y,-z
1/2-x,y,z
x,-y,z
loop_
_atom_site_type_symbol
_atom_site_label
_atom_site_fract_x
_atom_site_fract_y
_atom_site_fract_z
Si Si1 0.457175 0.337654 0.845695
Si Si2 0.822055 0.828475 0.614324
Si Si3 0.858933 0.159461 0.766076
Si Si4 0.609982 0.337909 0.892830
Si Si5 0.509223 0.159656 0.281064
Si Si6 0.037334 0.827847 0.431406
Si Si7 0.923730 0.163090 0.023397
O O1 0.428736 0.500000 0.843156
O O2 0.533646 0.340077 0.868834
O O3 0.447602 0.267180 0.767716
O O4 0.415048 0.244513 0.901888
O O5 0.750000 0.779373 0.581938
O O6 0.824986 0.774503 0.695697
O O7 0.885795 0.768957 0.570198
O O8 0.827577 0.000000 0.615887
O O9 0.844756 0.264876 0.831926
O O10 0.937160 0.145260 0.753285
O O11 0.830401 0.000000 0.783663
O O12 0.635672 0.500000 0.905887
O O13 0.619273 0.247279 0.964712
O O14 0.502540 0.222065 0.361069
O O15 0.542440 0.000000 0.282121
O O16 0.000000 0.763127 0.500000
O O17 0.038228 0.000000 0.433664
O O18 0.896815 0.000000 0.030968
O O19 0.000000 0.161287 0.000000
#
# Coordination Sequence:
#
# PCOD8214729 Si02
#       7
#     8   8   8   8   8   8   8
#     4   9  15  21  29  42  61  85 114 147 180 214
#     4   8  13  21  34  52  72  94 122 156 191 226
#     4   8  13  21  32  45  62  86 116 147 178 213
#     4   9  15  21  29  42  61  85 114 147 179 209
#     4   8  13  21  32  45  62  86 116 147 179 219
#     4   8  13  21  34  52  72  94 122 156 193 234
#     4   9  15  21  29  41  59  85 116 147 178 213
#
# _framework density 15.937597
#
# number of rings (size 3 to 8) (size 9 to 14) (size 15 to 20)
#    0.000    3.571    0.000    3.000    0.000    5.143 
#    0.000    0.000    0.000    0.857    0.000    0.000 
#    0.000    0.000    0.000    1.286    0.000   29.143 
#
# Total GULP energy -693790.611308 kJ/mol
# GULP energy per Si atom -12389.118059 kJ/mol
# Density = 1.590132 g / cm^3
# Si number density = 15.937597 Si / 1000 Ang^3
#
#
#
# Elastic Constant Matrix: (Units=GPa)
#
#
# Indices 1 2 3 4 5 6 
#
# 1 41.5303 16.1071 39.4789 0.0000 0.0000 0.0000
# 2 16.1071 88.9943 49.7451 0.0000 0.0000 0.0000
# 3 39.4789 49.7451 128.4591 0.0000 0.0000 0.0000
# 4 0.0000 0.0000 0.0000 9.0857 0.0000 0.0000
# 5 0.0000 0.0000 0.0000 0.0000 10.1465 0.0000
# 6 0.0000 0.0000 0.0000 0.0000 0.0000 2.2635
#
#
#
# Elastic Compliance Matrix: (Units=1/GPa)
#
#
# Indices 1 2 3 4 5 6 
#
# 1 0.034028 -0.000400 -0.010303 0.000000 0.000000 0.000000
# 2 -0.000400 0.014346 -0.005432 0.000000 0.000000 0.000000
# 3 -0.010303 -0.005432 0.013055 0.000000 0.000000 0.000000
# 4 0.000000 0.000000 0.000000 0.110063 0.000000 0.000000
# 5 0.000000 0.000000 0.000000 0.000000 0.098557 0.000000
# 6 0.000000 0.000000 0.000000 0.000000 0.000000 0.441794
#
#
# Mechanical properties :
#
#
# Convention : Reuss Voigt Hill
#
# Bulk Modulus (GPa) = 34.29593 52.18289 43.23941
# Shear Modulus (GPa) = 6.63279 14.54263 10.58771
#
# Velocity S-wave (km/s) = 2.04224 3.02399 2.58024
# Velocity P-wave (km/s) = 5.20832 6.70864 6.00551
#
# Compressibility (1/GPa) = 0.02915798
#
# Stress axis : x y z
#
# Youngs Moduli (GPa) = 29.38776 69.70791 76.60140
#
# Poissons Ratio (x) = 0.02786 0.78921
# Poissons Ratio (y) = 0.01175 0.41613
# Poissons Ratio (z) = 0.30278 0.37868
#
# Static dielectric constant tensor:
#      x y z
#    x 2.600090 0.000000 0.000000 
#    y 0.000000 3.025350 0.000000 
#    z 0.000000 0.000000 3.192900 
# 
# 
# High freq. dielectric constant tensor:
#      x y z
#    x 1.540530 0.000000 0.000000 
#    y 0.000000 1.592210 0.000000 
#    z 0.000000 0.000000 1.606750 
# 
# From -- ./inp_files/34017.got.cif
#   From: 2010.03.12/outbox.cif.g09.slc.cpg/sg51_18_cif.got.tgz:34017.got - 2010.04.16 13:43:02.
