data_PCOD8214393
_publ_section_title
;
Structure prediction by ZEFSAII (Michael W. Deem and Ramdas Pophale) SiO2 
 PCOD8214393
Probable space group: P M M A
;
_chemical_formula_sum "Si O2"
_cell_formula_units_Z 40
_cell_length_a 28.561182
_cell_length_b 8.954145
_cell_length_c 7.780421
_cell_angle_alpha 90.000000
_cell_angle_beta 90.000000
_cell_angle_gamma 90.000000
_cell_volume 1989.772375
_symmetry_space_group_name_H-M "P M M A"
_symmetry_group_IT_number 51
_symmetry_cell_setting 'orthorhombic'
loop_
_space_group_symop_operation_xyz
x,y,z
1/2-x,-y,z
1/2+x,-y,-z
-x,y,-z
-x,-y,-z
1/2+x,y,-z
1/2-x,y,z
x,-y,z
loop_
_atom_site_type_symbol
_atom_site_label
_atom_site_fract_x
_atom_site_fract_y
_atom_site_fract_z
Si Si1 0.302931 0.327007 0.813076
Si Si2 0.445584 0.172687 0.028116
Si Si3 0.108946 0.824327 0.688361
Si Si4 0.699292 0.677190 0.797294
Si Si5 0.602247 0.677043 0.655119
O O1 0.250000 0.304829 0.745534
O O2 0.317632 0.500000 0.797642
O O3 0.337363 0.229771 0.696249
O O4 0.307538 0.267700 0.007585
O O5 0.430248 0.270440 0.189717
O O6 0.434241 0.000000 0.066087
O O7 0.500000 0.199811 0.000000
O O8 0.418496 0.228453 0.858321
O O9 0.084489 0.749175 0.522566
O O10 0.106309 0.000000 0.664618
O O11 0.750000 0.735802 0.727204
O O12 0.700175 0.500000 0.799468
O O13 0.655812 0.734446 0.684773
O O14 0.599384 0.500000 0.642289
#
# Coordination Sequence:
#
# PCOD8214393 Si02
#       5
#     8   8   8   8   8
#     4   9  17  33  58  85 116 155 197 237 280 337
#     4  10  23  44  65  83 111 154 198 243 300 360
#     4  11  23  38  59  87 121 155 192 240 292 352
#     4   8  15  30  54  83 114 150 190 230 275 330
#     4  11  22  37  62  91 120 152 194 245 291 348
#
# _framework density 20.102802000000001
#
# number of rings (size 3 to 8) (size 9 to 14) (size 15 to 20)
#    0.000    2.200    2.000    2.400    0.000    3.200 
#    0.000    6.000    0.000    1.800    0.000    0.000 
#    0.000    0.000    0.000    0.000    0.000    0.000 
#
# Total GULP energy -495964.212945 kJ/mol
# GULP energy per Si atom -12399.105324 kJ/mol
# Density = 2.005705 g / cm^3
# Si number density = 20.102802 Si / 1000 Ang^3
#
#
#
# Elastic Constant Matrix: (Units=GPa)
#
#
# Indices 1 2 3 4 5 6 
#
# 1 88.3781 34.6386 42.0984 0.0000 0.0000 0.0000
# 2 34.6386 65.9079 48.5644 0.0000 0.0000 0.0000
# 3 42.0984 48.5644 129.4798 0.0000 0.0000 0.0000
# 4 0.0000 0.0000 0.0000 33.0265 0.0000 0.0000
# 5 0.0000 0.0000 0.0000 0.0000 12.5207 0.0000
# 6 0.0000 0.0000 0.0000 0.0000 0.0000 27.5801
#
#
#
# Elastic Compliance Matrix: (Units=1/GPa)
#
#
# Indices 1 2 3 4 5 6 
#
# 1 0.014872 -0.005877 -0.002631 0.000000 0.000000 0.000000
# 2 -0.005877 0.023290 -0.006825 0.000000 0.000000 0.000000
# 3 -0.002631 -0.006825 0.011138 0.000000 0.000000 0.000000
# 4 0.000000 0.000000 0.000000 0.030279 0.000000 0.000000
# 5 0.000000 0.000000 0.000000 0.000000 0.079867 0.000000
# 6 0.000000 0.000000 0.000000 0.000000 0.000000 0.036258
#
#
# Mechanical properties :
#
#
# Convention : Reuss Voigt Hill
#
# Bulk Modulus (GPa) = 53.66360 59.37430 56.51895
# Shear Modulus (GPa) = 21.49778 25.18977 23.34378
#
# Velocity S-wave (km/s) = 3.27370 3.54368 3.41136
# Velocity P-wave (km/s) = 6.40641 6.80757 6.61003
#
# Compressibility (1/GPa) = 0.01863461
#
# Stress axis : x y z
#
# Youngs Moduli (GPa) = 67.24135 42.93616 89.78007
#
# Poissons Ratio (x) = 0.25236 0.23620
# Poissons Ratio (y) = 0.39521 0.61272
# Poissons Ratio (z) = 0.17690 0.29302
#
# Static dielectric constant tensor:
#      x y z
#    x 3.877620 0.000000 0.000000 
#    y 0.000000 3.345030 0.000000 
#    z 0.000000 0.000000 3.688650 
# 
# 
# High freq. dielectric constant tensor:
#      x y z
#    x 1.784870 0.000000 0.000000 
#    y 0.000000 1.758010 0.000000 
#    z 0.000000 0.000000 1.788290 
# 
# From -- ./inp_files/12597.got.cif
#   From: 2010.03.12/outbox.cif.g09.slc.cpg/sg51_7_cif.got.tgz:12597.got - 2010.04.16 13:43:02.
