data_PCOD8214546
_publ_section_title
;
Structure prediction by ZEFSAII (Michael W. Deem and Ramdas Pophale) SiO2 
 PCOD8214546
Probable space group: P M M A
;
_chemical_formula_sum "Si O2"
_cell_formula_units_Z 56
_cell_length_a 8.607179
_cell_length_b 14.528264
_cell_length_c 23.449919
_cell_angle_alpha 90.000000
_cell_angle_beta 90.000000
_cell_angle_gamma 90.000000
_cell_volume 2932.350670
_symmetry_space_group_name_H-M "P M M A"
_symmetry_group_IT_number 51
_symmetry_cell_setting 'orthorhombic'
loop_
_space_group_symop_operation_xyz
x,y,z
1/2-x,-y,z
1/2+x,-y,-z
-x,y,-z
-x,-y,-z
1/2+x,y,-z
1/2-x,y,z
x,-y,z
loop_
_atom_site_type_symbol
_atom_site_label
_atom_site_fract_x
_atom_site_fract_y
_atom_site_fract_z
Si Si1 0.570847 0.895306 0.227886
Si Si2 0.925643 0.397513 0.241771
Si Si3 0.430033 0.357314 0.357343
Si Si4 0.065473 0.604312 0.061017
Si Si5 0.432212 0.000000 0.563947
Si Si6 0.428884 0.855878 0.350977
Si Si7 0.564866 0.500000 0.438179
Si Si8 0.429130 0.736843 0.160067
O O1 0.750000 0.875318 0.240031
O O2 0.482207 0.875914 0.286565
O O3 0.515623 0.832105 0.174697
O O4 0.541703 0.000000 0.208500
O O5 0.750000 0.361288 0.231643
O O6 0.943285 0.500000 0.216491
O O7 0.963181 0.398865 0.307988
O O8 0.050824 0.330614 0.213510
O O9 0.250000 0.380201 0.345519
O O10 0.457325 0.249677 0.365334
O O11 0.492437 0.407170 0.412839
O O12 0.250000 0.606949 0.059932
O O13 0.009336 0.500000 0.076792
O O14 0.001673 0.680856 0.105639
O O15 0.000000 0.633708 0.000000
O O16 0.500000 0.000000 0.500000
O O17 0.480043 0.088821 0.600597
O O18 0.250000 0.000000 0.556475
O O19 0.250000 0.884521 0.354823
O O20 0.750000 0.500000 0.434319
O O21 0.500000 0.500000 0.500000
O O22 0.250000 0.760330 0.150776
#
# Coordination Sequence:
#
# PCOD8214546 Si02
#       8
#     8   8   8   8   4   8   4   8
#     4  11  23  38  59  87 119 155 196 245 301 358
#     4  11  22  34  53  83 118 154 192 236 287 343
#     4  11  23  39  61  86 114 150 190 236 292 348
#     4   9  19  36  58  86 122 164 206 247 294 349
#     4  12  26  44  66  90 118 152 191 242 299 360
#     4  11  23  40  64  90 117 151 192 239 298 360
#     4  12  26  44  64  84 112 152 197 242 289 350
#     4  11  22  36  57  87 121 158 199 246 297 355
#
# _framework density 19.097307000000001
#
# number of rings (size 3 to 8) (size 9 to 14) (size 15 to 20)
#    0.000    1.143    2.857    3.857    0.000    5.714 
#    0.000    1.429    0.000    0.429    0.000    0.000 
#    0.000    0.000    0.000    0.000    0.000    0.000 
#
# Total GULP energy -694378.619609 kJ/mol
# GULP energy per Si atom -12399.618207 kJ/mol
# Density = 1.905384 g / cm^3
# Si number density = 19.097307 Si / 1000 Ang^3
#
#
#
# Elastic Constant Matrix: (Units=GPa)
#
#
# Indices 1 2 3 4 5 6 
#
# 1 88.1739 48.8571 25.1703 0.0000 0.0000 0.0000
# 2 48.8571 137.0559 60.1903 0.0000 0.0000 0.0000
# 3 25.1703 60.1903 116.5765 0.0000 0.0000 0.0000
# 4 0.0000 0.0000 0.0000 -13.8406 0.0000 0.0000
# 5 0.0000 0.0000 0.0000 0.0000 32.5743 0.0000
# 6 0.0000 0.0000 0.0000 0.0000 0.0000 29.7778
#
#
#
# Elastic Compliance Matrix: (Units=1/GPa)
#
#
# Indices 1 2 3 4 5 6 
#
# 1 0.014163 -0.004793 -0.000584 0.000000 0.000000 0.000000
# 2 -0.004793 0.011058 -0.004674 0.000000 0.000000 0.000000
# 3 -0.000584 -0.004674 0.011118 0.000000 0.000000 0.000000
# 4 0.000000 0.000000 0.000000 -0.072251 0.000000 0.000000
# 5 0.000000 0.000000 0.000000 0.000000 0.030699 0.000000
# 6 0.000000 0.000000 0.000000 0.000000 0.000000 0.033582
#
#
# Mechanical properties :
#
#
# Convention : Reuss Voigt Hill
#
# Bulk Modulus (GPa) = 61.58649 67.80464 64.69557
# Shear Modulus (GPa) = 92.79561 23.54155 58.16858
#
# Velocity S-wave (km/s) = 6.97828 3.51481 5.52496
# Velocity P-wave (km/s) = 9.86141 7.21483 8.64006
#
# Compressibility (1/GPa) = 0.01623733
#
# Stress axis : x y z
#
# Youngs Moduli (GPa) = 70.60455 90.43557 89.94802
#
# Poissons Ratio (x) = 0.43342 0.05249
# Poissons Ratio (y) = 0.33838 0.42046
# Poissons Ratio (z) = 0.04120 0.42273
#
# Static dielectric constant tensor:
#      x y z
#    x 3.723440 0.000000 0.000000 
#    y 0.000000 -46.445860 0.000000 
#    z 0.000000 0.000000 3.459710 
# 
# 
# High freq. dielectric constant tensor:
#      x y z
#    x 1.753060 0.000000 0.000000 
#    y 0.000000 1.751310 0.000000 
#    z 0.000000 0.000000 1.728880 
# 
# From -- ./inp_files/32085.got.cif
#   From: 2010.03.12/outbox.cif.g09.slc.cpg/sg51_17_cif.got.tgz:32085.got - 2010.04.16 13:43:02.
