data_PCOD8214560
_publ_section_title
;
Structure prediction by ZEFSAII (Michael W. Deem and Ramdas Pophale) SiO2 
 PCOD8214560
Probable space group: P M M A
;
_chemical_formula_sum "Si O2"
_cell_formula_units_Z 48
_cell_length_a 18.593959
_cell_length_b 14.985219
_cell_length_c 9.143961
_cell_angle_alpha 90.000000
_cell_angle_beta 90.000000
_cell_angle_gamma 90.000000
_cell_volume 2547.823437
_symmetry_space_group_name_H-M "P M M A"
_symmetry_group_IT_number 51
_symmetry_cell_setting 'orthorhombic'
loop_
_space_group_symop_operation_xyz
x,y,z
1/2-x,-y,z
1/2+x,-y,-z
-x,y,-z
-x,-y,-z
1/2+x,y,-z
1/2-x,y,z
x,-y,z
loop_
_atom_site_type_symbol
_atom_site_label
_atom_site_fract_x
_atom_site_fract_y
_atom_site_fract_z
Si Si1 0.166764 0.604257 0.263588
Si Si2 0.164463 0.598216 0.933814
Si Si3 0.668305 0.248143 0.271269
Si Si4 0.550539 0.102163 0.781296
Si Si5 0.921791 0.255935 0.553879
Si Si6 0.605798 0.899085 0.094641
O O1 0.250000 0.632466 0.285979
O O2 0.157538 0.500000 0.301156
O O3 0.115725 0.660644 0.368627
O O4 0.140622 0.623842 0.098036
O O5 0.250000 0.598258 0.930585
O O6 0.134899 0.500000 0.892686
O O7 0.133626 0.667551 0.815353
O O8 0.750000 0.268289 0.315413
O O9 0.624297 0.226482 0.415244
O O10 0.666472 0.164089 0.162074
O O11 0.575096 0.168640 0.654913
O O12 0.469761 0.124252 0.829396
O O13 0.556390 0.000000 0.724680
O O14 0.602084 0.116115 0.920716
O O15 0.000000 0.286717 0.500000
O O16 0.628067 0.000000 0.128899
#
# Coordination Sequence:
#
# PCOD8214560 Si02
#       6
#     8   8   8   8   8   8
#     4   9  19  38  61  81 107 148 191 230 279 337
#     4   8  16  34  59  81 101 136 186 228 266 324
#     4  11  22  35  54  83 116 147 181 227 287 339
#     4   9  19  37  60  81 106 145 191 230 274 331
#     4  12  23  35  53  84 118 152 185 230 277 337
#     4   9  18  36  60  82 104 140 190 237 277 324
#
# _framework density 18.839608999999999
#
# number of rings (size 3 to 8) (size 9 to 14) (size 15 to 20)
#    0.000    2.333    1.667    3.500    0.000    2.333 
#    0.000    2.500    0.000    5.500    0.000    0.000 
#    0.000    0.000    0.000    0.000    0.000    0.000 
#
# Total GULP energy -595155.013809 kJ/mol
# GULP energy per Si atom -12399.062788 kJ/mol
# Density = 1.879673 g / cm^3
# Si number density = 18.839609 Si / 1000 Ang^3
#
#
#
# Elastic Constant Matrix: (Units=GPa)
#
#
# Indices 1 2 3 4 5 6 
#
# 1 65.3386 40.3716 43.7236 0.0000 0.0000 0.0000
# 2 40.3716 116.0530 72.4172 0.0000 0.0000 0.0000
# 3 43.7236 72.4172 114.8415 0.0000 0.0000 0.0000
# 4 0.0000 0.0000 0.0000 26.4830 0.0000 0.0000
# 5 0.0000 0.0000 0.0000 0.0000 29.8623 0.0000
# 6 0.0000 0.0000 0.0000 0.0000 0.0000 29.9380
#
#
#
# Elastic Compliance Matrix: (Units=1/GPa)
#
#
# Indices 1 2 3 4 5 6 
#
# 1 0.021568 -0.003922 -0.005738 0.000000 0.000000 0.000000
# 2 -0.003922 0.014920 -0.007915 0.000000 0.000000 0.000000
# 3 -0.005738 -0.007915 0.015884 0.000000 0.000000 0.000000
# 4 0.000000 0.000000 0.000000 0.037760 0.000000 0.000000
# 5 0.000000 0.000000 0.000000 0.000000 0.033487 0.000000
# 6 0.000000 0.000000 0.000000 0.000000 0.000000 0.033402
#
#
# Mechanical properties :
#
#
# Convention : Reuss Voigt Hill
#
# Bulk Modulus (GPa) = 58.06992 67.69534 62.88263
# Shear Modulus (GPa) = 25.26353 26.57138 25.91745
#
# Velocity S-wave (km/s) = 3.66591 3.75960 3.71305
# Velocity P-wave (km/s) = 6.98633 7.40652 7.19949
#
# Compressibility (1/GPa) = 0.01722062
#
# Stress axis : x y z
#
# Youngs Moduli (GPa) = 46.36395 67.02293 62.95791
#
# Poissons Ratio (x) = 0.26288 0.36128
# Poissons Ratio (y) = 0.18185 0.49832
# Poissons Ratio (z) = 0.26606 0.53050
#
# Static dielectric constant tensor:
#      x y z
#    x 3.179350 0.000000 0.000000 
#    y 0.000000 3.573470 0.000000 
#    z 0.000000 0.000000 3.550850 
# 
# 
# High freq. dielectric constant tensor:
#      x y z
#    x 1.704140 0.000000 0.000000 
#    y 0.000000 1.739150 0.000000 
#    z 0.000000 0.000000 1.737920 
# 
# From -- ./inp_files/9630.got.cif
#   From: 2010.03.12/outbox.cif.g09.slc.cpg/sg51_5_cif.got.tgz:9630.got - 2010.04.16 13:43:02.
