data_PCOD8214153
_publ_section_title
;
Structure prediction by ZEFSAII (Michael W. Deem and Ramdas Pophale) SiO2 
 PCOD8214153
Probable space group: P M M A
;
_chemical_formula_sum "Si O2"
_cell_formula_units_Z 32
_cell_length_a 16.110650
_cell_length_b 13.521853
_cell_length_c 6.934784
_cell_angle_alpha 90.000000
_cell_angle_beta 90.000000
_cell_angle_gamma 90.000000
_cell_volume 1510.713853
_symmetry_space_group_name_H-M "P M M A"
_symmetry_group_IT_number 51
_symmetry_cell_setting 'orthorhombic'
loop_
_space_group_symop_operation_xyz
x,y,z
1/2-x,-y,z
1/2+x,-y,-z
-x,y,-z
-x,-y,-z
1/2+x,y,-z
1/2-x,y,z
x,-y,z
loop_
_atom_site_type_symbol
_atom_site_label
_atom_site_fract_x
_atom_site_fract_y
_atom_site_fract_z
Si Si1 0.500000 0.764978 0.500000
Si Si2 0.750000 0.610941 0.031908
Si Si3 0.750000 0.888540 0.776657
Si Si4 0.750000 0.309670 0.624441
Si Si5 0.883061 0.612645 0.351030
Si Si6 0.566265 0.886349 0.841350
O O1 0.455379 0.692542 0.652887
O O2 0.558060 0.831628 0.635100
O O3 0.750000 0.500000 0.950410
O O4 0.750000 0.685307 0.855882
O O5 0.830902 0.630085 0.159029
O O6 0.750000 0.809936 0.596829
O O7 0.664156 0.874473 0.902319
O O8 0.750000 0.000000 0.689005
O O9 0.670206 0.364621 0.541637
O O10 0.916259 0.500000 0.362272
O O11 0.543659 0.000000 0.804558
O O12 0.500000 0.844956 0.000000
#
# Coordination Sequence:
#
# PCOD8214153 Si02
#       6
#     4   4   4   4   8   8
#     4  12  22  36  60  88 120 164 196 244 306 376
#     4   9  20  37  59  83 111 152 204 247 291 358
#     4  10  21  40  64  91 121 154 203 262 308 363
#     4  11  19  39  63  82 114 162 203 243 309 359
#     4  10  22  37  56  87 121 155 200 252 299 356
#     4  10  23  43  64  90 123 159 205 258 309 367
#
# _framework density 21.182041000000002
#
# number of rings (size 3 to 8) (size 9 to 14) (size 15 to 20)
#    0.000    1.750    2.500    2.625    3.500    0.000 
#    0.000    1.250    0.000   13.500    0.000    0.000 
#    0.000    0.000    0.000    0.000    0.000    0.000 
#
# Total GULP energy -396520.106111 kJ/mol
# GULP energy per Si atom -12391.253316 kJ/mol
# Density = 2.113383 g / cm^3
# Si number density = 21.182041 Si / 1000 Ang^3
#
#
#
# Elastic Constant Matrix: (Units=GPa)
#
#
# Indices 1 2 3 4 5 6 
#
# 1 118.4129 26.0911 27.6455 0.0000 0.0000 0.0000
# 2 26.0911 94.3498 34.8907 0.0000 0.0000 0.0000
# 3 27.6455 34.8907 86.1463 0.0000 0.0000 0.0000
# 4 0.0000 0.0000 0.0000 19.0150 0.0000 0.0000
# 5 0.0000 0.0000 0.0000 0.0000 5.7600 0.0000
# 6 0.0000 0.0000 0.0000 0.0000 0.0000 7.9664
#
#
#
# Elastic Compliance Matrix: (Units=1/GPa)
#
#
# Indices 1 2 3 4 5 6 
#
# 1 0.009365 -0.001739 -0.002301 0.000000 0.000000 0.000000
# 2 -0.001739 0.012789 -0.004622 0.000000 0.000000 0.000000
# 3 -0.002301 -0.004622 0.014219 0.000000 0.000000 0.000000
# 4 0.000000 0.000000 0.000000 0.052590 0.000000 0.000000
# 5 0.000000 0.000000 0.000000 0.000000 0.173612 0.000000
# 6 0.000000 0.000000 0.000000 0.000000 0.000000 0.125527
#
#
# Mechanical properties :
#
#
# Convention : Reuss Voigt Hill
#
# Bulk Modulus (GPa) = 52.49554 52.90707 52.70131
# Shear Modulus (GPa) = 12.14256 20.56707 16.35482
#
# Velocity S-wave (km/s) = 2.39686 3.11942 2.78170
# Velocity P-wave (km/s) = 5.70059 6.16489 5.93728
#
# Compressibility (1/GPa) = 0.01904924
#
# Stress axis : x y z
#
# Youngs Moduli (GPa) = 106.77572 78.19331 70.33086
#
# Poissons Ratio (x) = 0.13597 0.16185
# Poissons Ratio (y) = 0.18567 0.32505
# Poissons Ratio (z) = 0.24571 0.36138
#
# Static dielectric constant tensor:
#      x y z
#    x 3.881670 0.000000 0.000000 
#    y 0.000000 4.028940 0.000000 
#    z 0.000000 0.000000 3.356070 
# 
# 
# High freq. dielectric constant tensor:
#      x y z
#    x 1.835140 0.000000 0.000000 
#    y 0.000000 1.852210 0.000000 
#    z 0.000000 0.000000 1.790120 
# 
# From -- ./inp_files/1875.got.cif
#   From: 2010.03.12/outbox.cif.g09.slc.cpg/sg51_1_cif.got.tgz:1875.got - 2010.04.16 13:43:02.
