data_PCOD8214592
_publ_section_title
;
Structure prediction by ZEFSAII (Michael W. Deem and Ramdas Pophale) SiO2 
 PCOD8214592
Probable space group: P M M A
;
_chemical_formula_sum "Si O2"
_cell_formula_units_Z 32
_cell_length_a 14.100969
_cell_length_b 17.900437
_cell_length_c 6.458430
_cell_angle_alpha 90.000000
_cell_angle_beta 90.000000
_cell_angle_gamma 90.000000
_cell_volume 1630.194967
_symmetry_space_group_name_H-M "P M M A"
_symmetry_group_IT_number 51
_symmetry_cell_setting 'orthorhombic'
loop_
_space_group_symop_operation_xyz
x,y,z
1/2-x,-y,z
1/2+x,-y,-z
-x,y,-z
-x,-y,-z
1/2+x,y,-z
1/2-x,y,z
x,-y,z
loop_
_atom_site_type_symbol
_atom_site_label
_atom_site_fract_x
_atom_site_fract_y
_atom_site_fract_z
Si Si1 0.250000 0.500000 0.860086
Si Si2 0.250000 0.601050 0.242639
Si Si3 0.750000 0.145649 0.247166
Si Si4 0.556687 0.000000 0.786276
Si Si5 0.250000 0.773278 0.155391
Si Si6 0.114375 0.500000 0.486451
Si Si7 0.250000 0.000000 0.020055
Si Si8 0.091730 0.848238 0.418839
O O1 0.155261 0.500000 0.719709
O O2 0.250000 0.572769 0.006193
O O3 0.250000 0.689444 0.236476
O O4 0.155538 0.572308 0.363433
O O5 0.657053 0.142171 0.382991
O O6 0.750000 0.217864 0.093790
O O7 0.750000 0.072511 0.114360
O O8 0.539912 0.924421 0.658206
O O9 0.667095 0.000000 0.819629
O O10 0.500000 0.000000 0.000000
O O11 0.152767 0.810508 0.237299
O O12 0.000000 0.500000 0.500000
O O13 0.000000 0.800125 0.500000
#
# Coordination Sequence:
#
# PCOD8214592 Si02
#       8
#     2   4   4   4   4   4   2   8
#     4   8  18  38  62  90 128 156 196 238 290 340
#     4   9  21  38  60  95 126 162 199 240 294 363
#     4  11  22  39  60  79 120 157 204 264 318 373
#     4  12  22  38  64  84 113 152 212 276 321 359
#     4  11  24  41  59  85 127 167 203 243 313 377
#     4   9  19  39  70  96 126 153 201 247 286 352
#     4  12  18  36  60  78 104 154 200 254 320 364
#     4  11  24  40  58  87 115 158 211 265 316 370
#
# _framework density 19.629553000000001
#
# number of rings (size 3 to 8) (size 9 to 14) (size 15 to 20)
#    0.000    1.750    2.500    3.375    0.000    7.000 
#    0.000    2.500    0.000    0.000    0.000    0.000 
#    0.000    0.000    0.000    0.000    0.000    0.000 
#
# Total GULP energy -396485.296156 kJ/mol
# GULP energy per Si atom -12390.165505 kJ/mol
# Density = 1.958488 g / cm^3
# Si number density = 19.629553 Si / 1000 Ang^3
#
#
#
# Elastic Constant Matrix: (Units=GPa)
#
#
# Indices 1 2 3 4 5 6 
#
# 1 162.4627 18.7755 55.3817 0.0000 0.0000 0.0000
# 2 18.7755 108.0240 30.5516 0.0000 0.0000 0.0000
# 3 55.3817 30.5516 135.0781 0.0000 0.0000 0.0000
# 4 0.0000 0.0000 0.0000 20.4394 0.0000 0.0000
# 5 0.0000 0.0000 0.0000 0.0000 75.4846 0.0000
# 6 0.0000 0.0000 0.0000 0.0000 0.0000 -0.6369
#
#
#
# Elastic Compliance Matrix: (Units=1/GPa)
#
#
# Indices 1 2 3 4 5 6 
#
# 1 0.007175 -0.000443 -0.002841 0.000000 0.000000 0.000000
# 2 -0.000443 0.009917 -0.002061 0.000000 0.000000 0.000000
# 3 -0.002841 -0.002061 0.009034 0.000000 0.000000 0.000000
# 4 0.000000 0.000000 0.000000 0.048925 0.000000 0.000000
# 5 0.000000 0.000000 0.000000 0.000000 0.013248 0.000000
# 6 0.000000 0.000000 0.000000 0.000000 0.000000 -1.570042
#
#
# Mechanical properties :
#
#
# Convention : Reuss Voigt Hill
#
# Bulk Modulus (GPa) = 64.79061 68.33139 66.56100
# Shear Modulus (GPa) = -3.41086 39.11448 17.85181
#
# Velocity S-wave (km/s) = -1.31962 4.46873 3.01896
# Velocity P-wave (km/s) = 5.54585 7.84297 6.79222
#
# Compressibility (1/GPa) = 0.01543433
#
# Stress axis : x y z
#
# Youngs Moduli (GPa) = 139.37011 100.83445 110.68891
#
# Poissons Ratio (x) = 0.04472 0.31452
# Poissons Ratio (y) = 0.06181 0.22816
# Poissons Ratio (z) = 0.39602 0.20784
#
# Static dielectric constant tensor:
#      x y z
#    x 4.938870 0.000000 0.000000 
#    y 0.000000 3.397690 0.000000 
#    z 0.000000 0.000000 3.952980 
# 
# 
# High freq. dielectric constant tensor:
#      x y z
#    x 1.778110 0.000000 0.000000 
#    y 0.000000 1.733300 0.000000 
#    z 0.000000 0.000000 1.788900 
# 
# From -- ./inp_files/1364.got.cif
#   From: 2010.03.12/outbox.cif.g09.slc.cpg/sg51_1_cif.got.tgz:1364.got - 2010.04.16 13:43:02.
