data_PCOD8214004
_publ_section_title
;
Structure prediction by ZEFSAII (Michael W. Deem and Ramdas Pophale) SiO2 
 PCOD8214004
Probable space group: P M M A
;
_chemical_formula_sum "Si O2"
_cell_formula_units_Z 48
_cell_length_a 23.110870
_cell_length_b 8.530052
_cell_length_c 12.616367
_cell_angle_alpha 90.000000
_cell_angle_beta 90.000000
_cell_angle_gamma 90.000000
_cell_volume 2487.151768
_symmetry_space_group_name_H-M "P M M A"
_symmetry_group_IT_number 51
_symmetry_cell_setting 'orthorhombic'
loop_
_space_group_symop_operation_xyz
x,y,z
1/2-x,-y,z
1/2+x,-y,-z
-x,y,-z
-x,-y,-z
1/2+x,y,-z
1/2-x,y,z
x,-y,z
loop_
_atom_site_type_symbol
_atom_site_label
_atom_site_fract_x
_atom_site_fract_y
_atom_site_fract_z
Si Si1 0.315791 0.181027 0.507900
Si Si2 0.816500 0.818121 0.114202
Si Si3 0.882544 0.319572 0.304676
Si Si4 0.884073 0.682458 0.684465
Si Si5 0.499882 0.817679 0.377934
Si Si6 0.683772 0.318575 0.891813
O O1 0.250000 0.222296 0.478327
O O2 0.333714 0.283794 0.608469
O O3 0.355651 0.216737 0.408118
O O4 0.323306 0.000000 0.539254
O O5 0.750000 0.767937 0.133070
O O6 0.857380 0.716624 0.189263
O O7 0.825714 0.000000 0.139402
O O8 0.834151 0.783540 0.993277
O O9 0.900820 0.500000 0.311312
O O10 0.938402 0.213558 0.325508
O O11 0.872034 0.500000 0.663451
O O12 0.856931 0.735695 0.795789
O O13 0.952231 0.718348 0.686196
O O14 0.500000 0.762235 0.500000
O O15 0.484586 0.000000 0.369213
O O16 0.750000 0.286089 0.858487
O O17 0.674247 0.500000 0.920150
#
# Coordination Sequence:
#
# PCOD8214004 Si02
#       6
#     8   8   8   8   8   8
#     4  11  23  37  55  83 119 154 190 236 289 347
#     4  10  21  38  61  88 119 155 194 237 288 347
#     4  12  24  38  60  86 115 151 195 243 292 346
#     4  11  22  37  60  88 118 152 195 242 290 345
#     4  11  23  40  61  83 115 157 197 240 292 347
#     4   9  19  37  60  87 120 155 191 235 288 344
#
# _framework density 19.299182999999999
#
# number of rings (size 3 to 8) (size 9 to 14) (size 15 to 20)
#    0.000    1.333    1.667    4.500    0.000    7.000 
#    0.000    2.500    0.000    5.000    0.000    0.000 
#    0.000    0.000    0.000    0.000    0.000    0.000 
#
# Total GULP energy -595564.710710 kJ/mol
# GULP energy per Si atom -12407.598140 kJ/mol
# Density = 1.925526 g / cm^3
# Si number density = 19.299183 Si / 1000 Ang^3
#
#
#
# Elastic Constant Matrix: (Units=GPa)
#
#
# Indices 1 2 3 4 5 6 
#
# 1 95.8451 20.6032 48.9385 0.0000 0.0000 0.0000
# 2 20.6032 53.4157 25.9684 0.0000 0.0000 0.0000
# 3 48.9385 25.9684 111.8377 0.0000 0.0000 0.0000
# 4 0.0000 0.0000 0.0000 29.9974 0.0000 0.0000
# 5 0.0000 0.0000 0.0000 0.0000 28.0125 0.0000
# 6 0.0000 0.0000 0.0000 0.0000 0.0000 31.7561
#
#
#
# Elastic Compliance Matrix: (Units=1/GPa)
#
#
# Indices 1 2 3 4 5 6 
#
# 1 0.013769 -0.002685 -0.005402 0.000000 0.000000 0.000000
# 2 -0.002685 0.021627 -0.003847 0.000000 0.000000 0.000000
# 3 -0.005402 -0.003847 0.012198 0.000000 0.000000 0.000000
# 4 0.000000 0.000000 0.000000 0.033336 0.000000 0.000000
# 5 0.000000 0.000000 0.000000 0.000000 0.035698 0.000000
# 6 0.000000 0.000000 0.000000 0.000000 0.000000 0.031490
#
#
# Mechanical properties :
#
#
# Convention : Reuss Voigt Hill
#
# Bulk Modulus (GPa) = 42.14523 50.23543 46.19033
# Shear Modulus (GPa) = 27.79413 28.99242 28.39327
#
# Velocity S-wave (km/s) = 3.79908 3.88011 3.83981
# Velocity P-wave (km/s) = 6.41321 6.79411 6.60641
#
# Compressibility (1/GPa) = 0.02372748
#
# Stress axis : x y z
#
# Youngs Moduli (GPa) = 72.62862 46.23884 81.97791
#
# Poissons Ratio (x) = 0.12414 0.44281
# Poissons Ratio (y) = 0.19499 0.31536
# Poissons Ratio (z) = 0.39231 0.17788
#
# Static dielectric constant tensor:
#      x y z
#    x 3.604720 0.000000 0.000000 
#    y 0.000000 3.517550 0.000000 
#    z 0.000000 0.000000 3.516490 
# 
# 
# High freq. dielectric constant tensor:
#      x y z
#    x 1.750620 0.000000 0.000000 
#    y 0.000000 1.757910 0.000000 
#    z 0.000000 0.000000 1.748200 
# 
# From -- ./inp_files/18566.got.cif
#   From: 2010.03.12/outbox.cif.g09.slc.cpg/sg51_10_cif.got.tgz:18566.got - 2010.04.16 13:43:02.
