data_PCOD8214860
_publ_section_title
;
Structure prediction by ZEFSAII (Michael W. Deem and Ramdas Pophale) SiO2 
 PCOD8214860
Probable space group: P M M A
;
_chemical_formula_sum "Si O2"
_cell_formula_units_Z 40
_cell_length_a 9.140219
_cell_length_b 9.538210
_cell_length_c 25.969046
_cell_angle_alpha 90.000000
_cell_angle_beta 90.000000
_cell_angle_gamma 90.000000
_cell_volume 2264.015924
_symmetry_space_group_name_H-M "P M M A"
_symmetry_group_IT_number 51
_symmetry_cell_setting 'orthorhombic'
loop_
_space_group_symop_operation_xyz
x,y,z
1/2-x,-y,z
1/2+x,-y,-z
-x,y,-z
-x,-y,-z
1/2+x,y,-z
1/2-x,y,z
x,-y,z
loop_
_atom_site_type_symbol
_atom_site_label
_atom_site_fract_x
_atom_site_fract_y
_atom_site_fract_z
Si Si1 0.584380 0.832875 0.550114
Si Si2 0.420422 0.837328 0.851420
Si Si3 0.421068 0.338950 0.948778
Si Si4 0.415147 0.166895 0.249939
Si Si5 0.584439 0.832772 0.349600
O O1 0.500000 0.775517 0.500000
O O2 0.750000 0.775073 0.549904
O O3 0.501354 0.775834 0.600535
O O4 0.585376 0.000000 0.550021
O O5 0.250000 0.810422 0.840777
O O6 0.477024 0.752042 0.900757
O O7 0.507852 0.780086 0.802098
O O8 0.452971 0.000000 0.861760
O O9 0.250000 0.318068 0.957378
O O10 0.462198 0.500000 0.937790
O O11 0.500000 0.283487 0.000000
O O12 0.250000 0.224932 0.251891
O O13 0.503752 0.226116 0.298881
O O14 0.416367 0.000000 0.251469
O O15 0.750000 0.775259 0.350671
O O16 0.584748 0.000000 0.349333
#
# Coordination Sequence:
#
# PCOD8214860 Si02
#       5
#     8   8   8   8   8
#     4   9  15  21  28  39  57  83 119 163 206 246
#     4   9  17  29  44  62  84 109 137 170 207 246
#     4   9  18  32  48  65  86 112 140 169 203 245
#     4   9  16  25  37  54  75  98 126 162 203 245
#     4   9  15  22  32  45  63  90 123 159 201 247
#
# _framework density 17.667719999999999
#
# number of rings (size 3 to 8) (size 9 to 14) (size 15 to 20)
#    0.000    3.000    0.000    1.800    0.000    8.400 
#    0.000    0.000    0.000    0.000    0.000    0.000 
#    0.000    0.000    0.000    0.000    0.000    1.000 
#
# Total GULP energy -495974.217615 kJ/mol
# GULP energy per Si atom -12399.355440 kJ/mol
# Density = 1.762751 g / cm^3
# Si number density = 17.667720 Si / 1000 Ang^3
#
#
#
# Elastic Constant Matrix: (Units=GPa)
#
#
# Indices 1 2 3 4 5 6 
#
# 1 137.9852 19.5209 100.5957 0.0000 0.0000 0.0000
# 2 19.5209 17.7477 33.8100 0.0000 0.0000 0.0000
# 3 100.5957 33.8100 207.6278 0.0000 0.0000 0.0000
# 4 0.0000 0.0000 0.0000 0.6420 0.0000 0.0000
# 5 0.0000 0.0000 0.0000 0.0000 42.2826 0.0000
# 6 0.0000 0.0000 0.0000 0.0000 0.0000 8.1536
#
#
#
# Elastic Compliance Matrix: (Units=1/GPa)
#
#
# Indices 1 2 3 4 5 6 
#
# 1 0.011307 -0.002900 -0.005006 0.000000 0.000000 0.000000
# 2 -0.002900 0.082430 -0.012018 0.000000 0.000000 0.000000
# 3 -0.005006 -0.012018 0.009199 0.000000 0.000000 0.000000
# 4 0.000000 0.000000 0.000000 1.557532 0.000000 0.000000
# 5 0.000000 0.000000 0.000000 0.000000 0.023650 0.000000
# 6 0.000000 0.000000 0.000000 0.000000 0.000000 0.122644
#
#
# Mechanical properties :
#
#
# Convention : Reuss Voigt Hill
#
# Bulk Modulus (GPa) = 15.85097 74.57930 45.21514
# Shear Modulus (GPa) = 2.67718 24.17792 13.42755
#
# Velocity S-wave (km/s) = 1.23231 3.70331 2.75981
# Velocity P-wave (km/s) = 3.31903 7.78395 5.98355
#
# Compressibility (1/GPa) = 0.06308760
#
# Stress axis : x y z
#
# Youngs Moduli (GPa) = 88.44117 12.13158 108.71158
#
# Poissons Ratio (x) = 0.03518 0.54421
# Poissons Ratio (y) = 0.25649 1.30646
# Poissons Ratio (z) = 0.44273 0.14579
#
# Static dielectric constant tensor:
#      x y z
#    x 3.418700 0.000000 0.000000 
#    y 0.000000 2.589710 0.000000 
#    z 0.000000 0.000000 3.523930 
# 
# 
# High freq. dielectric constant tensor:
#      x y z
#    x 1.693680 0.000000 0.000000 
#    y 0.000000 1.599690 0.000000 
#    z 0.000000 0.000000 1.701820 
# 
# From -- ./inp_files/31350.got.cif
#   From: 2010.03.12/outbox.cif.g09.slc.cpg/sg51_16_cif.got.tgz:31350.got - 2010.04.16 13:43:02.
