data_PCOD8214471
_publ_section_title
;
Structure prediction by ZEFSAII (Michael W. Deem and Ramdas Pophale) SiO2 
 PCOD8214471
Probable space group: P M M A
;
_chemical_formula_sum "Si O2"
_cell_formula_units_Z 36
_cell_length_a 9.045144
_cell_length_b 12.604911
_cell_length_c 19.720499
_cell_angle_alpha 90.000000
_cell_angle_beta 90.000000
_cell_angle_gamma 90.000000
_cell_volume 2248.397889
_symmetry_space_group_name_H-M "P M M A"
_symmetry_group_IT_number 51
_symmetry_cell_setting 'orthorhombic'
loop_
_space_group_symop_operation_xyz
x,y,z
1/2-x,-y,z
1/2+x,-y,-z
-x,y,-z
-x,-y,-z
1/2+x,y,-z
1/2-x,y,z
x,-y,z
loop_
_atom_site_type_symbol
_atom_site_label
_atom_site_fract_x
_atom_site_fract_y
_atom_site_fract_z
Si Si1 0.079935 0.374239 0.213377
Si Si2 0.922812 0.315298 0.343939
Si Si3 0.573054 0.500000 0.573368
Si Si4 0.078346 0.378419 0.064024
Si Si5 0.421444 0.118586 0.567667
O O1 0.250000 0.346777 0.230346
O O2 0.056409 0.500000 0.217721
O O3 0.038235 0.330551 0.138043
O O4 0.971337 0.316571 0.265684
O O5 0.750000 0.344949 0.350662
O O6 0.956815 0.197280 0.370650
O O7 0.021109 0.396822 0.386294
O O8 0.750000 0.500000 0.567066
O O9 0.500000 0.500000 0.500000
O O10 0.250000 0.368459 0.050774
O O11 0.026432 0.500000 0.065879
O O12 0.000000 0.319972 0.000000
O O13 0.500000 0.160648 0.500000
O O14 0.250000 0.118112 0.550518
O O15 0.476573 0.000000 0.587301
#
# Coordination Sequence:
#
# PCOD8214471 Si02
#       5
#     8   8   4   8   8
#     4   9  17  29  43  61  90 126 154 183 224 266
#     4  11  21  32  48  70  92 118 154 188 223 272
#     4  12  24  36  48  64  91 122 151 186 226 268
#     4   8  14  24  38  57  82 115 153 185 217 255
#     4   9  19  35  52  69  89 113 145 189 235 274
#
# _framework density 16.011402
#
# number of rings (size 3 to 8) (size 9 to 14) (size 15 to 20)
#    0.000    2.444    1.111    3.667    0.000    4.444 
#    0.000    2.222    0.000    0.000    0.000    0.000 
#    0.000    0.889    0.000    2.000    0.000    3.111 
#
# Total GULP energy -446216.898223 kJ/mol
# GULP energy per Si atom -12394.913840 kJ/mol
# Density = 1.597496 g / cm^3
# Si number density = 16.011402 Si / 1000 Ang^3
#
#
#
# Elastic Constant Matrix: (Units=GPa)
#
#
# Indices 1 2 3 4 5 6 
#
# 1 68.8882 29.1932 52.9746 0.0000 0.0000 0.0000
# 2 29.1932 53.6761 38.6362 0.0000 0.0000 0.0000
# 3 52.9746 38.6362 137.2828 0.0000 0.0000 0.0000
# 4 0.0000 0.0000 0.0000 12.2280 0.0000 0.0000
# 5 0.0000 0.0000 0.0000 0.0000 34.7243 0.0000
# 6 0.0000 0.0000 0.0000 0.0000 0.0000 11.7486
#
#
#
# Elastic Compliance Matrix: (Units=1/GPa)
#
#
# Indices 1 2 3 4 5 6 
#
# 1 0.022894 -0.007640 -0.006684 0.000000 0.000000 0.000000
# 2 -0.007640 0.025913 -0.004345 0.000000 0.000000 0.000000
# 3 -0.006684 -0.004345 0.011086 0.000000 0.000000 0.000000
# 4 0.000000 0.000000 0.000000 0.081779 0.000000 0.000000
# 5 0.000000 0.000000 0.000000 0.000000 0.028798 0.000000
# 6 0.000000 0.000000 0.000000 0.000000 0.000000 0.085116
#
#
# Mechanical properties :
#
#
# Convention : Reuss Voigt Hill
#
# Bulk Modulus (GPa) = 44.33567 55.71723 50.02645
# Shear Modulus (GPa) = 16.64206 21.00973 18.82590
#
# Velocity S-wave (km/s) = 3.22745 3.62632 3.43269
# Velocity P-wave (km/s) = 6.45281 7.23931 6.85735
#
# Compressibility (1/GPa) = 0.02255520
#
# Stress axis : x y z
#
# Youngs Moduli (GPa) = 43.67935 38.59081 90.20232
#
# Poissons Ratio (x) = 0.29485 0.60292
# Poissons Ratio (y) = 0.33373 0.39189
# Poissons Ratio (z) = 0.29196 0.16766
#
# Static dielectric constant tensor:
#      x y z
#    x 3.065450 0.000000 0.000000 
#    y 0.000000 2.851710 0.000000 
#    z 0.000000 0.000000 4.388400 
# 
# 
# High freq. dielectric constant tensor:
#      x y z
#    x 1.620670 0.000000 0.000000 
#    y 0.000000 1.563190 0.000000 
#    z 0.000000 0.000000 1.626780 
# 
# From -- ./inp_files/31299.got.cif
#   From: 2010.03.12/outbox.cif.g09.slc.cpg/sg51_16_cif.got.tgz:31299.got - 2010.04.16 13:43:02.
