data_PCOD8214219
_publ_section_title
;
Structure prediction by ZEFSAII (Michael W. Deem and Ramdas Pophale) SiO2 
 PCOD8214219
Probable space group: P M M A
;
_chemical_formula_sum "Si O2"
_cell_formula_units_Z 44
_cell_length_a 9.926578
_cell_length_b 26.562160
_cell_length_c 9.073679
_cell_angle_alpha 90.000000
_cell_angle_beta 90.000000
_cell_angle_gamma 90.000000
_cell_volume 2392.469219
_symmetry_space_group_name_H-M "P M M A"
_symmetry_group_IT_number 51
_symmetry_cell_setting 'orthorhombic'
loop_
_space_group_symop_operation_xyz
x,y,z
1/2-x,-y,z
1/2+x,-y,-z
-x,y,-z
-x,-y,-z
1/2+x,y,-z
1/2-x,y,z
x,-y,z
loop_
_atom_site_type_symbol
_atom_site_label
_atom_site_fract_x
_atom_site_fract_y
_atom_site_fract_z
Si Si1 0.899981 0.000000 0.367867
Si Si2 0.750000 0.439234 0.827101
Si Si3 0.595639 0.803303 0.139030
Si Si4 0.093667 0.285514 0.633985
Si Si5 0.250000 0.442203 0.842797
Si Si6 0.594111 0.109334 0.357000
Si Si7 0.508456 0.397424 0.329467
O O1 0.921711 0.946842 0.282468
O O2 0.000000 0.000000 0.500000
O O3 0.750000 0.000000 0.434956
O O4 0.750000 0.500000 0.811681
O O5 0.626482 0.413557 0.747761
O O6 0.750000 0.418096 0.994361
O O7 0.750000 0.810020 0.086976
O O8 0.579174 0.753002 0.233169
O O9 0.547811 0.850995 0.234960
O O10 0.500000 0.798976 0.000000
O O11 0.250000 0.290130 0.582208
O O12 0.038628 0.338583 0.691940
O O13 0.000000 0.266422 0.500000
O O14 0.250000 0.500000 0.877880
O O15 0.377989 0.429188 0.747999
O O16 0.500000 0.115284 0.500000
O O17 0.750000 0.119532 0.403141
O O18 0.500000 0.412058 0.500000
#
# Coordination Sequence:
#
# PCOD8214219 Si02
#       7
#     4   4   8   8   4   8   8
#     4   8  14  26  47  76 106 140 182 232 281 330
#     4  11  25  41  61  89 119 157 193 226 281 342
#     4  10  22  38  54  80 113 148 188 229 276 334
#     4  10  22  40  61  85 111 142 182 229 282 333
#     4  11  23  41  61  85 121 155 187 230 279 340
#     4   9  17  31  53  79 109 144 187 234 283 334
#     4  11  23  40  62  89 116 147 191 239 284 333
#
# _framework density 18.391041999999999
#
# number of rings (size 3 to 8) (size 9 to 14) (size 15 to 20)
#    0.000    2.000    0.909    2.182    3.818    6.545 
#    0.000    0.455    0.000    0.000    0.000    0.000 
#    0.000    0.000    0.000    0.000    0.000    0.000 
#
# Total GULP energy -545356.023500 kJ/mol
# GULP energy per Si atom -12394.455080 kJ/mol
# Density = 1.834918 g / cm^3
# Si number density = 18.391042 Si / 1000 Ang^3
#
#
#
# Elastic Constant Matrix: (Units=GPa)
#
#
# Indices 1 2 3 4 5 6 
#
# 1 139.2546 54.3356 75.4402 0.0000 0.0000 0.0000
# 2 54.3356 94.5677 61.2519 0.0000 0.0000 0.0000
# 3 75.4402 61.2519 128.0538 0.0000 0.0000 0.0000
# 4 0.0000 0.0000 0.0000 -1.5611 0.0000 0.0000
# 5 0.0000 0.0000 0.0000 0.0000 50.6417 0.0000
# 6 0.0000 0.0000 0.0000 0.0000 0.0000 28.6445
#
#
#
# Elastic Compliance Matrix: (Units=1/GPa)
#
#
# Indices 1 2 3 4 5 6 
#
# 1 0.011147 -0.003117 -0.005076 0.000000 0.000000 0.000000
# 2 -0.003117 0.016193 -0.005909 0.000000 0.000000 0.000000
# 3 -0.005076 -0.005909 0.013626 0.000000 0.000000 0.000000
# 4 0.000000 0.000000 0.000000 -0.640587 0.000000 0.000000
# 5 0.000000 0.000000 0.000000 0.000000 0.019747 0.000000
# 6 0.000000 0.000000 0.000000 0.000000 0.000000 0.034911
#
#
# Mechanical properties :
#
#
# Convention : Reuss Voigt Hill
#
# Bulk Modulus (GPa) = 78.36027 82.65906 80.50967
# Shear Modulus (GPa) = -9.75601 26.93492 8.58945
#
# Velocity S-wave (km/s) = -2.30571 3.83112 2.16347
# Velocity P-wave (km/s) = 5.96758 8.03821 7.07901
#
# Compressibility (1/GPa) = 0.01276157
#
# Stress axis : x y z
#
# Youngs Moduli (GPa) = 89.70751 61.75598 73.38728
#
# Poissons Ratio (x) = 0.19249 0.37253
# Poissons Ratio (y) = 0.27962 0.43366
# Poissons Ratio (z) = 0.45538 0.36493
#
# Static dielectric constant tensor:
#      x y z
#    x 3.596140 0.000000 0.000000 
#    y 0.000000 3.847320 0.000000 
#    z 0.000000 0.000000 3.318360 
# 
# 
# High freq. dielectric constant tensor:
#      x y z
#    x 1.729490 0.000000 0.000000 
#    y 0.000000 1.733180 0.000000 
#    z 0.000000 0.000000 1.693630 
# 
# From -- ./inp_files/5918.got.cif
#   From: 2010.03.12/outbox.cif.g09.slc.cpg/sg51_3_cif.got.tgz:5918.got - 2010.04.16 13:43:02.
