data_PCOD8214387
_publ_section_title
;
Structure prediction by ZEFSAII (Michael W. Deem and Ramdas Pophale) SiO2 
 PCOD8214387
Probable space group: P M M A
;
_chemical_formula_sum "Si O2"
_cell_formula_units_Z 48
_cell_length_a 18.717722
_cell_length_b 8.940748
_cell_length_c 14.698850
_cell_angle_alpha 90.000000
_cell_angle_beta 90.000000
_cell_angle_gamma 90.000000
_cell_volume 2459.858949
_symmetry_space_group_name_H-M "P M M A"
_symmetry_group_IT_number 51
_symmetry_cell_setting 'orthorhombic'
loop_
_space_group_symop_operation_xyz
x,y,z
1/2-x,-y,z
1/2+x,-y,-z
-x,y,-z
-x,-y,-z
1/2+x,y,-z
1/2-x,y,z
x,-y,z
loop_
_atom_site_type_symbol
_atom_site_label
_atom_site_fract_x
_atom_site_fract_y
_atom_site_fract_z
Si Si1 0.566979 0.176280 0.821336
Si Si2 0.053247 0.328441 0.366816
Si Si3 0.104651 0.328933 0.559594
Si Si4 0.831634 0.170308 0.283957
Si Si5 0.421612 0.323927 0.867302
Si Si6 0.832556 0.675141 0.956798
O O1 0.572672 0.221012 0.715991
O O2 0.498761 0.247716 0.871540
O O3 0.638224 0.233831 0.870838
O O4 0.561342 0.000000 0.829310
O O5 0.064550 0.500000 0.336541
O O6 0.103883 0.288469 0.452529
O O7 0.972394 0.301934 0.396437
O O8 0.128541 0.500000 0.572230
O O9 0.160390 0.221808 0.611164
O O10 0.750000 0.187342 0.253533
O O11 0.880339 0.276631 0.223178
O O12 0.857678 0.000000 0.273359
O O13 0.433753 0.500000 0.864297
O O14 0.375630 0.273555 0.953893
O O15 0.750000 0.716749 0.971646
O O16 0.842687 0.500000 0.938287
#
# Coordination Sequence:
#
# PCOD8214387 Si02
#       6
#     8   8   8   8   8   8
#     4  12  24  37  59  92 123 154 191 237 296 356
#     4   9  18  35  59  86 113 146 193 244 284 330
#     4   9  18  34  58  84 111 148 195 240 284 337
#     4  11  23  36  53  84 125 160 191 237 299 358
#     4  11  22  39  63  88 114 151 201 248 288 342
#     4  10  23  43  64  85 112 152 200 246 292 343
#
# _framework density 19.513314000000001
#
# number of rings (size 3 to 8) (size 9 to 14) (size 15 to 20)
#    0.000    1.667    1.667    4.500    0.000    6.333 
#    0.000    2.500    0.000    1.000    0.000    0.000 
#    0.000    0.000    0.000    0.000    0.000    0.000 
#
# Total GULP energy -595372.448803 kJ/mol
# GULP energy per Si atom -12403.592683 kJ/mol
# Density = 1.946890 g / cm^3
# Si number density = 19.513314 Si / 1000 Ang^3
#
#
#
# Elastic Constant Matrix: (Units=GPa)
#
#
# Indices 1 2 3 4 5 6 
#
# 1 66.9233 36.5867 41.6826 0.0000 0.0000 0.0000
# 2 36.5867 87.9242 46.1056 0.0000 0.0000 0.0000
# 3 41.6826 46.1056 112.9043 0.0000 0.0000 0.0000
# 4 0.0000 0.0000 0.0000 13.2373 0.0000 0.0000
# 5 0.0000 0.0000 0.0000 0.0000 23.0582 0.0000
# 6 0.0000 0.0000 0.0000 0.0000 0.0000 25.8640
#
#
#
# Elastic Compliance Matrix: (Units=1/GPa)
#
#
# Indices 1 2 3 4 5 6 
#
# 1 0.021742 -0.006156 -0.005513 0.000000 0.000000 0.000000
# 2 -0.006156 0.016216 -0.004349 0.000000 0.000000 0.000000
# 3 -0.005513 -0.004349 0.012668 0.000000 0.000000 0.000000
# 4 0.000000 0.000000 0.000000 0.075544 0.000000 0.000000
# 5 0.000000 0.000000 0.000000 0.000000 0.043369 0.000000
# 6 0.000000 0.000000 0.000000 0.000000 0.000000 0.038664
#
#
# Mechanical properties :
#
#
# Convention : Reuss Voigt Hill
#
# Bulk Modulus (GPa) = 53.79379 57.38907 55.59143
# Shear Modulus (GPa) = 20.28936 21.99036 21.13986
#
# Velocity S-wave (km/s) = 3.22805 3.36064 3.29501
# Velocity P-wave (km/s) = 6.44370 6.67327 6.55949
#
# Compressibility (1/GPa) = 0.01858951
#
# Stress axis : x y z
#
# Youngs Moduli (GPa) = 45.99470 61.66857 78.93752
#
# Poissons Ratio (x) = 0.37965 0.43516
# Poissons Ratio (y) = 0.28316 0.34330
# Poissons Ratio (z) = 0.25356 0.26820
#
# Static dielectric constant tensor:
#      x y z
#    x 3.449890 0.000000 0.000000 
#    y 0.000000 3.466030 0.000000 
#    z 0.000000 0.000000 3.814820 
# 
# 
# High freq. dielectric constant tensor:
#      x y z
#    x 1.745360 0.000000 0.000000 
#    y 0.000000 1.755940 0.000000 
#    z 0.000000 0.000000 1.770210 
# 
# From -- ./inp_files/24754.got.cif
#   From: 2010.03.12/outbox.cif.g09.slc.cpg/sg51_13_cif.got.tgz:24754.got - 2010.04.16 13:43:02.
