data_PCOD8214216
_publ_section_title
;
Structure prediction by ZEFSAII (Michael W. Deem and Ramdas Pophale) SiO2 
 PCOD8214216
Probable space group: P M M A
;
_chemical_formula_sum "Si O2"
_cell_formula_units_Z 40
_cell_length_a 17.857238
_cell_length_b 7.547295
_cell_length_c 15.780595
_cell_angle_alpha 90.000000
_cell_angle_beta 90.000000
_cell_angle_gamma 90.000000
_cell_volume 2126.811434
_symmetry_space_group_name_H-M "P M M A"
_symmetry_group_IT_number 51
_symmetry_cell_setting 'orthorhombic'
loop_
_space_group_symop_operation_xyz
x,y,z
1/2-x,-y,z
1/2+x,-y,-z
-x,y,-z
-x,-y,-z
1/2+x,y,-z
1/2-x,y,z
x,-y,z
loop_
_atom_site_type_symbol
_atom_site_label
_atom_site_fract_x
_atom_site_fract_y
_atom_site_fract_z
Si Si1 0.583353 0.710304 0.006080
Si Si2 0.959275 0.701219 0.716110
Si Si3 0.485417 0.000000 0.598582
Si Si4 0.887356 0.700706 0.192503
Si Si5 0.832865 0.000000 0.310354
Si Si6 0.833452 0.289425 0.842056
O O1 0.578037 0.500000 0.999479
O O2 0.621371 0.763545 0.095336
O O3 0.500000 0.791613 0.000000
O O4 0.633548 0.788241 0.929844
O O5 0.950563 0.500000 0.682537
O O6 0.884176 0.769457 0.762503
O O7 0.024956 0.713981 0.785168
O O8 0.976111 0.824991 0.636299
O O9 0.500000 0.000000 0.500000
O O10 0.396170 0.000000 0.616930
O O11 0.858202 0.500000 0.205154
O O12 0.839016 0.826116 0.252358
O O13 0.750000 0.000000 0.352331
O O14 0.750000 0.213485 0.828415
O O15 0.832870 0.500000 0.847665
#
# Coordination Sequence:
#
# PCOD8214216 Si02
#       6
#     8   8   4   8   4   8
#     4   9  14  24  45  73 106 145 186 221 251 290
#     4   9  17  33  55  77 104 137 171 210 256 310
#     4  10  22  40  61  83 100 126 170 208 258 332
#     4   9  17  31  53  76 102 143 184 211 247 303
#     4  10  22  38  54  78 109 133 164 217 268 307
#     4   9  16  26  44  73 108 144 181 221 259 292
#
# _framework density 18.807497000000001
#
# number of rings (size 3 to 8) (size 9 to 14) (size 15 to 20)
#    0.000    2.800    2.000    0.000    0.000    1.600 
#    0.000    5.000    0.000    0.000    0.000    0.000 
#    0.000    0.000    0.000    0.000    0.000    0.000 
#
# Total GULP energy -495898.279363 kJ/mol
# GULP energy per Si atom -12397.456984 kJ/mol
# Density = 1.876469 g / cm^3
# Si number density = 18.807497 Si / 1000 Ang^3
#
#
#
# Elastic Constant Matrix: (Units=GPa)
#
#
# Indices 1 2 3 4 5 6 
#
# 1 135.4338 27.0004 64.0680 0.0000 0.0000 0.0000
# 2 27.0004 74.1690 47.8794 0.0000 0.0000 0.0000
# 3 64.0680 47.8794 143.5926 0.0000 0.0000 0.0000
# 4 0.0000 0.0000 0.0000 -12.3712 0.0000 0.0000
# 5 0.0000 0.0000 0.0000 0.0000 18.5799 0.0000
# 6 0.0000 0.0000 0.0000 0.0000 0.0000 855.7920
#
#
#
# Elastic Compliance Matrix: (Units=1/GPa)
#
#
# Indices 1 2 3 4 5 6 
#
# 1 0.009407 -0.000911 -0.003893 0.000000 0.000000 0.000000
# 2 -0.000911 0.017269 -0.005352 0.000000 0.000000 0.000000
# 3 -0.003893 -0.005352 0.010486 0.000000 0.000000 0.000000
# 4 0.000000 0.000000 0.000000 -0.080833 0.000000 0.000000
# 5 0.000000 0.000000 0.000000 0.000000 0.053822 0.000000
# 6 0.000000 0.000000 0.000000 0.000000 0.000000 0.001169
#
#
# Mechanical properties :
#
#
# Convention : Reuss Voigt Hill
#
# Bulk Modulus (GPa) = 59.34891 70.12123 64.73507
# Shear Modulus (GPa) = 134.23401 186.68332 160.45866
#
# Velocity S-wave (km/s) = 8.45740 9.97374 9.24670
# Velocity P-wave (km/s) = 11.26919 13.03835 12.18592
#
# Compressibility (1/GPa) = 0.01684951
#
# Stress axis : x y z
#
# Youngs Moduli (GPa) = 106.30192 57.90669 95.36728
#
# Poissons Ratio (x) = 0.05276 0.37131
# Poissons Ratio (y) = 0.09686 0.51037
# Poissons Ratio (z) = 0.41388 0.30990
#
# Static dielectric constant tensor:
#      x y z
#    x 3.561920 0.000000 0.000000 
#    y 0.000000 3.416100 0.000000 
#    z 0.000000 0.000000 3.099750 
# 
# 
# High freq. dielectric constant tensor:
#      x y z
#    x 1.723360 0.000000 0.000000 
#    y 0.000000 1.721890 0.000000 
#    z 0.000000 0.000000 1.696100 
# 
# From -- ./inp_files/23735.got.cif
#   From: 2010.03.12/outbox.cif.g09.slc.cpg/sg51_12_cif.got.tgz:23735.got - 2010.04.16 13:43:02.
