data_PCOD8214266
_publ_section_title
;
Structure prediction by ZEFSAII (Michael W. Deem and Ramdas Pophale) SiO2 
 PCOD8214266
Probable space group: P M M A
;
_chemical_formula_sum "Si O2"
_cell_formula_units_Z 40
_cell_length_a 9.965845
_cell_length_b 23.773143
_cell_length_c 8.740506
_cell_angle_alpha 90.000000
_cell_angle_beta 90.000000
_cell_angle_gamma 90.000000
_cell_volume 2070.795947
_symmetry_space_group_name_H-M "P M M A"
_symmetry_group_IT_number 51
_symmetry_cell_setting 'orthorhombic'
loop_
_space_group_symop_operation_xyz
x,y,z
1/2-x,-y,z
1/2+x,-y,-z
-x,y,-z
-x,-y,-z
1/2+x,y,-z
1/2-x,y,z
x,-y,z
loop_
_atom_site_type_symbol
_atom_site_label
_atom_site_fract_x
_atom_site_fract_y
_atom_site_fract_z
Si Si1 0.593567 0.267547 0.147020
Si Si2 0.492768 0.377189 0.680296
Si Si3 0.096124 0.935564 0.862317
Si Si4 0.250000 0.435076 0.827344
Si Si5 0.402116 0.161993 0.639464
Si Si6 0.750000 0.567855 0.827734
O O1 0.750000 0.279250 0.104896
O O2 0.536820 0.315496 0.256846
O O3 0.577828 0.208536 0.231222
O O4 0.500000 0.265686 0.000000
O O5 0.500000 0.372208 0.500000
O O6 0.377369 0.419234 0.729155
O O7 0.625070 0.404890 0.745021
O O8 0.250000 0.926281 0.915371
O O9 0.063306 0.898238 0.714050
O O10 0.068851 0.000000 0.815713
O O11 0.000000 0.916763 0.000000
O O12 0.250000 0.500000 0.856803
O O13 0.250000 0.408986 0.997945
O O14 0.500000 0.174152 0.500000
O O15 0.250000 0.163057 0.576753
O O16 0.750000 0.500000 0.813369
#
# Coordination Sequence:
#
# PCOD8214266 Si02
#       6
#     8   8   8   4   8   4
#     4  11  24  42  64  89 118 156 201 248 300 365
#     4  12  25  41  63  92 125 157 197 251 305 361
#     4   9  18  34  57  85 119 159 205 255 304 360
#     4  11  23  43  65  89 123 159 202 247 292 359
#     4  10  22  39  58  86 124 159 201 251 304 360
#     4  11  25  43  67  93 121 163 204 243 298 361
#
# _framework density 19.316243
#
# number of rings (size 3 to 8) (size 9 to 14) (size 15 to 20)
#    0.000    1.400    1.000    4.200    1.400    6.000 
#    0.000    0.000    0.000    0.000    0.000    0.000 
#    0.000    0.000    0.000    0.000    0.000    0.000 
#
# Total GULP energy -496080.465458 kJ/mol
# GULP energy per Si atom -12402.011636 kJ/mol
# Density = 1.927228 g / cm^3
# Si number density = 19.316243 Si / 1000 Ang^3
#
#
#
# Elastic Constant Matrix: (Units=GPa)
#
#
# Indices 1 2 3 4 5 6 
#
# 1 156.0173 51.4575 90.3047 0.0000 0.0000 0.0000
# 2 51.4575 89.6246 52.2199 0.0000 0.0000 0.0000
# 3 90.3047 52.2199 157.8003 0.0000 0.0000 0.0000
# 4 0.0000 0.0000 0.0000 26.2356 0.0000 0.0000
# 5 0.0000 0.0000 0.0000 0.0000 46.7942 0.0000
# 6 0.0000 0.0000 0.0000 0.0000 0.0000 33.7625
#
#
#
# Elastic Compliance Matrix: (Units=1/GPa)
#
#
# Indices 1 2 3 4 5 6 
#
# 1 0.010214 -0.003046 -0.004837 0.000000 0.000000 0.000000
# 2 -0.003046 0.014731 -0.003132 0.000000 0.000000 0.000000
# 3 -0.004837 -0.003132 0.010142 0.000000 0.000000 0.000000
# 4 0.000000 0.000000 0.000000 0.038116 0.000000 0.000000
# 5 0.000000 0.000000 0.000000 0.000000 0.021370 0.000000
# 6 0.000000 0.000000 0.000000 0.000000 0.000000 0.029619
#
#
# Mechanical properties :
#
#
# Convention : Reuss Voigt Hill
#
# Bulk Modulus (GPa) = 76.58707 87.93403 82.26055
# Shear Modulus (GPa) = 33.20625 35.32247 34.26436
#
# Velocity S-wave (km/s) = 4.15068 4.28090 4.21629
# Velocity P-wave (km/s) = 7.91871 8.37001 8.14748
#
# Compressibility (1/GPa) = 0.01305703
#
# Stress axis : x y z
#
# Youngs Moduli (GPa) = 97.90510 67.88313 98.60267
#
# Poissons Ratio (x) = 0.20676 0.47696
# Poissons Ratio (y) = 0.29821 0.30881
# Poissons Ratio (z) = 0.47359 0.21260
#
# Static dielectric constant tensor:
#      x y z
#    x 3.708270 0.000000 0.000000 
#    y 0.000000 3.743680 0.000000 
#    z 0.000000 0.000000 3.460430 
# 
# 
# High freq. dielectric constant tensor:
#      x y z
#    x 1.766410 0.000000 0.000000 
#    y 0.000000 1.770920 0.000000 
#    z 0.000000 0.000000 1.749990 
# 
# From -- ./inp_files/5623.got.cif
#   From: 2010.03.12/outbox.cif.g09.slc.cpg/sg51_3_cif.got.tgz:5623.got - 2010.04.16 13:43:02.
