data_PCOD8214947
_publ_section_title
;
Structure prediction by ZEFSAII (Michael W. Deem and Ramdas Pophale) SiO2 
 PCOD8214947
Probable space group: P N N A
;
_chemical_formula_sum "Si O2"
_cell_formula_units_Z 40
_cell_length_a 27.797770
_cell_length_b 8.784237
_cell_length_c 8.896102
_cell_angle_alpha 90.000000
_cell_angle_beta 90.000000
_cell_angle_gamma 90.000000
_cell_volume 2172.269756
_symmetry_space_group_name_H-M "P N N A"
_symmetry_group_IT_number 52
_symmetry_cell_setting 'orthorhombic'
loop_
_space_group_symop_operation_xyz
x,y,z
1/2-x,-y,z
x,1/2-y,1/2-z
1/2-x,1/2+y,1/2-z
-x,-y,-z
1/2+x,y,-z
-x,1/2+y,1/2+z
1/2+x,1/2-y,1/2+z
loop_
_atom_site_type_symbol
_atom_site_label
_atom_site_fract_x
_atom_site_fract_y
_atom_site_fract_z
Si Si1 0.945220 0.047158 0.995831
Si Si2 0.145034 0.551725 0.988869
Si Si3 0.898207 0.250000 0.750000
Si Si4 0.115058 0.228784 0.088439
Si Si5 0.706154 0.250000 0.750000
Si Si6 0.750000 0.000000 0.561491
Si Si7 0.094850 0.750000 0.750000
O O1 0.932478 0.136300 0.842968
O O2 0.911980 0.896535 0.011620
O O3 0.938483 0.155868 0.137983
O O4 0.000000 0.000000 0.000000
O O5 0.128174 0.633475 0.839214
O O6 0.135227 0.651943 0.138105
O O7 0.117598 0.390046 0.001694
O O8 0.202192 0.528493 0.963778
O O9 0.087624 0.250000 0.250000
O O10 0.169813 0.171454 0.127230
O O11 0.742319 0.361370 0.828217
#
# Coordination Sequence:
#
# PCOD8214947 Si02
#       7
#     8   8   4   8   4   4   4
#     4  11  23  38  61  83 112 147 194 227 280 339
#     4  10  20  37  59  81 120 147 190 225 285 332
#     4  10  19  38  58  84 116 152 180 246 271 322
#     4   9  18  36  58  83 107 145 184 237 277 309
#     4   8  17  29  54  88 106 136 194 235 265 312
#     4  10  16  30  56  84 108 148 188 228 264 340
#     4  10  26  39  52  86 118 150 174 235 296 326
#
# _framework density 18.413919
#
# number of rings (size 3 to 8) (size 9 to 14) (size 15 to 20)
#    0.600    1.600    2.000    0.600    1.400    4.000 
#    0.000    8.000    0.000    2.400    0.000    0.000 
#    0.000    0.000    0.000    0.000    0.000    0.000 
#
# Total GULP energy -495688.287634 kJ/mol
# GULP energy per Si atom -12392.207191 kJ/mol
# Density = 1.837201 g / cm^3
# Si number density = 18.413919 Si / 1000 Ang^3
#
#
#
# Elastic Constant Matrix: (Units=GPa)
#
#
# Indices 1 2 3 4 5 6 
#
# 1 119.8781 60.3336 39.3953 0.0000 0.0000 0.0000
# 2 60.3336 116.5076 41.5585 0.0000 0.0000 0.0000
# 3 39.3953 41.5585 87.1372 0.0000 0.0000 0.0000
# 4 0.0000 0.0000 0.0000 44.8461 0.0000 0.0000
# 5 0.0000 0.0000 0.0000 0.0000 22.8792 0.0000
# 6 0.0000 0.0000 0.0000 0.0000 0.0000 32.7624
#
#
#
# Elastic Compliance Matrix: (Units=1/GPa)
#
#
# Indices 1 2 3 4 5 6 
#
# 1 0.011874 -0.005102 -0.002935 0.000000 0.000000 0.000000
# 2 -0.005102 0.012535 -0.003672 0.000000 0.000000 0.000000
# 3 -0.002935 -0.003672 0.014554 0.000000 0.000000 0.000000
# 4 0.000000 0.000000 0.000000 0.022298 0.000000 0.000000
# 5 0.000000 0.000000 0.000000 0.000000 0.043708 0.000000
# 6 0.000000 0.000000 0.000000 0.000000 0.000000 0.030523
#
#
# Mechanical properties :
#
#
# Convention : Reuss Voigt Hill
#
# Bulk Modulus (GPa) = 64.32604 67.34420 65.83512
# Shear Modulus (GPa) = 30.47070 32.24655 31.35863
#
# Velocity S-wave (km/s) = 4.07229 4.18928 4.13120
# Velocity P-wave (km/s) = 7.55782 7.74932 7.65417
#
# Compressibility (1/GPa) = 0.01554580
#
# Stress axis : x y z
#
# Youngs Moduli (GPa) = 84.21615 79.77697 68.70866
#
# Poissons Ratio (x) = 0.40703 0.20166
# Poissons Ratio (y) = 0.42968 0.25227
# Poissons Ratio (z) = 0.24718 0.29291
#
# Static dielectric constant tensor:
#      x y z
#    x 3.201250 0.000000 0.000000 
#    y 0.000000 3.515280 0.000000 
#    z 0.000000 0.000000 3.256600 
# 
# 
# High freq. dielectric constant tensor:
#      x y z
#    x 1.706130 0.000000 0.000000 
#    y 0.000000 1.727730 0.000000 
#    z 0.000000 0.000000 1.695340 
# 
# From -- ./inp_files/14911.got.cif
#   From: 2010.06.25/outbox.cif.g09.slc.cpg/sg52_8_cif.got.tgz:14911.got - 2010.06.26 19:32:48.
