data_PCOD8214733
_publ_section_title
;
Structure prediction by ZEFSAII (Michael W. Deem and Ramdas Pophale) SiO2 
 PCOD8214733
Probable space group: P M M A
;
_chemical_formula_sum "Si O2"
_cell_formula_units_Z 48
_cell_length_a 9.765124
_cell_length_b 9.225683
_cell_length_c 31.204144
_cell_angle_alpha 90.000000
_cell_angle_beta 90.000000
_cell_angle_gamma 90.000000
_cell_volume 2811.179413
_symmetry_space_group_name_H-M "P M M A"
_symmetry_group_IT_number 51
_symmetry_cell_setting 'orthorhombic'
loop_
_space_group_symop_operation_xyz
x,y,z
1/2-x,-y,z
1/2+x,-y,-z
-x,y,-z
-x,-y,-z
1/2+x,y,-z
1/2-x,y,z
x,-y,z
loop_
_atom_site_type_symbol
_atom_site_label
_atom_site_fract_x
_atom_site_fract_y
_atom_site_fract_z
Si Si1 0.586657 0.663974 0.705923
Si Si2 0.913350 0.836884 0.788342
Si Si3 0.597454 0.327117 0.963190
Si Si4 0.086854 0.338435 0.130972
Si Si5 0.408058 0.668514 0.460015
Si Si6 0.912832 0.163499 0.623877
O O1 0.750000 0.663506 0.705469
O O2 0.530220 0.500000 0.705484
O O3 0.531335 0.744366 0.748269
O O4 0.528792 0.748419 0.664500
O O5 0.750000 0.836446 0.788529
O O6 0.970824 0.767305 0.832281
O O7 0.969880 0.000000 0.784563
O O8 0.750000 0.265378 0.970947
O O9 0.600692 0.500000 0.965156
O O10 0.541842 0.280580 0.916091
O O11 0.500000 0.261600 0.000000
O O12 0.250000 0.344512 0.132304
O O13 0.028568 0.500000 0.139325
O O14 0.500000 0.716460 0.500000
O O15 0.250000 0.703551 0.470683
O O16 0.427584 0.500000 0.449040
O O17 0.461935 0.758870 0.419473
O O18 0.750000 0.162603 0.625872
O O19 0.970727 0.000000 0.625026
#
# Coordination Sequence:
#
# PCOD8214733 Si02
#       6
#     8   8   8   8   8   8
#     4   9  15  22  33  49  71 100 131 160 192 234
#     4   9  15  21  30  46  69  96 125 156 190 230
#     4   8  13  21  34  52  73  97 126 160 195 229
#     4   8  13  21  32  46  66  93 123 153 187 228
#     4   9  17  29  44  61  82 109 140 172 205 240
#     4   9  16  25  37  54  77 104 133 165 201 240
#
# _framework density 17.074684000000001
#
# number of rings (size 3 to 8) (size 9 to 14) (size 15 to 20)
#    0.000    3.333    0.000    2.500    0.000    6.333 
#    0.000    0.000    0.000    0.500    0.000    0.000 
#    0.000    1.333    0.000   11.333    0.000   12.500 
#
# Total GULP energy -594956.464399 kJ/mol
# GULP energy per Si atom -12394.926342 kJ/mol
# Density = 1.703582 g / cm^3
# Si number density = 17.074684 Si / 1000 Ang^3
#
#
#
# Elastic Constant Matrix: (Units=GPa)
#
#
# Indices 1 2 3 4 5 6 
#
# 1 20.4391 16.2650 32.7289 0.0000 0.0000 0.0000
# 2 16.2650 118.6996 89.6706 0.0000 0.0000 0.0000
# 3 32.7289 89.6706 192.5149 0.0000 0.0000 0.0000
# 4 0.0000 0.0000 0.0000 16.3261 0.0000 0.0000
# 5 0.0000 0.0000 0.0000 0.0000 17.3161 0.0000
# 6 0.0000 0.0000 0.0000 0.0000 0.0000 5.6325
#
#
#
# Elastic Compliance Matrix: (Units=1/GPa)
#
#
# Indices 1 2 3 4 5 6 
#
# 1 0.067288 -0.000892 -0.011024 0.000000 0.000000 0.000000
# 2 -0.000892 0.013010 -0.005908 0.000000 0.000000 0.000000
# 3 -0.011024 -0.005908 0.009821 0.000000 0.000000 0.000000
# 4 0.000000 0.000000 0.000000 0.061252 0.000000 0.000000
# 5 0.000000 0.000000 0.000000 0.000000 0.057750 0.000000
# 6 0.000000 0.000000 0.000000 0.000000 0.000000 0.177540
#
#
# Mechanical properties :
#
#
# Convention : Reuss Voigt Hill
#
# Bulk Modulus (GPa) = 18.35866 67.66472 43.01169
# Shear Modulus (GPa) = 11.35160 20.72089 16.03624
#
# Velocity S-wave (km/s) = 2.58121 3.48738 3.06793
# Velocity P-wave (km/s) = 4.43383 7.47866 6.14773
#
# Compressibility (1/GPa) = 0.05447020
#
# Stress axis : x y z
#
# Youngs Moduli (GPa) = 14.86138 76.86234 101.82764
#
# Poissons Ratio (x) = 0.06860 1.12253
# Poissons Ratio (y) = 0.01326 0.60163
# Poissons Ratio (z) = 0.16383 0.45412
#
# Static dielectric constant tensor:
#      x y z
#    x 2.547770 0.000000 0.000000 
#    y 0.000000 3.218270 0.000000 
#    z 0.000000 0.000000 3.525610 
# 
# 
# High freq. dielectric constant tensor:
#      x y z
#    x 1.570670 0.000000 0.000000 
#    y 0.000000 1.649720 0.000000 
#    z 0.000000 0.000000 1.679460 
# 
# From -- ./inp_files/36502.got.cif
#   From: 2010.03.12/outbox.cif.g09.slc.cpg/sg51_19_cif.got.tgz:36502.got - 2010.04.16 13:43:02.
