data_PCOD8214739
_publ_section_title
;
Structure prediction by ZEFSAII (Michael W. Deem and Ramdas Pophale) SiO2 
 PCOD8214739
Probable space group: P M M A
;
_chemical_formula_sum "Si O2"
_cell_formula_units_Z 64
_cell_length_a 9.470696
_cell_length_b 28.645461
_cell_length_c 14.925126
_cell_angle_alpha 90.000000
_cell_angle_beta 90.000000
_cell_angle_gamma 90.000000
_cell_volume 4049.074043
_symmetry_space_group_name_H-M "P M M A"
_symmetry_group_IT_number 51
_symmetry_cell_setting 'orthorhombic'
loop_
_space_group_symop_operation_xyz
x,y,z
1/2-x,-y,z
1/2+x,-y,-z
-x,y,-z
-x,-y,-z
1/2+x,y,-z
1/2-x,y,z
x,-y,z
loop_
_atom_site_type_symbol
_atom_site_label
_atom_site_fract_x
_atom_site_fract_y
_atom_site_fract_z
Si Si1 0.914583 0.873326 0.412765
Si Si2 0.086235 0.085428 0.914905
Si Si3 0.085111 0.765532 0.588463
Si Si4 0.416770 0.731309 0.776092
Si Si5 0.916663 0.349087 0.093514
Si Si6 0.412917 0.193557 0.915412
Si Si7 0.088454 0.450718 0.911275
Si Si8 0.417287 0.051461 0.727172
O O1 0.750000 0.882466 0.430746
O O2 0.942079 0.819644 0.386517
O O3 0.975897 0.907482 0.335981
O O4 0.000000 0.887465 0.500000
O O5 0.250000 0.075509 0.933590
O O6 0.057183 0.139724 0.896143
O O7 0.027797 0.058283 0.828392
O O8 0.000000 0.067072 0.000000
O O9 0.250000 0.756727 0.569417
O O10 0.028117 0.735112 0.673298
O O11 0.000000 0.750312 0.500000
O O12 0.250000 0.728661 0.770148
O O13 0.474325 0.686219 0.830189
O O14 0.463470 0.777830 0.828710
O O15 0.750000 0.340745 0.074782
O O16 0.945814 0.401075 0.136117
O O17 0.000000 0.341707 0.000000
O O18 0.250000 0.203345 0.936923
O O19 0.500000 0.212101 0.000000
O O20 0.250000 0.449337 0.941429
O O21 0.059823 0.500000 0.856209
O O22 0.000000 0.453068 0.000000
O O23 0.250000 0.055913 0.729508
O O24 0.464804 0.000000 0.693118
#
# Coordination Sequence:
#
# PCOD8214739 Si02
#       8
#     8   8   8   8   8   8   8   8
#     4   9  17  30  48  66  82 101 125 154 189 230
#     4   9  17  29  44  60  78 102 132 162 188 217
#     4   9  17  30  46  62  79 100 128 160 193 231
#     4   9  16  26  41  58  78 105 132 158 192 233
#     4   9  16  25  37  55  80 109 138 165 194 229
#     4   9  16  26  40  58  79 103 130 157 186 222
#     4   8  13  21  33  49  71 101 135 167 195 223
#     4   9  17  29  45  63  81 103 130 155 183 226
#
# _framework density 15.806082999999999
#
# number of rings (size 3 to 8) (size 9 to 14) (size 15 to 20)
#    0.000    3.125    0.000    1.125    0.000    3.500 
#    0.000    1.875    0.000    6.750    0.000    0.000 
#    0.000    0.500    0.000    0.375    0.000    1.000 
#
# Total GULP energy -792850.379852 kJ/mol
# GULP energy per Si atom -12388.287185 kJ/mol
# Density = 1.577011 g / cm^3
# Si number density = 15.806083 Si / 1000 Ang^3
#
#
#
# Elastic Constant Matrix: (Units=GPa)
#
#
# Indices 1 2 3 4 5 6 
#
# 1 27.8420 19.4205 29.3834 0.0000 0.0000 0.0000
# 2 19.4205 85.5896 57.0573 0.0000 0.0000 0.0000
# 3 29.3834 57.0573 116.2990 0.0000 0.0000 0.0000
# 4 0.0000 0.0000 0.0000 14.0726 0.0000 0.0000
# 5 0.0000 0.0000 0.0000 0.0000 22.4799 0.0000
# 6 0.0000 0.0000 0.0000 0.0000 0.0000 11.6327
#
#
#
# Elastic Compliance Matrix: (Units=1/GPa)
#
#
# Indices 1 2 3 4 5 6 
#
# 1 0.050042 -0.004348 -0.010510 0.000000 0.000000 0.000000
# 2 -0.004348 0.017740 -0.007605 0.000000 0.000000 0.000000
# 3 -0.010510 -0.007605 0.014985 0.000000 0.000000 0.000000
# 4 0.000000 0.000000 0.000000 0.071060 0.000000 0.000000
# 5 0.000000 0.000000 0.000000 0.000000 0.044484 0.000000
# 6 0.000000 0.000000 0.000000 0.000000 0.000000 0.085964
#
#
# Mechanical properties :
#
#
# Convention : Reuss Voigt Hill
#
# Bulk Modulus (GPa) = 26.42659 49.05033 37.73846
# Shear Modulus (GPa) = 14.62779 17.89499 16.26139
#
# Velocity S-wave (km/s) = 3.04543 3.36841 3.21098
# Velocity P-wave (km/s) = 5.39645 6.79913 6.13799
#
# Compressibility (1/GPa) = 0.03784067
#
# Stress axis : x y z
#
# Youngs Moduli (GPa) = 19.98324 56.37003 66.73399
#
# Poissons Ratio (x) = 0.24511 0.70137
# Poissons Ratio (y) = 0.08689 0.50750
# Poissons Ratio (z) = 0.21002 0.42868
#
# Static dielectric constant tensor:
#      x y z
#    x 2.838810 0.000000 0.000000 
#    y 0.000000 3.433760 0.000000 
#    z 0.000000 0.000000 3.088330 
# 
# 
# High freq. dielectric constant tensor:
#      x y z
#    x 1.582120 0.000000 0.000000 
#    y 0.000000 1.608070 0.000000 
#    z 0.000000 0.000000 1.584310 
# 
# From -- ./inp_files/15708.got.cif
#   From: 2010.03.12/outbox.cif.g09.slc.cpg/sg51_8_cif.got.tgz:15708.got - 2010.04.16 13:43:02.
