data_PCOD8214336
_publ_section_title
;
Structure prediction by ZEFSAII (Michael W. Deem and Ramdas Pophale) SiO2 
 PCOD8214336
Probable space group: P M M A
;
_chemical_formula_sum "Si O2"
_cell_formula_units_Z 48
_cell_length_a 17.343697
_cell_length_b 10.078383
_cell_length_c 13.748327
_cell_angle_alpha 90.000000
_cell_angle_beta 90.000000
_cell_angle_gamma 90.000000
_cell_volume 2403.158354
_symmetry_space_group_name_H-M "P M M A"
_symmetry_group_IT_number 51
_symmetry_cell_setting 'orthorhombic'
loop_
_space_group_symop_operation_xyz
x,y,z
1/2-x,-y,z
1/2+x,-y,-z
-x,y,-z
-x,-y,-z
1/2+x,y,-z
1/2-x,y,z
x,-y,z
loop_
_atom_site_type_symbol
_atom_site_label
_atom_site_fract_x
_atom_site_fract_y
_atom_site_fract_z
Si Si1 0.338936 0.848445 0.591045
Si Si2 0.906305 0.500000 0.904041
Si Si3 0.407173 0.743060 0.221032
Si Si4 0.839145 0.347079 0.581960
Si Si5 0.088947 0.500000 0.877848
Si Si6 0.838696 0.000000 0.861314
Si Si7 0.912876 0.773716 0.208508
Si Si8 0.657684 0.000000 0.079261
O O1 0.250000 0.828804 0.619567
O O2 0.363483 0.747888 0.506417
O O3 0.389649 0.814994 0.683949
O O4 0.354661 0.000000 0.557397
O O5 0.874454 0.368485 0.852061
O O6 0.997822 0.500000 0.892197
O O7 0.875012 0.500000 0.014113
O O8 0.394948 0.690682 0.329860
O O9 0.358997 0.874253 0.203429
O O10 0.495408 0.778866 0.201082
O O11 0.750000 0.323509 0.611246
O O12 0.853108 0.500000 0.551567
O O13 0.117437 0.626732 0.816966
O O14 0.750000 0.000000 0.882754
O O15 0.875986 0.000000 0.969172
O O16 0.875820 0.870397 0.130114
O O17 0.750000 0.000000 0.087830
#
# Coordination Sequence:
#
# PCOD8214336 Si02
#       8
#     8   4   8   8   4   4   8   4
#     4  10  22  41  63  86 118 160 203 248 302 363
#     4   9  18  38  58  83 122 162 195 239 296 353
#     4  11  22  39  62  92 125 156 202 252 307 362
#     4  10  22  41  64  88 119 161 203 247 303 366
#     4   9  20  34  58  89 122 156 197 241 292 359
#     4  11  25  39  60  91 124 163 205 250 296 361
#     4  11  22  38  63  93 121 161 200 251 310 356
#     4  11  23  43  62  85 124 167 209 248 298 361
#
# _framework density 19.973716
#
# number of rings (size 3 to 8) (size 9 to 14) (size 15 to 20)
#    0.000    1.667    1.667    2.500    2.333    3.333 
#    0.000    2.917    0.000    5.000    0.000    0.000 
#    0.000    0.000    0.000    0.000    0.000    0.000 
#
# Total GULP energy -595339.861898 kJ/mol
# GULP energy per Si atom -12402.913790 kJ/mol
# Density = 1.992825 g / cm^3
# Si number density = 19.973716 Si / 1000 Ang^3
#
#
#
# Elastic Constant Matrix: (Units=GPa)
#
#
# Indices 1 2 3 4 5 6 
#
# 1 43.5256 23.6342 12.8282 0.0000 0.0000 0.0000
# 2 23.6342 169.2189 53.5637 0.0000 0.0000 0.0000
# 3 12.8282 53.5637 99.6562 0.0000 0.0000 0.0000
# 4 0.0000 0.0000 0.0000 45.8224 0.0000 0.0000
# 5 0.0000 0.0000 0.0000 0.0000 170.6486 0.0000
# 6 0.0000 0.0000 0.0000 0.0000 0.0000 12.5529
#
#
#
# Elastic Compliance Matrix: (Units=1/GPa)
#
#
# Indices 1 2 3 4 5 6 
#
# 1 0.025076 -0.002989 -0.001621 0.000000 0.000000 0.000000
# 2 -0.002989 0.007477 -0.003634 0.000000 0.000000 0.000000
# 3 -0.001621 -0.003634 0.012197 0.000000 0.000000 0.000000
# 4 0.000000 0.000000 0.000000 0.021823 0.000000 0.000000
# 5 0.000000 0.000000 0.000000 0.000000 0.005860 0.000000
# 6 0.000000 0.000000 0.000000 0.000000 0.000000 0.079663
#
#
# Mechanical properties :
#
#
# Convention : Reuss Voigt Hill
#
# Bulk Modulus (GPa) = 35.38490 54.71697 45.05094
# Shear Modulus (GPa) = 28.08905 60.62975 44.35940
#
# Velocity S-wave (km/s) = 3.75414 5.51549 4.71774
# Velocity P-wave (km/s) = 6.04529 8.24711 7.23051
#
# Compressibility (1/GPa) = 0.02826064
#
# Stress axis : x y z
#
# Youngs Moduli (GPa) = 39.87895 133.73761 81.99056
#
# Poissons Ratio (x) = 0.39975 0.13293
# Poissons Ratio (y) = 0.11920 0.29797
# Poissons Ratio (z) = 0.06466 0.48603
#
# Static dielectric constant tensor:
#      x y z
#    x 3.416370 0.000000 0.000000 
#    y 0.000000 3.905720 0.000000 
#    z 0.000000 0.000000 3.647170 
# 
# 
# High freq. dielectric constant tensor:
#      x y z
#    x 1.760590 0.000000 0.000000 
#    y 0.000000 1.800970 0.000000 
#    z 0.000000 0.000000 1.785620 
# 
# From -- ./inp_files/25015.got.cif
#   From: 2010.03.12/outbox.cif.g09.slc.cpg/sg51_13_cif.got.tgz:25015.got - 2010.04.16 13:43:02.
