data_PCOD8214950
_publ_section_title
;
Structure prediction by ZEFSAII (Michael W. Deem and Ramdas Pophale) SiO2 
 PCOD8214950
Probable space group: P N N A
;
_chemical_formula_sum "Si O2"
_cell_formula_units_Z 44
_cell_length_a 8.122228
_cell_length_b 12.050133
_cell_length_c 25.450645
_cell_angle_alpha 90.000000
_cell_angle_beta 90.000000
_cell_angle_gamma 90.000000
_cell_volume 2490.954588
_symmetry_space_group_name_H-M "P N N A"
_symmetry_group_IT_number 52
_symmetry_cell_setting 'orthorhombic'
loop_
_space_group_symop_operation_xyz
x,y,z
1/2-x,-y,z
x,1/2-y,1/2-z
1/2-x,1/2+y,1/2-z
-x,-y,-z
1/2+x,y,-z
-x,1/2+y,1/2+z
1/2+x,1/2-y,1/2+z
loop_
_atom_site_type_symbol
_atom_site_label
_atom_site_fract_x
_atom_site_fract_y
_atom_site_fract_z
Si Si1 0.434118 0.985620 0.236639
Si Si2 0.293323 0.262768 0.639720
Si Si3 0.460186 0.250000 0.750000
Si Si4 0.750000 0.500000 0.990016
Si Si5 0.013034 0.599180 0.926627
Si Si6 0.250000 0.000000 0.837881
Si Si7 0.913490 0.936131 0.336201
O O1 0.431132 0.859459 0.257875
O O2 0.580195 0.007377 0.195298
O O3 0.250000 0.000000 0.212535
O O4 0.462077 0.067793 0.286722
O O5 0.346589 0.266272 0.699880
O O6 0.435592 0.215606 0.600726
O O7 0.252964 0.390494 0.624723
O O8 0.131339 0.184638 0.639830
O O9 0.665664 0.405195 0.953359
O O10 0.864602 0.426098 0.026141
O O11 0.009069 0.502251 0.883995
O O12 0.750000 0.000000 0.315715
#
# Coordination Sequence:
#
# PCOD8214950 Si02
#       7
#     8   8   4   4   8   4   8
#     4  11  21  32  51  78 109 147 191 223 274 324
#     4  10  18  34  57  75 109 151 187 220 280 337
#     4  10  18  32  50  74 112 140 184 232 252 332
#     4  10  20  33  54  86 114 132 177 242 302 334
#     4  10  19  33  55  84 108 138 178 233 292 343
#     4  10  22  37  52  74 110 158 183 228 262 328
#     4  10  16  32  51  76 102 140 176 222 276 327
#
# _framework density 17.663913000000001
#
# number of rings (size 3 to 8) (size 9 to 14) (size 15 to 20)
#    0.000    1.818    7.273    1.091    1.273    1.455 
#    0.000    1.818    0.000    1.091    0.000    0.000 
#    0.000    0.000    0.000    0.000    0.000    0.000 
#
# Total GULP energy -545098.369950 kJ/mol
# GULP energy per Si atom -12388.599317 kJ/mol
# Density = 1.762371 g / cm^3
# Si number density = 17.663913 Si / 1000 Ang^3
#
#
#
# Elastic Constant Matrix: (Units=GPa)
#
#
# Indices 1 2 3 4 5 6 
#
# 1 78.1420 3.5580 21.4426 0.0000 0.0000 0.0000
# 2 3.5580 109.6371 17.4129 0.0000 0.0000 0.0000
# 3 21.4426 17.4129 68.4509 0.0000 0.0000 0.0000
# 4 0.0000 0.0000 0.0000 27.8661 0.0000 0.0000
# 5 0.0000 0.0000 0.0000 0.0000 15.6920 0.0000
# 6 0.0000 0.0000 0.0000 0.0000 0.0000 12.2588
#
#
#
# Elastic Compliance Matrix: (Units=1/GPa)
#
#
# Indices 1 2 3 4 5 6 
#
# 1 0.014007 0.000253 -0.004452 0.000000 0.000000 0.000000
# 2 0.000253 0.009510 -0.002498 0.000000 0.000000 0.000000
# 3 -0.004452 -0.002498 0.016639 0.000000 0.000000 0.000000
# 4 0.000000 0.000000 0.000000 0.035886 0.000000 0.000000
# 5 0.000000 0.000000 0.000000 0.000000 0.063727 0.000000
# 6 0.000000 0.000000 0.000000 0.000000 0.000000 0.081574
#
#
# Mechanical properties :
#
#
# Convention : Reuss Voigt Hill
#
# Bulk Modulus (GPa) = 37.36844 37.89521 37.63183
# Shear Modulus (GPa) = 20.52051 25.41781 22.96916
#
# Velocity S-wave (km/s) = 3.41210 3.79749 3.60994
# Velocity P-wave (km/s) = 6.06007 6.38184 6.22303
#
# Compressibility (1/GPa) = 0.02676055
#
# Stress axis : x y z
#
# Youngs Moduli (GPa) = 71.39082 105.15716 60.09912
#
# Poissons Ratio (x) = -0.02656 0.26757
# Poissons Ratio (y) = -0.01803 0.15014
# Poissons Ratio (z) = 0.31784 0.26270
#
# Static dielectric constant tensor:
#      x y z
#    x 3.325500 0.000000 0.000000 
#    y 0.000000 3.865320 0.000000 
#    z 0.000000 0.000000 3.205630 
# 
# 
# High freq. dielectric constant tensor:
#      x y z
#    x 1.669750 0.000000 0.000000 
#    y 0.000000 1.669270 0.000000 
#    z 0.000000 0.000000 1.662530 
# 
# From -- ./inp_files/39402.got.cif
#   From: 2010.06.25/outbox.cif.g09.slc.cpg/sg52_20_cif.got.tgz:39402.got - 2010.06.26 19:32:48.
