data_PCOD8214728
_publ_section_title
;
Structure prediction by ZEFSAII (Michael W. Deem and Ramdas Pophale) SiO2 
 PCOD8214728
Probable space group: P M M A
;
_chemical_formula_sum "Si O2"
_cell_formula_units_Z 48
_cell_length_a 9.316135
_cell_length_b 10.021363
_cell_length_c 31.271831
_cell_angle_alpha 90.000000
_cell_angle_beta 90.000000
_cell_angle_gamma 90.000000
_cell_volume 2919.549731
_symmetry_space_group_name_H-M "P M M A"
_symmetry_group_IT_number 51
_symmetry_cell_setting 'orthorhombic'
loop_
_space_group_symop_operation_xyz
x,y,z
1/2-x,-y,z
1/2+x,-y,-z
-x,y,-z
-x,-y,-z
1/2+x,y,-z
1/2-x,y,z
x,-y,z
loop_
_atom_site_type_symbol
_atom_site_label
_atom_site_fract_x
_atom_site_fract_y
_atom_site_fract_z
Si Si1 0.591448 0.841395 0.038818
Si Si2 0.590095 0.341387 0.297645
Si Si3 0.578369 0.850831 0.132682
Si Si4 0.578915 0.351079 0.203228
Si Si5 0.411991 0.659168 0.377316
Si Si6 0.413006 0.341007 0.540969
O O1 0.750000 0.779831 0.034585
O O2 0.525107 0.805040 0.085417
O O3 0.598846 0.000000 0.034921
O O4 0.500000 0.779103 0.000000
O O5 0.750000 0.282986 0.305759
O O6 0.598481 0.500000 0.300161
O O7 0.532417 0.300641 0.250523
O O8 0.482518 0.285124 0.333612
O O9 0.750000 0.850510 0.132717
O O10 0.514783 0.749577 0.167915
O O11 0.522501 0.000000 0.143289
O O12 0.750000 0.353911 0.201288
O O13 0.518892 0.500000 0.194179
O O14 0.250000 0.714592 0.381026
O O15 0.410505 0.500000 0.377290
O O16 0.505999 0.712572 0.416933
O O17 0.500000 0.286962 0.500000
O O18 0.250000 0.285707 0.540132
O O19 0.410319 0.500000 0.540730
#
# Coordination Sequence:
#
# PCOD8214728 Si02
#       6
#     8   8   8   8   8   8
#     4   8  13  21  34  52  72  93 118 148 180 214
#     4   8  13  21  32  45  60  79 106 140 174 207
#     4   8  13  21  34  53  74  93 116 149 185 217
#     4   8  13  21  34  51  69  90 118 150 182 218
#     4   9  15  21  29  41  57  78 106 140 176 213
#     4   9  15  21  28  38  54  77 106 141 180 219
#
# _framework density 16.440891000000001
#
# number of rings (size 3 to 8) (size 9 to 14) (size 15 to 20)
#    0.000    3.667    0.000    3.000    0.000    4.000 
#    0.000    0.000    0.000    1.500    0.000    0.000 
#    0.000    0.000    0.000    0.000    0.000    0.833 
#
# Total GULP energy -594748.973972 kJ/mol
# GULP energy per Si atom -12390.603624 kJ/mol
# Density = 1.640347 g / cm^3
# Si number density = 16.440891 Si / 1000 Ang^3
#
#
#
# Elastic Constant Matrix: (Units=GPa)
#
#
# Indices 1 2 3 4 5 6 
#
# 1 84.5613 15.1439 66.1894 0.0000 0.0000 0.0000
# 2 15.1439 27.1497 40.1597 0.0000 0.0000 0.0000
# 3 66.1894 40.1597 183.0621 0.0000 0.0000 0.0000
# 4 0.0000 0.0000 0.0000 4.6226 0.0000 0.0000
# 5 0.0000 0.0000 0.0000 0.0000 25.4021 0.0000
# 6 0.0000 0.0000 0.0000 0.0000 0.0000 3.6133
#
#
#
# Elastic Compliance Matrix: (Units=1/GPa)
#
#
# Indices 1 2 3 4 5 6 
#
# 1 0.016499 -0.000561 -0.005843 0.000000 0.000000 0.000000
# 2 -0.000561 0.054546 -0.011763 0.000000 0.000000 0.000000
# 3 -0.005843 -0.011763 0.010156 0.000000 0.000000 0.000000
# 4 0.000000 0.000000 0.000000 0.216328 0.000000 0.000000
# 5 0.000000 0.000000 0.000000 0.000000 0.039367 0.000000
# 6 0.000000 0.000000 0.000000 0.000000 0.000000 0.276753
#
#
# Mechanical properties :
#
#
# Convention : Reuss Voigt Hill
#
# Bulk Modulus (GPa) = 22.28793 59.75102 41.01947
# Shear Modulus (GPa) = 7.51950 18.27961 12.89955
#
# Velocity S-wave (km/s) = 2.14093 3.33804 2.80411
# Velocity P-wave (km/s) = 4.43816 7.16090 5.95717
#
# Compressibility (1/GPa) = 0.04486733
#
# Stress axis : x y z
#
# Youngs Moduli (GPa) = 60.60816 18.33320 98.46649
#
# Poissons Ratio (x) = 0.01028 0.57530
# Poissons Ratio (y) = 0.03400 1.15829
# Poissons Ratio (z) = 0.35411 0.21566
#
# Static dielectric constant tensor:
#      x y z
#    x 3.021580 0.000000 0.000000 
#    y 0.000000 2.540420 0.000000 
#    z 0.000000 0.000000 3.543420 
# 
# 
# High freq. dielectric constant tensor:
#      x y z
#    x 1.603540 0.000000 0.000000 
#    y 0.000000 1.547270 0.000000 
#    z 0.000000 0.000000 1.654860 
# 
# From -- ./inp_files/37310.got.cif
#   From: 2010.03.12/outbox.cif.g09.slc.cpg/sg51_19_cif.got.tgz:37310.got - 2010.04.16 13:43:02.
