data_PCOD8214369
_publ_section_title
;
Structure prediction by ZEFSAII (Michael W. Deem and Ramdas Pophale) SiO2 
 PCOD8214369
Probable space group: P M M A
;
_chemical_formula_sum "Si O2"
_cell_formula_units_Z 48
_cell_length_a 8.682265
_cell_length_b 31.164744
_cell_length_c 8.998957
_cell_angle_alpha 90.000000
_cell_angle_beta 90.000000
_cell_angle_gamma 90.000000
_cell_volume 2434.942879
_symmetry_space_group_name_H-M "P M M A"
_symmetry_group_IT_number 51
_symmetry_cell_setting 'orthorhombic'
loop_
_space_group_symop_operation_xyz
x,y,z
1/2-x,-y,z
1/2+x,-y,-z
-x,y,-z
-x,-y,-z
1/2+x,y,-z
1/2-x,y,z
x,-y,z
loop_
_atom_site_type_symbol
_atom_site_label
_atom_site_fract_x
_atom_site_fract_y
_atom_site_fract_z
Si Si1 0.566846 0.746977 0.338450
Si Si2 0.567216 0.420259 0.336909
Si Si3 0.930617 0.000000 0.660477
Si Si4 0.932922 0.500000 0.836884
Si Si5 0.567351 0.825177 0.838115
Si Si6 0.569127 0.336146 0.161217
Si Si7 0.431799 0.907501 0.336859
O O1 0.500000 0.738271 0.500000
O O2 0.750000 0.750543 0.346283
O O3 0.497042 0.790430 0.275068
O O4 0.510962 0.707902 0.234863
O O5 0.500000 0.421313 0.500000
O O6 0.750000 0.426210 0.340645
O O7 0.491642 0.458092 0.245150
O O8 0.516174 0.375582 0.263219
O O9 0.981624 0.045644 0.733731
O O10 0.000000 0.000000 0.500000
O O11 0.750000 0.000000 0.644093
O O12 0.750000 0.500000 0.842402
O O13 0.000000 0.500000 0.000000
O O14 0.750000 0.821660 0.845740
O O15 0.510452 0.871414 0.777629
O O16 0.500000 0.817075 0.000000
O O17 0.750000 0.335482 0.143778
O O18 0.500000 0.341763 0.000000
O O19 0.500000 0.899777 0.500000
O O20 0.250000 0.904437 0.355783
#
# Coordination Sequence:
#
# PCOD8214369 Si02
#       7
#     8   8   4   4   8   8   8
#     4  11  23  40  61  87 115 148 188 233 281 335
#     4  11  23  41  63  90 121 157 198 242 289 340
#     4   8  14  28  49  74 102 134 172 220 271 324
#     4  12  25  42  63  90 122 158 198 244 293 346
#     4  11  23  38  55  79 110 147 186 230 280 335
#     4  10  23  40  61  88 119 153 192 235 284 337
#     4   9  18  32  53  78 105 137 178 224 274 328
#
# _framework density 19.712989
#
# number of rings (size 3 to 8) (size 9 to 14) (size 15 to 20)
#    0.000    1.667    0.000    4.500    0.000    8.000 
#    0.000    0.417    0.000    0.000    0.000    0.000 
#    0.000    0.000    0.000    0.000    0.000    0.000 
#
# Total GULP energy -595122.707297 kJ/mol
# GULP energy per Si atom -12398.389735 kJ/mol
# Density = 1.966812 g / cm^3
# Si number density = 19.712989 Si / 1000 Ang^3
#
#
#
# Elastic Constant Matrix: (Units=GPa)
#
#
# Indices 1 2 3 4 5 6 
#
# 1 70.6822 51.8729 41.9359 0.0000 0.0000 0.0000
# 2 51.8729 159.7008 57.7613 0.0000 0.0000 0.0000
# 3 41.9359 57.7613 134.0094 0.0000 0.0000 0.0000
# 4 0.0000 0.0000 0.0000 31.7463 0.0000 0.0000
# 5 0.0000 0.0000 0.0000 0.0000 37.0656 0.0000
# 6 0.0000 0.0000 0.0000 0.0000 0.0000 33.1760
#
#
#
# Elastic Compliance Matrix: (Units=1/GPa)
#
#
# Indices 1 2 3 4 5 6 
#
# 1 0.020373 -0.005108 -0.004174 0.000000 0.000000 0.000000
# 2 -0.005108 0.008699 -0.002151 0.000000 0.000000 0.000000
# 3 -0.004174 -0.002151 0.009695 0.000000 0.000000 0.000000
# 4 0.000000 0.000000 0.000000 0.031500 0.000000 0.000000
# 5 0.000000 0.000000 0.000000 0.000000 0.026979 0.000000
# 6 0.000000 0.000000 0.000000 0.000000 0.000000 0.030142
#
#
# Mechanical properties :
#
#
# Convention : Reuss Voigt Hill
#
# Bulk Modulus (GPa) = 62.88561 74.17030 68.52795
# Shear Modulus (GPa) = 32.14330 34.58573 33.36452
#
# Velocity S-wave (km/s) = 4.04241 4.19318 4.11848
# Velocity P-wave (km/s) = 7.33198 7.81987 7.57985
#
# Compressibility (1/GPa) = 0.01590189
#
# Stress axis : x y z
#
# Youngs Moduli (GPa) = 49.08553 114.95903 103.14197
#
# Poissons Ratio (x) = 0.58718 0.43048
# Poissons Ratio (y) = 0.25072 0.22186
# Poissons Ratio (z) = 0.20487 0.24728
#
# Static dielectric constant tensor:
#      x y z
#    x 3.862060 0.000000 0.000000 
#    y 0.000000 4.326950 0.000000 
#    z 0.000000 0.000000 3.539160 
# 
# 
# High freq. dielectric constant tensor:
#      x y z
#    x 1.772330 0.000000 0.000000 
#    y 0.000000 1.797250 0.000000 
#    z 0.000000 0.000000 1.765570 
# 
# From -- ./inp_files/6171.got.cif
#   From: 2010.03.12/outbox.cif.g09.slc.cpg/sg51_4_cif.got.tgz:6171.got - 2010.04.16 13:43:02.
