data_PCOD8214015
_publ_section_title
;
Structure prediction by ZEFSAII (Michael W. Deem and Ramdas Pophale) SiO2 
 PCOD8214015
Probable space group: P M M A
;
_chemical_formula_sum "Si O2"
_cell_formula_units_Z 48
_cell_length_a 18.995730
_cell_length_b 8.608436
_cell_length_c 14.944019
_cell_angle_alpha 90.000000
_cell_angle_beta 90.000000
_cell_angle_gamma 90.000000
_cell_volume 2443.698679
_symmetry_space_group_name_H-M "P M M A"
_symmetry_group_IT_number 51
_symmetry_cell_setting 'orthorhombic'
loop_
_space_group_symop_operation_xyz
x,y,z
1/2-x,-y,z
1/2+x,-y,-z
-x,y,-z
-x,-y,-z
1/2+x,y,-z
1/2-x,y,z
x,-y,z
loop_
_atom_site_type_symbol
_atom_site_label
_atom_site_fract_x
_atom_site_fract_y
_atom_site_fract_z
Si Si1 0.423670 0.680817 0.535007
Si Si2 0.328748 0.816550 0.876648
Si Si3 0.168134 0.820728 0.383849
Si Si4 0.076789 0.681947 0.026535
Si Si5 0.931733 0.182273 0.278851
Si Si6 0.419558 0.680795 0.232393
O O1 0.500000 0.733776 0.500000
O O2 0.423014 0.500000 0.559576
O O3 0.366592 0.714487 0.459327
O O4 0.403284 0.780104 0.622325
O O5 0.250000 0.746409 0.869543
O O6 0.373993 0.757890 0.792104
O O7 0.325201 0.000000 0.876145
O O8 0.363274 0.763217 0.968978
O O9 0.250000 0.782415 0.381605
O O10 0.136730 0.780102 0.287162
O O11 0.153033 0.000000 0.405741
O O12 0.079445 0.500000 0.007011
O O13 0.091927 0.722687 0.129107
O O14 0.000000 0.748167 0.000000
O O15 0.002201 0.278327 0.262852
O O16 0.946895 0.000000 0.268325
O O17 0.407085 0.500000 0.251523
#
# Coordination Sequence:
#
# PCOD8214015 Si02
#       6
#     8   8   8   8   8   8
#     4  11  23  39  63  93 123 158 201 249 299 359
#     4  10  23  41  60  88 125 160 198 248 302 356
#     4  11  25  43  63  90 124 160 200 249 303 359
#     4  10  21  38  61  89 121 157 202 250 298 355
#     4  11  22  37  62  91 121 159 204 251 300 357
#     4  11  22  38  62  90 121 158 203 252 300 358
#
# _framework density 19.642355999999999
#
# number of rings (size 3 to 8) (size 9 to 14) (size 15 to 20)
#    0.000    1.333    3.333    2.000    0.000    6.000 
#    0.000    5.000    0.000    0.000    0.000    0.000 
#    0.000    0.000    0.000    0.000    0.000    0.000 
#
# Total GULP energy -595510.123295 kJ/mol
# GULP energy per Si atom -12406.460902 kJ/mol
# Density = 1.959765 g / cm^3
# Si number density = 19.642356 Si / 1000 Ang^3
#
#
#
# Elastic Constant Matrix: (Units=GPa)
#
#
# Indices 1 2 3 4 5 6 
#
# 1 133.5281 24.5591 60.6648 0.0000 0.0000 0.0000
# 2 24.5591 26.6534 20.9960 0.0000 0.0000 0.0000
# 3 60.6648 20.9960 128.4251 0.0000 0.0000 0.0000
# 4 0.0000 0.0000 0.0000 30.8937 0.0000 0.0000
# 5 0.0000 0.0000 0.0000 0.0000 32.5687 0.0000
# 6 0.0000 0.0000 0.0000 0.0000 0.0000 19.2929
#
#
#
# Elastic Compliance Matrix: (Units=1/GPa)
#
#
# Indices 1 2 3 4 5 6 
#
# 1 0.010456 -0.006593 -0.003861 0.000000 0.000000 0.000000
# 2 -0.006593 0.047222 -0.004606 0.000000 0.000000 0.000000
# 3 -0.003861 -0.004606 0.010364 0.000000 0.000000 0.000000
# 4 0.000000 0.000000 0.000000 0.032369 0.000000 0.000000
# 5 0.000000 0.000000 0.000000 0.000000 0.030704 0.000000
# 6 0.000000 0.000000 0.000000 0.000000 0.000000 0.051833
#
#
# Mechanical properties :
#
#
# Convention : Reuss Voigt Hill
#
# Bulk Modulus (GPa) = 26.37039 55.67182 41.02111
# Shear Modulus (GPa) = 22.15260 28.71017 25.43138
#
# Velocity S-wave (km/s) = 3.36191 3.82730 3.60213
# Velocity P-wave (km/s) = 5.34082 6.92352 6.18302
#
# Compressibility (1/GPa) = 0.03792131
#
# Stress axis : x y z
#
# Youngs Moduli (GPa) = 95.64014 21.17678 96.49115
#
# Poissons Ratio (x) = 0.13961 0.37258
# Poissons Ratio (y) = 0.63051 0.44444
# Poissons Ratio (z) = 0.36929 0.09754
#
# Static dielectric constant tensor:
#      x y z
#    x 3.689380 0.000000 0.000000 
#    y 0.000000 3.487850 0.000000 
#    z 0.000000 0.000000 3.910900 
# 
# 
# High freq. dielectric constant tensor:
#      x y z
#    x 1.762920 0.000000 0.000000 
#    y 0.000000 1.765550 0.000000 
#    z 0.000000 0.000000 1.780930 
# 
# From -- ./inp_files/24751.got.cif
#   From: 2010.03.12/outbox.cif.g09.slc.cpg/sg51_13_cif.got.tgz:24751.got - 2010.04.16 13:43:02.
