data_PCOD8215897
_publ_section_title
;
Structure prediction by ZEFSAII (Michael W. Deem and Ramdas Pophale) SiO2 
 PCOD8215897
Probable space group: P N N A
;
_chemical_formula_sum "Si O2"
_cell_formula_units_Z 40
_cell_length_a 8.773064
_cell_length_b 10.915126
_cell_length_c 19.353289
_cell_angle_alpha 90.000000
_cell_angle_beta 90.000000
_cell_angle_gamma 90.000000
_cell_volume 1853.253517
_symmetry_space_group_name_H-M "P N N A"
_symmetry_group_IT_number 52
_symmetry_cell_setting 'orthorhombic'
loop_
_space_group_symop_operation_xyz
x,y,z
1/2-x,-y,z
x,1/2-y,1/2-z
1/2-x,1/2+y,1/2-z
-x,-y,-z
1/2+x,y,-z
-x,1/2+y,1/2+z
1/2+x,1/2-y,1/2+z
loop_
_atom_site_type_symbol
_atom_site_label
_atom_site_fract_x
_atom_site_fract_y
_atom_site_fract_z
Si Si1 0.750000 0.500000 0.552338
Si Si2 0.325133 0.874384 0.636824
Si Si3 0.920296 0.685759 0.632433
Si Si4 0.635465 0.750000 0.250000
Si Si5 0.340758 0.243293 0.974874
Si Si6 0.169025 0.627859 0.115120
O O1 0.879275 0.551344 0.604069
O O2 0.680819 0.606825 0.504788
O O3 0.241410 0.843057 0.708462
O O4 0.298708 0.772407 0.577275
O O5 0.504774 0.881681 0.651697
O O6 0.250000 0.000000 0.609612
O O7 0.769571 0.764849 0.650577
O O8 0.028293 0.671125 0.698712
O O9 0.004130 0.755210 0.569120
O O10 0.351749 0.344552 0.034211
O O11 0.250000 0.500000 0.127215
#
# Coordination Sequence:
#
# PCOD8215897 Si02
#       6
#     4   8   8   4   8   8
#     4  10  20  38  66 104 126 166 214 266 332 374
#     4  11  24  44  63  92 129 173 215 260 329 388
#     4  10  22  40  62  93 131 165 219 262 316 380
#     4  10  24  48  58  86 128 180 220 262 312 390
#     4  10  21  39  66  97 135 162 207 266 331 388
#     4  11  21  37  66  97 124 161 210 273 325 374
#
# _framework density 21.583663000000001
#
# number of rings (size 3 to 8) (size 9 to 14) (size 15 to 20)
#    0.000    1.600    0.000    6.000    0.000    4.800 
#   19.800    0.000    0.000    0.000    0.000    0.000 
#    0.000    0.000    0.000    0.000    0.000    0.000 
#
# Total GULP energy -496062.742802 kJ/mol
# GULP energy per Si atom -12401.568570 kJ/mol
# Density = 2.153454 g / cm^3
# Si number density = 21.583663 Si / 1000 Ang^3
#
#
#
# Elastic Constant Matrix: (Units=GPa)
#
#
# Indices 1 2 3 4 5 6 
#
# 1 171.6461 56.4756 60.7361 0.0000 0.0000 0.0000
# 2 56.4756 116.9112 41.3887 0.0000 0.0000 0.0000
# 3 60.7361 41.3887 119.5578 0.0000 0.0000 0.0000
# 4 0.0000 0.0000 0.0000 22.6858 0.0000 0.0000
# 5 0.0000 0.0000 0.0000 0.0000 28.5545 0.0000
# 6 0.0000 0.0000 0.0000 0.0000 0.0000 38.9842
#
#
#
# Elastic Compliance Matrix: (Units=1/GPa)
#
#
# Indices 1 2 3 4 5 6 
#
# 1 0.007780 -0.002688 -0.003021 0.000000 0.000000 0.000000
# 2 -0.002688 0.010677 -0.002331 0.000000 0.000000 0.000000
# 3 -0.003021 -0.002331 0.010706 0.000000 0.000000 0.000000
# 4 0.000000 0.000000 0.000000 0.044080 0.000000 0.000000
# 5 0.000000 0.000000 0.000000 0.000000 0.035021 0.000000
# 6 0.000000 0.000000 0.000000 0.000000 0.000000 0.025651
#
#
# Mechanical properties :
#
#
# Convention : Reuss Voigt Hill
#
# Bulk Modulus (GPa) = 76.44111 80.59065 78.51588
# Shear Modulus (GPa) = 32.39253 34.67922 33.53588
#
# Velocity S-wave (km/s) = 3.87821 4.01276 3.94606
# Velocity P-wave (km/s) = 7.45299 7.67394 7.56427
#
# Compressibility (1/GPa) = 0.01308197
#
# Stress axis : x y z
#
# Youngs Moduli (GPa) = 128.54133 93.65737 93.40706
#
# Poissons Ratio (x) = 0.25179 0.28222
# Poissons Ratio (y) = 0.34557 0.21769
# Poissons Ratio (z) = 0.38838 0.21827
#
# Static dielectric constant tensor:
#      x y z
#    x 4.101900 0.000000 0.000000 
#    y 0.000000 3.785870 0.000000 
#    z 0.000000 0.000000 3.796580 
# 
# 
# High freq. dielectric constant tensor:
#      x y z
#    x 1.862520 0.000000 0.000000 
#    y 0.000000 1.839470 0.000000 
#    z 0.000000 0.000000 1.838130 
# 
# From -- ./inp_files/30930.got.cif
#   From: 2010.06.25/outbox.cif.g09.slc.cpg/sg52_16_cif.got.tgz:30930.got - 2010.06.26 19:32:48.
