data_PCOD8215939
_publ_section_title
;
Structure prediction by ZEFSAII (Michael W. Deem and Ramdas Pophale) SiO2 
 PCOD8215939
Probable space group: P N N A
;
_chemical_formula_sum "Si O2"
_cell_formula_units_Z 52
_cell_length_a 10.978551
_cell_length_b 8.633089
_cell_length_c 27.224219
_cell_angle_alpha 90.000000
_cell_angle_beta 90.000000
_cell_angle_gamma 90.000000
_cell_volume 2580.279022
_symmetry_space_group_name_H-M "P N N A"
_symmetry_group_IT_number 52
_symmetry_cell_setting 'orthorhombic'
loop_
_space_group_symop_operation_xyz
x,y,z
1/2-x,-y,z
x,1/2-y,1/2-z
1/2-x,1/2+y,1/2-z
-x,-y,-z
1/2+x,y,-z
-x,1/2+y,1/2+z
1/2+x,1/2-y,1/2+z
loop_
_atom_site_type_symbol
_atom_site_label
_atom_site_fract_x
_atom_site_fract_y
_atom_site_fract_z
Si Si1 0.896787 0.663957 0.097055
Si Si2 0.943015 0.161190 0.981265
Si Si3 0.383895 0.181720 0.577742
Si Si4 0.007457 0.206641 0.806431
Si Si5 0.250000 0.500000 0.433048
Si Si6 0.960388 0.900047 0.861236
Si Si7 0.238106 0.315185 0.300103
O O1 0.761163 0.688663 0.077519
O O2 0.935094 0.485458 0.092561
O O3 0.906961 0.704305 0.155025
O O4 0.983095 0.774603 0.065367
O O5 0.798797 0.139464 0.967438
O O6 0.942708 0.285517 0.024774
O O7 0.000000 0.000000 0.000000
O O8 0.425070 0.313073 0.616123
O O9 0.047691 0.250000 0.750000
O O10 0.867252 0.262781 0.813824
O O11 0.011268 0.023398 0.820790
O O12 0.126168 0.474423 0.402683
O O13 0.870063 0.772192 0.837313
O O14 0.250000 0.500000 0.298835
O O15 0.188165 0.250000 0.250000
#
# Coordination Sequence:
#
# PCOD8215939 Si02
#       7
#     8   8   8   8   4   8   8
#     4  11  24  46  59  90 135 164 214 272 316 377
#     4  12  22  40  69  90 122 168 210 263 323 388
#     4  11  26  40  62  92 129 173 213 260 323 386
#     4  10  20  39  66  90 124 172 215 263 323 374
#     4  12  20  38  62  94 122 150 218 258 314 382
#     4  11  20  39  61  93 126 163 214 261 312 384
#     4   9  18  33  57  88 121 155 203 259 314 370
#
# _framework density 20.15286
#
# number of rings (size 3 to 8) (size 9 to 14) (size 15 to 20)
#    0.000    1.231    5.385    1.385    0.000    5.538 
#    0.000    5.385    0.000    0.000    0.000    0.000 
#    0.000    0.000    0.000    0.000    0.000    0.000 
#
# Total GULP energy -644269.768623 kJ/mol
# GULP energy per Si atom -12389.803243 kJ/mol
# Density = 2.010699 g / cm^3
# Si number density = 20.152860 Si / 1000 Ang^3
#
#
#
# Elastic Constant Matrix: (Units=GPa)
#
#
# Indices 1 2 3 4 5 6 
#
# 1 60.2256 37.5822 29.3430 0.0000 0.0000 0.0000
# 2 37.5822 86.8331 45.1888 0.0000 0.0000 0.0000
# 3 29.3430 45.1888 125.9713 0.0000 0.0000 0.0000
# 4 0.0000 0.0000 0.0000 33.6966 0.0000 0.0000
# 5 0.0000 0.0000 0.0000 0.0000 10.7040 0.0000
# 6 0.0000 0.0000 0.0000 0.0000 0.0000 39.8867
#
#
#
# Elastic Compliance Matrix: (Units=1/GPa)
#
#
# Indices 1 2 3 4 5 6 
#
# 1 0.023242 -0.008904 -0.002220 0.000000 0.000000 0.000000
# 2 -0.008904 0.017571 -0.004229 0.000000 0.000000 0.000000
# 3 -0.002220 -0.004229 0.009972 0.000000 0.000000 0.000000
# 4 0.000000 0.000000 0.000000 0.029677 0.000000 0.000000
# 5 0.000000 0.000000 0.000000 0.000000 0.093423 0.000000
# 6 0.000000 0.000000 0.000000 0.000000 0.000000 0.025071
#
#
# Mechanical properties :
#
#
# Convention : Reuss Voigt Hill
#
# Bulk Modulus (GPa) = 49.80182 55.25088 52.52635
# Shear Modulus (GPa) = 21.15458 27.58521 24.36990
#
# Velocity S-wave (km/s) = 3.24343 3.70374 3.48120
# Velocity P-wave (km/s) = 6.22833 6.76503 6.50222
#
# Compressibility (1/GPa) = 0.02007959
#
# Stress axis : x y z
#
# Youngs Moduli (GPa) = 43.02513 56.91186 100.27668
#
# Poissons Ratio (x) = 0.50676 0.22259
# Poissons Ratio (y) = 0.38311 0.42407
# Poissons Ratio (z) = 0.09550 0.24068
#
# Static dielectric constant tensor:
#      x y z
#    x 3.663780 0.000000 0.000000 
#    y 0.000000 3.279970 0.000000 
#    z 0.000000 0.000000 3.270840 
# 
# 
# High freq. dielectric constant tensor:
#      x y z
#    x 1.781290 0.000000 0.000000 
#    y 0.000000 1.771060 0.000000 
#    z 0.000000 0.000000 1.800470 
# 
# From -- ./inp_files/42739.got.cif
#   From: 2010.06.25/outbox.cif.g09.slc.cpg/sg52_22_cif.got.tgz:42739.got - 2010.06.26 19:32:48.
