data_PCOD8215398
_publ_section_title
;
Structure prediction by ZEFSAII (Michael W. Deem and Ramdas Pophale) SiO2 
 PCOD8215398
Probable space group: P N N A
;
_chemical_formula_sum "Si O2"
_cell_formula_units_Z 52
_cell_length_a 5.353141
_cell_length_b 18.883847
_cell_length_c 25.318502
_cell_angle_alpha 90.000000
_cell_angle_beta 90.000000
_cell_angle_gamma 90.000000
_cell_volume 2559.394087
_symmetry_space_group_name_H-M "P N N A"
_symmetry_group_IT_number 52
_symmetry_cell_setting 'orthorhombic'
loop_
_space_group_symop_operation_xyz
x,y,z
1/2-x,-y,z
x,1/2-y,1/2-z
1/2-x,1/2+y,1/2-z
-x,-y,-z
1/2+x,y,-z
-x,1/2+y,1/2+z
1/2+x,1/2-y,1/2+z
loop_
_atom_site_type_symbol
_atom_site_label
_atom_site_fract_x
_atom_site_fract_y
_atom_site_fract_z
Si Si1 0.415213 0.116215 0.131993
Si Si2 0.250000 0.000000 0.836570
Si Si3 0.142342 0.202269 0.300500
Si Si4 0.683382 0.198178 0.480883
Si Si5 0.872441 0.925291 0.769691
Si Si6 0.641562 0.261866 0.137591
Si Si7 0.688856 0.356720 0.524593
O O1 0.545484 0.038833 0.126529
O O2 0.291258 0.120750 0.189449
O O3 0.619258 0.178065 0.127127
O O4 0.206015 0.127345 0.086994
O O5 0.135268 0.939853 0.798367
O O6 0.192786 0.250000 0.250000
O O7 0.099174 0.120670 0.283195
O O8 0.386038 0.207297 0.337548
O O9 0.886854 0.226497 0.327766
O O10 0.434070 0.157103 0.500459
O O11 0.684846 0.201379 0.418175
O O12 0.685520 0.273146 0.512363
O O13 0.750000 0.000000 0.754269
O O14 0.432948 0.391654 0.503309
#
# Coordination Sequence:
#
# PCOD8215398 Si02
#       7
#     8   4   8   8   8   8   8
#     4  11  22  39  60  86 116 166 213 255 305 366
#     4  10  24  40  64  76 116 170 222 246 296 370
#     4  12  25  38  60  96 124 159 206 266 312 367
#     4  10  19  35  56  85 119 168 190 244 323 367
#     4  10  24  43  64  84 123 170 211 250 313 372
#     4  12  24  36  63  90 130 153 208 261 313 365
#     4  10  21  33  58  80 114 159 202 252 312 347
#
# _framework density 20.317307
#
# number of rings (size 3 to 8) (size 9 to 14) (size 15 to 20)
#    0.000    1.231    4.615    2.308    8.615    0.000 
#    0.000    0.769    0.000    0.000    0.000    0.000 
#    0.000   12.308    0.000    0.000    0.000    0.000 
#
# Total GULP energy -644618.419249 kJ/mol
# GULP energy per Si atom -12396.508062 kJ/mol
# Density = 2.027106 g / cm^3
# Si number density = 20.317307 Si / 1000 Ang^3
#
#
#
# Elastic Constant Matrix: (Units=GPa)
#
#
# Indices 1 2 3 4 5 6 
#
# 1 131.6594 2.8991 18.1224 0.0000 0.0000 0.0000
# 2 2.8991 39.1335 20.2133 0.0000 0.0000 0.0000
# 3 18.1224 20.2133 69.9302 0.0000 0.0000 0.0000
# 4 0.0000 0.0000 0.0000 15.8276 0.0000 0.0000
# 5 0.0000 0.0000 0.0000 0.0000 33.0889 0.0000
# 6 0.0000 0.0000 0.0000 0.0000 0.0000 19.5912
#
#
#
# Elastic Compliance Matrix: (Units=1/GPa)
#
#
# Indices 1 2 3 4 5 6 
#
# 1 0.007887 0.000554 -0.002204 0.000000 0.000000 0.000000
# 2 0.000554 0.030077 -0.008837 0.000000 0.000000 0.000000
# 3 -0.002204 -0.008837 0.017426 0.000000 0.000000 0.000000
# 4 0.000000 0.000000 0.000000 0.063181 0.000000 0.000000
# 5 0.000000 0.000000 0.000000 0.000000 0.030222 0.000000
# 6 0.000000 0.000000 0.000000 0.000000 0.000000 0.051043
#
#
# Mechanical properties :
#
#
# Convention : Reuss Voigt Hill
#
# Bulk Modulus (GPa) = 29.05724 35.91030 32.48377
# Shear Modulus (GPa) = 21.52562 27.00074 24.26318
#
# Velocity S-wave (km/s) = 3.25848 3.64944 3.45949
# Velocity P-wave (km/s) = 5.33758 5.95575 5.65512
#
# Compressibility (1/GPa) = 0.03441484
#
# Stress axis : x y z
#
# Youngs Moduli (GPa) = 126.79860 33.24778 57.38691
#
# Poissons Ratio (x) = -0.01842 0.12648
# Poissons Ratio (y) = -0.07027 0.50715
# Poissons Ratio (z) = 0.27946 0.29382
#
# Static dielectric constant tensor:
#      x y z
#    x 4.617820 0.000000 0.000000 
#    y 0.000000 3.351050 0.000000 
#    z 0.000000 0.000000 3.683580 
# 
# 
# High freq. dielectric constant tensor:
#      x y z
#    x 1.823250 0.000000 0.000000 
#    y 0.000000 1.736410 0.000000 
#    z 0.000000 0.000000 1.789640 
# 
# From -- ./inp_files/35178.got.cif
#   From: 2010.06.25/outbox.cif.g09.slc.cpg/sg52_18_cif.got.tgz:35178.got - 2010.06.26 19:32:48.
