data_PCOD8215735
_publ_section_title
;
Structure prediction by ZEFSAII (Michael W. Deem and Ramdas Pophale) SiO2 
 PCOD8215735
Probable space group: P N N A
;
_chemical_formula_sum "Si O2"
_cell_formula_units_Z 48
_cell_length_a 28.538714
_cell_length_b 9.483535
_cell_length_c 9.191990
_cell_angle_alpha 90.000000
_cell_angle_beta 90.000000
_cell_angle_gamma 90.000000
_cell_volume 2487.792727
_symmetry_space_group_name_H-M "P N N A"
_symmetry_group_IT_number 52
_symmetry_cell_setting 'orthorhombic'
loop_
_space_group_symop_operation_xyz
x,y,z
1/2-x,-y,z
x,1/2-y,1/2-z
1/2-x,1/2+y,1/2-z
-x,-y,-z
1/2+x,y,-z
-x,1/2+y,1/2+z
1/2+x,1/2-y,1/2+z
loop_
_atom_site_type_symbol
_atom_site_label
_atom_site_fract_x
_atom_site_fract_y
_atom_site_fract_z
Si Si1 0.144751 0.530229 0.927087
Si Si2 0.317882 0.724236 0.079823
Si Si3 0.037170 0.580565 0.592416
Si Si4 0.765132 0.338429 0.107724
Si Si5 0.036938 0.897498 0.576899
Si Si6 0.877868 0.619200 0.346489
O O1 0.178854 0.667691 0.930571
O O2 0.089930 0.553311 0.945332
O O3 0.155439 0.460271 0.768997
O O4 0.160376 0.430042 0.057914
O O5 0.320255 0.750000 0.250000
O O6 0.264087 0.729124 0.025488
O O7 0.348472 0.834329 0.986619
O O8 0.038875 0.736422 0.520266
O O9 0.020655 0.597252 0.757244
O O10 0.084694 0.490648 0.589202
O O11 0.000000 0.500000 0.500000
O O12 0.750000 0.500000 0.131726
O O13 0.753142 0.250000 0.250000
O O14 0.000000 0.000000 0.500000
O O15 0.899996 0.750000 0.250000
#
# Coordination Sequence:
#
# PCOD8215735 Si02
#       6
#     8   8   8   8   8   8
#     4   9  20  38  62  82 119 155 203 249 285 353
#     4  10  20  36  59  88 123 159 192 241 304 362
#     4  10  23  37  61  91 118 154 202 247 298 359
#     4  10  20  37  63  90 114 153 203 245 293 348
#     4  10  23  41  61  87 121 158 196 248 304 350
#     4   9  19  37  61  87 118 159 205 247 295 351
#
# _framework density 19.294212000000002
#
# number of rings (size 3 to 8) (size 9 to 14) (size 15 to 20)
#    0.000    2.333    0.000    2.500   11.667    1.333 
#    0.000    7.500    3.667    0.000    0.000    0.000 
#    0.000    0.000    0.000    0.000    0.000    0.000 
#
# Total GULP energy -594664.250165 kJ/mol
# GULP energy per Si atom -12388.838545 kJ/mol
# Density = 1.925030 g / cm^3
# Si number density = 19.294212 Si / 1000 Ang^3
#
#
#
# Elastic Constant Matrix: (Units=GPa)
#
#
# Indices 1 2 3 4 5 6 
#
# 1 126.0759 62.6330 68.3125 0.0000 0.0000 0.0000
# 2 62.6330 110.6394 55.4485 0.0000 0.0000 0.0000
# 3 68.3125 55.4485 134.1023 0.0000 0.0000 0.0000
# 4 0.0000 0.0000 0.0000 23.8379 0.0000 0.0000
# 5 0.0000 0.0000 0.0000 0.0000 24.8436 0.0000
# 6 0.0000 0.0000 0.0000 0.0000 0.0000 33.0485
#
#
#
# Elastic Compliance Matrix: (Units=1/GPa)
#
#
# Indices 1 2 3 4 5 6 
#
# 1 0.012854 -0.005039 -0.004464 0.000000 0.000000 0.000000
# 2 -0.005039 0.013377 -0.002964 0.000000 0.000000 0.000000
# 3 -0.004464 -0.002964 0.010957 0.000000 0.000000 0.000000
# 4 0.000000 0.000000 0.000000 0.041950 0.000000 0.000000
# 5 0.000000 0.000000 0.000000 0.000000 0.040252 0.000000
# 6 0.000000 0.000000 0.000000 0.000000 0.000000 0.030259
#
#
# Mechanical properties :
#
#
# Convention : Reuss Voigt Hill
#
# Bulk Modulus (GPa) = 81.61748 82.62283 82.12016
# Shear Modulus (GPa) = 27.98505 28.64091 28.31298
#
# Velocity S-wave (km/s) = 3.81259 3.85701 3.83487
# Velocity P-wave (km/s) = 7.85968 7.92155 7.89067
#
# Compressibility (1/GPa) = 0.01225228
#
# Stress axis : x y z
#
# Youngs Moduli (GPa) = 77.79579 74.75774 91.26906
#
# Poissons Ratio (x) = 0.37673 0.40745
# Poissons Ratio (y) = 0.39204 0.27050
# Poissons Ratio (z) = 0.34730 0.22157
#
# Static dielectric constant tensor:
#      x y z
#    x 3.298770 0.000000 0.000000 
#    y 0.000000 3.629400 0.000000 
#    z 0.000000 0.000000 3.301560 
# 
# 
# High freq. dielectric constant tensor:
#      x y z
#    x 1.757360 0.000000 0.000000 
#    y 0.000000 1.756490 0.000000 
#    z 0.000000 0.000000 1.730990 
# 
# From -- ./inp_files/15542.got.cif
#   From: 2010.06.25/outbox.cif.g09.slc.cpg/sg52_8_cif.got.tgz:15542.got - 2010.06.26 19:32:48.
