data_PCOD8215952
_publ_section_title
;
Structure prediction by ZEFSAII (Michael W. Deem and Ramdas Pophale) SiO2 
 PCOD8215952
Probable space group: P N N A
;
_chemical_formula_sum "Si O2"
_cell_formula_units_Z 28
_cell_length_a 20.274756
_cell_length_b 5.032695
_cell_length_c 11.131377
_cell_angle_alpha 90.000000
_cell_angle_beta 90.000000
_cell_angle_gamma 90.000000
_cell_volume 1135.808565
_symmetry_space_group_name_H-M "P N N A"
_symmetry_group_IT_number 52
_symmetry_cell_setting 'orthorhombic'
loop_
_space_group_symop_operation_xyz
x,y,z
1/2-x,-y,z
x,1/2-y,1/2-z
1/2-x,1/2+y,1/2-z
-x,-y,-z
1/2+x,y,-z
-x,1/2+y,1/2+z
1/2+x,1/2-y,1/2+z
loop_
_atom_site_type_symbol
_atom_site_label
_atom_site_fract_x
_atom_site_fract_y
_atom_site_fract_z
Si Si1 0.960496 0.250000 0.250000
Si Si2 0.574526 0.992379 0.612535
Si Si3 0.821271 0.250000 0.750000
Si Si4 0.250000 0.000000 0.043945
Si Si5 0.108420 0.018417 0.963206
O O1 0.914191 0.063520 0.168865
O O2 0.004100 0.043973 0.326886
O O3 0.580371 0.197535 0.502955
O O4 0.630971 0.003897 0.717367
O O5 0.581137 0.694270 0.559800
O O6 0.774164 0.229580 0.865587
O O7 0.187619 0.063032 0.959952
#
# Coordination Sequence:
#
# PCOD8215952 Si02
#       5
#     4   8   4   4   8
#     4  12  24  45  68  97 138 180 218 278 346 406
#     4  11  24  42  66 101 130 171 228 278 338 397
#     4  10  20  39  74 103 134 174 220 296 338 388
#     4  10  20  40  64  98 130 168 222 266 334 402
#     4  11  26  42  67  97 134 177 223 280 332 409
#
# _framework density 24.652042000000002
#
# number of rings (size 3 to 8) (size 9 to 14) (size 15 to 20)
#    0.000    1.143    0.000    6.857    0.000    9.143 
#    0.000    2.857    0.000    0.000    0.000    0.000 
#    0.000    0.000    0.000    0.000    0.000    0.000 
#
# Total GULP energy -346926.070919 kJ/mol
# GULP energy per Si atom -12390.216819 kJ/mol
# Density = 2.459593 g / cm^3
# Si number density = 24.652042 Si / 1000 Ang^3
#
#
#
# Elastic Constant Matrix: (Units=GPa)
#
#
# Indices 1 2 3 4 5 6 
#
# 1 184.3131 28.9441 89.2349 0.0000 0.0000 0.0000
# 2 28.9441 96.6321 37.1158 0.0000 0.0000 0.0000
# 3 89.2349 37.1158 124.6795 0.0000 0.0000 0.0000
# 4 0.0000 0.0000 0.0000 29.8588 0.0000 0.0000
# 5 0.0000 0.0000 0.0000 0.0000 52.0329 0.0000
# 6 0.0000 0.0000 0.0000 0.0000 0.0000 28.6103
#
#
#
# Elastic Compliance Matrix: (Units=1/GPa)
#
#
# Indices 1 2 3 4 5 6 
#
# 1 0.008307 -0.000231 -0.005877 0.000000 0.000000 0.000000
# 2 -0.000231 0.011691 -0.003315 0.000000 0.000000 0.000000
# 3 -0.005877 -0.003315 0.013213 0.000000 0.000000 0.000000
# 4 0.000000 0.000000 0.000000 0.033491 0.000000 0.000000
# 5 0.000000 0.000000 0.000000 0.000000 0.019219 0.000000
# 6 0.000000 0.000000 0.000000 0.000000 0.000000 0.034952
#
#
# Mechanical properties :
#
#
# Convention : Reuss Voigt Hill
#
# Bulk Modulus (GPa) = 69.60813 79.57935 74.59374
# Shear Modulus (GPa) = 34.60032 38.78907 36.69469
#
# Velocity S-wave (km/s) = 3.75046 3.97099 3.86230
# Velocity P-wave (km/s) = 6.85946 7.30590 7.08619
#
# Compressibility (1/GPa) = 0.01436614
#
# Stress axis : x y z
#
# Youngs Moduli (GPa) = 120.38024 85.53617 75.68069
#
# Poissons Ratio (x) = 0.01976 0.44475
# Poissons Ratio (y) = 0.02781 0.25088
# Poissons Ratio (z) = 0.70744 0.28355
#
# Static dielectric constant tensor:
#      x y z
#    x 5.032090 0.000000 0.000000 
#    y 0.000000 2.131650 0.000000 
#    z 0.000000 0.000000 4.488590 
# 
# 
# High freq. dielectric constant tensor:
#      x y z
#    x 1.995050 0.000000 0.000000 
#    y 0.000000 1.973530 0.000000 
#    z 0.000000 0.000000 1.969120 
# 
# From -- ./inp_files/21140.got.cif
#   From: 2010.06.25/outbox.cif.g09.slc.cpg/sg52_11_cif.got.tgz:21140.got - 2010.06.26 19:32:48.
