data_PCOD8215790
_publ_section_title
;
Structure prediction by ZEFSAII (Michael W. Deem and Ramdas Pophale) SiO2 
 PCOD8215790
Probable space group: P N N A
;
_chemical_formula_sum "Si O2"
_cell_formula_units_Z 64
_cell_length_a 11.694180
_cell_length_b 9.238007
_cell_length_c 31.296569
_cell_angle_alpha 90.000000
_cell_angle_beta 90.000000
_cell_angle_gamma 90.000000
_cell_volume 3380.997039
_symmetry_space_group_name_H-M "P N N A"
_symmetry_group_IT_number 52
_symmetry_cell_setting 'orthorhombic'
loop_
_space_group_symop_operation_xyz
x,y,z
1/2-x,-y,z
x,1/2-y,1/2-z
1/2-x,1/2+y,1/2-z
-x,-y,-z
1/2+x,y,-z
-x,1/2+y,1/2+z
1/2+x,1/2-y,1/2+z
loop_
_atom_site_type_symbol
_atom_site_label
_atom_site_fract_x
_atom_site_fract_y
_atom_site_fract_z
Si Si1 0.234222 0.328361 0.434264
Si Si2 0.505424 0.770606 0.345316
Si Si3 0.477262 0.637192 0.061847
Si Si4 0.385101 0.001684 0.816516
Si Si5 0.978179 0.226411 0.700114
Si Si6 0.149232 0.897350 0.487384
Si Si7 0.749750 0.828809 0.652324
Si Si8 0.380644 0.462731 0.782385
O O1 0.250000 0.500000 0.434956
O O2 0.103555 0.278716 0.442430
O O3 0.311380 0.258177 0.470831
O O4 0.276758 0.261127 0.390016
O O5 0.523205 0.861357 0.389340
O O6 0.545662 0.603819 0.349812
O O7 0.373857 0.781904 0.329686
O O8 0.590815 0.816302 0.307170
O O9 0.413221 0.485968 0.050932
O O10 0.577267 0.649291 0.028088
O O11 0.407017 0.050969 0.767653
O O12 0.250000 0.000000 0.827400
O O13 0.444070 0.845898 0.823461
O O14 0.976673 0.250000 0.750000
O O15 0.847260 0.218672 0.685315
O O16 0.040115 0.075215 0.691953
O O17 0.250000 0.000000 0.504559
O O18 0.750000 0.000000 0.642576
O O19 0.250000 0.500000 0.789591
#
# Coordination Sequence:
#
# PCOD8215790 Si02
#       8
#     8   8   8   8   8   8   8   8
#     4  10  21  35  60  86 111 152 186 226 292 352
#     4  11  21  35  59  86 114 150 193 243 291 343
#     4   9  20  36  58  87 112 148 191 233 280 350
#     4  10  22  39  57  80 118 157 192 240 296 348
#     4  10  22  37  56  85 116 152 196 240 288 341
#     4   9  18  38  61  82 116 150 186 232 285 342
#     4  11  22  39  57  85 117 149 196 241 285 347
#     4  10  20  37  59  81 109 157 206 239 284 344
#
# _framework density 18.929327000000001
#
# number of rings (size 3 to 8) (size 9 to 14) (size 15 to 20)
#    0.000    2.000    1.250    3.000    3.500    4.000 
#    0.000    0.625    2.750    0.000    0.000    0.000 
#    0.000    0.000    0.000    0.000    0.000    0.000 
#
# Total GULP energy -793218.171655 kJ/mol
# GULP energy per Si atom -12394.033932 kJ/mol
# Density = 1.888624 g / cm^3
# Si number density = 18.929327 Si / 1000 Ang^3
#
#
#
# Elastic Constant Matrix: (Units=GPa)
#
#
# Indices 1 2 3 4 5 6 
#
# 1 89.5674 30.5519 22.2121 0.0000 0.0000 0.0000
# 2 30.5519 108.0972 15.2648 0.0000 0.0000 0.0000
# 3 22.2121 15.2648 35.9192 0.0000 0.0000 0.0000
# 4 0.0000 0.0000 0.0000 16.9321 0.0000 0.0000
# 5 0.0000 0.0000 0.0000 0.0000 25.6577 0.0000
# 6 0.0000 0.0000 0.0000 0.0000 0.0000 27.0805
#
#
#
# Elastic Compliance Matrix: (Units=1/GPa)
#
#
# Indices 1 2 3 4 5 6 
#
# 1 0.013997 -0.002908 -0.007420 0.000000 0.000000 0.000000
# 2 -0.002908 0.010446 -0.002641 0.000000 0.000000 0.000000
# 3 -0.007420 -0.002641 0.033551 0.000000 0.000000 0.000000
# 4 0.000000 0.000000 0.000000 0.059059 0.000000 0.000000
# 5 0.000000 0.000000 0.000000 0.000000 0.038975 0.000000
# 6 0.000000 0.000000 0.000000 0.000000 0.000000 0.036927
#
#
# Mechanical properties :
#
#
# Convention : Reuss Voigt Hill
#
# Bulk Modulus (GPa) = 31.19524 41.07127 36.13326
# Shear Modulus (GPa) = 21.77919 24.97107 23.37513
#
# Velocity S-wave (km/s) = 3.39566 3.63598 3.51787
# Velocity P-wave (km/s) = 5.64709 6.27467 5.96913
#
# Compressibility (1/GPa) = 0.03205617
#
# Stress axis : x y z
#
# Youngs Moduli (GPa) = 71.44492 95.73218 29.80556
#
# Poissons Ratio (x) = 0.27841 0.22115
# Poissons Ratio (y) = 0.20778 0.07871
# Poissons Ratio (z) = 0.53009 0.25281
#
# Static dielectric constant tensor:
#      x y z
#    x 3.539810 0.000000 0.000000 
#    y 0.000000 3.574130 0.000000 
#    z 0.000000 0.000000 3.265740 
# 
# 
# High freq. dielectric constant tensor:
#      x y z
#    x 1.742370 0.000000 0.000000 
#    y 0.000000 1.739900 0.000000 
#    z 0.000000 0.000000 1.717840 
# 
# From -- ./inp_files/44840.got.cif
#   From: 2010.06.25/outbox.cif.g09.slc.cpg/sg52_23_cif.got.tgz:44840.got - 2010.06.26 19:32:48.
