data_PCOD8215227
_publ_section_title
;
Structure prediction by ZEFSAII (Michael W. Deem and Ramdas Pophale) SiO2 
 PCOD8215227
Probable space group: P N N A
;
_chemical_formula_sum "Si O2"
_cell_formula_units_Z 48
_cell_length_a 16.463553
_cell_length_b 11.499237
_cell_length_c 12.519125
_cell_angle_alpha 90.000000
_cell_angle_beta 90.000000
_cell_angle_gamma 90.000000
_cell_volume 2370.099435
_symmetry_space_group_name_H-M "P N N A"
_symmetry_group_IT_number 52
_symmetry_cell_setting 'orthorhombic'
loop_
_space_group_symop_operation_xyz
x,y,z
1/2-x,-y,z
x,1/2-y,1/2-z
1/2-x,1/2+y,1/2-z
-x,-y,-z
1/2+x,y,-z
-x,1/2+y,1/2+z
1/2+x,1/2-y,1/2+z
loop_
_atom_site_type_symbol
_atom_site_label
_atom_site_fract_x
_atom_site_fract_y
_atom_site_fract_z
Si Si1 0.635390 0.919482 0.728882
Si Si2 0.750000 0.000000 0.324768
Si Si3 0.814303 0.658032 0.831297
Si Si4 0.747359 0.229280 0.450941
Si Si5 0.336071 0.437675 0.468437
Si Si6 0.132247 0.401516 0.656019
Si Si7 0.994903 0.250000 0.750000
O O1 0.723363 0.865203 0.709985
O O2 0.617931 0.935430 0.855687
O O3 0.565527 0.834434 0.681670
O O4 0.630134 0.043034 0.669731
O O5 0.775551 0.107795 0.400174
O O6 0.669292 0.025656 0.255077
O O7 0.854527 0.750000 0.750000
O O8 0.813727 0.706766 0.950582
O O9 0.824501 0.305082 0.490057
O O10 0.699214 0.303187 0.364113
O O11 0.250000 0.500000 0.450230
O O12 0.384797 0.512624 0.556520
O O13 0.048533 0.335522 0.678137
#
# Coordination Sequence:
#
# PCOD8215227 Si02
#       7
#     8   4   8   8   8   8   4
#     4  11  21  37  65  91 124 161 199 258 324 372
#     4  12  20  36  60  90 116 162 216 254 288 372
#     4  11  19  37  65  97 119 155 214 264 302 374
#     4  11  20  34  63  94 116 154 212 263 301 349
#     4  10  18  37  64  95 114 159 220 255 301 372
#     4  11  23  38  61  86 123 167 209 254 304 372
#     4  12  24  42  58  88 136 168 192 262 336 374
#
# _framework density 20.252316
#
# number of rings (size 3 to 8) (size 9 to 14) (size 15 to 20)
#    0.000    1.000    8.333    2.000    0.000    0.667 
#    0.000    0.833    7.333    0.000    0.000    0.000 
#    0.000    0.000    0.000    0.000    0.000    0.000 
#
# Total GULP energy -595062.539547 kJ/mol
# GULP energy per Si atom -12397.136241 kJ/mol
# Density = 2.020622 g / cm^3
# Si number density = 20.252316 Si / 1000 Ang^3
#
#
#
# Elastic Constant Matrix: (Units=GPa)
#
#
# Indices 1 2 3 4 5 6 
#
# 1 59.3545 27.6881 12.2525 0.0000 0.0000 0.0000
# 2 27.6881 138.8676 33.9807 0.0000 0.0000 0.0000
# 3 12.2525 33.9807 85.1633 0.0000 0.0000 0.0000
# 4 0.0000 0.0000 0.0000 35.5184 0.0000 0.0000
# 5 0.0000 0.0000 0.0000 0.0000 5.0534 0.0000
# 6 0.0000 0.0000 0.0000 0.0000 0.0000 40.4148
#
#
#
# Elastic Compliance Matrix: (Units=1/GPa)
#
#
# Indices 1 2 3 4 5 6 
#
# 1 0.018711 -0.003404 -0.001334 0.000000 0.000000 0.000000
# 2 -0.003404 0.008600 -0.002942 0.000000 0.000000 0.000000
# 3 -0.001334 -0.002942 0.013108 0.000000 0.000000 0.000000
# 4 0.000000 0.000000 0.000000 0.028154 0.000000 0.000000
# 5 0.000000 0.000000 0.000000 0.000000 0.197887 0.000000
# 6 0.000000 0.000000 0.000000 0.000000 0.000000 0.024743
#
#
# Mechanical properties :
#
#
# Convention : Reuss Voigt Hill
#
# Bulk Modulus (GPa) = 39.90491 47.91422 43.90956
# Shear Modulus (GPa) = 15.87727 30.16158 23.01943
#
# Velocity S-wave (km/s) = 2.80299 3.86332 3.37505
# Velocity P-wave (km/s) = 5.49748 6.60381 6.07588
#
# Compressibility (1/GPa) = 0.02505957
#
# Stress axis : x y z
#
# Youngs Moduli (GPa) = 53.44349 116.28340 76.29099
#
# Poissons Ratio (x) = 0.39588 0.10174
# Poissons Ratio (y) = 0.18194 0.22441
# Poissons Ratio (z) = 0.07127 0.34205
#
# Static dielectric constant tensor:
#      x y z
#    x 3.229070 0.000000 0.000000 
#    y 0.000000 4.209630 0.000000 
#    z 0.000000 0.000000 3.736860 
# 
# 
# High freq. dielectric constant tensor:
#      x y z
#    x 1.729560 0.000000 0.000000 
#    y 0.000000 1.822150 0.000000 
#    z 0.000000 0.000000 1.790100 
# 
# From -- ./inp_files/28191.got.cif
#   From: 2010.06.25/outbox.cif.g09.slc.cpg/sg52_15_cif.got.tgz:28191.got - 2010.06.26 19:32:48.
