data_PCOD8215514
_publ_section_title
;
Structure prediction by ZEFSAII (Michael W. Deem and Ramdas Pophale) SiO2 
 PCOD8215514
Probable space group: P N N A
;
_chemical_formula_sum "Si O2"
_cell_formula_units_Z 64
_cell_length_a 9.254323
_cell_length_b 19.316679
_cell_length_c 16.201544
_cell_angle_alpha 90.000000
_cell_angle_beta 90.000000
_cell_angle_gamma 90.000000
_cell_volume 2896.233155
_symmetry_space_group_name_H-M "P N N A"
_symmetry_group_IT_number 52
_symmetry_cell_setting 'orthorhombic'
loop_
_space_group_symop_operation_xyz
x,y,z
1/2-x,-y,z
x,1/2-y,1/2-z
1/2-x,1/2+y,1/2-z
-x,-y,-z
1/2+x,y,-z
-x,1/2+y,1/2+z
1/2+x,1/2-y,1/2+z
loop_
_atom_site_type_symbol
_atom_site_label
_atom_site_fract_x
_atom_site_fract_y
_atom_site_fract_z
Si Si1 0.151066 0.140932 0.670497
Si Si2 0.941630 0.212917 0.333960
Si Si3 0.720069 0.923045 0.947042
Si Si4 0.455699 0.254796 0.375584
Si Si5 0.130284 0.450899 0.979181
Si Si6 0.267068 0.860343 0.369130
Si Si7 0.084759 0.612330 0.283495
Si Si8 0.998992 0.167479 0.036676
O O1 0.321977 0.151220 0.659025
O O2 0.084246 0.104052 0.589599
O O3 0.082373 0.216921 0.673173
O O4 0.084690 0.102673 0.753098
O O5 0.906974 0.250000 0.250000
O O6 0.941978 0.273056 0.402324
O O7 0.090027 0.172370 0.331268
O O8 0.628458 0.934803 0.861672
O O9 0.861320 0.874983 0.930758
O O10 0.750000 0.000000 0.979976
O O11 0.628065 0.887485 0.019482
O O12 0.331318 0.201666 0.406015
O O13 0.384117 0.309208 0.313001
O O14 0.532935 0.293838 0.451184
O O15 0.250000 0.500000 0.938257
O O16 0.194379 0.413944 0.059605
O O17 0.000000 0.500000 0.000000
O O18 0.186270 0.901503 0.295668
#
# Coordination Sequence:
#
# PCOD8215514 Si02
#       8
#     8   8   8   8   8   8   8   8
#     4  11  22  38  59  86 120 158 198 256 315 370
#     4  12  22  36  60  95 126 153 197 259 327 380
#     4  11  24  42  64  91 125 172 220 261 315 388
#     4  10  19  38  64  92 118 151 197 253 325 382
#     4  12  25  41  59  85 120 167 214 250 296 368
#     4  11  21  38  62  91 124 160 202 257 311 376
#     4  10  22  40  64  89 120 160 204 256 320 382
#     4  11  22  39  63  93 125 159 204 264 318 382
#
# _framework density 22.097669
#
# number of rings (size 3 to 8) (size 9 to 14) (size 15 to 20)
#    0.000    1.000    0.000   10.125    0.000    2.500 
#    0.000    1.250    0.000    3.000    0.000    0.000 
#    0.000    0.000    0.000    0.000    0.000    0.000 
#
# Total GULP energy -793207.482118 kJ/mol
# GULP energy per Si atom -12393.866908 kJ/mol
# Density = 2.204737 g / cm^3
# Si number density = 22.097669 Si / 1000 Ang^3
#
#
#
# Elastic Constant Matrix: (Units=GPa)
#
#
# Indices 1 2 3 4 5 6 
#
# 1 113.4128 20.7856 21.7692 0.0000 0.0000 0.0000
# 2 20.7856 42.0571 -0.4669 0.0000 0.0000 0.0000
# 3 21.7692 -0.4669 80.0185 0.0000 0.0000 0.0000
# 4 0.0000 0.0000 0.0000 19.4102 0.0000 0.0000
# 5 0.0000 0.0000 0.0000 0.0000 38.3445 0.0000
# 6 0.0000 0.0000 0.0000 0.0000 0.0000 31.0856
#
#
#
# Elastic Compliance Matrix: (Units=1/GPa)
#
#
# Indices 1 2 3 4 5 6 
#
# 1 0.010300 -0.005122 -0.002832 0.000000 0.000000 0.000000
# 2 -0.005122 0.026326 0.001547 0.000000 0.000000 0.000000
# 3 -0.002832 0.001547 0.013277 0.000000 0.000000 0.000000
# 4 0.000000 0.000000 0.000000 0.051519 0.000000 0.000000
# 5 0.000000 0.000000 0.000000 0.000000 0.026079 0.000000
# 6 0.000000 0.000000 0.000000 0.000000 0.000000 0.032169
#
#
# Mechanical properties :
#
#
# Convention : Reuss Voigt Hill
#
# Bulk Modulus (GPa) = 26.96256 35.51823 31.24040
# Shear Modulus (GPa) = 27.04956 30.66142 28.85549
#
# Velocity S-wave (km/s) = 3.50250 3.72901 3.61753
# Velocity P-wave (km/s) = 5.34646 5.88633 5.62288
#
# Compressibility (1/GPa) = 0.03708847
#
# Stress axis : x y z
#
# Youngs Moduli (GPa) = 97.09120 37.98581 75.32068
#
# Poissons Ratio (x) = 0.19455 0.21330
# Poissons Ratio (y) = 0.49727 -0.11652
# Poissons Ratio (z) = 0.27495 -0.05876
#
# Static dielectric constant tensor:
#      x y z
#    x 4.352770 0.000000 0.000000 
#    y 0.000000 3.436420 0.000000 
#    z 0.000000 0.000000 3.127640 
# 
# 
# High freq. dielectric constant tensor:
#      x y z
#    x 1.876230 0.000000 0.000000 
#    y 0.000000 1.862080 0.000000 
#    z 0.000000 0.000000 1.869890 
# 
# From -- ./inp_files/31605.got.cif
#   From: 2010.06.25/outbox.cif.g09.slc.cpg/sg52_16_cif.got.tgz:31605.got - 2010.06.26 19:32:48.
