data_PCOD8215851
_publ_section_title
;
Structure prediction by ZEFSAII (Michael W. Deem and Ramdas Pophale) SiO2 
 PCOD8215851
Probable space group: P N N A
;
_chemical_formula_sum "Si O2"
_cell_formula_units_Z 40
_cell_length_a 10.188456
_cell_length_b 15.019792
_cell_length_c 12.286045
_cell_angle_alpha 90.000000
_cell_angle_beta 90.000000
_cell_angle_gamma 90.000000
_cell_volume 1880.114913
_symmetry_space_group_name_H-M "P N N A"
_symmetry_group_IT_number 52
_symmetry_cell_setting 'orthorhombic'
loop_
_space_group_symop_operation_xyz
x,y,z
1/2-x,-y,z
x,1/2-y,1/2-z
1/2-x,1/2+y,1/2-z
-x,-y,-z
1/2+x,y,-z
-x,1/2+y,1/2+z
1/2+x,1/2-y,1/2+z
loop_
_atom_site_type_symbol
_atom_site_label
_atom_site_fract_x
_atom_site_fract_y
_atom_site_fract_z
Si Si1 0.750000 0.500000 0.510574
Si Si2 0.362222 0.859557 0.166037
Si Si3 0.520710 0.689495 0.952207
Si Si4 0.134874 0.838972 0.893479
Si Si5 0.641291 0.250000 0.250000
Si Si6 0.705888 0.163441 0.603377
O O1 0.654283 0.440119 0.583288
O O2 0.839482 0.437500 0.436850
O O3 0.516274 0.844126 0.192595
O O4 0.301888 0.885563 0.281555
O O5 0.294435 0.771149 0.116791
O O6 0.456411 0.698942 0.832012
O O7 0.654005 0.631327 0.944302
O O8 0.573097 0.780724 0.007658
O O9 0.414558 0.636876 0.025134
O O10 0.265547 0.806086 0.831507
#
# Coordination Sequence:
#
# PCOD8215851 Si02
#       6
#     4   8   8   8   4   8
#     4  12  22  40  62  96 136 170 204 268 332 396
#     4  10  21  36  61  85 133 164 205 265 332 376
#     4  11  20  37  62  93 121 164 219 267 315 378
#     4  11  22  40  58 100 130 167 212 271 319 388
#     4  12  22  36  68  92 132 174 214 270 324 376
#     4  10  20  38  60  92 122 163 221 269 312 384
#
# _framework density 21.275295
#
# number of rings (size 3 to 8) (size 9 to 14) (size 15 to 20)
#    0.000    1.200    4.000    5.400    0.000    0.000 
#    0.000    0.000    0.000    2.400    0.000    0.000 
#    0.000    0.000    0.000    0.000    0.000    0.000 
#
# Total GULP energy -495550.702325 kJ/mol
# GULP energy per Si atom -12388.767558 kJ/mol
# Density = 2.122687 g / cm^3
# Si number density = 21.275295 Si / 1000 Ang^3
#
#
#
# Elastic Constant Matrix: (Units=GPa)
#
#
# Indices 1 2 3 4 5 6 
#
# 1 175.2872 4.7497 53.6016 0.0000 0.0000 0.0000
# 2 4.7497 41.0446 15.5237 0.0000 0.0000 0.0000
# 3 53.6016 15.5237 107.7218 0.0000 0.0000 0.0000
# 4 0.0000 0.0000 0.0000 29.2352 0.0000 0.0000
# 5 0.0000 0.0000 0.0000 0.0000 44.9253 0.0000
# 6 0.0000 0.0000 0.0000 0.0000 0.0000 15.0034
#
#
#
# Elastic Compliance Matrix: (Units=1/GPa)
#
#
# Indices 1 2 3 4 5 6 
#
# 1 0.006739 0.000517 -0.003428 0.000000 0.000000 0.000000
# 2 0.000517 0.025808 -0.003976 0.000000 0.000000 0.000000
# 3 -0.003428 -0.003976 0.011562 0.000000 0.000000 0.000000
# 4 0.000000 0.000000 0.000000 0.034205 0.000000 0.000000
# 5 0.000000 0.000000 0.000000 0.000000 0.022259 0.000000
# 6 0.000000 0.000000 0.000000 0.000000 0.000000 0.066652
#
#
# Mechanical properties :
#
#
# Convention : Reuss Voigt Hill
#
# Bulk Modulus (GPa) = 32.96634 52.42261 42.69447
# Shear Modulus (GPa) = 26.16283 34.51137 30.33710
#
# Velocity S-wave (km/s) = 3.51055 4.03194 3.78025
# Velocity P-wave (km/s) = 5.65338 6.80948 6.25818
#
# Compressibility (1/GPa) = 0.03033397
#
# Stress axis : x y z
#
# Youngs Moduli (GPa) = 148.38745 38.74798 86.49165
#
# Poissons Ratio (x) = -0.02002 0.29647
# Poissons Ratio (y) = -0.07666 0.34391
# Poissons Ratio (z) = 0.50864 0.15407
#
# Static dielectric constant tensor:
#      x y z
#    x 4.303080 0.000000 0.000000 
#    y 0.000000 3.280700 0.000000 
#    z 0.000000 0.000000 4.042500 
# 
# 
# High freq. dielectric constant tensor:
#      x y z
#    x 1.866020 0.000000 0.000000 
#    y 0.000000 1.769820 0.000000 
#    z 0.000000 0.000000 1.846550 
# 
# From -- ./inp_files/16694.got.cif
#   From: 2010.06.25/outbox.cif.g09.slc.cpg/sg52_9_cif.got.tgz:16694.got - 2010.06.26 19:32:48.
