data_PCOD8215775
_publ_section_title
;
Structure prediction by ZEFSAII (Michael W. Deem and Ramdas Pophale) SiO2 
 PCOD8215775
Probable space group: P N N A
;
_chemical_formula_sum "Si O2"
_cell_formula_units_Z 28
_cell_length_a 27.558228
_cell_length_b 5.148552
_cell_length_c 11.276531
_cell_angle_alpha 90.000000
_cell_angle_beta 90.000000
_cell_angle_gamma 90.000000
_cell_volume 1599.970261
_symmetry_space_group_name_H-M "P N N A"
_symmetry_group_IT_number 52
_symmetry_cell_setting 'orthorhombic'
loop_
_space_group_symop_operation_xyz
x,y,z
1/2-x,-y,z
x,1/2-y,1/2-z
1/2-x,1/2+y,1/2-z
-x,-y,-z
1/2+x,y,-z
-x,1/2+y,1/2+z
1/2+x,1/2-y,1/2+z
loop_
_atom_site_type_symbol
_atom_site_label
_atom_site_fract_x
_atom_site_fract_y
_atom_site_fract_z
Si Si1 0.113540 0.474290 0.484367
Si Si2 0.193889 0.500289 0.673479
Si Si3 0.055555 0.504582 0.034104
Si Si4 0.093496 0.250000 0.250000
O O1 0.163963 0.506925 0.552026
O O2 0.080062 0.725316 0.500992
O O3 0.125645 0.416725 0.344514
O O4 0.083374 0.228085 0.535991
O O5 0.250000 0.500000 0.636047
O O6 0.180270 0.250000 0.750000
O O7 0.180189 0.750000 0.750000
O O8 0.059778 0.450306 0.175732
O O9 0.000000 0.500000 0.000000
#
# Coordination Sequence:
#
# PCOD8215775 Si02
#       4
#     8   8   8   4
#     4  10  20  38  58  82 114 150 187 236 286 338
#     4  10  21  39  61  86 115 149 190 243 293 340
#     4  10  20  37  55  82 114 152 188 231 283 336
#     4   8  22  34  60  74 124 136 194 220 296 320
#
# _framework density 17.500326000000001
#
# number of rings (size 3 to 8) (size 9 to 14) (size 15 to 20)
#    1.714    0.571    0.000    3.429    0.000    0.000 
#    7.714    0.000    6.286    0.000    0.000    0.000 
#    0.000    0.000    0.000    0.000    0.000    0.000 
#
# Total GULP energy -346902.345157 kJ/mol
# GULP energy per Si atom -12389.369470 kJ/mol
# Density = 1.746049 g / cm^3
# Si number density = 17.500326 Si / 1000 Ang^3
#
#
#
# Elastic Constant Matrix: (Units=GPa)
#
#
# Indices 1 2 3 4 5 6 
#
# 1 113.5071 53.2698 80.0445 0.0000 0.0000 0.0000
# 2 53.2698 152.6967 44.6992 0.0000 0.0000 0.0000
# 3 80.0445 44.6992 117.7492 0.0000 0.0000 0.0000
# 4 0.0000 0.0000 0.0000 13.1665 0.0000 0.0000
# 5 0.0000 0.0000 0.0000 0.0000 33.7040 0.0000
# 6 0.0000 0.0000 0.0000 0.0000 0.0000 51.4693
#
#
#
# Elastic Compliance Matrix: (Units=1/GPa)
#
#
# Indices 1 2 3 4 5 6 
#
# 1 0.018104 -0.003052 -0.011148 0.000000 0.000000 0.000000
# 2 -0.003052 0.007882 -0.000917 0.000000 0.000000 0.000000
# 3 -0.011148 -0.000917 0.016419 0.000000 0.000000 0.000000
# 4 0.000000 0.000000 0.000000 0.075951 0.000000 0.000000
# 5 0.000000 0.000000 0.000000 0.000000 0.029670 0.000000
# 6 0.000000 0.000000 0.000000 0.000000 0.000000 0.019429
#
#
# Mechanical properties :
#
#
# Convention : Reuss Voigt Hill
#
# Bulk Modulus (GPa) = 82.16959 82.21997 82.19478
# Shear Modulus (GPa) = 24.78336 33.39725 29.09031
#
# Velocity S-wave (km/s) = 3.76728 4.37324 4.08152
# Velocity P-wave (km/s) = 8.12270 8.51964 8.32354
#
# Compressibility (1/GPa) = 0.01216995
#
# Stress axis : x y z
#
# Youngs Moduli (GPa) = 55.23556 126.86663 60.90378
#
# Poissons Ratio (x) = 0.38725 0.67898
# Poissons Ratio (y) = 0.16860 0.05586
# Poissons Ratio (z) = 0.61579 0.11637
#
# Static dielectric constant tensor:
#      x y z
#    x 2.995820 0.000000 0.000000 
#    y 0.000000 3.541730 0.000000 
#    z 0.000000 0.000000 3.094420 
# 
# 
# High freq. dielectric constant tensor:
#      x y z
#    x 1.653530 0.000000 0.000000 
#    y 0.000000 1.700420 0.000000 
#    z 0.000000 0.000000 1.661850 
# 
# From -- ./inp_files/22550.got.cif
#   From: 2010.06.25/outbox.cif.g09.slc.cpg/sg52_12_cif.got.tgz:22550.got - 2010.06.26 19:32:48.
