data_PCOD8215609
_publ_section_title
;
Structure prediction by ZEFSAII (Michael W. Deem and Ramdas Pophale) SiO2 
 PCOD8215609
Probable space group: P N N A
;
_chemical_formula_sum "Si O2"
_cell_formula_units_Z 60
_cell_length_a 15.965887
_cell_length_b 12.471538
_cell_length_c 16.448962
_cell_angle_alpha 90.000000
_cell_angle_beta 90.000000
_cell_angle_gamma 90.000000
_cell_volume 3275.303602
_symmetry_space_group_name_H-M "P N N A"
_symmetry_group_IT_number 52
_symmetry_cell_setting 'orthorhombic'
loop_
_space_group_symop_operation_xyz
x,y,z
1/2-x,-y,z
x,1/2-y,1/2-z
1/2-x,1/2+y,1/2-z
-x,-y,-z
1/2+x,y,-z
-x,1/2+y,1/2+z
1/2+x,1/2-y,1/2+z
loop_
_atom_site_type_symbol
_atom_site_label
_atom_site_fract_x
_atom_site_fract_y
_atom_site_fract_z
Si Si1 0.427404 0.717578 0.838874
Si Si2 0.889672 0.562256 0.544810
Si Si3 0.605241 0.725218 0.085074
Si Si4 0.916644 0.477085 0.188324
Si Si5 0.964679 0.153693 0.943467
Si Si6 0.282081 0.824962 0.924284
Si Si7 0.750000 0.000000 0.209093
Si Si8 0.018656 0.343877 0.305223
O O1 0.395061 0.750000 0.750000
O O2 0.444824 0.591634 0.845574
O O3 0.510719 0.788737 0.858560
O O4 0.357365 0.743265 0.906152
O O5 0.888455 0.433113 0.562424
O O6 0.801987 0.605480 0.506652
O O7 0.912187 0.622255 0.628734
O O8 0.956266 0.584308 0.473523
O O9 0.592831 0.602599 0.111675
O O10 0.700707 0.752489 0.064454
O O11 0.568036 0.802544 0.154786
O O12 0.554042 0.747565 0.003162
O O13 0.828578 0.477830 0.233920
O O14 0.991420 0.443181 0.249200
O O15 0.269800 0.899298 0.846615
O O16 0.059137 0.250000 0.250000
#
# Coordination Sequence:
#
# PCOD8215609 Si02
#       8
#     8   8   8   8   8   8   4   8
#     4  11  21  33  49  76 102 140 177 217 264 323
#     4   9  18  32  50  74  97 136 173 220 264 306
#     4  10  20  34  49  75 102 140 169 216 273 318
#     4  11  21  30  50  74 109 140 171 212 273 331
#     4   9  19  33  50  69 104 133 178 217 254 315
#     4  11  21  31  51  76 107 133 174 217 271 328
#     4  12  20  30  48  78 110 140 168 222 272 334
#     4   9  18  33  52  74 102 132 173 215 260 315
#
# _framework density 18.318912000000001
#
# number of rings (size 3 to 8) (size 9 to 14) (size 15 to 20)
#    0.000    1.867    2.667    2.400    3.733    0.533 
#    0.000    0.000    0.000    0.800    0.000    0.000 
#    0.000    0.000    0.000    0.000    0.000    0.000 
#
# Total GULP energy -743762.007651 kJ/mol
# GULP energy per Si atom -12396.033461 kJ/mol
# Density = 1.827722 g / cm^3
# Si number density = 18.318912 Si / 1000 Ang^3
#
#
#
# Elastic Constant Matrix: (Units=GPa)
#
#
# Indices 1 2 3 4 5 6 
#
# 1 36.5258 27.0028 27.5654 0.0000 0.0000 0.0000
# 2 27.0028 130.6115 43.1502 0.0000 0.0000 0.0000
# 3 27.5654 43.1502 74.0059 0.0000 0.0000 0.0000
# 4 0.0000 0.0000 0.0000 33.0246 0.0000 0.0000
# 5 0.0000 0.0000 0.0000 0.0000 14.8299 0.0000
# 6 0.0000 0.0000 0.0000 0.0000 0.0000 15.6872
#
#
#
# Elastic Compliance Matrix: (Units=1/GPa)
#
#
# Indices 1 2 3 4 5 6 
#
# 1 0.039800 -0.004125 -0.012419 0.000000 0.000000 0.000000
# 2 -0.004125 0.009911 -0.004242 0.000000 0.000000 0.000000
# 3 -0.012419 -0.004242 0.020612 0.000000 0.000000 0.000000
# 4 0.000000 0.000000 0.000000 0.030280 0.000000 0.000000
# 5 0.000000 0.000000 0.000000 0.000000 0.067431 0.000000
# 6 0.000000 0.000000 0.000000 0.000000 0.000000 0.063746
#
#
# Mechanical properties :
#
#
# Convention : Reuss Voigt Hill
#
# Bulk Modulus (GPa) = 34.78334 48.50891 41.64613
# Shear Modulus (GPa) = 17.67178 22.26999 19.97088
#
# Velocity S-wave (km/s) = 3.10929 3.49045 3.30537
# Velocity P-wave (km/s) = 5.64970 6.54080 6.11151
#
# Compressibility (1/GPa) = 0.02874939
#
# Stress axis : x y z
#
# Youngs Moduli (GPa) = 25.12533 100.90227 48.51629
#
# Poissons Ratio (x) = 0.41626 0.60254
# Poissons Ratio (y) = 0.10365 0.20580
# Poissons Ratio (z) = 0.31204 0.42802
#
# Static dielectric constant tensor:
#      x y z
#    x 3.170650 0.000000 0.000000 
#    y 0.000000 3.538300 0.000000 
#    z 0.000000 0.000000 3.367070 
# 
# 
# High freq. dielectric constant tensor:
#      x y z
#    x 1.677270 0.000000 0.000000 
#    y 0.000000 1.716610 0.000000 
#    z 0.000000 0.000000 1.695040 
# 
# From -- ./inp_files/33261.got.cif
#   From: 2010.06.25/outbox.cif.g09.slc.cpg/sg52_17_cif.got.tgz:33261.got - 2010.06.26 19:32:48.
