data_PCOD8215697
_publ_section_title
;
Structure prediction by ZEFSAII (Michael W. Deem and Ramdas Pophale) SiO2 
 PCOD8215697
Probable space group: P N N A
;
_chemical_formula_sum "Si O2"
_cell_formula_units_Z 40
_cell_length_a 7.839471
_cell_length_b 18.026502
_cell_length_c 12.812860
_cell_angle_alpha 90.000000
_cell_angle_beta 90.000000
_cell_angle_gamma 90.000000
_cell_volume 1810.690820
_symmetry_space_group_name_H-M "P N N A"
_symmetry_group_IT_number 52
_symmetry_cell_setting 'orthorhombic'
loop_
_space_group_symop_operation_xyz
x,y,z
1/2-x,-y,z
x,1/2-y,1/2-z
1/2-x,1/2+y,1/2-z
-x,-y,-z
1/2+x,y,-z
-x,1/2+y,1/2+z
1/2+x,1/2-y,1/2+z
loop_
_atom_site_type_symbol
_atom_site_label
_atom_site_fract_x
_atom_site_fract_y
_atom_site_fract_z
Si Si1 0.642333 0.231110 0.369820
Si Si2 0.097455 0.095796 0.184886
Si Si3 0.438598 0.313566 0.521472
Si Si4 0.761396 0.416881 0.197811
Si Si5 0.045047 0.932536 0.149723
O O1 0.598078 0.250000 0.250000
O O2 0.481104 0.244436 0.445217
O O3 0.701906 0.145923 0.384072
O O4 0.775903 0.292035 0.410458
O O5 0.084917 0.166246 0.106587
O O6 0.293242 0.089636 0.226323
O O7 0.957438 0.103632 0.276478
O O8 0.049154 0.019624 0.124075
O O9 0.414822 0.388735 0.455965
O O10 0.750000 0.500000 0.149179
O O11 0.635349 0.411445 0.298091
#
# Coordination Sequence:
#
# PCOD8215697 Si02
#       5
#     8   8   8   8   8
#     4  12  24  42  63  94 133 168 216 264 323 385
#     4  10  20  35  60  95 127 160 205 262 331 389
#     4  12  21  38  61  92 134 166 208 262 323 384
#     4  10  22  44  66  88 128 172 210 264 319 375
#     4  10  20  35  60  95 127 160 205 262 331 389
#
# _framework density 22.091014999999999
#
# number of rings (size 3 to 8) (size 9 to 14) (size 15 to 20)
#    0.000    1.200    6.000    0.600    0.000    0.000 
#    3.600    4.000    0.000    0.000    0.000    0.000 
#    0.000    0.000    0.000    0.000    0.000    0.000 
#
# Total GULP energy -495533.760955 kJ/mol
# GULP energy per Si atom -12388.344024 kJ/mol
# Density = 2.204073 g / cm^3
# Si number density = 22.091015 Si / 1000 Ang^3
#
#
#
# Elastic Constant Matrix: (Units=GPa)
#
#
# Indices 1 2 3 4 5 6 
#
# 1 74.7596 -14.4883 0.4960 0.0000 0.0000 0.0000
# 2 -14.4883 108.1309 20.0355 0.0000 0.0000 0.0000
# 3 0.4960 20.0355 38.7206 0.0000 0.0000 0.0000
# 4 0.0000 0.0000 0.0000 42.7072 0.0000 0.0000
# 5 0.0000 0.0000 0.0000 0.0000 18.2216 0.0000
# 6 0.0000 0.0000 0.0000 0.0000 0.0000 30.8866
#
#
#
# Elastic Compliance Matrix: (Units=1/GPa)
#
#
# Indices 1 2 3 4 5 6 
#
# 1 0.013788 0.002079 -0.001253 0.000000 0.000000 0.000000
# 2 0.002079 0.010542 -0.005482 0.000000 0.000000 0.000000
# 3 -0.001253 -0.005482 0.028679 0.000000 0.000000 0.000000
# 4 0.000000 0.000000 0.000000 0.023415 0.000000 0.000000
# 5 0.000000 0.000000 0.000000 0.000000 0.054880 0.000000
# 6 0.000000 0.000000 0.000000 0.000000 0.000000 0.032376
#
#
# Mechanical properties :
#
#
# Convention : Reuss Voigt Hill
#
# Bulk Modulus (GPa) = 22.88394 25.96639 24.42516
# Shear Modulus (GPa) = 26.65871 32.73428 29.69649
#
# Velocity S-wave (km/s) = 3.47762 3.85358 3.67042
# Velocity P-wave (km/s) = 5.14845 5.61960 5.38918
#
# Compressibility (1/GPa) = 0.04369878
#
# Stress axis : x y z
#
# Youngs Moduli (GPa) = 72.52937 94.85538 34.86931
#
# Poissons Ratio (x) = -0.19725 0.04368
# Poissons Ratio (y) = -0.15082 0.19114
# Poissons Ratio (z) = 0.09085 0.51996
#
# Static dielectric constant tensor:
#      x y z
#    x 4.184770 0.000000 0.000000 
#    y 0.000000 4.261710 0.000000 
#    z 0.000000 0.000000 3.472250 
# 
# 
# High freq. dielectric constant tensor:
#      x y z
#    x 1.881070 0.000000 0.000000 
#    y 0.000000 1.879970 0.000000 
#    z 0.000000 0.000000 1.802950 
# 
# From -- ./inp_files/16680.got.cif
#   From: 2010.06.25/outbox.cif.g09.slc.cpg/sg52_9_cif.got.tgz:16680.got - 2010.06.26 19:32:48.
