data_PCOD8215523
_publ_section_title
;
Structure prediction by ZEFSAII (Michael W. Deem and Ramdas Pophale) SiO2 
 PCOD8215523
Probable space group: P N N A
;
_chemical_formula_sum "Si O2"
_cell_formula_units_Z 52
_cell_length_a 12.477734
_cell_length_b 13.343051
_cell_length_c 16.760049
_cell_angle_alpha 90.000000
_cell_angle_beta 90.000000
_cell_angle_gamma 90.000000
_cell_volume 2790.398007
_symmetry_space_group_name_H-M "P N N A"
_symmetry_group_IT_number 52
_symmetry_cell_setting 'orthorhombic'
loop_
_space_group_symop_operation_xyz
x,y,z
1/2-x,-y,z
x,1/2-y,1/2-z
1/2-x,1/2+y,1/2-z
-x,-y,-z
1/2+x,y,-z
-x,1/2+y,1/2+z
1/2+x,1/2-y,1/2+z
loop_
_atom_site_type_symbol
_atom_site_label
_atom_site_fract_x
_atom_site_fract_y
_atom_site_fract_z
Si Si1 0.607257 0.212484 0.868309
Si Si2 0.310745 0.396512 0.677743
Si Si3 0.982564 0.893984 0.723977
Si Si4 0.955779 0.107597 0.022827
Si Si5 0.858342 0.209017 0.869302
Si Si6 0.960922 0.121706 0.711042
Si Si7 0.656505 0.250000 0.250000
O O1 0.590073 0.127779 0.801183
O O2 0.547109 0.315565 0.845107
O O3 0.556476 0.175709 0.951306
O O4 0.732601 0.224475 0.877125
O O5 0.250000 0.500000 0.690190
O O6 0.393580 0.383294 0.750957
O O7 0.369059 0.398516 0.592994
O O8 0.229176 0.302434 0.681713
O O9 0.957993 0.004701 0.692301
O O10 0.900409 0.154986 0.946944
O O11 0.000000 0.000000 0.000000
O O12 0.896325 0.145091 0.792683
O O13 0.904382 0.321562 0.862367
O O14 0.082929 0.161597 0.714242
#
# Coordination Sequence:
#
# PCOD8215523 Si02
#       7
#     8   8   8   8   8   8   4
#     4  10  22  37  60  83 120 152 189 250 294 352
#     4  11  21  35  61  91 117 159 191 236 310 352
#     4  10  19  39  59  87 114 150 200 243 289 351
#     4  11  25  37  56  85 123 154 194 244 300 362
#     4  10  22  37  56  88 115 155 198 239 301 347
#     4  10  21  36  60  86 114 149 205 247 287 351
#     4  10  20  36  58  88 124 150 194 248 290 364
#
# _framework density 18.635334
#
# number of rings (size 3 to 8) (size 9 to 14) (size 15 to 20)
#    0.000    1.846    1.538    5.538    4.308    3.692 
#    0.000    0.769    0.000    1.846    0.000    0.000 
#    0.000    0.000    0.000    0.000    0.000    0.000 
#
# Total GULP energy -644685.400409 kJ/mol
# GULP energy per Si atom -12397.796162 kJ/mol
# Density = 1.859292 g / cm^3
# Si number density = 18.635334 Si / 1000 Ang^3
#
#
#
# Elastic Constant Matrix: (Units=GPa)
#
#
# Indices 1 2 3 4 5 6 
#
# 1 148.6073 70.4341 60.8717 0.0000 0.0000 0.0000
# 2 70.4341 165.6321 59.1808 0.0000 0.0000 0.0000
# 3 60.8717 59.1808 82.5678 0.0000 0.0000 0.0000
# 4 0.0000 0.0000 0.0000 26.9354 0.0000 0.0000
# 5 0.0000 0.0000 0.0000 0.0000 14.7258 0.0000
# 6 0.0000 0.0000 0.0000 0.0000 0.0000 12.2292
#
#
#
# Elastic Compliance Matrix: (Units=1/GPa)
#
#
# Indices 1 2 3 4 5 6 
#
# 1 0.010215 -0.002222 -0.005938 0.000000 0.000000 0.000000
# 2 -0.002222 0.008599 -0.004525 0.000000 0.000000 0.000000
# 3 -0.005938 -0.004525 0.019732 0.000000 0.000000 0.000000
# 4 0.000000 0.000000 0.000000 0.037126 0.000000 0.000000
# 5 0.000000 0.000000 0.000000 0.000000 0.067908 0.000000
# 6 0.000000 0.000000 0.000000 0.000000 0.000000 0.081772
#
#
# Mechanical properties :
#
#
# Convention : Reuss Voigt Hill
#
# Bulk Modulus (GPa) = 75.89741 86.42003 81.15872
# Shear Modulus (GPa) = 19.59905 24.53278 22.06592
#
# Velocity S-wave (km/s) = 3.24653 3.63225 3.44479
# Velocity P-wave (km/s) = 7.40739 8.00412 7.71153
#
# Compressibility (1/GPa) = 0.01317568
#
# Stress axis : x y z
#
# Youngs Moduli (GPa) = 97.89976 116.28792 50.67808
#
# Poissons Ratio (x) = 0.25840 0.30092
# Poissons Ratio (y) = 0.21754 0.22934
# Poissons Ratio (z) = 0.58131 0.52625
#
# Static dielectric constant tensor:
#      x y z
#    x 3.692500 0.000000 0.000000 
#    y 0.000000 3.591920 0.000000 
#    z 0.000000 0.000000 3.204460 
# 
# 
# High freq. dielectric constant tensor:
#      x y z
#    x 1.743560 0.000000 0.000000 
#    y 0.000000 1.731750 0.000000 
#    z 0.000000 0.000000 1.692130 
# 
# From -- ./inp_files/32339.got.cif
#   From: 2010.06.25/outbox.cif.g09.slc.cpg/sg52_17_cif.got.tgz:32339.got - 2010.06.26 19:32:48.
