data_PCOD8215857
_publ_section_title
;
Structure prediction by ZEFSAII (Michael W. Deem and Ramdas Pophale) SiO2 
 PCOD8215857
Probable space group: P N N A
;
_chemical_formula_sum "Si O2"
_cell_formula_units_Z 48
_cell_length_a 28.962575
_cell_length_b 11.062724
_cell_length_c 7.543012
_cell_angle_alpha 90.000000
_cell_angle_beta 90.000000
_cell_angle_gamma 90.000000
_cell_volume 2416.818560
_symmetry_space_group_name_H-M "P N N A"
_symmetry_group_IT_number 52
_symmetry_cell_setting 'orthorhombic'
loop_
_space_group_symop_operation_xyz
x,y,z
1/2-x,-y,z
x,1/2-y,1/2-z
1/2-x,1/2+y,1/2-z
-x,-y,-z
1/2+x,y,-z
-x,1/2+y,1/2+z
1/2+x,1/2-y,1/2+z
loop_
_atom_site_type_symbol
_atom_site_label
_atom_site_fract_x
_atom_site_fract_y
_atom_site_fract_z
Si Si1 0.435176 0.995051 0.979298
Si Si2 0.639620 0.627904 0.969152
Si Si3 0.497348 0.305047 0.436318
Si Si4 0.283636 0.110856 0.762082
Si Si5 0.345402 0.399964 0.421970
Si Si6 0.458904 0.075318 0.585411
O O1 0.450253 0.035004 0.783770
O O2 0.455579 0.862046 0.018751
O O3 0.459986 0.090484 0.110177
O O4 0.380520 0.995592 0.012676
O O5 0.664958 0.585847 0.787318
O O6 0.630628 0.771491 0.964397
O O7 0.672131 0.597181 0.135046
O O8 0.590300 0.561188 0.983702
O O9 0.511730 0.250000 0.250000
O O10 0.475578 0.213585 0.577546
O O11 0.263127 0.250000 0.750000
O O12 0.250000 0.000000 0.708986
O O13 0.298354 0.088180 0.966386
O O14 0.500000 0.000000 0.500000
#
# Coordination Sequence:
#
# PCOD8215857 Si02
#       6
#     8   8   8   8   8   8
#     4  11  22  35  56  80 116 161 205 253 299 345
#     4  10  21  37  61  88 122 156 205 253 294 363
#     4  11  22  35  49  80 115 158 203 252 298 343
#     4  10  22  42  68  97 117 154 202 256 320 380
#     4  10  20  38  61  88 119 156 202 250 300 360
#     4  12  22  35  56  84 121 165 208 254 296 351
#
# _framework density 19.860821000000001
#
# number of rings (size 3 to 8) (size 9 to 14) (size 15 to 20)
#    0.000    1.333    5.000    1.500    2.333    0.667 
#    0.000    2.500    0.000    2.000    0.000    0.000 
#    0.000    0.000    0.000    0.000    0.000    0.000 
#
# Total GULP energy -594903.660609 kJ/mol
# GULP energy per Si atom -12393.826263 kJ/mol
# Density = 1.981562 g / cm^3
# Si number density = 19.860821 Si / 1000 Ang^3
#
#
#
# Elastic Constant Matrix: (Units=GPa)
#
#
# Indices 1 2 3 4 5 6 
#
# 1 74.8137 40.3823 27.0591 0.0000 0.0000 0.0000
# 2 40.3823 83.0459 24.3712 0.0000 0.0000 0.0000
# 3 27.0591 24.3712 84.6130 0.0000 0.0000 0.0000
# 4 0.0000 0.0000 0.0000 24.2266 0.0000 0.0000
# 5 0.0000 0.0000 0.0000 0.0000 22.8831 0.0000
# 6 0.0000 0.0000 0.0000 0.0000 0.0000 36.4941
#
#
#
# Elastic Compliance Matrix: (Units=1/GPa)
#
#
# Indices 1 2 3 4 5 6 
#
# 1 0.019160 -0.008213 -0.003762 0.000000 0.000000 0.000000
# 2 -0.008213 0.016674 -0.002176 0.000000 0.000000 0.000000
# 3 -0.003762 -0.002176 0.013648 0.000000 0.000000 0.000000
# 4 0.000000 0.000000 0.000000 0.041277 0.000000 0.000000
# 5 0.000000 0.000000 0.000000 0.000000 0.043700 0.000000
# 6 0.000000 0.000000 0.000000 0.000000 0.000000 0.027402
#
#
# Mechanical properties :
#
#
# Convention : Reuss Voigt Hill
#
# Bulk Modulus (GPa) = 47.21299 47.34422 47.27860
# Shear Modulus (GPa) = 25.35195 26.76476 26.05836
#
# Velocity S-wave (km/s) = 3.57666 3.67497 3.62615
# Velocity P-wave (km/s) = 6.39376 6.47279 6.43340
#
# Compressibility (1/GPa) = 0.02118061
#
# Stress axis : x y z
#
# Youngs Moduli (GPa) = 52.19127 59.97421 73.26908
#
# Poissons Ratio (x) = 0.49257 0.27563
# Poissons Ratio (y) = 0.42865 0.15944
# Poissons Ratio (z) = 0.19634 0.13051
#
# Static dielectric constant tensor:
#      x y z
#    x 3.382000 0.000000 0.000000 
#    y 0.000000 3.784920 0.000000 
#    z 0.000000 0.000000 3.821470 
# 
# 
# High freq. dielectric constant tensor:
#      x y z
#    x 1.745070 0.000000 0.000000 
#    y 0.000000 1.754270 0.000000 
#    z 0.000000 0.000000 1.790170 
# 
# From -- ./inp_files/14942.got.cif
#   From: 2010.06.25/outbox.cif.g09.slc.cpg/sg52_8_cif.got.tgz:14942.got - 2010.06.26 19:32:48.
