data_PCOD8215182
_publ_section_title
;
Structure prediction by ZEFSAII (Michael W. Deem and Ramdas Pophale) SiO2 
 PCOD8215182
Probable space group: P N N A
;
_chemical_formula_sum "Si O2"
_cell_formula_units_Z 48
_cell_length_a 12.224735
_cell_length_b 10.647507
_cell_length_c 19.504917
_cell_angle_alpha 90.000000
_cell_angle_beta 90.000000
_cell_angle_gamma 90.000000
_cell_volume 2538.817565
_symmetry_space_group_name_H-M "P N N A"
_symmetry_group_IT_number 52
_symmetry_cell_setting 'orthorhombic'
loop_
_space_group_symop_operation_xyz
x,y,z
1/2-x,-y,z
x,1/2-y,1/2-z
1/2-x,1/2+y,1/2-z
-x,-y,-z
1/2+x,y,-z
-x,1/2+y,1/2+z
1/2+x,1/2-y,1/2+z
loop_
_atom_site_type_symbol
_atom_site_label
_atom_site_fract_x
_atom_site_fract_y
_atom_site_fract_z
Si Si1 0.497293 0.586727 0.344735
Si Si2 0.194055 0.636318 0.567089
Si Si3 0.884906 0.732911 0.132719
Si Si4 0.866524 0.939556 0.249629
Si Si5 0.267657 0.854321 0.194839
Si Si6 0.408783 0.349951 0.418447
O O1 0.599069 0.661301 0.377036
O O2 0.535342 0.533654 0.270631
O O3 0.392090 0.671820 0.328988
O O4 0.465107 0.482550 0.401412
O O5 0.250000 0.500000 0.575480
O O6 0.285294 0.743580 0.579781
O O7 0.139367 0.652223 0.493837
O O8 0.877745 0.828132 0.195588
O O9 0.879015 0.597726 0.170257
O O10 0.998797 0.742969 0.091193
O O11 0.750000 0.000000 0.236757
O O12 0.234034 0.750000 0.250000
O O13 0.191905 0.824788 0.130958
O O14 0.250000 0.000000 0.219827
#
# Coordination Sequence:
#
# PCOD8215182 Si02
#       6
#     8   8   8   8   8   8
#     4  10  19  34  53  87 111 144 181 242 296 347
#     4  12  19  34  55  85 114 142 183 238 304 351
#     4  10  21  32  56  82 107 151 181 233 293 348
#     4  10  18  35  55  83 112 138 191 234 291 341
#     4  10  23  38  57  85 118 158 199 239 288 351
#     4  10  22  33  55  78 118 150 183 234 295 359
#
# _framework density 18.906438999999999
#
# number of rings (size 3 to 8) (size 9 to 14) (size 15 to 20)
#    0.000    1.667    5.000    2.000    9.333    1.333 
#    0.000    0.000    0.000    2.000    0.000    0.000 
#    0.000    0.000    0.000    0.000    0.000    0.000 
#
# Total GULP energy -594929.071345 kJ/mol
# GULP energy per Si atom -12394.355653 kJ/mol
# Density = 1.886341 g / cm^3
# Si number density = 18.906439 Si / 1000 Ang^3
#
#
#
# Elastic Constant Matrix: (Units=GPa)
#
#
# Indices 1 2 3 4 5 6 
#
# 1 147.4143 30.2666 45.9046 0.0000 0.0000 0.0000
# 2 30.2666 35.3417 37.2293 0.0000 0.0000 0.0000
# 3 45.9046 37.2293 92.3901 0.0000 0.0000 0.0000
# 4 0.0000 0.0000 0.0000 -6.4308 0.0000 0.0000
# 5 0.0000 0.0000 0.0000 0.0000 -56.7929 0.0000
# 6 0.0000 0.0000 0.0000 0.0000 0.0000 7.1528
#
#
#
# Elastic Compliance Matrix: (Units=1/GPa)
#
#
# Indices 1 2 3 4 5 6 
#
# 1 0.008489 -0.004912 -0.002239 0.000000 0.000000 0.000000
# 2 -0.004912 0.052007 -0.018516 0.000000 0.000000 0.000000
# 3 -0.002239 -0.018516 0.019397 0.000000 0.000000 0.000000
# 4 0.000000 0.000000 0.000000 -0.155501 0.000000 0.000000
# 5 0.000000 0.000000 0.000000 0.000000 -0.017608 0.000000
# 6 0.000000 0.000000 0.000000 0.000000 0.000000 0.139806
#
#
# Mechanical properties :
#
#
# Convention : Reuss Voigt Hill
#
# Bulk Modulus (GPa) = 35.01409 55.77191 45.39300
# Shear Modulus (GPa) = 46.53602 -0.43116 23.05243
#
# Velocity S-wave (km/s) = 4.96662 -0.47806 3.49562
# Velocity P-wave (km/s) = 7.17284 5.40909 6.35247
#
# Compressibility (1/GPa) = 0.02855993
#
# Stress axis : x y z
#
# Youngs Moduli (GPa) = 117.79660 19.22827 51.55412
#
# Poissons Ratio (x) = 0.09445 0.11541
# Poissons Ratio (y) = 0.57862 0.95457
# Poissons Ratio (z) = 0.26370 0.35603
#
# Static dielectric constant tensor:
#      x y z
#    x 3.872040 0.000000 0.000000 
#    y 0.000000 3.183640 0.000000 
#    z 0.000000 0.000000 3.488030 
# 
# 
# High freq. dielectric constant tensor:
#      x y z
#    x 1.764350 0.000000 0.000000 
#    y 0.000000 1.675410 0.000000 
#    z 0.000000 0.000000 1.724770 
# 
# From -- ./inp_files/32216.got.cif
#   From: 2010.06.25/outbox.cif.g09.slc.cpg/sg52_17_cif.got.tgz:32216.got - 2010.06.26 19:32:48.
