data_PCOD8215679
_publ_section_title
;
Structure prediction by ZEFSAII (Michael W. Deem and Ramdas Pophale) SiO2 
 PCOD8215679
Probable space group: P N N A
;
_chemical_formula_sum "Si O2"
_cell_formula_units_Z 44
_cell_length_a 16.335232
_cell_length_b 6.904825
_cell_length_c 21.661521
_cell_angle_alpha 90.000000
_cell_angle_beta 90.000000
_cell_angle_gamma 90.000000
_cell_volume 2443.244507
_symmetry_space_group_name_H-M "P N N A"
_symmetry_group_IT_number 52
_symmetry_cell_setting 'orthorhombic'
loop_
_space_group_symop_operation_xyz
x,y,z
1/2-x,-y,z
x,1/2-y,1/2-z
1/2-x,1/2+y,1/2-z
-x,-y,-z
1/2+x,y,-z
-x,1/2+y,1/2+z
1/2+x,1/2-y,1/2+z
loop_
_atom_site_type_symbol
_atom_site_label
_atom_site_fract_x
_atom_site_fract_y
_atom_site_fract_z
Si Si1 0.844961 0.028897 0.043135
Si Si2 0.529269 0.750000 0.750000
Si Si3 0.657320 0.444433 0.716922
Si Si4 0.044604 0.232278 0.880296
Si Si5 0.414832 0.943099 0.085039
Si Si6 0.541009 0.880873 0.444323
O O1 0.877885 0.251969 0.040149
O O2 0.750000 0.000000 0.053847
O O3 0.882931 0.911672 0.100442
O O4 0.865403 0.926268 0.978301
O O5 0.591459 0.572887 0.752455
O O6 0.468681 0.770949 0.807429
O O7 0.750000 0.500000 0.731777
O O8 0.636972 0.250000 0.750000
O O9 0.645786 0.434940 0.643101
O O10 0.066468 0.453125 0.896401
O O11 0.963498 0.148327 0.914906
O O12 0.475958 0.761491 0.087670
O O13 0.500000 0.000000 0.500000
#
# Coordination Sequence:
#
# PCOD8215679 Si02
#       6
#     8   4   8   8   8   8
#     4  11  22  36  56  87 120 144 185 252 299 322
#     4  10  22  38  62  80 112 156 194 230 280 346
#     4  11  21  36  53  82 121 154 187 228 278 337
#     4  10  20  38  60  82 111 153 195 230 278 351
#     4  10  20  35  56  83 115 151 187 232 286 340
#     4  11  18  36  61  83 109 151 196 228 279 357
#
# _framework density 18.008841
#
# number of rings (size 3 to 8) (size 9 to 14) (size 15 to 20)
#    0.000    1.455    4.545    2.727    0.000    0.727 
#    0.000    0.000    4.000    0.000    0.000    0.000 
#    0.000    0.000    0.000    0.000    0.000    0.000 
#
# Total GULP energy -545303.553720 kJ/mol
# GULP energy per Si atom -12393.262585 kJ/mol
# Density = 1.796785 g / cm^3
# Si number density = 18.008841 Si / 1000 Ang^3
#
#
#
# Elastic Constant Matrix: (Units=GPa)
#
#
# Indices 1 2 3 4 5 6 
#
# 1 114.6215 50.1775 60.1068 0.0000 0.0000 0.0000
# 2 50.1775 136.9178 44.7384 0.0000 0.0000 0.0000
# 3 60.1068 44.7384 87.3080 0.0000 0.0000 0.0000
# 4 0.0000 0.0000 0.0000 27.0381 0.0000 0.0000
# 5 0.0000 0.0000 0.0000 0.0000 31.6252 0.0000
# 6 0.0000 0.0000 0.0000 0.0000 0.0000 28.2880
#
#
#
# Elastic Compliance Matrix: (Units=1/GPa)
#
#
# Indices 1 2 3 4 5 6 
#
# 1 0.014296 -0.002430 -0.008597 0.000000 0.000000 0.000000
# 2 -0.002430 0.009186 -0.003034 0.000000 0.000000 0.000000
# 3 -0.008597 -0.003034 0.018927 0.000000 0.000000 0.000000
# 4 0.000000 0.000000 0.000000 0.036985 0.000000 0.000000
# 5 0.000000 0.000000 0.000000 0.000000 0.031620 0.000000
# 6 0.000000 0.000000 0.000000 0.000000 0.000000 0.035351
#
#
# Mechanical properties :
#
#
# Convention : Reuss Voigt Hill
#
# Bulk Modulus (GPa) = 69.99473 72.09918 71.04695
# Shear Modulus (GPa) = 27.89415 29.64525 28.76970
#
# Velocity S-wave (km/s) = 3.93989 4.06168 4.00125
# Velocity P-wave (km/s) = 7.72323 7.88154 7.80279
#
# Compressibility (1/GPa) = 0.01428679
#
# Stress axis : x y z
#
# Youngs Moduli (GPa) = 69.94733 108.86614 52.83497
#
# Poissons Ratio (x) = 0.26457 0.45422
# Poissons Ratio (y) = 0.16999 0.16029
# Poissons Ratio (z) = 0.60134 0.33028
#
# Static dielectric constant tensor:
#      x y z
#    x 3.156340 0.000000 0.000000 
#    y 0.000000 3.516410 0.000000 
#    z 0.000000 0.000000 3.176360 
# 
# 
# High freq. dielectric constant tensor:
#      x y z
#    x 1.677870 0.000000 0.000000 
#    y 0.000000 1.712260 0.000000 
#    z 0.000000 0.000000 1.695250 
# 
# From -- ./inp_files/40778.got.cif
#   From: 2010.06.25/outbox.cif.g09.slc.cpg/sg52_21_cif.got.tgz:40778.got - 2010.06.26 19:32:48.
