data_PCOD8215631
_publ_section_title
;
Structure prediction by ZEFSAII (Michael W. Deem and Ramdas Pophale) SiO2 
 PCOD8215631
Probable space group: P N N A
;
_chemical_formula_sum "Si O2"
_cell_formula_units_Z 64
_cell_length_a 19.496694
_cell_length_b 13.277580
_cell_length_c 13.759605
_cell_angle_alpha 90.000000
_cell_angle_beta 90.000000
_cell_angle_gamma 90.000000
_cell_volume 3561.934008
_symmetry_space_group_name_H-M "P N N A"
_symmetry_group_IT_number 52
_symmetry_cell_setting 'orthorhombic'
loop_
_space_group_symop_operation_xyz
x,y,z
1/2-x,-y,z
x,1/2-y,1/2-z
1/2-x,1/2+y,1/2-z
-x,-y,-z
1/2+x,y,-z
-x,1/2+y,1/2+z
1/2+x,1/2-y,1/2+z
loop_
_atom_site_type_symbol
_atom_site_label
_atom_site_fract_x
_atom_site_fract_y
_atom_site_fract_z
Si Si1 0.739782 0.732637 0.905757
Si Si2 0.178246 0.240792 0.900588
Si Si3 0.578345 0.060192 0.657510
Si Si4 0.101191 0.640162 0.034734
Si Si5 0.190737 0.080010 0.744331
Si Si6 0.548571 0.327491 0.026165
Si Si7 0.428677 0.022313 0.647539
Si Si8 0.213427 0.399527 0.252751
O O1 0.659766 0.719404 0.933293
O O2 0.764279 0.627875 0.857795
O O3 0.758444 0.818321 0.828408
O O4 0.779574 0.760082 0.002048
O O5 0.191118 0.135676 0.847299
O O6 0.201510 0.338131 0.839897
O O7 0.096545 0.246813 0.919938
O O8 0.577894 0.154239 0.582202
O O9 0.630436 0.086496 0.746522
O O10 0.601569 0.954423 0.608792
O O11 0.499904 0.057453 0.697958
O O12 0.030652 0.705720 0.035739
O O13 0.109398 0.604874 0.921517
O O14 0.120532 0.017791 0.732055
O O15 0.250000 0.000000 0.739636
O O16 0.549852 0.436669 0.073341
O O17 0.250000 0.500000 0.287025
#
# Coordination Sequence:
#
# PCOD8215631 Si02
#       8
#     8   8   8   8   8   8   8   8
#     4  11  22  34  54  79 106 150 186 221 279 324
#     4  10  20  35  54  78 111 142 177 224 276 326
#     4   9  15  31  54  75 108 138 173 226 266 327
#     4   9  16  30  54  83 107 130 178 232 269 320
#     4  10  20  34  55  83 108 139 181 224 275 329
#     4   8  15  29  51  80 106 136 170 218 283 321
#     4   8  16  29  54  83 102 136 176 220 283 317
#     4  11  22  35  51  78 109 145 188 222 272 329
#
# _framework density 17.967768
#
# number of rings (size 3 to 8) (size 9 to 14) (size 15 to 20)
#    0.000    2.500    2.500    2.250    0.000    1.000 
#    2.250    1.250    2.750    2.250    0.000    0.000 
#    0.000    0.000    0.000    0.000    0.000    0.000 
#
# Total GULP energy -792957.114031 kJ/mol
# GULP energy per Si atom -12389.954907 kJ/mol
# Density = 1.792687 g / cm^3
# Si number density = 17.967768 Si / 1000 Ang^3
#
#
#
# Elastic Constant Matrix: (Units=GPa)
#
#
# Indices 1 2 3 4 5 6 
#
# 1 146.9928 56.1155 57.4523 0.0000 0.0000 0.0000
# 2 56.1155 66.0184 37.3647 0.0000 0.0000 0.0000
# 3 57.4523 37.3647 84.3696 0.0000 0.0000 0.0000
# 4 0.0000 0.0000 0.0000 16.0928 0.0000 0.0000
# 5 0.0000 0.0000 0.0000 0.0000 15.0257 0.0000
# 6 0.0000 0.0000 0.0000 0.0000 0.0000 5.3866
#
#
#
# Elastic Compliance Matrix: (Units=1/GPa)
#
#
# Indices 1 2 3 4 5 6 
#
# 1 0.011254 -0.006978 -0.004574 0.000000 0.000000 0.000000
# 2 -0.006978 0.024540 -0.006117 0.000000 0.000000 0.000000
# 3 -0.004574 -0.006117 0.017676 0.000000 0.000000 0.000000
# 4 0.000000 0.000000 0.000000 0.062140 0.000000 0.000000
# 5 0.000000 0.000000 0.000000 0.000000 0.066553 0.000000
# 6 0.000000 0.000000 0.000000 0.000000 0.000000 0.185646
#
#
# Mechanical properties :
#
#
# Convention : Reuss Voigt Hill
#
# Bulk Modulus (GPa) = 55.14274 66.58285 60.86279
# Shear Modulus (GPa) = 12.21929 17.06424 14.64177
#
# Velocity S-wave (km/s) = 2.61064 3.08509 2.85773
# Velocity P-wave (km/s) = 6.31219 7.05887 6.69594
#
# Compressibility (1/GPa) = 0.01813475
#
# Stress axis : x y z
#
# Youngs Moduli (GPa) = 88.85378 40.74964 56.57431
#
# Poissons Ratio (x) = 0.28434 0.25875
# Poissons Ratio (y) = 0.62000 0.34604
# Poissons Ratio (z) = 0.40638 0.24925
#
# Static dielectric constant tensor:
#      x y z
#    x 4.475640 0.000000 0.000000 
#    y 0.000000 3.163830 0.000000 
#    z 0.000000 0.000000 3.138880 
# 
# 
# High freq. dielectric constant tensor:
#      x y z
#    x 1.710600 0.000000 0.000000 
#    y 0.000000 1.663910 0.000000 
#    z 0.000000 0.000000 1.669330 
# 
# From -- ./inp_files/28365.got.cif
#   From: 2010.06.25/outbox.cif.g09.slc.cpg/sg52_15_cif.got.tgz:28365.got - 2010.06.26 19:32:48.
