data_PCOD8215532
_publ_section_title
;
Structure prediction by ZEFSAII (Michael W. Deem and Ramdas Pophale) SiO2 
 PCOD8215532
Probable space group: P N N A
;
_chemical_formula_sum "Si O2"
_cell_formula_units_Z 48
_cell_length_a 8.516090
_cell_length_b 9.463586
_cell_length_c 31.134284
_cell_angle_alpha 90.000000
_cell_angle_beta 90.000000
_cell_angle_gamma 90.000000
_cell_volume 2509.197570
_symmetry_space_group_name_H-M "P N N A"
_symmetry_group_IT_number 52
_symmetry_cell_setting 'orthorhombic'
loop_
_space_group_symop_operation_xyz
x,y,z
1/2-x,-y,z
x,1/2-y,1/2-z
1/2-x,1/2+y,1/2-z
-x,-y,-z
1/2+x,y,-z
-x,1/2+y,1/2+z
1/2+x,1/2-y,1/2+z
loop_
_atom_site_type_symbol
_atom_site_label
_atom_site_fract_x
_atom_site_fract_y
_atom_site_fract_z
Si Si1 0.062976 0.229339 0.613760
Si Si2 0.435896 0.013181 0.452495
Si Si3 0.063592 0.498419 0.819890
Si Si4 0.905732 0.089262 0.232914
Si Si5 0.564960 0.711464 0.109629
Si Si6 0.067666 0.476855 0.356198
O O1 0.248873 0.230428 0.608215
O O2 0.986592 0.159326 0.571145
O O3 0.008846 0.386026 0.623027
O O4 0.007859 0.142602 0.656019
O O5 0.250000 0.000000 0.451313
O O6 0.500000 0.000000 0.500000
O O7 0.515739 0.879053 0.430822
O O8 0.250000 0.500000 0.815531
O O9 0.996186 0.511751 0.771425
O O10 0.009034 0.632841 0.847209
O O11 0.869627 0.250000 0.250000
O O12 0.002617 0.078987 0.189255
O O13 0.750000 0.000000 0.223134
O O14 0.472757 0.858806 0.108346
O O15 0.250000 0.500000 0.350701
#
# Coordination Sequence:
#
# PCOD8215532 Si02
#       6
#     8   8   8   8   8   8
#     4  10  21  39  63  88 115 162 209 246 302 363
#     4  11  22  40  66  98 127 156 192 244 300 367
#     4   8  17  33  57  82 109 149 203 252 296 351
#     4  11  22  38  60  85 115 159 214 260 306 362
#     4  10  19  39  63  86 117 160 205 250 297 369
#     4  12  25  39  55  87 126 164 202 260 317 359
#
# _framework density 19.129622000000001
#
# number of rings (size 3 to 8) (size 9 to 14) (size 15 to 20)
#    0.000    1.667    1.667    5.000    4.667    0.000 
#    3.000    1.667    0.000    0.000    0.000    0.000 
#    0.000    0.000    0.000    0.000    0.000    0.000 
#
# Total GULP energy -594830.968700 kJ/mol
# GULP energy per Si atom -12392.311848 kJ/mol
# Density = 1.908608 g / cm^3
# Si number density = 19.129622 Si / 1000 Ang^3
#
#
#
# Elastic Constant Matrix: (Units=GPa)
#
#
# Indices 1 2 3 4 5 6 
#
# 1 105.4571 52.8605 31.9818 0.0000 0.0000 0.0000
# 2 52.8605 158.8611 58.3516 0.0000 0.0000 0.0000
# 3 31.9818 58.3516 126.2804 0.0000 0.0000 0.0000
# 4 0.0000 0.0000 0.0000 8.9672 0.0000 0.0000
# 5 0.0000 0.0000 0.0000 0.0000 28.4060 0.0000
# 6 0.0000 0.0000 0.0000 0.0000 0.0000 27.8089
#
#
#
# Elastic Compliance Matrix: (Units=1/GPa)
#
#
# Indices 1 2 3 4 5 6 
#
# 1 0.011579 -0.003343 -0.001388 0.000000 0.000000 0.000000
# 2 -0.003343 0.008547 -0.003103 0.000000 0.000000 0.000000
# 3 -0.001388 -0.003103 0.009704 0.000000 0.000000 0.000000
# 4 0.000000 0.000000 0.000000 0.111517 0.000000 0.000000
# 5 0.000000 0.000000 0.000000 0.000000 0.035204 0.000000
# 6 0.000000 0.000000 0.000000 0.000000 0.000000 0.035960
#
#
# Mechanical properties :
#
#
# Convention : Reuss Voigt Hill
#
# Bulk Modulus (GPa) = 70.60684 75.22072 72.91378
# Shear Modulus (GPa) = 21.46855 29.53008 25.49932
#
# Velocity S-wave (km/s) = 3.35366 3.93324 3.65495
# Velocity P-wave (km/s) = 7.21012 7.74817 7.48398
#
# Compressibility (1/GPa) = 0.01416293
#
# Stress axis : x y z
#
# Youngs Moduli (GPa) = 86.36201 117.00168 103.05026
#
# Poissons Ratio (x) = 0.39116 0.14300
# Poissons Ratio (y) = 0.28873 0.31973
# Poissons Ratio (z) = 0.11985 0.36301
#
# Static dielectric constant tensor:
#      x y z
#    x 3.000510 0.000000 0.000000 
#    y 0.000000 3.229780 0.000000 
#    z 0.000000 0.000000 3.772650 
# 
# 
# High freq. dielectric constant tensor:
#      x y z
#    x 1.729610 0.000000 0.000000 
#    y 0.000000 1.755650 0.000000 
#    z 0.000000 0.000000 1.744190 
# 
# From -- ./inp_files/44395.got.cif
#   From: 2010.06.25/outbox.cif.g09.slc.cpg/sg52_23_cif.got.tgz:44395.got - 2010.06.26 19:32:48.
