data_PCOD8215657
_publ_section_title
;
Structure prediction by ZEFSAII (Michael W. Deem and Ramdas Pophale) SiO2 
 PCOD8215657
Probable space group: P N N A
;
_chemical_formula_sum "Si O2"
_cell_formula_units_Z 40
_cell_length_a 10.006168
_cell_length_b 8.520353
_cell_length_c 25.135602
_cell_angle_alpha 90.000000
_cell_angle_beta 90.000000
_cell_angle_gamma 90.000000
_cell_volume 2142.962984
_symmetry_space_group_name_H-M "P N N A"
_symmetry_group_IT_number 52
_symmetry_cell_setting 'orthorhombic'
loop_
_space_group_symop_operation_xyz
x,y,z
1/2-x,-y,z
x,1/2-y,1/2-z
1/2-x,1/2+y,1/2-z
-x,-y,-z
1/2+x,y,-z
-x,1/2+y,1/2+z
1/2+x,1/2-y,1/2+z
loop_
_atom_site_type_symbol
_atom_site_label
_atom_site_fract_x
_atom_site_fract_y
_atom_site_fract_z
Si Si1 0.750000 0.500000 0.819243
Si Si2 0.114309 0.597352 0.972249
Si Si3 0.386774 0.250000 0.250000
Si Si4 0.096028 0.530484 0.339193
Si Si5 0.695376 0.661851 0.556044
Si Si6 0.437776 0.703716 0.117222
O O1 0.710988 0.651246 0.786456
O O2 0.617261 0.447053 0.850997
O O3 0.250000 0.500000 0.967819
O O4 0.071829 0.650696 0.913069
O O5 0.124244 0.752241 0.007995
O O6 0.000000 0.500000 0.000000
O O7 0.470011 0.367439 0.290209
O O8 0.250000 0.500000 0.323398
O O9 0.093434 0.629638 0.394426
O O10 0.027283 0.359362 0.347221
O O11 0.750000 0.500000 0.532367
O O12 0.821219 0.762034 0.575185
#
# Coordination Sequence:
#
# PCOD8215657 Si02
#       6
#     4   8   4   8   8   8
#     4  12  18  32  52  86 120 150 182 262 282 364
#     4  12  23  37  58  86 116 166 201 235 292 348
#     4  12  18  28  56  84 118 148 194 228 330 334
#     4   9  18  31  49  81 116 153 183 237 302 345
#     4   9  19  36  53  81 121 158 185 238 289 344
#     4  10  20  35  51  76 125 147 193 243 289 335
#
# _framework density 18.665745999999999
#
# number of rings (size 3 to 8) (size 9 to 14) (size 15 to 20)
#    0.000    2.000    7.000    1.200    0.000    3.200 
#    0.000    0.000    0.000    0.000    0.000    4.200 
#    0.000    0.000    0.000    0.000    0.000    0.000 
#
# Total GULP energy -495586.933690 kJ/mol
# GULP energy per Si atom -12389.673342 kJ/mol
# Density = 1.862326 g / cm^3
# Si number density = 18.665746 Si / 1000 Ang^3
#
#
#
# Elastic Constant Matrix: (Units=GPa)
#
#
# Indices 1 2 3 4 5 6 
#
# 1 58.1743 40.4127 36.8476 0.0000 0.0000 0.0000
# 2 40.4127 130.4418 77.5184 0.0000 0.0000 0.0000
# 3 36.8476 77.5184 115.5984 0.0000 0.0000 0.0000
# 4 0.0000 0.0000 0.0000 47.6092 0.0000 0.0000
# 5 0.0000 0.0000 0.0000 0.0000 17.4478 0.0000
# 6 0.0000 0.0000 0.0000 0.0000 0.0000 19.6944
#
#
#
# Elastic Compliance Matrix: (Units=1/GPa)
#
#
# Indices 1 2 3 4 5 6 
#
# 1 0.023102 -0.004624 -0.004263 0.000000 0.000000 0.000000
# 2 -0.004624 0.013671 -0.007694 0.000000 0.000000 0.000000
# 3 -0.004263 -0.007694 0.015169 0.000000 0.000000 0.000000
# 4 0.000000 0.000000 0.000000 0.021004 0.000000 0.000000
# 5 0.000000 0.000000 0.000000 0.000000 0.057314 0.000000
# 6 0.000000 0.000000 0.000000 0.000000 0.000000 0.050776
#
#
# Mechanical properties :
#
#
# Convention : Reuss Voigt Hill
#
# Bulk Modulus (GPa) = 53.24687 68.19688 60.72187
# Shear Modulus (GPa) = 22.68010 26.91266 24.79638
#
# Velocity S-wave (km/s) = 3.48956 3.80125 3.64874
# Velocity P-wave (km/s) = 6.69511 7.47537 7.09597
#
# Compressibility (1/GPa) = 0.01878045
#
# Stress axis : x y z
#
# Youngs Moduli (GPa) = 43.28598 73.14802 65.92478
#
# Poissons Ratio (x) = 0.33822 0.28106
# Poissons Ratio (y) = 0.20015 0.50720
# Poissons Ratio (z) = 0.18454 0.56277
#
# Static dielectric constant tensor:
#      x y z
#    x 0.766070 0.000000 0.000000 
#    y 0.000000 3.998120 0.000000 
#    z 0.000000 0.000000 3.665870 
# 
# 
# High freq. dielectric constant tensor:
#      x y z
#    x 1.643950 0.000000 0.000000 
#    y 0.000000 1.755380 0.000000 
#    z 0.000000 0.000000 1.726130 
# 
# From -- ./inp_files/42152.got.cif
#   From: 2010.06.25/outbox.cif.g09.slc.cpg/sg52_22_cif.got.tgz:42152.got - 2010.06.26 19:32:48.
