data_PCOD8215192
_publ_section_title
;
Structure prediction by ZEFSAII (Michael W. Deem and Ramdas Pophale) SiO2 
 PCOD8215192
Probable space group: P N N A
;
_chemical_formula_sum "Si O2"
_cell_formula_units_Z 64
_cell_length_a 8.877346
_cell_length_b 15.114443
_cell_length_c 24.299752
_cell_angle_alpha 90.000000
_cell_angle_beta 90.000000
_cell_angle_gamma 90.000000
_cell_volume 3260.446929
_symmetry_space_group_name_H-M "P N N A"
_symmetry_group_IT_number 52
_symmetry_cell_setting 'orthorhombic'
loop_
_space_group_symop_operation_xyz
x,y,z
1/2-x,-y,z
x,1/2-y,1/2-z
1/2-x,1/2+y,1/2-z
-x,-y,-z
1/2+x,y,-z
-x,1/2+y,1/2+z
1/2+x,1/2-y,1/2+z
loop_
_atom_site_type_symbol
_atom_site_label
_atom_site_fract_x
_atom_site_fract_y
_atom_site_fract_z
Si Si1 0.644559 0.278865 0.692396
Si Si2 0.639504 0.572236 0.734915
Si Si3 0.404768 0.161643 0.342550
Si Si4 0.307269 0.096867 0.453589
Si Si5 0.925133 0.478905 0.620634
Si Si6 0.917000 0.694701 0.402207
Si Si7 0.034871 0.209227 0.485317
Si Si8 0.421301 0.156212 0.897343
O O1 0.571518 0.250000 0.750000
O O2 0.763267 0.357296 0.700623
O O3 0.736447 0.197534 0.666742
O O4 0.506895 0.304597 0.654637
O O5 0.750000 0.500000 0.762103
O O6 0.543484 0.612855 0.785737
O O7 0.537634 0.527855 0.686706
O O8 0.392412 0.095297 0.394573
O O9 0.523959 0.239261 0.354601
O O10 0.172003 0.167820 0.451015
O O11 0.420650 0.129142 0.501175
O O12 0.250000 0.000000 0.469743
O O13 0.750000 0.500000 0.609953
O O14 0.967364 0.386928 0.590980
O O15 0.026052 0.555498 0.593204
O O16 0.905112 0.746907 0.459001
O O17 0.755446 0.657692 0.384272
O O18 0.954676 0.285596 0.450800
#
# Coordination Sequence:
#
# PCOD8215192 Si02
#       8
#     8   8   8   8   8   8   8   8
#     4  10  19  35  60  87 115 165 203 248 305 365
#     4  10  18  35  62  95 116 154 208 260 291 366
#     4  10  20  36  64  90 123 157 213 248 308 374
#     4  11  22  40  64  93 117 162 204 262 309 366
#     4  11  22  38  65  90 121 161 211 257 304 370
#     4  11  24  40  60  94 124 166 206 257 318 366
#     4  11  24  41  63  89 125 162 208 255 308 374
#     4  12  22  41  62  88 131 161 200 262 313 371
#
# _framework density 19.62921
#
# number of rings (size 3 to 8) (size 9 to 14) (size 15 to 20)
#    0.000    1.250    6.250    1.125    1.750    0.500 
#    2.250    0.000    0.000    0.000    0.000    0.000 
#    0.000    0.000    0.000    0.000    0.000    0.000 
#
# Total GULP energy -793544.022146 kJ/mol
# GULP energy per Si atom -12399.125346 kJ/mol
# Density = 1.958453 g / cm^3
# Si number density = 19.629210 Si / 1000 Ang^3
#
#
#
# Elastic Constant Matrix: (Units=GPa)
#
#
# Indices 1 2 3 4 5 6 
#
# 1 78.8747 17.5131 26.5576 0.0000 0.0000 0.0000
# 2 17.5131 91.3840 34.6183 0.0000 0.0000 0.0000
# 3 26.5576 34.6183 86.3765 0.0000 0.0000 0.0000
# 4 0.0000 0.0000 0.0000 31.6810 0.0000 0.0000
# 5 0.0000 0.0000 0.0000 0.0000 23.4478 0.0000
# 6 0.0000 0.0000 0.0000 0.0000 0.0000 32.2041
#
#
#
# Elastic Compliance Matrix: (Units=1/GPa)
#
#
# Indices 1 2 3 4 5 6 
#
# 1 0.014265 -0.001264 -0.003879 0.000000 0.000000 0.000000
# 2 -0.001264 0.013014 -0.004827 0.000000 0.000000 0.000000
# 3 -0.003879 -0.004827 0.014705 0.000000 0.000000 0.000000
# 4 0.000000 0.000000 0.000000 0.031565 0.000000 0.000000
# 5 0.000000 0.000000 0.000000 0.000000 0.042648 0.000000
# 6 0.000000 0.000000 0.000000 0.000000 0.000000 0.031052
#
#
# Mechanical properties :
#
#
# Convention : Reuss Voigt Hill
#
# Bulk Modulus (GPa) = 45.36721 46.00148 45.68434
# Shear Modulus (GPa) = 28.64729 29.32966 28.98848
#
# Velocity S-wave (km/s) = 3.82438 3.86966 3.84709
# Velocity P-wave (km/s) = 6.53173 6.59180 6.56183
#
# Compressibility (1/GPa) = 0.02204235
#
# Stress axis : x y z
#
# Youngs Moduli (GPa) = 70.10042 76.84226 68.00623
#
# Poissons Ratio (x) = 0.09715 0.26382
# Poissons Ratio (y) = 0.08862 0.32826
# Poissons Ratio (z) = 0.27194 0.37091
#
# Static dielectric constant tensor:
#      x y z
#    x 3.399450 0.000000 0.000000 
#    y 0.000000 3.735220 0.000000 
#    z 0.000000 0.000000 3.597680 
# 
# 
# High freq. dielectric constant tensor:
#      x y z
#    x 1.738540 0.000000 0.000000 
#    y 0.000000 1.775500 0.000000 
#    z 0.000000 0.000000 1.765730 
# 
# From -- ./inp_files/39659.got.cif
#   From: 2010.06.25/outbox.cif.g09.slc.cpg/sg52_20_cif.got.tgz:39659.got - 2010.06.26 19:32:48.
