data_PCOD8215502
_publ_section_title
;
Structure prediction by ZEFSAII (Michael W. Deem and Ramdas Pophale) SiO2 
 PCOD8215502
Probable space group: P N N A
;
_chemical_formula_sum "Si O2"
_cell_formula_units_Z 40
_cell_length_a 8.823745
_cell_length_b 13.907305
_cell_length_c 15.787401
_cell_angle_alpha 90.000000
_cell_angle_beta 90.000000
_cell_angle_gamma 90.000000
_cell_volume 1937.343225
_symmetry_space_group_name_H-M "P N N A"
_symmetry_group_IT_number 52
_symmetry_cell_setting 'orthorhombic'
loop_
_space_group_symop_operation_xyz
x,y,z
1/2-x,-y,z
x,1/2-y,1/2-z
1/2-x,1/2+y,1/2-z
-x,-y,-z
1/2+x,y,-z
-x,1/2+y,1/2+z
1/2+x,1/2-y,1/2+z
loop_
_atom_site_type_symbol
_atom_site_label
_atom_site_fract_x
_atom_site_fract_y
_atom_site_fract_z
Si Si1 0.427783 0.297606 0.663556
Si Si2 0.642586 0.408817 0.287972
Si Si3 0.124213 0.625575 0.953054
Si Si4 0.943674 0.920633 0.396516
Si Si5 0.069968 0.011590 0.092332
O O1 0.491693 0.250000 0.750000
O O2 0.250706 0.324587 0.677762
O O3 0.439127 0.222773 0.587286
O O4 0.530232 0.387528 0.636399
O O5 0.750000 0.500000 0.272090
O O6 0.562719 0.381877 0.199204
O O7 0.506726 0.426816 0.353340
O O8 0.052604 0.536743 0.899881
O O9 0.303782 0.620981 0.949380
O O10 0.087775 0.621371 0.053377
O O11 0.250000 0.000000 0.088476
O O12 0.000000 0.000000 0.000000
#
# Coordination Sequence:
#
# PCOD8215502 Si02
#       5
#     8   8   8   8   8
#     4  11  21  41  71  95 128 176 234 277 330 405
#     4  10  19  40  68  89 127 175 217 270 339 406
#     4  10  20  35  60  91 126 165 211 268 317 404
#     4  10  19  38  57  93 131 168 208 260 346 387
#     4  11  25  46  70  98 135 181 226 284 350 408
#
# _framework density 20.646830999999999
#
# number of rings (size 3 to 8) (size 9 to 14) (size 15 to 20)
#    0.000    1.600    4.000    3.000    0.000    3.200 
#   10.800    1.000    0.000    0.000    0.000    0.000 
#    0.000    0.000    0.000    0.000    0.000    0.000 
#
# Total GULP energy -495953.742906 kJ/mol
# GULP energy per Si atom -12398.843573 kJ/mol
# Density = 2.059984 g / cm^3
# Si number density = 20.646831 Si / 1000 Ang^3
#
#
#
# Elastic Constant Matrix: (Units=GPa)
#
#
# Indices 1 2 3 4 5 6 
#
# 1 119.4689 32.9315 83.7382 0.0000 0.0000 0.0000
# 2 32.9315 84.3517 36.1106 0.0000 0.0000 0.0000
# 3 83.7382 36.1106 158.4633 0.0000 0.0000 0.0000
# 4 0.0000 0.0000 0.0000 36.3225 0.0000 0.0000
# 5 0.0000 0.0000 0.0000 0.0000 42.4389 0.0000
# 6 0.0000 0.0000 0.0000 0.0000 0.0000 20.0613
#
#
#
# Elastic Compliance Matrix: (Units=1/GPa)
#
#
# Indices 1 2 3 4 5 6 
#
# 1 0.013755 -0.002503 -0.006699 0.000000 0.000000 0.000000
# 2 -0.002503 0.013592 -0.001775 0.000000 0.000000 0.000000
# 3 -0.006699 -0.001775 0.010255 0.000000 0.000000 0.000000
# 4 0.000000 0.000000 0.000000 0.027531 0.000000 0.000000
# 5 0.000000 0.000000 0.000000 0.000000 0.023563 0.000000
# 6 0.000000 0.000000 0.000000 0.000000 0.000000 0.049847
#
#
# Mechanical properties :
#
#
# Convention : Reuss Voigt Hill
#
# Bulk Modulus (GPa) = 63.89721 74.20494 69.05107
# Shear Modulus (GPa) = 30.17270 33.73144 31.95207
#
# Velocity S-wave (km/s) = 3.82694 4.04633 3.93816
# Velocity P-wave (km/s) = 7.10930 7.60582 7.36175
#
# Compressibility (1/GPa) = 0.01565014
#
# Stress axis : x y z
#
# Youngs Moduli (GPa) = 72.69867 73.57288 97.51452
#
# Poissons Ratio (x) = 0.18412 0.65321
# Poissons Ratio (y) = 0.18193 0.17308
# Poissons Ratio (z) = 0.48698 0.13058
#
# Static dielectric constant tensor:
#      x y z
#    x 3.620000 0.000000 0.000000 
#    y 0.000000 3.795590 0.000000 
#    z 0.000000 0.000000 3.876040 
# 
# 
# High freq. dielectric constant tensor:
#      x y z
#    x 1.785840 0.000000 0.000000 
#    y 0.000000 1.805100 0.000000 
#    z 0.000000 0.000000 1.816620 
# 
# From -- ./inp_files/24446.got.cif
#   From: 2010.06.25/outbox.cif.g09.slc.cpg/sg52_13_cif.got.tgz:24446.got - 2010.06.26 19:32:48.
