data_PCOD8215838
_publ_section_title
;
Structure prediction by ZEFSAII (Michael W. Deem and Ramdas Pophale) SiO2 
 PCOD8215838
Probable space group: P N N A
;
_chemical_formula_sum "Si O2"
_cell_formula_units_Z 52
_cell_length_a 8.929708
_cell_length_b 24.266880
_cell_length_c 11.671217
_cell_angle_alpha 90.000000
_cell_angle_beta 90.000000
_cell_angle_gamma 90.000000
_cell_volume 2529.107819
_symmetry_space_group_name_H-M "P N N A"
_symmetry_group_IT_number 52
_symmetry_cell_setting 'orthorhombic'
loop_
_space_group_symop_operation_xyz
x,y,z
1/2-x,-y,z
x,1/2-y,1/2-z
1/2-x,1/2+y,1/2-z
-x,-y,-z
1/2+x,y,-z
-x,1/2+y,1/2+z
1/2+x,1/2-y,1/2+z
loop_
_atom_site_type_symbol
_atom_site_label
_atom_site_fract_x
_atom_site_fract_y
_atom_site_fract_z
Si Si1 0.959058 0.048173 0.144814
Si Si2 0.750000 0.500000 0.170635
Si Si3 0.132744 0.838373 0.774317
Si Si4 0.663424 0.384390 0.096608
Si Si5 0.750000 0.500000 0.540976
Si Si6 0.729196 0.250000 0.750000
Si Si7 0.867871 0.328244 0.911804
Si Si8 0.970181 0.255564 0.095851
O O1 0.895277 0.012734 0.251193
O O2 0.964977 0.112343 0.174470
O O3 0.847922 0.041491 0.036539
O O4 0.130886 0.032055 0.120045
O O5 0.709402 0.448533 0.088430
O O6 0.287438 0.861217 0.721626
O O7 0.155228 0.790713 0.870880
O O8 0.043560 0.812013 0.668473
O O9 0.484341 0.378485 0.096866
O O10 0.730006 0.349555 0.989678
O O11 0.821062 0.304899 0.787114
O O12 0.632428 0.232431 0.863866
O O13 0.950671 0.273802 0.965421
#
# Coordination Sequence:
#
# PCOD8215838 Si02
#       8
#     8   4   8   8   4   4   8   8
#     4   9  17  36  53  81 111 150 190 248 289 349
#     4   9  20  40  58  77 116 154 208 237 297 350
#     4   8  17  35  58  75 113 153 188 226 295 341
#     4  10  21  38  60  87 114 158 194 250 292 352
#     4   9  18  32  56  81 114 144 194 245 299 334
#     4  10  20  38  58  88 120 156 194 242 292 360
#     4  11  21  38  62  86 122 153 197 242 302 347
#     4   9  19  39  56  84 118 156 186 244 285 356
#
# _framework density 20.560608999999999
#
# number of rings (size 3 to 8) (size 9 to 14) (size 15 to 20)
#    0.000    2.769    1.538    0.000    0.000    3.077 
#   11.077    3.077    0.000    0.000    0.000    0.000 
#    0.000    0.000    0.000    0.000    0.000    0.000 
#
# Total GULP energy -644236.871769 kJ/mol
# GULP energy per Si atom -12389.170611 kJ/mol
# Density = 2.051381 g / cm^3
# Si number density = 20.560609 Si / 1000 Ang^3
#
#
#
# Elastic Constant Matrix: (Units=GPa)
#
#
# Indices 1 2 3 4 5 6 
#
# 1 90.2121 28.6212 16.0049 0.0000 0.0000 0.0000
# 2 28.6212 119.8219 35.4702 0.0000 0.0000 0.0000
# 3 16.0049 35.4702 53.4169 0.0000 0.0000 0.0000
# 4 0.0000 0.0000 0.0000 25.3183 0.0000 0.0000
# 5 0.0000 0.0000 0.0000 0.0000 14.6460 0.0000
# 6 0.0000 0.0000 0.0000 0.0000 0.0000 27.5789
#
#
#
# Elastic Compliance Matrix: (Units=1/GPa)
#
#
# Indices 1 2 3 4 5 6 
#
# 1 0.012187 -0.002278 -0.002139 0.000000 0.000000 0.000000
# 2 -0.002278 0.010813 -0.006498 0.000000 0.000000 0.000000
# 3 -0.002139 -0.006498 0.023676 0.000000 0.000000 0.000000
# 4 0.000000 0.000000 0.000000 0.039497 0.000000 0.000000
# 5 0.000000 0.000000 0.000000 0.000000 0.068278 0.000000
# 6 0.000000 0.000000 0.000000 0.000000 0.000000 0.036260
#
#
# Mechanical properties :
#
#
# Convention : Reuss Voigt Hill
#
# Bulk Modulus (GPa) = 40.24568 47.07152 43.65860
# Shear Modulus (GPa) = 22.64252 25.73228 24.18740
#
# Velocity S-wave (km/s) = 3.32212 3.54154 3.43358
# Velocity P-wave (km/s) = 5.85935 6.29818 6.08272
#
# Compressibility (1/GPa) = 0.02484739
#
# Stress axis : x y z
#
# Youngs Moduli (GPa) = 82.05351 92.47837 42.23638
#
# Poissons Ratio (x) = 0.21066 0.09034
# Poissons Ratio (y) = 0.18691 0.27444
# Poissons Ratio (z) = 0.17551 0.60091
#
# Static dielectric constant tensor:
#      x y z
#    x 3.757540 0.000000 0.000000 
#    y 0.000000 3.785160 0.000000 
#    z 0.000000 0.000000 3.697190 
# 
# 
# High freq. dielectric constant tensor:
#      x y z
#    x 1.793040 0.000000 0.000000 
#    y 0.000000 1.797670 0.000000 
#    z 0.000000 0.000000 1.783700 
# 
# From -- ./inp_files/17105.got.cif
#   From: 2010.06.25/outbox.cif.g09.slc.cpg/sg52_9_cif.got.tgz:17105.got - 2010.06.26 19:32:48.
