data_PCOD8215898
_publ_section_title
;
Structure prediction by ZEFSAII (Michael W. Deem and Ramdas Pophale) SiO2 
 PCOD8215898
Probable space group: P N N A
;
_chemical_formula_sum "Si O2"
_cell_formula_units_Z 40
_cell_length_a 11.700284
_cell_length_b 23.697529
_cell_length_c 6.846591
_cell_angle_alpha 90.000000
_cell_angle_beta 90.000000
_cell_angle_gamma 90.000000
_cell_volume 1898.339357
_symmetry_space_group_name_H-M "P N N A"
_symmetry_group_IT_number 52
_symmetry_cell_setting 'orthorhombic'
loop_
_space_group_symop_operation_xyz
x,y,z
1/2-x,-y,z
x,1/2-y,1/2-z
1/2-x,1/2+y,1/2-z
-x,-y,-z
1/2+x,y,-z
-x,1/2+y,1/2+z
1/2+x,1/2-y,1/2+z
loop_
_atom_site_type_symbol
_atom_site_label
_atom_site_fract_x
_atom_site_fract_y
_atom_site_fract_z
Si Si1 0.861412 0.750000 0.750000
Si Si2 0.221155 0.827158 0.502901
Si Si3 0.908419 0.582322 0.023671
Si Si4 0.250000 0.000000 0.321175
Si Si5 0.602114 0.598159 0.692920
Si Si6 0.966112 0.153219 0.209495
O O1 0.784263 0.770413 0.568101
O O2 0.936179 0.801115 0.837968
O O3 0.312208 0.872408 0.579253
O O4 0.148420 0.850347 0.321218
O O5 0.136688 0.813713 0.681839
O O6 0.849740 0.523633 0.962088
O O7 0.985956 0.603732 0.845486
O O8 0.985846 0.572785 0.215005
O O9 0.302131 0.048926 0.183751
O O10 0.579499 0.622507 0.481029
#
# Coordination Sequence:
#
# PCOD8215898 Si02
#       6
#     4   8   8   4   8   8
#     4  10  22  40  64  92 122 170 212 256 326 380
#     4   9  21  40  60  87 127 160 204 264 320 373
#     4   9  20  40  59  89 128 164 205 262 315 378
#     4  10  20  38  66  90 124 172 212 260 326 376
#     4  10  21  39  62  89 125 164 211 265 315 379
#     4  10  22  40  59  93 128 160 215 263 310 383
#
# _framework density 21.071048000000001
#
# number of rings (size 3 to 8) (size 9 to 14) (size 15 to 20)
#    0.000    2.400    0.000    0.600    2.800    5.600 
#    0.000   12.000    0.000    0.000    0.000    0.000 
#    0.000    0.000    0.000    0.000    0.000    0.000 
#
# Total GULP energy -496110.243797 kJ/mol
# GULP energy per Si atom -12402.756095 kJ/mol
# Density = 2.102309 g / cm^3
# Si number density = 21.071048 Si / 1000 Ang^3
#
#
#
# Elastic Constant Matrix: (Units=GPa)
#
#
# Indices 1 2 3 4 5 6 
#
# 1 123.6682 41.1750 72.1569 0.0000 0.0000 0.0000
# 2 41.1750 94.2294 56.4510 0.0000 0.0000 0.0000
# 3 72.1569 56.4510 128.2624 0.0000 0.0000 0.0000
# 4 0.0000 0.0000 0.0000 18.6452 0.0000 0.0000
# 5 0.0000 0.0000 0.0000 0.0000 18.5921 0.0000
# 6 0.0000 0.0000 0.0000 0.0000 0.0000 31.9394
#
#
#
# Elastic Compliance Matrix: (Units=1/GPa)
#
#
# Indices 1 2 3 4 5 6 
#
# 1 0.012225 -0.001659 -0.006147 0.000000 0.000000 0.000000
# 2 -0.001659 0.014638 -0.005509 0.000000 0.000000 0.000000
# 3 -0.006147 -0.005509 0.013679 0.000000 0.000000 0.000000
# 4 0.000000 0.000000 0.000000 0.053633 0.000000 0.000000
# 5 0.000000 0.000000 0.000000 0.000000 0.053786 0.000000
# 6 0.000000 0.000000 0.000000 0.000000 0.000000 0.031309
#
#
# Mechanical properties :
#
#
# Convention : Reuss Voigt Hill
#
# Bulk Modulus (GPa) = 71.88337 76.19176 74.03756
# Shear Modulus (GPa) = 23.74848 25.59382 24.67115
#
# Velocity S-wave (km/s) = 3.36082 3.48895 3.42549
# Velocity P-wave (km/s) = 7.01776 7.24350 7.13153
#
# Compressibility (1/GPa) = 0.01391142
#
# Stress axis : x y z
#
# Youngs Moduli (GPa) = 81.79663 68.31659 73.10226
#
# Poissons Ratio (x) = 0.11336 0.44939
# Poissons Ratio (y) = 0.13573 0.40271
# Poissons Ratio (z) = 0.50284 0.37635
#
# Static dielectric constant tensor:
#      x y z
#    x 4.210230 0.000000 0.000000 
#    y 0.000000 3.718310 0.000000 
#    z 0.000000 0.000000 3.445180 
# 
# 
# High freq. dielectric constant tensor:
#      x y z
#    x 1.848900 0.000000 0.000000 
#    y 0.000000 1.822710 0.000000 
#    z 0.000000 0.000000 1.798390 
# 
# From -- ./inp_files/1422.got.cif
#   From: 2010.06.25/outbox.cif.g09.slc.cpg/sg52_1_cif.got.tgz:1422.got - 2010.06.26 19:32:48.
