data_PCOD8215542
_publ_section_title
;
Structure prediction by ZEFSAII (Michael W. Deem and Ramdas Pophale) SiO2 
 PCOD8215542
Probable space group: P N N A
;
_chemical_formula_sum "Si O2"
_cell_formula_units_Z 48
_cell_length_a 8.635359
_cell_length_b 13.631512
_cell_length_c 18.966011
_cell_angle_alpha 90.000000
_cell_angle_beta 90.000000
_cell_angle_gamma 90.000000
_cell_volume 2232.546050
_symmetry_space_group_name_H-M "P N N A"
_symmetry_group_IT_number 52
_symmetry_cell_setting 'orthorhombic'
loop_
_space_group_symop_operation_xyz
x,y,z
1/2-x,-y,z
x,1/2-y,1/2-z
1/2-x,1/2+y,1/2-z
-x,-y,-z
1/2+x,y,-z
-x,1/2+y,1/2+z
1/2+x,1/2-y,1/2+z
loop_
_atom_site_type_symbol
_atom_site_label
_atom_site_fract_x
_atom_site_fract_y
_atom_site_fract_z
Si Si1 0.407585 0.561104 0.055106
Si Si2 0.775207 0.615656 0.425908
Si Si3 0.068899 0.023741 0.291854
Si Si4 0.304748 0.832553 0.192659
Si Si5 0.036599 0.146407 0.786984
Si Si6 0.548313 0.283661 0.547109
O O1 0.250000 0.500000 0.061141
O O2 0.485947 0.567403 0.133021
O O3 0.414005 0.671685 0.024604
O O4 0.500000 0.500000 0.000000
O O5 0.750000 0.500000 0.436444
O O6 0.836137 0.634454 0.347155
O O7 0.900701 0.646198 0.483829
O O8 0.627686 0.686171 0.437120
O O9 0.061205 0.098269 0.225410
O O10 0.250000 0.000000 0.299622
O O11 0.950693 0.935005 0.274977
O O12 0.275214 0.750000 0.250000
O O13 0.352599 0.795870 0.117126
O O14 0.133654 0.877498 0.180531
O O15 0.059940 0.250000 0.750000
#
# Coordination Sequence:
#
# PCOD8215542 Si02
#       6
#     8   8   8   8   8   8
#     4  11  24  42  66  98 135 175 226 278 340 412
#     4  12  27  46  65 100 135 180 231 286 344 408
#     4   9  19  38  65  94 126 167 218 270 330 404
#     4  10  19  39  67  98 126 169 222 270 338 405
#     4  10  23  41  67  93 132 175 218 277 340 407
#     4  12  25  43  72  96 137 178 223 282 339 412
#
# _framework density 21.500115000000001
#
# number of rings (size 3 to 8) (size 9 to 14) (size 15 to 20)
#    0.000    1.333    1.667    3.500    4.667    2.667 
#    3.000    0.000    0.000    0.000    0.000    0.000 
#    0.000    0.000    0.000    0.000    0.000    0.000 
#
# Total GULP energy -594734.268997 kJ/mol
# GULP energy per Si atom -12390.297271 kJ/mol
# Density = 2.145118 g / cm^3
# Si number density = 21.500115 Si / 1000 Ang^3
#
#
#
# Elastic Constant Matrix: (Units=GPa)
#
#
# Indices 1 2 3 4 5 6 
#
# 1 79.6027 37.8035 38.1707 0.0000 0.0000 0.0000
# 2 37.8035 163.8400 51.2702 0.0000 0.0000 0.0000
# 3 38.1707 51.2702 120.8158 0.0000 0.0000 0.0000
# 4 0.0000 0.0000 0.0000 41.8580 0.0000 0.0000
# 5 0.0000 0.0000 0.0000 0.0000 26.8011 0.0000
# 6 0.0000 0.0000 0.0000 0.0000 0.0000 31.8169
#
#
#
# Elastic Compliance Matrix: (Units=1/GPa)
#
#
# Indices 1 2 3 4 5 6 
#
# 1 0.015562 -0.002366 -0.003913 0.000000 0.000000 0.000000
# 2 -0.002366 0.007398 -0.002392 0.000000 0.000000 0.000000
# 3 -0.003913 -0.002392 0.010528 0.000000 0.000000 0.000000
# 4 0.000000 0.000000 0.000000 0.023890 0.000000 0.000000
# 5 0.000000 0.000000 0.000000 0.000000 0.037312 0.000000
# 6 0.000000 0.000000 0.000000 0.000000 0.000000 0.031430
#
#
# Mechanical properties :
#
#
# Convention : Reuss Voigt Hill
#
# Bulk Modulus (GPa) = 61.93112 68.74969 65.34040
# Shear Modulus (GPa) = 33.59210 35.89613 34.74412
#
# Velocity S-wave (km/s) = 3.95703 4.09048 4.02431
# Velocity P-wave (km/s) = 7.05301 7.37260 7.21458
#
# Compressibility (1/GPa) = 0.01614697
#
# Stress axis : x y z
#
# Youngs Moduli (GPa) = 64.25767 135.17172 94.98289
#
# Poissons Ratio (x) = 0.31987 0.37163
# Poissons Ratio (y) = 0.15206 0.22718
# Poissons Ratio (z) = 0.25141 0.32331
#
# Static dielectric constant tensor:
#      x y z
#    x 3.666970 0.000000 0.000000 
#    y 0.000000 4.478390 0.000000 
#    z 0.000000 0.000000 4.406150 
# 
# 
# High freq. dielectric constant tensor:
#      x y z
#    x 1.822540 0.000000 0.000000 
#    y 0.000000 1.857590 0.000000 
#    z 0.000000 0.000000 1.859380 
# 
# From -- ./inp_files/31215.got.cif
#   From: 2010.06.25/outbox.cif.g09.slc.cpg/sg52_16_cif.got.tgz:31215.got - 2010.06.26 19:32:48.
