data_PCOD8215022
_publ_section_title
;
Structure prediction by ZEFSAII (Michael W. Deem and Ramdas Pophale) SiO2 
 PCOD8215022
Probable space group: P N N A
;
_chemical_formula_sum "Si O2"
_cell_formula_units_Z 64
_cell_length_a 18.633890
_cell_length_b 9.355617
_cell_length_c 17.242207
_cell_angle_alpha 90.000000
_cell_angle_beta 90.000000
_cell_angle_gamma 90.000000
_cell_volume 3005.860466
_symmetry_space_group_name_H-M "P N N A"
_symmetry_group_IT_number 52
_symmetry_cell_setting 'orthorhombic'
loop_
_space_group_symop_operation_xyz
x,y,z
1/2-x,-y,z
x,1/2-y,1/2-z
1/2-x,1/2+y,1/2-z
-x,-y,-z
1/2+x,y,-z
-x,1/2+y,1/2+z
1/2+x,1/2-y,1/2+z
loop_
_atom_site_type_symbol
_atom_site_label
_atom_site_fract_x
_atom_site_fract_y
_atom_site_fract_z
Si Si1 0.723798 0.779479 0.336308
Si Si2 0.622364 0.278237 0.506126
Si Si3 0.359848 0.434155 0.573909
Si Si4 0.037971 0.692322 0.452346
Si Si5 0.006297 0.517294 0.667275
Si Si6 0.852604 0.562117 0.117011
Si Si7 0.908278 0.725964 0.830497
Si Si8 0.484476 0.431651 0.167132
O O1 0.694352 0.750000 0.250000
O O2 0.711244 0.639817 0.390371
O O3 0.807201 0.826425 0.329326
O O4 0.680513 0.905496 0.379186
O O5 0.659657 0.418887 0.469810
O O6 0.536242 0.275495 0.495994
O O7 0.653659 0.133011 0.468483
O O8 0.640579 0.276082 0.597616
O O9 0.399101 0.320774 0.515778
O O10 0.409304 0.473579 0.648289
O O11 0.033211 0.539322 0.410011
O O12 0.052733 0.807337 0.383746
O O13 0.977929 0.674694 0.684421
O O14 0.990088 0.409281 0.739416
O O15 0.934388 0.549287 0.140493
O O16 0.863197 0.750000 0.750000
O O17 0.935467 0.568172 0.849455
#
# Coordination Sequence:
#
# PCOD8215022 Si02
#       8
#     8   8   8   8   8   8   8   8
#     4  11  25  42  58  81 116 158 205 246 276 332
#     4  10  20  36  56  84 113 149 194 240 289 354
#     4  11  20  35  59  78 116 159 192 239 284 340
#     4  10  19  31  50  81 113 148 189 233 290 352
#     4  10  17  33  50  79 116 149 188 230 293 347
#     4  10  24  39  56  83 113 153 204 241 283 337
#     4  10  19  32  53  85 120 150 184 231 293 361
#     4  10  21  31  55  84 115 154 185 237 294 350
#
# _framework density 21.291740999999998
#
# number of rings (size 3 to 8) (size 9 to 14) (size 15 to 20)
#    0.000    1.750    2.500    2.625    1.750    7.500 
#    0.000    0.000    0.000    0.000    0.000    5.250 
#    0.000    0.000    0.000    0.000    0.000    0.000 
#
# Total GULP energy -793052.478112 kJ/mol
# GULP energy per Si atom -12391.444971 kJ/mol
# Density = 2.124328 g / cm^3
# Si number density = 21.291741 Si / 1000 Ang^3
#
#
#
# Elastic Constant Matrix: (Units=GPa)
#
#
# Indices 1 2 3 4 5 6 
#
# 1 19.4889 11.1616 8.0828 0.0000 0.0000 0.0000
# 2 11.1616 87.3990 46.7468 0.0000 0.0000 0.0000
# 3 8.0828 46.7468 147.4966 0.0000 0.0000 0.0000
# 4 0.0000 0.0000 0.0000 36.7920 0.0000 0.0000
# 5 0.0000 0.0000 0.0000 0.0000 16.2083 0.0000
# 6 0.0000 0.0000 0.0000 0.0000 0.0000 25.0679
#
#
#
# Elastic Compliance Matrix: (Units=1/GPa)
#
#
# Indices 1 2 3 4 5 6 
#
# 1 0.055472 -0.006573 -0.000957 0.000000 0.000000 0.000000
# 2 -0.006573 0.014556 -0.004253 0.000000 0.000000 0.000000
# 3 -0.000957 -0.004253 0.008180 0.000000 0.000000 0.000000
# 4 0.000000 0.000000 0.000000 0.027180 0.000000 0.000000
# 5 0.000000 0.000000 0.000000 0.000000 0.061697 0.000000
# 6 0.000000 0.000000 0.000000 0.000000 0.000000 0.039892
#
#
# Mechanical properties :
#
#
# Convention : Reuss Voigt Hill
#
# Bulk Modulus (GPa) = 18.30039 42.92966 30.61503
# Shear Modulus (GPa) = 20.09999 28.17319 24.13659
#
# Velocity S-wave (km/s) = 3.07584 3.64152 3.37057
# Velocity P-wave (km/s) = 4.60739 6.15527 5.43670
#
# Compressibility (1/GPa) = 0.05464364
#
# Stress axis : x y z
#
# Youngs Moduli (GPa) = 18.02699 68.70011 122.24609
#
# Poissons Ratio (x) = 0.45153 0.11697
# Poissons Ratio (y) = 0.11848 0.51993
# Poissons Ratio (z) = 0.01725 0.29219
#
# Static dielectric constant tensor:
#      x y z
#    x 3.318190 0.000000 0.000000 
#    y 0.000000 3.991660 0.000000 
#    z 0.000000 0.000000 4.271860 
# 
# 
# High freq. dielectric constant tensor:
#      x y z
#    x 1.773100 0.000000 0.000000 
#    y 0.000000 1.848690 0.000000 
#    z 0.000000 0.000000 1.849470 
# 
# From -- ./inp_files/34113.got.cif
#   From: 2010.06.25/outbox.cif.g09.slc.cpg/sg52_18_cif.got.tgz:34113.got - 2010.06.26 19:32:48.
