data_PCOD8215316
_publ_section_title
;
Structure prediction by ZEFSAII (Michael W. Deem and Ramdas Pophale) SiO2 
 PCOD8215316
Probable space group: P N N A
;
_chemical_formula_sum "Si O2"
_cell_formula_units_Z 60
_cell_length_a 17.875058
_cell_length_b 5.193007
_cell_length_c 32.605264
_cell_angle_alpha 90.000000
_cell_angle_beta 90.000000
_cell_angle_gamma 90.000000
_cell_volume 3026.593455
_symmetry_space_group_name_H-M "P N N A"
_symmetry_group_IT_number 52
_symmetry_cell_setting 'orthorhombic'
loop_
_space_group_symop_operation_xyz
x,y,z
1/2-x,-y,z
x,1/2-y,1/2-z
1/2-x,1/2+y,1/2-z
-x,-y,-z
1/2+x,y,-z
-x,1/2+y,1/2+z
1/2+x,1/2-y,1/2+z
loop_
_atom_site_type_symbol
_atom_site_label
_atom_site_fract_x
_atom_site_fract_y
_atom_site_fract_z
Si Si1 0.896505 0.738854 0.115496
Si Si2 0.913811 0.251154 0.523625
Si Si3 0.907320 0.747046 0.023750
Si Si4 0.431797 0.706008 0.337976
Si Si5 0.071195 0.715070 0.113848
Si Si6 0.606076 0.729703 0.333346
Si Si7 0.786523 0.749574 0.797001
Si Si8 0.301227 0.250000 0.750000
O O1 0.867161 0.740650 0.068548
O O2 0.874346 0.478073 0.139133
O O3 0.983969 0.773709 0.110033
O O4 0.864988 0.980325 0.141610
O O5 0.881068 0.499047 0.500340
O O6 0.886307 0.251027 0.570688
O O7 0.003256 0.245231 0.525132
O O8 0.880028 0.003939 0.500650
O O9 0.401776 0.432224 0.354563
O O10 0.517647 0.709756 0.323414
O O11 0.376828 0.761904 0.300035
O O12 0.416730 0.923174 0.372055
O O13 0.647083 0.746845 0.290072
O O14 0.750000 0.500000 0.818846
O O15 0.762440 0.750000 0.750000
O O16 0.750000 0.000000 0.818461
O O17 0.250000 0.500000 0.750940
#
# Coordination Sequence:
#
# PCOD8215316 Si02
#       8
#     8   8   8   8   8   8   8   4
#     4   9  17  31  48  75 106 136 177 214 264 313
#     4   9  15  23  37  64 102 142 173 201 260 309
#     4   9  15  23  40  64 100 142 169 205 254 320
#     4  10  19  33  54  76 106 144 182 218 260 319
#     4   9  17  28  44  72 107 142 178 221 256 304
#     4  10  21  36  57  79 106 141 173 220 266 322
#     4  10  21  36  53  76 106 137 174 225 264 298
#     4  12  26  44  62  84 112 138 174 224 276 338
#
# _framework density 19.824269000000001
#
# number of rings (size 3 to 8) (size 9 to 14) (size 15 to 20)
#    0.000    2.400    0.000    3.200    0.933    6.400 
#    0.000    0.000    0.000    0.000    0.000    0.000 
#    0.000   74.667    0.000    0.000    0.000    0.000 
#
# Total GULP energy -743653.478557 kJ/mol
# GULP energy per Si atom -12394.224643 kJ/mol
# Density = 1.977915 g / cm^3
# Si number density = 19.824269 Si / 1000 Ang^3
#
#
#
# Elastic Constant Matrix: (Units=GPa)
#
#
# Indices 1 2 3 4 5 6 
#
# 1 51.6409 33.2026 36.2981 0.0000 0.0000 0.0000
# 2 33.2026 167.7793 57.9257 0.0000 0.0000 0.0000
# 3 36.2981 57.9257 126.8185 0.0000 0.0000 0.0000
# 4 0.0000 0.0000 0.0000 25.0665 0.0000 0.0000
# 5 0.0000 0.0000 0.0000 0.0000 1.1706 0.0000
# 6 0.0000 0.0000 0.0000 0.0000 0.0000 15.9687
#
#
#
# Elastic Compliance Matrix: (Units=1/GPa)
#
#
# Indices 1 2 3 4 5 6 
#
# 1 0.025448 -0.002993 -0.005916 0.000000 0.000000 0.000000
# 2 -0.002993 0.007428 -0.002536 0.000000 0.000000 0.000000
# 3 -0.005916 -0.002536 0.010737 0.000000 0.000000 0.000000
# 4 0.000000 0.000000 0.000000 0.039894 0.000000 0.000000
# 5 0.000000 0.000000 0.000000 0.000000 0.854266 0.000000
# 6 0.000000 0.000000 0.000000 0.000000 0.000000 0.062623
#
#
# Mechanical properties :
#
#
# Convention : Reuss Voigt Hill
#
# Bulk Modulus (GPa) = 48.25984 66.78795 57.52389
# Shear Modulus (GPa) = 4.85345 23.02865 13.94105
#
# Velocity S-wave (km/s) = 1.56638 3.41198 2.65473
# Velocity P-wave (km/s) = 5.26004 7.02035 6.20296
#
# Compressibility (1/GPa) = 0.02072116
#
# Stress axis : x y z
#
# Youngs Moduli (GPa) = 39.29637 134.62254 93.13505
#
# Poissons Ratio (x) = 0.40297 0.55102
# Poissons Ratio (y) = 0.11763 0.23620
# Poissons Ratio (z) = 0.23249 0.34142
#
# Static dielectric constant tensor:
#      x y z
#    x 3.064360 0.000000 0.000000 
#    y 0.000000 4.112540 0.000000 
#    z 0.000000 0.000000 3.662090 
# 
# 
# High freq. dielectric constant tensor:
#      x y z
#    x 1.715570 0.000000 0.000000 
#    y 0.000000 1.797260 0.000000 
#    z 0.000000 0.000000 1.772370 
# 
# From -- ./inp_files/45139.got.cif
#   From: 2010.06.25/outbox.cif.g09.slc.cpg/sg52_23_cif.got.tgz:45139.got - 2010.06.26 19:32:48.
