data_PCOD8215402
_publ_section_title
;
Structure prediction by ZEFSAII (Michael W. Deem and Ramdas Pophale) SiO2 
 PCOD8215402
Probable space group: P N N A
;
_chemical_formula_sum "Si O2"
_cell_formula_units_Z 52
_cell_length_a 22.272452
_cell_length_b 10.502191
_cell_length_c 12.279691
_cell_angle_alpha 90.000000
_cell_angle_beta 90.000000
_cell_angle_gamma 90.000000
_cell_volume 2872.336934
_symmetry_space_group_name_H-M "P N N A"
_symmetry_group_IT_number 52
_symmetry_cell_setting 'orthorhombic'
loop_
_space_group_symop_operation_xyz
x,y,z
1/2-x,-y,z
x,1/2-y,1/2-z
1/2-x,1/2+y,1/2-z
-x,-y,-z
1/2+x,y,-z
-x,1/2+y,1/2+z
1/2+x,1/2-y,1/2+z
loop_
_atom_site_type_symbol
_atom_site_label
_atom_site_fract_x
_atom_site_fract_y
_atom_site_fract_z
Si Si1 0.056178 0.992557 0.804378
Si Si2 0.995394 0.750000 0.750000
Si Si3 0.750000 0.000000 0.870678
Si Si4 0.288776 0.750000 0.250000
Si Si5 0.624827 0.501516 0.517919
Si Si6 0.893965 0.773909 0.595753
Si Si7 0.959260 0.908910 0.428571
Si Si8 0.455589 0.186775 0.140821
O O1 0.111845 0.013354 0.887915
O O2 0.039482 0.845228 0.811912
O O3 0.070165 0.031824 0.680073
O O4 0.996917 0.066716 0.836981
O O5 0.951125 0.822094 0.666154
O O6 0.750740 0.871387 0.795092
O O7 0.694886 0.992972 0.954366
O O8 0.331225 0.805521 0.345707
O O9 0.598003 0.377101 0.576801
O O10 0.596491 0.633167 0.562929
O O11 0.898562 0.859279 0.487719
O O12 0.002592 0.789746 0.414374
O O13 0.000000 0.000000 0.500000
O O14 0.427111 0.250000 0.250000
#
# Coordination Sequence:
#
# PCOD8215402 Si02
#       8
#     8   4   4   4   8   8   8   8
#     4  11  21  32  54  82 120 150 184 230 289 359
#     4  11  18  30  52  84 114 148 175 222 290 358
#     4  10  24  42  62  86 110 154 208 252 290 348
#     4   9  22  40  62  84 108 152 201 250 300 340
#     4  11  21  38  59  79 113 159 196 241 290 349
#     4  10  19  35  57  79 116 151 183 232 298 352
#     4  11  21  33  51  90 120 150 188 230 294 358
#     4  10  21  33  53  86 118 149 182 232 294 360
#
# _framework density 18.103726000000002
#
# number of rings (size 3 to 8) (size 9 to 14) (size 15 to 20)
#    0.000    1.538    4.615    1.385    1.077    0.000 
#    0.000    0.000    0.000    4.615    0.000    0.000 
#    0.000    0.000    0.000    0.000    0.000    0.000 
#
# Total GULP energy -644298.676219 kJ/mol
# GULP energy per Si atom -12390.359158 kJ/mol
# Density = 1.806252 g / cm^3
# Si number density = 18.103726 Si / 1000 Ang^3
#
#
#
# Elastic Constant Matrix: (Units=GPa)
#
#
# Indices 1 2 3 4 5 6 
#
# 1 73.9084 32.1275 53.1348 0.0000 0.0000 0.0000
# 2 32.1275 82.1119 39.6302 0.0000 0.0000 0.0000
# 3 53.1348 39.6302 127.4209 0.0000 0.0000 0.0000
# 4 0.0000 0.0000 0.0000 31.0897 0.0000 0.0000
# 5 0.0000 0.0000 0.0000 0.0000 27.2377 0.0000
# 6 0.0000 0.0000 0.0000 0.0000 0.0000 23.0938
#
#
#
# Elastic Compliance Matrix: (Units=1/GPa)
#
#
# Indices 1 2 3 4 5 6 
#
# 1 0.020720 -0.004632 -0.007199 0.000000 0.000000 0.000000
# 2 -0.004632 0.015365 -0.002847 0.000000 0.000000 0.000000
# 3 -0.007199 -0.002847 0.011736 0.000000 0.000000 0.000000
# 4 0.000000 0.000000 0.000000 0.032165 0.000000 0.000000
# 5 0.000000 0.000000 0.000000 0.000000 0.036714 0.000000
# 6 0.000000 0.000000 0.000000 0.000000 0.000000 0.043302
#
#
# Mechanical properties :
#
#
# Convention : Reuss Voigt Hill
#
# Bulk Modulus (GPa) = 54.16282 59.24736 56.70509
# Shear Modulus (GPa) = 25.57375 26.85416 26.21396
#
# Velocity S-wave (km/s) = 3.76257 3.85561 3.80937
# Velocity P-wave (km/s) = 6.98991 7.25387 7.12311
#
# Compressibility (1/GPa) = 0.01846285
#
# Stress axis : x y z
#
# Youngs Moduli (GPa) = 48.26320 65.08272 85.20984
#
# Poissons Ratio (x) = 0.30147 0.61347
# Poissons Ratio (y) = 0.22356 0.24261
# Poissons Ratio (z) = 0.34747 0.18530
#
# Static dielectric constant tensor:
#      x y z
#    x 2.993520 0.000000 0.000000 
#    y 0.000000 3.304960 0.000000 
#    z 0.000000 0.000000 3.562040 
# 
# 
# High freq. dielectric constant tensor:
#      x y z
#    x 1.657190 0.000000 0.000000 
#    y 0.000000 1.713180 0.000000 
#    z 0.000000 0.000000 1.710470 
# 
# From -- ./inp_files/22872.got.cif
#   From: 2010.06.25/outbox.cif.g09.slc.cpg/sg52_12_cif.got.tgz:22872.got - 2010.06.26 19:32:48.
