data_PCOD8215522
_publ_section_title
;
Structure prediction by ZEFSAII (Michael W. Deem and Ramdas Pophale) SiO2 
 PCOD8215522
Probable space group: P N N A
;
_chemical_formula_sum "Si O2"
_cell_formula_units_Z 64
_cell_length_a 23.981017
_cell_length_b 15.684242
_cell_length_c 8.576349
_cell_angle_alpha 90.000000
_cell_angle_beta 90.000000
_cell_angle_gamma 90.000000
_cell_volume 3225.771326
_symmetry_space_group_name_H-M "P N N A"
_symmetry_group_IT_number 52
_symmetry_cell_setting 'orthorhombic'
loop_
_space_group_symop_operation_xyz
x,y,z
1/2-x,-y,z
x,1/2-y,1/2-z
1/2-x,1/2+y,1/2-z
-x,-y,-z
1/2+x,y,-z
-x,1/2+y,1/2+z
1/2+x,1/2-y,1/2+z
loop_
_atom_site_type_symbol
_atom_site_label
_atom_site_fract_x
_atom_site_fract_y
_atom_site_fract_z
Si Si1 0.861021 0.999810 0.874399
Si Si2 0.615647 0.183551 0.381272
Si Si3 0.519565 0.306783 0.896485
Si Si4 0.316303 0.347004 0.204607
Si Si5 0.530014 0.003294 0.699408
Si Si6 0.086486 0.883827 0.532625
Si Si7 0.592605 0.488717 0.287535
Si Si8 0.188826 0.341917 0.177530
O O1 0.835716 0.916441 0.788745
O O2 0.823490 0.084510 0.844854
O O3 0.921021 0.025959 0.811926
O O4 0.870186 0.985058 0.057148
O O5 0.636235 0.250000 0.250000
O O6 0.557992 0.220060 0.456498
O O7 0.609155 0.092553 0.307880
O O8 0.661872 0.164180 0.509305
O O9 0.534657 0.250000 0.750000
O O10 0.538541 0.399158 0.841430
O O11 0.452924 0.300773 0.937030
O O12 0.328384 0.250000 0.250000
O O13 0.253743 0.358898 0.145083
O O14 0.359274 0.366934 0.066939
O O15 0.539560 0.948426 0.540769
O O16 0.474600 0.985118 0.800856
O O17 0.108187 0.924942 0.693671
O O18 0.178230 0.250000 0.250000
#
# Coordination Sequence:
#
# PCOD8215522 Si02
#       8
#     8   8   8   8   8   8   8   8
#     4  11  22  38  65  93 122 163 215 251 302 380
#     4  12  23  37  61  94 127 158 205 261 319 372
#     4  11  21  35  59  90 126 162 198 248 314 385
#     4  10  24  44  67  83 118 170 217 259 316 380
#     4  10  19  39  59  81 127 169 194 235 312 381
#     4  10  20  42  62  85 124 168 206 252 314 377
#     4  11  21  37  59  95 127 162 201 251 310 372
#     4  11  23  45  65  88 122 169 214 259 320 375
#
# _framework density 19.840216000000002
#
# number of rings (size 3 to 8) (size 9 to 14) (size 15 to 20)
#    0.000    1.250    3.750    3.375    1.750    2.500 
#    0.000    5.625    0.000    0.000    0.000    0.000 
#    0.000    0.000    0.000    0.000    0.000    0.000 
#
# Total GULP energy -793167.006311 kJ/mol
# GULP energy per Si atom -12393.234474 kJ/mol
# Density = 1.979506 g / cm^3
# Si number density = 19.840216 Si / 1000 Ang^3
#
#
#
# Elastic Constant Matrix: (Units=GPa)
#
#
# Indices 1 2 3 4 5 6 
#
# 1 105.6121 57.6463 57.4607 0.0000 0.0000 0.0000
# 2 57.6463 102.6335 53.8892 0.0000 0.0000 0.0000
# 3 57.4607 53.8892 130.9108 0.0000 0.0000 0.0000
# 4 0.0000 0.0000 0.0000 27.3644 0.0000 0.0000
# 5 0.0000 0.0000 0.0000 0.0000 3.7064 0.0000
# 6 0.0000 0.0000 0.0000 0.0000 0.0000 24.5028
#
#
#
# Elastic Compliance Matrix: (Units=1/GPa)
#
#
# Indices 1 2 3 4 5 6 
#
# 1 0.015145 -0.006399 -0.004013 0.000000 0.000000 0.000000
# 2 -0.006399 0.015134 -0.003421 0.000000 0.000000 0.000000
# 3 -0.004013 -0.003421 0.010809 0.000000 0.000000 0.000000
# 4 0.000000 0.000000 0.000000 0.036544 0.000000 0.000000
# 5 0.000000 0.000000 0.000000 0.000000 0.269804 0.000000
# 6 0.000000 0.000000 0.000000 0.000000 0.000000 0.040812
#
#
# Mechanical properties :
#
#
# Convention : Reuss Voigt Hill
#
# Bulk Modulus (GPa) = 74.51391 75.23874 74.87632
# Shear Modulus (GPa) = 11.89376 22.45874 17.17625
#
# Velocity S-wave (km/s) = 2.45108 3.36814 2.94552
# Velocity P-wave (km/s) = 6.75640 7.28907 7.02778
#
# Compressibility (1/GPa) = 0.01342031
#
# Stress axis : x y z
#
# Youngs Moduli (GPa) = 66.02785 66.07654 92.51845
#
# Poissons Ratio (x) = 0.42284 0.37131
# Poissons Ratio (y) = 0.42253 0.31651
# Poissons Ratio (z) = 0.26500 0.22605
#
# Static dielectric constant tensor:
#      x y z
#    x 3.799810 0.000000 0.000000 
#    y 0.000000 3.853130 0.000000 
#    z 0.000000 0.000000 3.813200 
# 
# 
# High freq. dielectric constant tensor:
#      x y z
#    x 1.775720 0.000000 0.000000 
#    y 0.000000 1.777870 0.000000 
#    z 0.000000 0.000000 1.770720 
# 
# From -- ./inp_files/14488.got.cif
#   From: 2010.06.25/outbox.cif.g09.slc.cpg/sg52_8_cif.got.tgz:14488.got - 2010.06.26 19:32:48.
