data_PCOD8215632
_publ_section_title
;
Structure prediction by ZEFSAII (Michael W. Deem and Ramdas Pophale) SiO2 
 PCOD8215632
Probable space group: P N N A
;
_chemical_formula_sum "Si O2"
_cell_formula_units_Z 36
_cell_length_a 20.415725
_cell_length_b 10.178395
_cell_length_c 7.728395
_cell_angle_alpha 90.000000
_cell_angle_beta 90.000000
_cell_angle_gamma 90.000000
_cell_volume 1605.955174
_symmetry_space_group_name_H-M "P N N A"
_symmetry_group_IT_number 52
_symmetry_cell_setting 'orthorhombic'
loop_
_space_group_symop_operation_xyz
x,y,z
1/2-x,-y,z
x,1/2-y,1/2-z
1/2-x,1/2+y,1/2-z
-x,-y,-z
1/2+x,y,-z
-x,1/2+y,1/2+z
1/2+x,1/2-y,1/2+z
loop_
_atom_site_type_symbol
_atom_site_label
_atom_site_fract_x
_atom_site_fract_y
_atom_site_fract_z
Si Si1 0.801917 0.104720 0.535710
Si Si2 0.062250 0.984588 0.116791
Si Si3 0.551272 0.887297 0.531898
Si Si4 0.977117 0.750000 0.750000
Si Si5 0.198295 0.898876 0.052677
O O1 0.875403 0.072280 0.469935
O O2 0.797994 0.097787 0.741285
O O3 0.785984 0.254398 0.477233
O O4 0.750000 0.000000 0.455160
O O5 0.070063 0.124362 0.219335
O O6 0.053324 0.867344 0.258914
O O7 0.125459 0.948950 0.000888
O O8 0.000000 0.000000 0.000000
O O9 0.524682 0.763599 0.420453
O O10 0.500000 0.000000 0.500000
O O11 0.250000 0.000000 0.969836
#
# Coordination Sequence:
#
# PCOD8215632 Si02
#       5
#     8   8   8   4   8
#     4   9  17  31  52  76 105 142 184 233 282 341
#     4  10  20  34  55  83 113 150 196 248 300 358
#     4   9  19  34  54  82 110 148 195 238 292 351
#     4  10  20  34  56  80 114 154 194 246 298 356
#     4   9  18  30  48  78 111 141 180 230 285 343
#
# _framework density 22.416566
#
# number of rings (size 3 to 8) (size 9 to 14) (size 15 to 20)
#    0.000    2.667    0.000    1.333    0.000    9.778 
#    0.000    0.000    0.000   12.000    0.000    0.000 
#    0.000    0.000    0.000    0.000    0.000    0.000 
#
# Total GULP energy -445984.695247 kJ/mol
# GULP energy per Si atom -12388.463757 kJ/mol
# Density = 2.236554 g / cm^3
# Si number density = 22.416566 Si / 1000 Ang^3
#
#
#
# Elastic Constant Matrix: (Units=GPa)
#
#
# Indices 1 2 3 4 5 6 
#
# 1 174.1903 95.5289 13.4907 0.0000 0.0000 0.0000
# 2 95.5289 169.1851 11.0295 0.0000 0.0000 0.0000
# 3 13.4907 11.0295 52.4702 0.0000 0.0000 0.0000
# 4 0.0000 0.0000 0.0000 17.3307 0.0000 0.0000
# 5 0.0000 0.0000 0.0000 0.0000 21.0851 0.0000
# 6 0.0000 0.0000 0.0000 0.0000 0.0000 43.4048
#
#
#
# Elastic Compliance Matrix: (Units=1/GPa)
#
#
# Indices 1 2 3 4 5 6 
#
# 1 0.008387 -0.004659 -0.001177 0.000000 0.000000 0.000000
# 2 -0.004659 0.008581 -0.000606 0.000000 0.000000 0.000000
# 3 -0.001177 -0.000606 0.019488 0.000000 0.000000 0.000000
# 4 0.000000 0.000000 0.000000 0.057701 0.000000 0.000000
# 5 0.000000 0.000000 0.000000 0.000000 0.047427 0.000000
# 6 0.000000 0.000000 0.000000 0.000000 0.000000 0.023039
#
#
# Mechanical properties :
#
#
# Convention : Reuss Voigt Hill
#
# Bulk Modulus (GPa) = 42.42224 70.66042 56.54133
# Shear Modulus (GPa) = 26.97389 34.75056 30.86222
#
# Velocity S-wave (km/s) = 3.47263 3.94155 3.71450
# Velocity P-wave (km/s) = 5.91983 7.23218 6.60866
#
# Compressibility (1/GPa) = 0.02357254
#
# Stress axis : x y z
#
# Youngs Moduli (GPa) = 119.23140 116.53903 51.31249
#
# Poissons Ratio (x) = 0.54295 0.06040
# Poissons Ratio (y) = 0.55549 0.03109
# Poissons Ratio (z) = 0.14034 0.07061
#
# Static dielectric constant tensor:
#      x y z
#    x 4.356340 0.000000 0.000000 
#    y 0.000000 4.594220 0.000000 
#    z 0.000000 0.000000 4.241160 
# 
# 
# High freq. dielectric constant tensor:
#      x y z
#    x 1.880290 0.000000 0.000000 
#    y 0.000000 1.896010 0.000000 
#    z 0.000000 0.000000 1.845260 
# 
# From -- ./inp_files/13082.got.cif
#   From: 2010.06.25/outbox.cif.g09.slc.cpg/sg52_7_cif.got.tgz:13082.got - 2010.06.26 19:32:48.
