data_PCOD8215544
_publ_section_title
;
Structure prediction by ZEFSAII (Michael W. Deem and Ramdas Pophale) SiO2 
 PCOD8215544
Probable space group: P N N A
;
_chemical_formula_sum "Si O2"
_cell_formula_units_Z 40
_cell_length_a 9.838081
_cell_length_b 8.648382
_cell_length_c 22.732033
_cell_angle_alpha 90.000000
_cell_angle_beta 90.000000
_cell_angle_gamma 90.000000
_cell_volume 1934.120535
_symmetry_space_group_name_H-M "P N N A"
_symmetry_group_IT_number 52
_symmetry_cell_setting 'orthorhombic'
loop_
_space_group_symop_operation_xyz
x,y,z
1/2-x,-y,z
x,1/2-y,1/2-z
1/2-x,1/2+y,1/2-z
-x,-y,-z
1/2+x,y,-z
-x,1/2+y,1/2+z
1/2+x,1/2-y,1/2+z
loop_
_atom_site_type_symbol
_atom_site_label
_atom_site_fract_x
_atom_site_fract_y
_atom_site_fract_z
Si Si1 0.750000 0.000000 0.716869
Si Si2 0.285017 0.824906 0.047103
Si Si3 0.294858 0.675728 0.926159
Si Si4 0.561400 0.250000 0.750000
Si Si5 0.986452 0.280732 0.120714
Si Si6 0.425631 0.122785 0.383473
O O1 0.845351 0.900893 0.759135
O O2 0.659130 0.881234 0.677329
O O3 0.405359 0.840164 0.095198
O O4 0.158556 0.720981 0.069089
O O5 0.250000 0.000000 0.032103
O O6 0.341684 0.746473 0.987951
O O7 0.250000 0.500000 0.934046
O O8 0.162821 0.764478 0.901711
O O9 0.421525 0.694255 0.880340
O O10 0.473030 0.273012 0.808517
O O11 0.048907 0.444207 0.097689
#
# Coordination Sequence:
#
# PCOD8215544 Si02
#       6
#     4   8   8   4   8   8
#     4  10  20  38  62  90 108 152 202 250 284 358
#     4  12  23  36  58  89 122 160 200 244 300 353
#     4  10  22  37  62  86 120 159 196 243 299 355
#     4  10  20  36  64  86 118 150 198 242 288 352
#     4  10  21  39  61  90 117 155 198 245 297 353
#     4  10  19  40  60  84 115 151 205 239 285 355
#
# _framework density 20.681234
#
# number of rings (size 3 to 8) (size 9 to 14) (size 15 to 20)
#    0.000    1.600    4.000    2.400    1.400    6.400 
#    0.000    1.000    0.000    8.400    0.000    0.000 
#    0.000    0.000    0.000    0.000    0.000    0.000 
#
# Total GULP energy -495707.170625 kJ/mol
# GULP energy per Si atom -12392.679266 kJ/mol
# Density = 2.063416 g / cm^3
# Si number density = 20.681234 Si / 1000 Ang^3
#
#
#
# Elastic Constant Matrix: (Units=GPa)
#
#
# Indices 1 2 3 4 5 6 
#
# 1 132.8148 23.3179 44.6068 0.0000 0.0000 0.0000
# 2 23.3179 43.2978 20.8757 0.0000 0.0000 0.0000
# 3 44.6068 20.8757 84.6530 0.0000 0.0000 0.0000
# 4 0.0000 0.0000 0.0000 20.7548 0.0000 0.0000
# 5 0.0000 0.0000 0.0000 0.0000 -0.4367 0.0000
# 6 0.0000 0.0000 0.0000 0.0000 0.0000 11.7276
#
#
#
# Elastic Compliance Matrix: (Units=1/GPa)
#
#
# Indices 1 2 3 4 5 6 
#
# 1 0.009494 -0.003065 -0.004247 0.000000 0.000000 0.000000
# 2 -0.003065 0.027202 -0.005093 0.000000 0.000000 0.000000
# 3 -0.004247 -0.005093 0.015307 0.000000 0.000000 0.000000
# 4 0.000000 0.000000 0.000000 0.048182 0.000000 0.000000
# 5 0.000000 0.000000 0.000000 0.000000 -2.289749 0.000000
# 6 0.000000 0.000000 0.000000 0.000000 0.000000 0.085269
#
#
# Mechanical properties :
#
#
# Convention : Reuss Voigt Hill
#
# Bulk Modulus (GPa) = 36.77461 48.70738 42.74099
# Shear Modulus (GPa) = -2.41497 17.87349 7.72926
#
# Velocity S-wave (km/s) = -1.08178 2.94298 1.93531
# Velocity P-wave (km/s) = 4.03236 5.92881 5.07004
#
# Compressibility (1/GPa) = 0.02719268
#
# Stress axis : x y z
#
# Youngs Moduli (GPa) = 105.33279 36.76175 65.33135
#
# Poissons Ratio (x) = 0.11269 0.27744
# Poissons Ratio (y) = 0.32288 0.33273
# Poissons Ratio (z) = 0.44731 0.18723
#
# Static dielectric constant tensor:
#      x y z
#    x 4.095790 0.000000 0.000000 
#    y 0.000000 3.620470 0.000000 
#    z 0.000000 0.000000 3.432070 
# 
# 
# High freq. dielectric constant tensor:
#      x y z
#    x 1.817810 0.000000 0.000000 
#    y 0.000000 1.792720 0.000000 
#    z 0.000000 0.000000 1.789390 
# 
# From -- ./inp_files/39265.got.cif
#   From: 2010.06.25/outbox.cif.g09.slc.cpg/sg52_20_cif.got.tgz:39265.got - 2010.06.26 19:32:48.
