data_PCOD8215521
_publ_section_title
;
Structure prediction by ZEFSAII (Michael W. Deem and Ramdas Pophale) SiO2 
 PCOD8215521
Probable space group: P N N A
;
_chemical_formula_sum "Si O2"
_cell_formula_units_Z 52
_cell_length_a 9.971533
_cell_length_b 13.654770
_cell_length_c 19.823098
_cell_angle_alpha 90.000000
_cell_angle_beta 90.000000
_cell_angle_gamma 90.000000
_cell_volume 2699.092996
_symmetry_space_group_name_H-M "P N N A"
_symmetry_group_IT_number 52
_symmetry_cell_setting 'orthorhombic'
loop_
_space_group_symop_operation_xyz
x,y,z
1/2-x,-y,z
x,1/2-y,1/2-z
1/2-x,1/2+y,1/2-z
-x,-y,-z
1/2+x,y,-z
-x,1/2+y,1/2+z
1/2+x,1/2-y,1/2+z
loop_
_atom_site_type_symbol
_atom_site_label
_atom_site_fract_x
_atom_site_fract_y
_atom_site_fract_z
Si Si1 0.546552 0.747192 0.017113
Si Si2 0.317337 0.828195 0.933870
Si Si3 0.750000 0.000000 0.152553
Si Si4 0.619884 0.889169 0.606708
Si Si5 0.919480 0.893627 0.625093
Si Si6 0.624574 0.632125 0.238436
Si Si7 0.114993 0.185726 0.684660
O O1 0.668135 0.818296 0.036428
O O2 0.500413 0.683987 0.080944
O O3 0.425952 0.817400 0.993314
O O4 0.592998 0.673405 0.959368
O O5 0.338128 0.931075 0.896112
O O6 0.339745 0.743879 0.880403
O O7 0.857866 0.067236 0.193681
O O8 0.765955 0.860646 0.635823
O O9 0.521271 0.869978 0.669030
O O10 0.594551 0.002349 0.587048
O O11 0.994260 0.902903 0.697263
O O12 0.615887 0.750000 0.250000
O O13 0.763764 0.609979 0.198826
O O14 0.086574 0.250000 0.750000
#
# Coordination Sequence:
#
# PCOD8215521 Si02
#       7
#     8   8   4   8   8   8   8
#     4  11  21  42  57  88 123 169 199 252 311 366
#     4  11  23  38  66  84 125 159 210 254 303 364
#     4  12  22  40  64 100 118 160 220 260 292 382
#     4  10  23  35  57  89 126 157 202 253 308 375
#     4  11  21  37  58  89 123 163 199 252 310 371
#     4  11  21  38  65  90 122 158 207 256 308 359
#     4  10  19  39  58  90 117 162 199 249 315 356
#
# _framework density 19.265730000000001
#
# number of rings (size 3 to 8) (size 9 to 14) (size 15 to 20)
#    0.000    1.231    6.154    1.385    0.000    1.231 
#    0.000    0.000    0.000    1.846    0.000    0.000 
#    0.000    0.000    0.000    0.000    0.000    0.000 
#
# Total GULP energy -644582.691998 kJ/mol
# GULP energy per Si atom -12395.821000 kJ/mol
# Density = 1.922188 g / cm^3
# Si number density = 19.265730 Si / 1000 Ang^3
#
#
#
# Elastic Constant Matrix: (Units=GPa)
#
#
# Indices 1 2 3 4 5 6 
#
# 1 150.2091 41.2490 47.3905 0.0000 0.0000 0.0000
# 2 41.2490 86.9540 31.1866 0.0000 0.0000 0.0000
# 3 47.3905 31.1866 77.7001 0.0000 0.0000 0.0000
# 4 0.0000 0.0000 0.0000 33.4067 0.0000 0.0000
# 5 0.0000 0.0000 0.0000 0.0000 28.8332 0.0000
# 6 0.0000 0.0000 0.0000 0.0000 0.0000 46.0580
#
#
#
# Elastic Compliance Matrix: (Units=1/GPa)
#
#
# Indices 1 2 3 4 5 6 
#
# 1 0.008721 -0.002604 -0.004274 0.000000 0.000000 0.000000
# 2 -0.002604 0.014212 -0.004116 0.000000 0.000000 0.000000
# 3 -0.004274 -0.004116 0.017129 0.000000 0.000000 0.000000
# 4 0.000000 0.000000 0.000000 0.029934 0.000000 0.000000
# 5 0.000000 0.000000 0.000000 0.000000 0.034682 0.000000
# 6 0.000000 0.000000 0.000000 0.000000 0.000000 0.021712
#
#
# Mechanical properties :
#
#
# Convention : Reuss Voigt Hill
#
# Bulk Modulus (GPa) = 55.32901 61.61284 58.47092
# Shear Modulus (GPa) = 32.38302 34.66203 33.52253
#
# Velocity S-wave (km/s) = 4.10428 4.24625 4.17587
# Velocity P-wave (km/s) = 7.15831 7.48938 7.32571
#
# Compressibility (1/GPa) = 0.01807370
#
# Stress axis : x y z
#
# Youngs Moduli (GPa) = 114.66731 70.36356 58.38170
#
# Poissons Ratio (x) = 0.18324 0.24951
# Poissons Ratio (y) = 0.29861 0.24029
# Poissons Ratio (z) = 0.49006 0.28961
#
# Static dielectric constant tensor:
#      x y z
#    x 3.793020 0.000000 0.000000 
#    y 0.000000 3.436370 0.000000 
#    z 0.000000 0.000000 3.932930 
# 
# 
# High freq. dielectric constant tensor:
#      x y z
#    x 1.753170 0.000000 0.000000 
#    y 0.000000 1.744970 0.000000 
#    z 0.000000 0.000000 1.745750 
# 
# From -- ./inp_files/35947.got.cif
#   From: 2010.06.25/outbox.cif.g09.slc.cpg/sg52_18_cif.got.tgz:35947.got - 2010.06.26 19:32:48.
