data_PCOD8215486
_publ_section_title
;
Structure prediction by ZEFSAII (Michael W. Deem and Ramdas Pophale) SiO2 
 PCOD8215486
Probable space group: P N N A
;
_chemical_formula_sum "Si O2"
_cell_formula_units_Z 60
_cell_length_a 21.943323
_cell_length_b 12.430927
_cell_length_c 10.691143
_cell_angle_alpha 90.000000
_cell_angle_beta 90.000000
_cell_angle_gamma 90.000000
_cell_volume 2916.285580
_symmetry_space_group_name_H-M "P N N A"
_symmetry_group_IT_number 52
_symmetry_cell_setting 'orthorhombic'
loop_
_space_group_symop_operation_xyz
x,y,z
1/2-x,-y,z
x,1/2-y,1/2-z
1/2-x,1/2+y,1/2-z
-x,-y,-z
1/2+x,y,-z
-x,1/2+y,1/2+z
1/2+x,1/2-y,1/2+z
loop_
_atom_site_type_symbol
_atom_site_label
_atom_site_fract_x
_atom_site_fract_y
_atom_site_fract_z
Si Si1 0.861779 0.365627 0.236299
Si Si2 0.543370 0.342875 0.532299
Si Si3 0.841614 0.357086 0.957521
Si Si4 0.201832 0.865199 0.983206
Si Si5 0.523305 0.827999 0.631562
Si Si6 0.324769 0.914105 0.084240
Si Si7 0.471962 0.498281 0.695791
Si Si8 0.750000 0.500000 0.801030
O O1 0.896543 0.250000 0.250000
O O2 0.807364 0.359141 0.335486
O O3 0.904637 0.463415 0.270815
O O4 0.833401 0.388616 0.101804
O O5 0.516825 0.227298 0.482167
O O6 0.615002 0.339758 0.572312
O O7 0.510334 0.391674 0.655659
O O8 0.531530 0.421743 0.418834
O O9 0.911939 0.364697 0.920589
O O10 0.797917 0.434418 0.881640
O O11 0.821922 0.234736 0.936669
O O12 0.274637 0.869747 0.988974
O O13 0.162827 0.962246 0.045266
O O14 0.530351 0.750000 0.750000
O O15 0.495590 0.940788 0.680133
O O16 0.291610 0.917050 0.220038
#
# Coordination Sequence:
#
# PCOD8215486 Si02
#       8
#     8   8   8   8   8   8   8   4
#     4  10  20  38  62  89 118 166 209 250 316 388
#     4  10  19  37  62  94 120 158 215 266 323 387
#     4  11  23  40  60  85 129 159 212 258 313 402
#     4   9  20  37  62  87 112 162 207 258 313 372
#     4  10  23  36  63  96 118 167 212 265 329 390
#     4  10  21  36  64  90 119 154 213 266 318 377
#     4  10  20  36  61  88 126 157 206 263 315 380
#     4  10  24  38  58  96 120 172 212 262 344 376
#
# _framework density 20.574117000000001
#
# number of rings (size 3 to 8) (size 9 to 14) (size 15 to 20)
#    0.000    2.133    1.333    2.400    7.467    1.600 
#    2.400    4.667    5.867    0.000    0.000    0.000 
#    0.000    0.000    0.000    0.000    0.000    0.000 
#
# Total GULP energy -743427.445676 kJ/mol
# GULP energy per Si atom -12390.457428 kJ/mol
# Density = 2.052729 g / cm^3
# Si number density = 20.574117 Si / 1000 Ang^3
#
#
#
# Elastic Constant Matrix: (Units=GPa)
#
#
# Indices 1 2 3 4 5 6 
#
# 1 149.9021 55.5967 64.3853 0.0000 0.0000 0.0000
# 2 55.5967 76.5249 47.3309 0.0000 0.0000 0.0000
# 3 64.3853 47.3309 102.2344 0.0000 0.0000 0.0000
# 4 0.0000 0.0000 0.0000 22.7905 0.0000 0.0000
# 5 0.0000 0.0000 0.0000 0.0000 -334.1992 0.0000
# 6 0.0000 0.0000 0.0000 0.0000 0.0000 32.0996
#
#
#
# Elastic Compliance Matrix: (Units=1/GPa)
#
#
# Indices 1 2 3 4 5 6 
#
# 1 0.010291 -0.004859 -0.004231 0.000000 0.000000 0.000000
# 2 -0.004859 0.020606 -0.006479 0.000000 0.000000 0.000000
# 3 -0.004231 -0.006479 0.015446 0.000000 0.000000 0.000000
# 4 0.000000 0.000000 0.000000 0.043878 0.000000 0.000000
# 5 0.000000 0.000000 0.000000 0.000000 -0.002992 0.000000
# 6 0.000000 0.000000 0.000000 0.000000 0.000000 0.031153
#
#
# Mechanical properties :
#
#
# Convention : Reuss Voigt Hill
#
# Bulk Modulus (GPa) = 65.77910 73.69858 69.73884
# Shear Modulus (GPa) = 32.34410 -45.10524 -6.38057
#
# Velocity S-wave (km/s) = 3.96924 -4.68731 -1.76295
# Velocity P-wave (km/s) = 7.28339 2.56988 5.46132
#
# Compressibility (1/GPa) = 0.01520240
#
# Stress axis : x y z
#
# Youngs Moduli (GPa) = 97.17579 48.53066 64.74248
#
# Poissons Ratio (x) = 0.23583 0.27393
# Poissons Ratio (y) = 0.47221 0.41949
# Poissons Ratio (z) = 0.41116 0.31444
#
# Static dielectric constant tensor:
#      x y z
#    x 3.647760 0.000000 0.000000 
#    y 0.000000 3.851580 0.000000 
#    z 0.000000 0.000000 3.918570 
# 
# 
# High freq. dielectric constant tensor:
#      x y z
#    x 1.799510 0.000000 0.000000 
#    y 0.000000 1.793140 0.000000 
#    z 0.000000 0.000000 1.810180 
# 
# From -- ./inp_files/21750.got.cif
#   From: 2010.06.25/outbox.cif.g09.slc.cpg/sg52_11_cif.got.tgz:21750.got - 2010.06.26 19:32:48.
