data_PCOD8215090
_publ_section_title
;
Structure prediction by ZEFSAII (Michael W. Deem and Ramdas Pophale) SiO2 
 PCOD8215090
Probable space group: P N N A
;
_chemical_formula_sum "Si O2"
_cell_formula_units_Z 48
_cell_length_a 15.243760
_cell_length_b 19.041113
_cell_length_c 9.520443
_cell_angle_alpha 90.000000
_cell_angle_beta 90.000000
_cell_angle_gamma 90.000000
_cell_volume 2763.386236
_symmetry_space_group_name_H-M "P N N A"
_symmetry_group_IT_number 52
_symmetry_cell_setting 'orthorhombic'
loop_
_space_group_symop_operation_xyz
x,y,z
1/2-x,-y,z
x,1/2-y,1/2-z
1/2-x,1/2+y,1/2-z
-x,-y,-z
1/2+x,y,-z
-x,1/2+y,1/2+z
1/2+x,1/2-y,1/2+z
loop_
_atom_site_type_symbol
_atom_site_label
_atom_site_fract_x
_atom_site_fract_y
_atom_site_fract_z
Si Si1 0.342196 0.081596 0.608108
Si Si2 0.382335 0.678434 0.676756
Si Si3 0.493843 0.188239 0.935727
Si Si4 0.812446 0.182794 0.153080
Si Si5 0.984750 0.653658 0.880411
Si Si6 0.150303 0.080097 0.565123
O O1 0.321063 0.108861 0.765295
O O2 0.424586 0.125604 0.549423
O O3 0.251932 0.094254 0.521656
O O4 0.367381 0.000314 0.604528
O O5 0.413760 0.750000 0.750000
O O6 0.452743 0.651981 0.561815
O O7 0.287503 0.689980 0.599010
O O8 0.378079 0.620556 0.795843
O O9 0.388310 0.184615 0.966843
O O10 0.530339 0.267338 0.930541
O O11 0.511838 0.148570 0.788714
O O12 0.836732 0.250000 0.250000
O O13 0.905668 0.604616 0.931741
#
# Coordination Sequence:
#
# PCOD8215090 Si02
#       6
#     8   8   8   8   8   8
#     4   9  18  32  52  74  97 134 169 200 247 299
#     4  10  19  31  52  74  97 130 172 209 237 283
#     4  10  18  31  51  73 100 130 162 201 253 298
#     4   9  16  32  52  69  97 135 164 197 249 302
#     4  10  18  31  50  72 100 131 160 200 254 298
#     4  10  19  32  52  76  99 126 173 212 234 288
#
# _framework density 17.369993000000001
#
# number of rings (size 3 to 8) (size 9 to 14) (size 15 to 20)
#    0.000    2.333    5.000    0.500    0.000    0.000 
#    0.000    5.000    3.667    8.000    0.000    0.000 
#    0.000    0.000    0.000    0.000    0.000    0.000 
#
# Total GULP energy -594772.182941 kJ/mol
# GULP energy per Si atom -12391.087145 kJ/mol
# Density = 1.733046 g / cm^3
# Si number density = 17.369993 Si / 1000 Ang^3
#
#
#
# Elastic Constant Matrix: (Units=GPa)
#
#
# Indices 1 2 3 4 5 6 
#
# 1 128.1484 26.4829 48.8519 0.0000 0.0000 0.0000
# 2 26.4829 80.9087 21.2863 0.0000 0.0000 0.0000
# 3 48.8519 21.2863 58.2434 0.0000 0.0000 0.0000
# 4 0.0000 0.0000 0.0000 16.2298 0.0000 0.0000
# 5 0.0000 0.0000 0.0000 0.0000 32.8676 0.0000
# 6 0.0000 0.0000 0.0000 0.0000 0.0000 18.6945
#
#
#
# Elastic Compliance Matrix: (Units=1/GPa)
#
#
# Indices 1 2 3 4 5 6 
#
# 1 0.011607 -0.001370 -0.009235 0.000000 0.000000 0.000000
# 2 -0.001370 0.013836 -0.003908 0.000000 0.000000 0.000000
# 3 -0.009235 -0.003908 0.026343 0.000000 0.000000 0.000000
# 4 0.000000 0.000000 0.000000 0.061615 0.000000 0.000000
# 5 0.000000 0.000000 0.000000 0.000000 0.030425 0.000000
# 6 0.000000 0.000000 0.000000 0.000000 0.000000 0.053492
#
#
# Mechanical properties :
#
#
# Convention : Reuss Voigt Hill
#
# Bulk Modulus (GPa) = 43.93360 51.17140 47.55250
# Shear Modulus (GPa) = 21.37393 24.93702 23.15547
#
# Velocity S-wave (km/s) = 3.51167 3.79309 3.65509
# Velocity P-wave (km/s) = 6.46453 6.97904 6.72671
#
# Compressibility (1/GPa) = 0.02276162
#
# Stress axis : x y z
#
# Youngs Moduli (GPa) = 86.15543 72.27507 37.96029
#
# Poissons Ratio (x) = 0.09899 0.35056
# Poissons Ratio (y) = 0.11800 0.14835
# Poissons Ratio (z) = 0.79563 0.28245
#
# Static dielectric constant tensor:
#      x y z
#    x 3.606350 0.000000 0.000000 
#    y 0.000000 3.297720 0.000000 
#    z 0.000000 0.000000 2.813570 
# 
# 
# High freq. dielectric constant tensor:
#      x y z
#    x 1.690900 0.000000 0.000000 
#    y 0.000000 1.669330 0.000000 
#    z 0.000000 0.000000 1.615580 
# 
# From -- ./inp_files/19723.got.cif
#   From: 2010.06.25/outbox.cif.g09.slc.cpg/sg52_10_cif.got.tgz:19723.got - 2010.06.26 19:32:48.
