data_PCOD8215080
_publ_section_title
;
Structure prediction by ZEFSAII (Michael W. Deem and Ramdas Pophale) SiO2 
 PCOD8215080
Probable space group: P N N A
;
_chemical_formula_sum "Si O2"
_cell_formula_units_Z 40
_cell_length_a 14.530901
_cell_length_b 11.653372
_cell_length_c 8.960613
_cell_angle_alpha 90.000000
_cell_angle_beta 90.000000
_cell_angle_gamma 90.000000
_cell_volume 1517.336396
_symmetry_space_group_name_H-M "P N N A"
_symmetry_group_IT_number 52
_symmetry_cell_setting 'orthorhombic'
loop_
_space_group_symop_operation_xyz
x,y,z
1/2-x,-y,z
x,1/2-y,1/2-z
1/2-x,1/2+y,1/2-z
-x,-y,-z
1/2+x,y,-z
-x,1/2+y,1/2+z
1/2+x,1/2-y,1/2+z
loop_
_atom_site_type_symbol
_atom_site_label
_atom_site_fract_x
_atom_site_fract_y
_atom_site_fract_z
Si Si1 0.308534 0.820727 0.937110
Si Si2 0.595005 0.831380 0.047680
Si Si3 0.355568 0.518880 0.311487
Si Si4 0.338332 0.570729 0.866722
Si Si5 0.014578 0.600864 0.863333
O O1 0.200344 0.796204 0.932775
O O2 0.353440 0.697182 0.928810
O O3 0.332738 0.914560 0.811815
O O4 0.353286 0.871150 0.083516
O O5 0.533740 0.713894 0.034612
O O6 0.560566 0.890987 0.198138
O O7 0.593007 0.912311 0.898159
O O8 0.250000 0.500000 0.263254
O O9 0.408640 0.562663 0.164276
O O10 0.250000 0.500000 0.924819
O O11 0.430564 0.508804 0.929124
#
# Coordination Sequence:
#
# PCOD8215080 Si02
#       5
#     8   8   8   8   8
#     4  10  18  30  51  85 123 148 186 254 313 356
#     4  10  18  31  54  86 117 150 195 255 311 357
#     4  10  21  36  55  89 120 156 211 261 304 379
#     4  11  16  28  52  86 114 146 190 253 312 358
#     4  11  19  31  57  88 114 152 202 253 309 368
#
# _framework density 26.361986000000002
#
# number of rings (size 3 to 8) (size 9 to 14) (size 15 to 20)
#    0.000    1.600    6.000    2.400    0.000    0.000 
#    0.000    0.000    0.000   12.000    5.200    0.000 
#    0.000    0.000    0.000    0.000    0.000    0.000 
#
# Total GULP energy -495663.893639 kJ/mol
# GULP energy per Si atom -12391.597341 kJ/mol
# Density = 2.630198 g / cm^3
# Si number density = 26.361986 Si / 1000 Ang^3
#
#
#
# Elastic Constant Matrix: (Units=GPa)
#
#
# Indices 1 2 3 4 5 6 
#
# 1 142.0996 60.6724 39.4838 0.0000 0.0000 0.0000
# 2 60.6724 130.1359 23.2942 0.0000 0.0000 0.0000
# 3 39.4838 23.2942 74.9173 0.0000 0.0000 0.0000
# 4 0.0000 0.0000 0.0000 20.6436 0.0000 0.0000
# 5 0.0000 0.0000 0.0000 0.0000 -14.3032 0.0000
# 6 0.0000 0.0000 0.0000 0.0000 0.0000 20.3246
#
#
#
# Elastic Compliance Matrix: (Units=1/GPa)
#
#
# Indices 1 2 3 4 5 6 
#
# 1 0.009782 -0.003852 -0.003958 0.000000 0.000000 0.000000
# 2 -0.003852 0.009654 -0.000972 0.000000 0.000000 0.000000
# 3 -0.003958 -0.000972 0.015736 0.000000 0.000000 0.000000
# 4 0.000000 0.000000 0.000000 0.048441 0.000000 0.000000
# 5 0.000000 0.000000 0.000000 0.000000 -0.069914 0.000000
# 6 0.000000 0.000000 0.000000 0.000000 0.000000 0.049202
#
#
# Mechanical properties :
#
#
# Convention : Reuss Voigt Hill
#
# Bulk Modulus (GPa) = 56.78820 66.00596 61.39708
# Shear Modulus (GPa) = 57.91586 20.24649 39.08117
#
# Velocity S-wave (km/s) = 4.69224 2.77432 3.85448
# Velocity P-wave (km/s) = 7.13755 5.94602 6.56886
#
# Compressibility (1/GPa) = 0.01760929
#
# Stress axis : x y z
#
# Youngs Moduli (GPa) = 102.23203 103.58282 63.54890
#
# Poissons Ratio (x) = 0.39901 0.25150
# Poissons Ratio (y) = 0.39380 0.06175
# Poissons Ratio (z) = 0.40459 0.10064
#
# Static dielectric constant tensor:
#      x y z
#    x 5.312570 0.000000 0.000000 
#    y 0.000000 5.572610 0.000000 
#    z 0.000000 0.000000 4.591520 
# 
# 
# High freq. dielectric constant tensor:
#      x y z
#    x 2.070060 0.000000 0.000000 
#    y 0.000000 2.074400 0.000000 
#    z 0.000000 0.000000 2.055070 
# 
# From -- ./inp_files/19254.got.cif
#   From: 2010.06.25/outbox.cif.g09.slc.cpg/sg52_10_cif.got.tgz:19254.got - 2010.06.26 19:32:48.
