data_PCOD8215708
_publ_section_title
;
Structure prediction by ZEFSAII (Michael W. Deem and Ramdas Pophale) SiO2 
 PCOD8215708
Probable space group: P N N A
;
_chemical_formula_sum "Si O2"
_cell_formula_units_Z 40
_cell_length_a 16.458810
_cell_length_b 14.709054
_cell_length_c 8.345929
_cell_angle_alpha 90.000000
_cell_angle_beta 90.000000
_cell_angle_gamma 90.000000
_cell_volume 2020.495372
_symmetry_space_group_name_H-M "P N N A"
_symmetry_group_IT_number 52
_symmetry_cell_setting 'orthorhombic'
loop_
_space_group_symop_operation_xyz
x,y,z
1/2-x,-y,z
x,1/2-y,1/2-z
1/2-x,1/2+y,1/2-z
-x,-y,-z
1/2+x,y,-z
-x,1/2+y,1/2+z
1/2+x,1/2-y,1/2+z
loop_
_atom_site_type_symbol
_atom_site_label
_atom_site_fract_x
_atom_site_fract_y
_atom_site_fract_z
Si Si1 0.555948 0.849727 0.712181
Si Si2 0.901912 0.341908 0.150603
Si Si3 0.267351 0.649480 0.734118
Si Si4 0.182089 0.565077 0.427867
Si Si5 0.413020 0.524203 0.685815
O O1 0.527255 0.750000 0.750000
O O2 0.557556 0.851155 0.521639
O O3 0.490924 0.913631 0.797959
O O4 0.643640 0.872707 0.789461
O O5 0.925062 0.250000 0.250000
O O6 0.804303 0.352276 0.133674
O O7 0.938165 0.428654 0.239205
O O8 0.307477 0.750000 0.750000
O O9 0.222149 0.630110 0.563760
O O10 0.335295 0.573635 0.770489
O O11 0.250000 0.500000 0.349001
O O12 0.113246 0.497891 0.503399
#
# Coordination Sequence:
#
# PCOD8215708 Si02
#       5
#     8   8   8   8   8
#     4  12  22  34  56  85 111 139 181 231 279 324
#     4  10  21  37  55  75 107 148 189 225 269 329
#     4   9  17  35  57  77 106 146 185 218 267 333
#     4   9  20  36  55  79 111 147 183 226 274 326
#     4  10  20  36  56  80 108 144 182 224 278 332
#
# _framework density 19.797122999999999
#
# number of rings (size 3 to 8) (size 9 to 14) (size 15 to 20)
#    0.000    2.000    0.000    7.200    0.000    1.600 
#    0.000    0.000    0.000    2.400    0.000    1.400 
#    0.000    0.000    0.000    0.000    0.000    0.000 
#
# Total GULP energy -495584.543262 kJ/mol
# GULP energy per Si atom -12389.613582 kJ/mol
# Density = 1.975206 g / cm^3
# Si number density = 19.797123 Si / 1000 Ang^3
#
#
#
# Elastic Constant Matrix: (Units=GPa)
#
#
# Indices 1 2 3 4 5 6 
#
# 1 67.4174 45.6707 33.4401 0.0000 0.0000 0.0000
# 2 45.6707 157.8117 34.0975 0.0000 0.0000 0.0000
# 3 33.4401 34.0975 68.3520 0.0000 0.0000 0.0000
# 4 0.0000 0.0000 0.0000 19.1331 0.0000 0.0000
# 5 0.0000 0.0000 0.0000 0.0000 21.2117 0.0000
# 6 0.0000 0.0000 0.0000 0.0000 0.0000 35.5829
#
#
#
# Elastic Compliance Matrix: (Units=1/GPa)
#
#
# Indices 1 2 3 4 5 6 
#
# 1 0.022178 -0.004566 -0.008573 0.000000 0.000000 0.000000
# 2 -0.004566 0.008042 -0.001778 0.000000 0.000000 0.000000
# 3 -0.008573 -0.001778 0.019711 0.000000 0.000000 0.000000
# 4 0.000000 0.000000 0.000000 0.052266 0.000000 0.000000
# 5 0.000000 0.000000 0.000000 0.000000 0.047144 0.000000
# 6 0.000000 0.000000 0.000000 0.000000 0.000000 0.028103
#
#
# Mechanical properties :
#
#
# Convention : Reuss Voigt Hill
#
# Bulk Modulus (GPa) = 49.75547 57.77753 53.76650
# Shear Modulus (GPa) = 23.36697 27.21039 25.28868
#
# Velocity S-wave (km/s) = 3.43931 3.71140 3.57794
# Velocity P-wave (km/s) = 6.39992 6.90030 6.65482
#
# Compressibility (1/GPa) = 0.02009829
#
# Stress axis : x y z
#
# Youngs Moduli (GPa) = 45.08901 124.34289 50.73297
#
# Poissons Ratio (x) = 0.56777 0.43491
# Poissons Ratio (y) = 0.20589 0.09020
# Poissons Ratio (z) = 0.38653 0.22108
#
# Static dielectric constant tensor:
#      x y z
#    x 3.525960 0.000000 0.000000 
#    y 0.000000 3.926480 0.000000 
#    z 0.000000 0.000000 3.086390 
# 
# 
# High freq. dielectric constant tensor:
#      x y z
#    x 1.761620 0.000000 0.000000 
#    y 0.000000 1.795050 0.000000 
#    z 0.000000 0.000000 1.740550 
# 
# From -- ./inp_files/10074.got.cif
#   From: 2010.06.25/outbox.cif.g09.slc.cpg/sg52_6_cif.got.tgz:10074.got - 2010.06.26 19:32:48.
