data_PCOD8215817
_publ_section_title
;
Structure prediction by ZEFSAII (Michael W. Deem and Ramdas Pophale) SiO2 
 PCOD8215817
Probable space group: P N N A
;
_chemical_formula_sum "Si O2"
_cell_formula_units_Z 28
_cell_length_a 11.634754
_cell_length_b 10.326174
_cell_length_c 7.854741
_cell_angle_alpha 90.000000
_cell_angle_beta 90.000000
_cell_angle_gamma 90.000000
_cell_volume 943.688175
_symmetry_space_group_name_H-M "P N N A"
_symmetry_group_IT_number 52
_symmetry_cell_setting 'orthorhombic'
loop_
_space_group_symop_operation_xyz
x,y,z
1/2-x,-y,z
x,1/2-y,1/2-z
1/2-x,1/2+y,1/2-z
-x,-y,-z
1/2+x,y,-z
-x,1/2+y,1/2+z
1/2+x,1/2-y,1/2+z
loop_
_atom_site_type_symbol
_atom_site_label
_atom_site_fract_x
_atom_site_fract_y
_atom_site_fract_z
Si Si1 0.987598 0.838538 0.478128
Si Si2 0.586353 0.412272 0.677727
Si Si3 0.801476 0.750000 0.250000
Si Si4 0.176469 0.667199 0.428841
O O1 0.981125 0.701121 0.582532
O O2 0.971734 0.945291 0.631444
O O3 0.883924 0.853158 0.346089
O O4 0.113094 0.808959 0.390151
O O5 0.717721 0.359339 0.700767
O O6 0.585974 0.547515 0.577530
O O7 0.724983 0.668120 0.379131
#
# Coordination Sequence:
#
# PCOD8215817 Si02
#       4
#     8   8   4   8
#     4  10  20  37  62  94 130 172 221 277 338 398
#     4   9  20  38  61  92 128 176 222 262 345 411
#     4  10  22  36  60  98 128 172 232 276 338 400
#     4  10  20  39  63  92 136 174 218 284 330 401
#
# _framework density 29.670815999999999
#
# number of rings (size 3 to 8) (size 9 to 14) (size 15 to 20)
#    0.000    2.286    0.000    2.571    0.000    4.571 
#    0.000   12.857    0.000    0.000    0.000    6.000 
#    0.000    0.000    0.000    0.000    0.000    0.000 
#
# Total GULP energy -346994.533875 kJ/mol
# GULP energy per Si atom -12392.661924 kJ/mol
# Density = 2.960328 g / cm^3
# Si number density = 29.670816 Si / 1000 Ang^3
#
#
#
# Elastic Constant Matrix: (Units=GPa)
#
#
# Indices 1 2 3 4 5 6 
#
# 1 107.1651 21.3252 11.8768 0.0000 0.0000 0.0000
# 2 21.3252 66.4663 15.8337 0.0000 0.0000 0.0000
# 3 11.8768 15.8337 127.1760 0.0000 0.0000 0.0000
# 4 0.0000 0.0000 0.0000 52.8958 0.0000 0.0000
# 5 0.0000 0.0000 0.0000 0.0000 40.8116 0.0000
# 6 0.0000 0.0000 0.0000 0.0000 0.0000 40.1329
#
#
#
# Elastic Compliance Matrix: (Units=1/GPa)
#
#
# Indices 1 2 3 4 5 6 
#
# 1 0.010005 -0.003079 -0.000551 0.000000 0.000000 0.000000
# 2 -0.003079 0.016453 -0.001761 0.000000 0.000000 0.000000
# 3 -0.000551 -0.001761 0.008134 0.000000 0.000000 0.000000
# 4 0.000000 0.000000 0.000000 0.018905 0.000000 0.000000
# 5 0.000000 0.000000 0.000000 0.000000 0.024503 0.000000
# 6 0.000000 0.000000 0.000000 0.000000 0.000000 0.024917
#
#
# Mechanical properties :
#
#
# Convention : Reuss Voigt Hill
#
# Bulk Modulus (GPa) = 41.99908 44.31988 43.15948
# Shear Modulus (GPa) = 41.10668 43.55281 42.32975
#
# Velocity S-wave (km/s) = 3.72617 3.83543 3.78119
# Velocity P-wave (km/s) = 5.71823 5.88079 5.80008
#
# Compressibility (1/GPa) = 0.02381005
#
# Stress axis : x y z
#
# Youngs Moduli (GPa) = 99.94877 60.78102 122.94359
#
# Poissons Ratio (x) = 0.18713 0.06775
# Poissons Ratio (y) = 0.30772 0.21649
# Poissons Ratio (z) = 0.05508 0.10703
#
# Static dielectric constant tensor:
#      x y z
#    x 5.950030 0.000000 0.000000 
#    y 0.000000 5.721340 0.000000 
#    z 0.000000 0.000000 5.938800 
# 
# 
# High freq. dielectric constant tensor:
#      x y z
#    x 2.226140 0.000000 0.000000 
#    y 0.000000 2.216460 0.000000 
#    z 0.000000 0.000000 2.235020 
# 
# From -- ./inp_files/8136.got.cif
#   From: 2010.06.25/outbox.cif.g09.slc.cpg/sg52_5_cif.got.tgz:8136.got - 2010.06.26 19:32:48.
