data_PCOD8215296
_publ_section_title
;
Structure prediction by ZEFSAII (Michael W. Deem and Ramdas Pophale) SiO2 
 PCOD8215296
Probable space group: P N N A
;
_chemical_formula_sum "Si O2"
_cell_formula_units_Z 64
_cell_length_a 9.255385
_cell_length_b 16.945534
_cell_length_c 21.454056
_cell_angle_alpha 90.000000
_cell_angle_beta 90.000000
_cell_angle_gamma 90.000000
_cell_volume 3364.799246
_symmetry_space_group_name_H-M "P N N A"
_symmetry_group_IT_number 52
_symmetry_cell_setting 'orthorhombic'
loop_
_space_group_symop_operation_xyz
x,y,z
1/2-x,-y,z
x,1/2-y,1/2-z
1/2-x,1/2+y,1/2-z
-x,-y,-z
1/2+x,y,-z
-x,1/2+y,1/2+z
1/2+x,1/2-y,1/2+z
loop_
_atom_site_type_symbol
_atom_site_label
_atom_site_fract_x
_atom_site_fract_y
_atom_site_fract_z
Si Si1 0.579763 0.742479 0.619395
Si Si2 0.908267 0.759591 0.874185
Si Si3 0.461924 0.684422 0.995297
Si Si4 0.087416 0.588263 0.309618
Si Si5 0.802046 0.086624 0.444024
Si Si6 0.102865 0.634053 0.810301
Si Si7 0.418988 0.914366 0.194930
Si Si8 0.917660 0.672611 0.215303
O O1 0.742272 0.757312 0.642240
O O2 0.556116 0.754970 0.546186
O O3 0.538154 0.652530 0.638465
O O4 0.476757 0.812701 0.645906
O O5 0.958300 0.848901 0.857261
O O6 0.004334 0.706308 0.829989
O O7 0.927222 0.740349 0.946380
O O8 0.319805 0.651766 0.960246
O O9 0.556613 0.608911 0.016001
O O10 0.252025 0.598447 0.286995
O O11 0.059286 0.500482 0.336507
O O12 0.990413 0.596984 0.247430
O O13 0.846841 0.083700 0.370785
O O14 0.750000 0.000000 0.464118
O O15 0.246637 0.667222 0.778807
O O16 0.015029 0.586293 0.757913
O O17 0.976793 0.750000 0.250000
#
# Coordination Sequence:
#
# PCOD8215296 Si02
#       8
#     8   8   8   8   8   8   8   8
#     4  10  19  37  60  81 112 152 199 235 281 351
#     4  10  21  37  59  83 108 156 199 239 285 346
#     4  11  21  40  61  83 112 153 198 239 284 342
#     4   9  21  36  57  84 114 153 192 239 292 341
#     4  11  24  39  58  87 118 152 191 238 289 343
#     4  11  22  34  58  85 118 149 189 235 294 353
#     4  10  20  38  57  82 119 149 194 243 292 346
#     4  10  19  32  54  82 112 147 185 231 286 348
#
# _framework density 19.020451000000001
#
# number of rings (size 3 to 8) (size 9 to 14) (size 15 to 20)
#    0.000    1.750    2.500    2.250    1.750    2.000 
#    0.000    0.625    0.000    0.000    0.000    0.000 
#    0.000    0.000    0.000    0.000    0.000    0.000 
#
# Total GULP energy -793201.841774 kJ/mol
# GULP energy per Si atom -12393.778778 kJ/mol
# Density = 1.897716 g / cm^3
# Si number density = 19.020451 Si / 1000 Ang^3
#
#
#
# Elastic Constant Matrix: (Units=GPa)
#
#
# Indices 1 2 3 4 5 6 
#
# 1 88.0656 38.6140 30.9843 0.0000 0.0000 0.0000
# 2 38.6140 116.2806 50.6579 0.0000 0.0000 0.0000
# 3 30.9843 50.6579 89.5908 0.0000 0.0000 0.0000
# 4 0.0000 0.0000 0.0000 18.5827 0.0000 0.0000
# 5 0.0000 0.0000 0.0000 0.0000 29.0678 0.0000
# 6 0.0000 0.0000 0.0000 0.0000 0.0000 17.4463
#
#
#
# Elastic Compliance Matrix: (Units=1/GPa)
#
#
# Indices 1 2 3 4 5 6 
#
# 1 0.013837 -0.003330 -0.002902 0.000000 0.000000 0.000000
# 2 -0.003330 0.012212 -0.005754 0.000000 0.000000 0.000000
# 3 -0.002902 -0.005754 0.015419 0.000000 0.000000 0.000000
# 4 0.000000 0.000000 0.000000 0.053813 0.000000 0.000000
# 5 0.000000 0.000000 0.000000 0.000000 0.034402 0.000000
# 6 0.000000 0.000000 0.000000 0.000000 0.000000 0.057319
#
#
# Mechanical properties :
#
#
# Convention : Reuss Voigt Hill
#
# Bulk Modulus (GPa) = 57.15742 59.38327 58.27035
# Shear Modulus (GPa) = 23.06209 24.59810 23.83010
#
# Velocity S-wave (km/s) = 3.48586 3.60007 3.54343
# Velocity P-wave (km/s) = 6.80569 6.96916 6.88791
#
# Compressibility (1/GPa) = 0.01749554
#
# Stress axis : x y z
#
# Youngs Moduli (GPa) = 72.27248 81.88404 64.85605
#
# Poissons Ratio (x) = 0.27271 0.18822
# Poissons Ratio (y) = 0.24070 0.37315
# Poissons Ratio (z) = 0.20974 0.47112
#
# Static dielectric constant tensor:
#      x y z
#    x 3.563540 0.000000 0.000000 
#    y 0.000000 3.406190 0.000000 
#    z 0.000000 0.000000 3.475470 
# 
# 
# High freq. dielectric constant tensor:
#      x y z
#    x 1.751920 0.000000 0.000000 
#    y 0.000000 1.731360 0.000000 
#    z 0.000000 0.000000 1.727700 
# 
# From -- ./inp_files/39671.got.cif
#   From: 2010.06.25/outbox.cif.g09.slc.cpg/sg52_20_cif.got.tgz:39671.got - 2010.06.26 19:32:48.
