data_PCOD8215881
_publ_section_title
;
Structure prediction by ZEFSAII (Michael W. Deem and Ramdas Pophale) SiO2 
 PCOD8215881
Probable space group: P N N A
;
_chemical_formula_sum "Si O2"
_cell_formula_units_Z 40
_cell_length_a 8.992827
_cell_length_b 8.668189
_cell_length_c 25.455304
_cell_angle_alpha 90.000000
_cell_angle_beta 90.000000
_cell_angle_gamma 90.000000
_cell_volume 1984.279743
_symmetry_space_group_name_H-M "P N N A"
_symmetry_group_IT_number 52
_symmetry_cell_setting 'orthorhombic'
loop_
_space_group_symop_operation_xyz
x,y,z
1/2-x,-y,z
x,1/2-y,1/2-z
1/2-x,1/2+y,1/2-z
-x,-y,-z
1/2+x,y,-z
-x,1/2+y,1/2+z
1/2+x,1/2-y,1/2+z
loop_
_atom_site_type_symbol
_atom_site_label
_atom_site_fract_x
_atom_site_fract_y
_atom_site_fract_z
Si Si1 0.250000 0.000000 0.735144
Si Si2 0.250000 0.000000 0.116105
Si Si3 0.956110 0.463231 0.330710
Si Si4 0.812884 0.657818 0.035261
Si Si5 0.412909 0.351180 0.478841
Si Si6 0.212348 0.258090 0.853195
O O1 0.396402 0.039559 0.770277
O O2 0.207305 0.146744 0.700500
O O3 0.370734 0.927247 0.156955
O O4 0.163568 0.879599 0.078172
O O5 0.919481 0.632372 0.353493
O O6 0.868941 0.328814 0.360832
O O7 0.750000 0.500000 0.008602
O O8 0.807685 0.630549 0.097663
O O9 0.982135 0.699685 0.021035
O O10 0.717559 0.807662 0.018956
O O11 0.500000 0.500000 0.500000
#
# Coordination Sequence:
#
# PCOD8215881 Si02
#       6
#     4   4   8   8   8   8
#     4  10  20  42  63  92 120 159 214 264 314 378
#     4  12  22  38  63  96 124 157 218 256 314 370
#     4  10  21  36  64  87 120 157 209 261 308 370
#     4  12  24  40  63  93 129 168 211 264 328 371
#     4  12  24  41  64  92 127 173 215 261 309 392
#     4  10  20  38  64  88 115 164 211 256 309 383
#
# _framework density 20.158448
#
# number of rings (size 3 to 8) (size 9 to 14) (size 15 to 20)
#    0.000    1.200    5.000    4.200    2.800    0.000 
#    0.000    4.000    0.000    0.000    0.000    0.000 
#    0.000    0.000    0.000    0.000    0.000    0.000 
#
# Total GULP energy -495528.989938 kJ/mol
# GULP energy per Si atom -12388.224748 kJ/mol
# Density = 2.011257 g / cm^3
# Si number density = 20.158448 Si / 1000 Ang^3
#
#
#
# Elastic Constant Matrix: (Units=GPa)
#
#
# Indices 1 2 3 4 5 6 
#
# 1 126.5153 23.5505 37.3539 0.0000 0.0000 0.0000
# 2 23.5505 66.4922 1.5187 0.0000 0.0000 0.0000
# 3 37.3539 1.5187 90.8349 0.0000 0.0000 0.0000
# 4 0.0000 0.0000 0.0000 19.1102 0.0000 0.0000
# 5 0.0000 0.0000 0.0000 0.0000 23.4235 0.0000
# 6 0.0000 0.0000 0.0000 0.0000 0.0000 28.7137
#
#
#
# Elastic Compliance Matrix: (Units=1/GPa)
#
#
# Indices 1 2 3 4 5 6 
#
# 1 0.009686 -0.003341 -0.003927 0.000000 0.000000 0.000000
# 2 -0.003341 0.016197 0.001103 0.000000 0.000000 0.000000
# 3 -0.003927 0.001103 0.012605 0.000000 0.000000 0.000000
# 4 0.000000 0.000000 0.000000 0.052328 0.000000 0.000000
# 5 0.000000 0.000000 0.000000 0.000000 0.042692 0.000000
# 6 0.000000 0.000000 0.000000 0.000000 0.000000 0.034827
#
#
# Mechanical properties :
#
#
# Convention : Reuss Voigt Hill
#
# Bulk Modulus (GPa) = 38.22824 45.40985 41.81905
# Shear Modulus (GPa) = 26.40130 29.01077 27.70604
#
# Velocity S-wave (km/s) = 3.62289 3.79771 3.71133
# Velocity P-wave (km/s) = 6.04198 6.46572 6.25744
#
# Compressibility (1/GPa) = 0.02615867
#
# Stress axis : x y z
#
# Youngs Moduli (GPa) = 103.24660 61.73831 79.33056
#
# Poissons Ratio (x) = 0.20625 0.31154
# Poissons Ratio (y) = 0.34492 -0.08750
# Poissons Ratio (z) = 0.40546 -0.06810
#
# Static dielectric constant tensor:
#      x y z
#    x 3.889330 0.000000 0.000000 
#    y 0.000000 3.600480 0.000000 
#    z 0.000000 0.000000 3.597190 
# 
# 
# High freq. dielectric constant tensor:
#      x y z
#    x 1.779480 0.000000 0.000000 
#    y 0.000000 1.782690 0.000000 
#    z 0.000000 0.000000 1.785170 
# 
# From -- ./inp_files/42160.got.cif
#   From: 2010.06.25/outbox.cif.g09.slc.cpg/sg52_22_cif.got.tgz:42160.got - 2010.06.26 19:32:48.
