data_PCOD8215910
_publ_section_title
;
Structure prediction by ZEFSAII (Michael W. Deem and Ramdas Pophale) SiO2 
 PCOD8215910
Probable space group: P N N A
;
_chemical_formula_sum "Si O2"
_cell_formula_units_Z 40
_cell_length_a 9.036226
_cell_length_b 9.296287
_cell_length_c 23.226573
_cell_angle_alpha 90.000000
_cell_angle_beta 90.000000
_cell_angle_gamma 90.000000
_cell_volume 1951.109948
_symmetry_space_group_name_H-M "P N N A"
_symmetry_group_IT_number 52
_symmetry_cell_setting 'orthorhombic'
loop_
_space_group_symop_operation_xyz
x,y,z
1/2-x,-y,z
x,1/2-y,1/2-z
1/2-x,1/2+y,1/2-z
-x,-y,-z
1/2+x,y,-z
-x,1/2+y,1/2+z
1/2+x,1/2-y,1/2+z
loop_
_atom_site_type_symbol
_atom_site_label
_atom_site_fract_x
_atom_site_fract_y
_atom_site_fract_z
Si Si1 0.679619 0.655378 0.693812
Si Si2 0.413234 0.729011 0.396513
Si Si3 0.209546 0.159278 0.984689
Si Si4 0.100927 0.584919 0.954671
Si Si5 0.406453 0.946723 0.867154
O O1 0.750000 0.500000 0.705904
O O2 0.696616 0.750000 0.750000
O O3 0.766790 0.736844 0.642375
O O4 0.505611 0.645306 0.677206
O O5 0.381049 0.730878 0.464572
O O6 0.510470 0.877858 0.394828
O O7 0.503970 0.589220 0.380817
O O8 0.354978 0.256551 0.977821
O O9 0.119591 0.148212 0.924466
O O10 0.250000 0.000000 0.005916
O O11 0.250000 0.500000 0.938902
O O12 0.000000 0.500000 0.000000
O O13 0.250000 0.000000 0.840033
#
# Coordination Sequence:
#
# PCOD8215910 Si02
#       5
#     8   8   8   8   8
#     4  10  24  47  69  95 127 176 231 277 330 397
#     4  11  22  40  65  94 132 177 220 270 321 408
#     4  11  21  37  66  98 128 171 217 263 334 406
#     4  12  25  38  55  96 149 174 208 269 344 406
#     4  10  20  38  71  99 125 158 225 277 321 394
#
# _framework density 20.501151
#
# number of rings (size 3 to 8) (size 9 to 14) (size 15 to 20)
#    0.000    1.200    6.000    2.400    2.800    0.000 
#    7.200    4.000    0.000    0.000    0.000    0.000 
#    0.000    0.000    0.000    0.000    0.000    0.000 
#
# Total GULP energy -495550.060201 kJ/mol
# GULP energy per Si atom -12388.751505 kJ/mol
# Density = 2.045449 g / cm^3
# Si number density = 20.501151 Si / 1000 Ang^3
#
#
#
# Elastic Constant Matrix: (Units=GPa)
#
#
# Indices 1 2 3 4 5 6 
#
# 1 156.1177 45.8081 67.8822 0.0000 0.0000 0.0000
# 2 45.8081 86.3661 49.2622 0.0000 0.0000 0.0000
# 3 67.8822 49.2622 85.1234 0.0000 0.0000 0.0000
# 4 0.0000 0.0000 0.0000 10.2037 0.0000 0.0000
# 5 0.0000 0.0000 0.0000 0.0000 -23.8140 0.0000
# 6 0.0000 0.0000 0.0000 0.0000 0.0000 32.3298
#
#
#
# Elastic Compliance Matrix: (Units=1/GPa)
#
#
# Indices 1 2 3 4 5 6 
#
# 1 0.009877 -0.001114 -0.007232 0.000000 0.000000 0.000000
# 2 -0.001114 0.017409 -0.009187 0.000000 0.000000 0.000000
# 3 -0.007232 -0.009187 0.022831 0.000000 0.000000 0.000000
# 4 0.000000 0.000000 0.000000 0.098004 0.000000 0.000000
# 5 0.000000 0.000000 0.000000 0.000000 -0.041992 0.000000
# 6 0.000000 0.000000 0.000000 0.000000 0.000000 0.030931
#
#
# Mechanical properties :
#
#
# Convention : Reuss Voigt Hill
#
# Bulk Modulus (GPa) = 66.43358 72.61247 69.52303
# Shear Modulus (GPa) = 28.22586 14.72088 21.47337
#
# Velocity S-wave (km/s) = 3.71454 2.68255 3.23990
# Velocity P-wave (km/s) = 7.13248 6.71494 6.92686
#
# Compressibility (1/GPa) = 0.01505263
#
# Stress axis : x y z
#
# Youngs Moduli (GPa) = 101.24902 57.44004 43.79953
#
# Poissons Ratio (x) = 0.06397 0.31675
# Poissons Ratio (y) = 0.11275 0.40239
# Poissons Ratio (z) = 0.73220 0.52770
#
# Static dielectric constant tensor:
#      x y z
#    x 3.322850 0.000000 0.000000 
#    y 0.000000 3.861520 0.000000 
#    z 0.000000 0.000000 3.652910 
# 
# 
# High freq. dielectric constant tensor:
#      x y z
#    x 1.831100 0.000000 0.000000 
#    y 0.000000 1.805250 0.000000 
#    z 0.000000 0.000000 1.754630 
# 
# From -- ./inp_files/39228.got.cif
#   From: 2010.06.25/outbox.cif.g09.slc.cpg/sg52_20_cif.got.tgz:39228.got - 2010.06.26 19:32:48.
