data_PCOD8215239
_publ_section_title
;
Structure prediction by ZEFSAII (Michael W. Deem and Ramdas Pophale) SiO2 
 PCOD8215239
Probable space group: P N N A
;
_chemical_formula_sum "Si O2"
_cell_formula_units_Z 48
_cell_length_a 9.944291
_cell_length_b 16.145055
_cell_length_c 14.811740
_cell_angle_alpha 90.000000
_cell_angle_beta 90.000000
_cell_angle_gamma 90.000000
_cell_volume 2378.041522
_symmetry_space_group_name_H-M "P N N A"
_symmetry_group_IT_number 52
_symmetry_cell_setting 'orthorhombic'
loop_
_space_group_symop_operation_xyz
x,y,z
1/2-x,-y,z
x,1/2-y,1/2-z
1/2-x,1/2+y,1/2-z
-x,-y,-z
1/2+x,y,-z
-x,1/2+y,1/2+z
1/2+x,1/2-y,1/2+z
loop_
_atom_site_type_symbol
_atom_site_label
_atom_site_fract_x
_atom_site_fract_y
_atom_site_fract_z
Si Si1 0.995442 0.926355 0.676238
Si Si2 0.250000 0.500000 0.769038
Si Si3 0.090787 0.258808 0.518847
Si Si4 0.980960 0.809973 0.828327
Si Si5 0.250000 0.000000 0.427249
Si Si6 0.281854 0.678581 0.680793
Si Si7 0.354502 0.344192 0.975068
O O1 0.113069 0.996020 0.671974
O O2 0.970764 0.900511 0.780998
O O3 0.058396 0.849338 0.618690
O O4 0.854292 0.952586 0.636032
O O5 0.267008 0.585453 0.715597
O O6 0.113445 0.326640 0.597276
O O7 0.205497 0.190260 0.535220
O O8 0.104371 0.302926 0.420702
O O9 0.947306 0.214691 0.537323
O O10 0.923752 0.750000 0.750000
O O11 0.136069 0.791492 0.855307
O O12 0.338383 0.063410 0.485809
O O13 0.333089 0.750000 0.750000
#
# Coordination Sequence:
#
# PCOD8215239 Si02
#       7
#     8   4   8   8   4   8   8
#     4  11  23  41  63  90 132 171 210 265 337 392
#     4  10  23  42  69  92 124 182 224 267 321 406
#     4  12  22  40  66  95 121 172 219 268 321 395
#     4  10  18  40  63  86 123 171 210 259 320 389
#     4  12  25  38  57 102 136 166 206 281 345 390
#     4  10  22  41  66  96 128 168 227 273 327 395
#     4  12  23  38  63  95 131 163 218 266 337 394
#
# _framework density 20.184678000000002
#
# number of rings (size 3 to 8) (size 9 to 14) (size 15 to 20)
#    0.000    1.000    5.000    3.000    4.667    0.000 
#    3.000    5.000    0.000    0.000    0.000    0.000 
#    0.000    0.000    0.000    0.000    0.000    0.000 
#
# Total GULP energy -594845.883337 kJ/mol
# GULP energy per Si atom -12392.622570 kJ/mol
# Density = 2.013874 g / cm^3
# Si number density = 20.184678 Si / 1000 Ang^3
#
#
#
# Elastic Constant Matrix: (Units=GPa)
#
#
# Indices 1 2 3 4 5 6 
#
# 1 88.0809 26.7349 32.1659 0.0000 0.0000 0.0000
# 2 26.7349 89.0735 33.7256 0.0000 0.0000 0.0000
# 3 32.1659 33.7256 121.1053 0.0000 0.0000 0.0000
# 4 0.0000 0.0000 0.0000 20.2534 0.0000 0.0000
# 5 0.0000 0.0000 0.0000 0.0000 32.8950 0.0000
# 6 0.0000 0.0000 0.0000 0.0000 0.0000 32.3186
#
#
#
# Elastic Compliance Matrix: (Units=1/GPa)
#
#
# Indices 1 2 3 4 5 6 
#
# 1 0.013233 -0.002952 -0.002692 0.000000 0.000000 0.000000
# 2 -0.002952 0.013209 -0.002894 0.000000 0.000000 0.000000
# 3 -0.002692 -0.002894 0.009778 0.000000 0.000000 0.000000
# 4 0.000000 0.000000 0.000000 0.049374 0.000000 0.000000
# 5 0.000000 0.000000 0.000000 0.000000 0.030400 0.000000
# 6 0.000000 0.000000 0.000000 0.000000 0.000000 0.030942
#
#
# Mechanical properties :
#
#
# Convention : Reuss Voigt Hill
#
# Bulk Modulus (GPa) = 52.24199 53.72361 52.98280
# Shear Modulus (GPa) = 29.34374 30.80229 30.07302
#
# Velocity S-wave (km/s) = 3.81696 3.91067 3.86410
# Velocity P-wave (km/s) = 6.73526 6.86039 6.79812
#
# Compressibility (1/GPa) = 0.01914169
#
# Stress axis : x y z
#
# Youngs Moduli (GPa) = 75.57140 75.70817 102.26627
#
# Poissons Ratio (x) = 0.22351 0.27535
# Poissons Ratio (y) = 0.22310 0.29598
# Poissons Ratio (z) = 0.20347 0.21912
#
# Static dielectric constant tensor:
#      x y z
#    x 3.696290 0.000000 0.000000 
#    y 0.000000 3.658540 0.000000 
#    z 0.000000 0.000000 3.772110 
# 
# 
# High freq. dielectric constant tensor:
#      x y z
#    x 1.780240 0.000000 0.000000 
#    y 0.000000 1.785230 0.000000 
#    z 0.000000 0.000000 1.782430 
# 
# From -- ./inp_files/24782.got.cif
#   From: 2010.06.25/outbox.cif.g09.slc.cpg/sg52_13_cif.got.tgz:24782.got - 2010.06.26 19:32:48.
