data_PCOD8215218
_publ_section_title
;
Structure prediction by ZEFSAII (Michael W. Deem and Ramdas Pophale) SiO2 
 PCOD8215218
Probable space group: P N N A
;
_chemical_formula_sum "Si O2"
_cell_formula_units_Z 36
_cell_length_a 9.920345
_cell_length_b 12.512592
_cell_length_c 13.449144
_cell_angle_alpha 90.000000
_cell_angle_beta 90.000000
_cell_angle_gamma 90.000000
_cell_volume 1669.431882
_symmetry_space_group_name_H-M "P N N A"
_symmetry_group_IT_number 52
_symmetry_cell_setting 'orthorhombic'
loop_
_space_group_symop_operation_xyz
x,y,z
1/2-x,-y,z
x,1/2-y,1/2-z
1/2-x,1/2+y,1/2-z
-x,-y,-z
1/2+x,y,-z
-x,1/2+y,1/2+z
1/2+x,1/2-y,1/2+z
loop_
_atom_site_type_symbol
_atom_site_label
_atom_site_fract_x
_atom_site_fract_y
_atom_site_fract_z
Si Si1 0.102939 0.532898 0.084962
Si Si2 0.250000 0.000000 0.867314
Si Si3 0.866472 0.637798 0.535455
Si Si4 0.531199 0.515541 0.701529
Si Si5 0.095128 0.777954 0.091792
O O1 0.250000 0.500000 0.044486
O O2 0.085202 0.475199 0.191920
O O3 0.069818 0.654771 0.113677
O O4 0.000000 0.500000 0.000000
O O5 0.377073 0.025883 0.797542
O O6 0.296772 0.902116 0.934932
O O7 0.888393 0.540643 0.611734
O O8 0.757490 0.719318 0.579297
O O9 0.009885 0.691543 0.508143
O O10 0.549786 0.643231 0.681675
#
# Coordination Sequence:
#
# PCOD8215218 Si02
#       5
#     8   4   8   8   8
#     4  12  28  47  62  89 135 185 217 260 312 386
#     4  10  18  36  66 104 130 152 196 276 336 370
#     4  11  18  38  69 104 126 154 212 277 329 376
#     4  11  22  39  72 100 129 163 215 272 327 380
#     4  11  21  39  68  96 128 170 214 263 325 385
#
# _framework density 21.564222000000001
#
# number of rings (size 3 to 8) (size 9 to 14) (size 15 to 20)
#    0.000    0.889    4.444    4.667    1.556    0.000 
#    0.000    3.333    0.000    0.000    0.000    0.000 
#    0.000    0.000    0.000    0.000    0.000    0.000 
#
# Total GULP energy -446150.565756 kJ/mol
# GULP energy per Si atom -12393.071271 kJ/mol
# Density = 2.151514 g / cm^3
# Si number density = 21.564222 Si / 1000 Ang^3
#
#
#
# Elastic Constant Matrix: (Units=GPa)
#
#
# Indices 1 2 3 4 5 6 
#
# 1 165.9029 27.3509 53.5484 0.0000 0.0000 0.0000
# 2 27.3509 73.2661 24.3481 0.0000 0.0000 0.0000
# 3 53.5484 24.3481 114.8937 0.0000 0.0000 0.0000
# 4 0.0000 0.0000 0.0000 12.7140 0.0000 0.0000
# 5 0.0000 0.0000 0.0000 0.0000 30.1400 0.0000
# 6 0.0000 0.0000 0.0000 0.0000 0.0000 26.8636
#
#
#
# Elastic Compliance Matrix: (Units=1/GPa)
#
#
# Indices 1 2 3 4 5 6 
#
# 1 0.007289 -0.001713 -0.003034 0.000000 0.000000 0.000000
# 2 -0.001713 0.015085 -0.002399 0.000000 0.000000 0.000000
# 3 -0.003034 -0.002399 0.010626 0.000000 0.000000 0.000000
# 4 0.000000 0.000000 0.000000 0.078654 0.000000 0.000000
# 5 0.000000 0.000000 0.000000 0.000000 0.033179 0.000000
# 6 0.000000 0.000000 0.000000 0.000000 0.000000 0.037225
#
#
# Mechanical properties :
#
#
# Convention : Reuss Voigt Hill
#
# Bulk Modulus (GPa) = 53.44885 62.72860 58.08872
# Shear Modulus (GPa) = 24.68084 30.53119 27.60602
#
# Velocity S-wave (km/s) = 3.38676 3.76683 3.58184
# Velocity P-wave (km/s) = 6.33508 6.93333 6.64094
#
# Compressibility (1/GPa) = 0.01870948
#
# Stress axis : x y z
#
# Youngs Moduli (GPa) = 137.18543 66.28927 94.10666
#
# Poissons Ratio (x) = 0.11354 0.28556
# Poissons Ratio (y) = 0.23497 0.22572
# Poissons Ratio (z) = 0.41627 0.15900
#
# Static dielectric constant tensor:
#      x y z
#    x 4.586910 0.000000 0.000000 
#    y 0.000000 65.925280 0.000000 
#    z 0.000000 0.000000 3.729820 
# 
# 
# High freq. dielectric constant tensor:
#      x y z
#    x 1.868340 0.000000 0.000000 
#    y 0.000000 1.820140 0.000000 
#    z 0.000000 0.000000 1.833530 
# 
# From -- ./inp_files/17925.got.cif
#   From: 2010.06.25/outbox.cif.g09.slc.cpg/sg52_9_cif.got.tgz:17925.got - 2010.06.26 19:32:48.
