data_PCOD8215610
_publ_section_title
;
Structure prediction by ZEFSAII (Michael W. Deem and Ramdas Pophale) SiO2 
 PCOD8215610
Probable space group: P N N A
;
_chemical_formula_sum "Si O2"
_cell_formula_units_Z 64
_cell_length_a 24.775519
_cell_length_b 22.363185
_cell_length_c 6.466670
_cell_angle_alpha 90.000000
_cell_angle_beta 90.000000
_cell_angle_gamma 90.000000
_cell_volume 3582.920043
_symmetry_space_group_name_H-M "P N N A"
_symmetry_group_IT_number 52
_symmetry_cell_setting 'orthorhombic'
loop_
_space_group_symop_operation_xyz
x,y,z
1/2-x,-y,z
x,1/2-y,1/2-z
1/2-x,1/2+y,1/2-z
-x,-y,-z
1/2+x,y,-z
-x,1/2+y,1/2+z
1/2+x,1/2-y,1/2+z
loop_
_atom_site_type_symbol
_atom_site_label
_atom_site_fract_x
_atom_site_fract_y
_atom_site_fract_z
Si Si1 0.403044 0.113090 0.045537
Si Si2 0.323207 0.526854 0.231910
Si Si3 0.567196 0.810002 0.341918
Si Si4 0.978699 0.090143 0.601886
Si Si5 0.415720 0.976341 0.532691
Si Si6 0.663085 0.808468 0.638147
Si Si7 0.223826 0.579692 0.014082
Si Si8 0.670069 0.515729 0.347455
O O1 0.457344 0.091655 0.163305
O O2 0.369552 0.156700 0.189422
O O3 0.420081 0.144647 0.837964
O O4 0.367521 0.056943 0.986843
O O5 0.284629 0.569393 0.093212
O O6 0.316566 0.457877 0.158105
O O7 0.306525 0.529921 0.475774
O O8 0.386229 0.542494 0.184096
O O9 0.539425 0.750000 0.250000
O O10 0.527438 0.844420 0.498735
O O11 0.622054 0.789469 0.456982
O O12 0.041715 0.073941 0.599077
O O13 0.944230 0.041006 0.475000
O O14 0.366874 0.977305 0.695184
O O15 0.688830 0.750000 0.750000
O O16 0.709403 0.850161 0.535282
O O17 0.215745 0.554168 0.777804
#
# Coordination Sequence:
#
# PCOD8215610 Si02
#       8
#     8   8   8   8   8   8   8   8
#     4  11  18  32  51  78 108 139 173 213 266 321
#     4  10  20  34  52  72 110 144 177 225 264 313
#     4  11  20  33  53  78 105 142 173 216 269 327
#     4  10  21  32  51  80 111 138 176 225 262 319
#     4  10  20  34  49  78 110 140 178 219 265 317
#     4  11  20  32  51  78 112 136 170 225 271 319
#     4  10  21  33  50  81 105 140 183 219 264 328
#     4  11  18  34  55  74 108 145 176 213 273 326
#
# _framework density 17.862525000000002
#
# number of rings (size 3 to 8) (size 9 to 14) (size 15 to 20)
#    0.000    1.500    6.250    1.500    0.000    5.500 
#    0.000    0.000    0.000    0.750    0.000    0.000 
#    0.000    0.000    0.000    0.000    0.000    0.000 
#
# Total GULP energy -793129.164978 kJ/mol
# GULP energy per Si atom -12392.643203 kJ/mol
# Density = 1.782187 g / cm^3
# Si number density = 17.862525 Si / 1000 Ang^3
#
#
#
# Elastic Constant Matrix: (Units=GPa)
#
#
# Indices 1 2 3 4 5 6 
#
# 1 76.2029 33.8921 27.0018 0.0000 0.0000 0.0000
# 2 33.8921 79.7486 22.3493 0.0000 0.0000 0.0000
# 3 27.0018 22.3493 100.8937 0.0000 0.0000 0.0000
# 4 0.0000 0.0000 0.0000 23.3819 0.0000 0.0000
# 5 0.0000 0.0000 0.0000 0.0000 8.7742 0.0000
# 6 0.0000 0.0000 0.0000 0.0000 0.0000 -7.9367
#
#
#
# Elastic Compliance Matrix: (Units=1/GPa)
#
#
# Indices 1 2 3 4 5 6 
#
# 1 0.017076 -0.006372 -0.003159 0.000000 0.000000 0.000000
# 2 -0.006372 0.015747 -0.001783 0.000000 0.000000 0.000000
# 3 -0.003159 -0.001783 0.011152 0.000000 0.000000 0.000000
# 4 0.000000 0.000000 0.000000 0.042768 0.000000 0.000000
# 5 0.000000 0.000000 0.000000 0.000000 0.113971 0.000000
# 6 0.000000 0.000000 0.000000 0.000000 0.000000 -0.125998
#
#
# Mechanical properties :
#
#
# Convention : Reuss Voigt Hill
#
# Bulk Modulus (GPa) = 46.84267 47.03685 46.93976
# Shear Modulus (GPa) = 47.86581 16.41735 32.14158
#
# Velocity S-wave (km/s) = 5.18218 3.03495 4.24652
# Velocity P-wave (km/s) = 7.87956 6.21861 7.09784
#
# Compressibility (1/GPa) = 0.02134806
#
# Stress axis : x y z
#
# Youngs Moduli (GPa) = 58.56161 63.50408 89.67278
#
# Poissons Ratio (x) = 0.40464 0.28323
# Poissons Ratio (y) = 0.37315 0.15988
# Poissons Ratio (z) = 0.18497 0.11322
#
# Static dielectric constant tensor:
#      x y z
#    x 3.181390 0.000000 0.000000 
#    y 0.000000 3.458730 0.000000 
#    z 0.000000 0.000000 4.818870 
# 
# 
# High freq. dielectric constant tensor:
#      x y z
#    x 1.662630 0.000000 0.000000 
#    y 0.000000 1.658140 0.000000 
#    z 0.000000 0.000000 1.713330 
# 
# From -- ./inp_files/6032.got.cif
#   From: 2010.06.25/outbox.cif.g09.slc.cpg/sg52_4_cif.got.tgz:6032.got - 2010.06.26 19:32:48.
