data_PCOD8215724
_publ_section_title
;
Structure prediction by ZEFSAII (Michael W. Deem and Ramdas Pophale) SiO2 
 PCOD8215724
Probable space group: P N N A
;
_chemical_formula_sum "Si O2"
_cell_formula_units_Z 32
_cell_length_a 5.056011
_cell_length_b 7.660828
_cell_length_c 36.242725
_cell_angle_alpha 90.000000
_cell_angle_beta 90.000000
_cell_angle_gamma 90.000000
_cell_volume 1403.797826
_symmetry_space_group_name_H-M "P N N A"
_symmetry_group_IT_number 52
_symmetry_cell_setting 'orthorhombic'
loop_
_space_group_symop_operation_xyz
x,y,z
1/2-x,-y,z
x,1/2-y,1/2-z
1/2-x,1/2+y,1/2-z
-x,-y,-z
1/2+x,y,-z
-x,1/2+y,1/2+z
1/2+x,1/2-y,1/2+z
loop_
_atom_site_type_symbol
_atom_site_label
_atom_site_fract_x
_atom_site_fract_y
_atom_site_fract_z
Si Si1 0.011249 0.109455 0.220492
Si Si2 0.260092 0.791810 0.521890
Si Si3 0.238576 0.293381 0.148753
Si Si4 0.756690 0.706591 0.104117
O O1 0.908975 0.250000 0.250000
O O2 0.156837 0.197467 0.185899
O O3 0.250000 0.000000 0.239330
O O4 0.750000 0.000000 0.209108
O O5 0.490462 0.720383 0.495590
O O6 0.303086 0.716629 0.563182
O O7 0.250000 0.000000 0.523110
O O8 0.250000 0.500000 0.156129
O O9 0.521080 0.228252 0.133151
O O10 0.028887 0.233990 0.118024
O O11 0.750000 0.500000 0.102052
#
# Coordination Sequence:
#
# PCOD8215724 Si02
#       4
#     8   8   8   8
#     4  12  26  44  66  92 122 155 196 242 296 356
#     4   9  15  23  38  65 106 150 188 230 285 343
#     4  10  20  36  58  83 116 154 194 239 292 350
#     4   9  17  29  48  76 111 153 194 236 290 347
#
# _framework density 22.795306
#
# number of rings (size 3 to 8) (size 9 to 14) (size 15 to 20)
#    0.000    2.000    0.000    4.500    0.000    9.000 
#    0.000    0.000    0.000    0.000    0.000    0.000 
#    0.000   70.000    0.000    0.000    0.000    0.000 
#
# Total GULP energy -396664.593858 kJ/mol
# GULP energy per Si atom -12395.768558 kJ/mol
# Density = 2.274342 g / cm^3
# Si number density = 22.795306 Si / 1000 Ang^3
#
#
#
# Elastic Constant Matrix: (Units=GPa)
#
#
# Indices 1 2 3 4 5 6 
#
# 1 172.3206 33.7264 54.0346 0.0000 0.0000 0.0000
# 2 33.7264 50.0728 35.1075 0.0000 0.0000 0.0000
# 3 54.0346 35.1075 155.2031 0.0000 0.0000 0.0000
# 4 0.0000 0.0000 0.0000 3.9548 0.0000 0.0000
# 5 0.0000 0.0000 0.0000 0.0000 37.2448 0.0000
# 6 0.0000 0.0000 0.0000 0.0000 0.0000 19.4283
#
#
#
# Elastic Compliance Matrix: (Units=1/GPa)
#
#
# Indices 1 2 3 4 5 6 
#
# 1 0.007016 -0.003581 -0.001633 0.000000 0.000000 0.000000
# 2 -0.003581 0.025563 -0.004536 0.000000 0.000000 0.000000
# 3 -0.001633 -0.004536 0.008038 0.000000 0.000000 0.000000
# 4 0.000000 0.000000 0.000000 0.252855 0.000000 0.000000
# 5 0.000000 0.000000 0.000000 0.000000 0.026849 0.000000
# 6 0.000000 0.000000 0.000000 0.000000 0.000000 0.051471
#
#
# Mechanical properties :
#
#
# Convention : Reuss Voigt Hill
#
# Bulk Modulus (GPa) = 47.35299 69.25928 58.30613
# Shear Modulus (GPa) = 12.55241 29.10746 20.82993
#
# Velocity S-wave (km/s) = 2.34915 3.57726 3.02616
# Velocity P-wave (km/s) = 5.30813 6.89286 6.15174
#
# Compressibility (1/GPa) = 0.02111799
#
# Stress axis : x y z
#
# Youngs Moduli (GPa) = 142.53291 39.11908 124.41571
#
# Poissons Ratio (x) = 0.14008 0.20312
# Poissons Ratio (y) = 0.51039 0.56432
# Poissons Ratio (z) = 0.23270 0.17743
#
# Static dielectric constant tensor:
#      x y z
#    x 4.452580 0.000000 0.000000 
#    y 0.000000 3.915650 0.000000 
#    z 0.000000 0.000000 4.145930 
# 
# 
# High freq. dielectric constant tensor:
#      x y z
#    x 1.915600 0.000000 0.000000 
#    y 0.000000 1.864990 0.000000 
#    z 0.000000 0.000000 1.905750 
# 
# From -- ./inp_files/43460.got.cif
#   From: 2010.06.25/outbox.cif.g09.slc.cpg/sg52_22_cif.got.tgz:43460.got - 2010.06.26 19:32:48.
