data_PCOD8215268
_publ_section_title
;
Structure prediction by ZEFSAII (Michael W. Deem and Ramdas Pophale) SiO2 
 PCOD8215268
Probable space group: P N N A
;
_chemical_formula_sum "Si O2"
_cell_formula_units_Z 48
_cell_length_a 5.128841
_cell_length_b 18.270836
_cell_length_c 28.904035
_cell_angle_alpha 90.000000
_cell_angle_beta 90.000000
_cell_angle_gamma 90.000000
_cell_volume 2708.545462
_symmetry_space_group_name_H-M "P N N A"
_symmetry_group_IT_number 52
_symmetry_cell_setting 'orthorhombic'
loop_
_space_group_symop_operation_xyz
x,y,z
1/2-x,-y,z
x,1/2-y,1/2-z
1/2-x,1/2+y,1/2-z
-x,-y,-z
1/2+x,y,-z
-x,1/2+y,1/2+z
1/2+x,1/2-y,1/2+z
loop_
_atom_site_type_symbol
_atom_site_label
_atom_site_fract_x
_atom_site_fract_y
_atom_site_fract_z
Si Si1 0.277961 0.866673 0.240219
Si Si2 0.280542 0.719296 0.629928
Si Si3 0.262244 0.765119 0.531281
Si Si4 0.786437 0.919143 0.193716
Si Si5 0.817923 0.074909 0.470805
Si Si6 0.227762 0.272228 0.176472
O O1 0.556583 0.901148 0.229340
O O2 0.234820 0.792473 0.212536
O O3 0.262448 0.848619 0.295076
O O4 0.048769 0.920827 0.224317
O O5 0.247915 0.709984 0.574668
O O6 0.294075 0.637880 0.651289
O O7 0.539732 0.766621 0.639516
O O8 0.044682 0.766171 0.650388
O O9 0.530226 0.750950 0.504495
O O10 0.243539 0.847449 0.553535
O O11 0.750000 0.000000 0.172175
O O12 0.621439 0.072460 0.515141
O O13 0.750000 0.000000 0.441569
#
# Coordination Sequence:
#
# PCOD8215268 Si02
#       6
#     8   8   8   8   8   8
#     4   9  17  30  49  72  95 120 155 198 242 293
#     4  10  19  31  49  72  98 128 165 208 247 286
#     4  10  19  31  48  70  95 124 162 206 248 286
#     4  10  19  31  49  72  98 131 169 203 237 285
#     4   8  14  25  42  62  81 104 137 178 225 279
#     4   9  17  30  49  72  94 119 154 197 246 295
#
# _framework density 17.721689999999999
#
# number of rings (size 3 to 8) (size 9 to 14) (size 15 to 20)
#    0.000    2.667    0.000    2.500    0.000    4.000 
#    0.000    0.000    0.000    7.000    0.000    0.000 
#    0.000    0.000    0.000    0.000    0.000    0.000 
#
# Total GULP energy -594801.154238 kJ/mol
# GULP energy per Si atom -12391.690713 kJ/mol
# Density = 1.768135 g / cm^3
# Si number density = 17.721690 Si / 1000 Ang^3
#
#
#
# Elastic Constant Matrix: (Units=GPa)
#
#
# Indices 1 2 3 4 5 6 
#
# 1 83.9316 14.3261 13.0825 0.0000 0.0000 0.0000
# 2 14.3261 69.7058 38.4560 0.0000 0.0000 0.0000
# 3 13.0825 38.4560 78.1008 0.0000 0.0000 0.0000
# 4 0.0000 0.0000 0.0000 14.0563 0.0000 0.0000
# 5 0.0000 0.0000 0.0000 0.0000 5.5810 0.0000
# 6 0.0000 0.0000 0.0000 0.0000 0.0000 12.9174
#
#
#
# Elastic Compliance Matrix: (Units=1/GPa)
#
#
# Indices 1 2 3 4 5 6 
#
# 1 0.012420 -0.001929 -0.001131 0.000000 0.000000 0.000000
# 2 -0.001929 0.019996 -0.009523 0.000000 0.000000 0.000000
# 3 -0.001131 -0.009523 0.017682 0.000000 0.000000 0.000000
# 4 0.000000 0.000000 0.000000 0.071143 0.000000 0.000000
# 5 0.000000 0.000000 0.000000 0.000000 0.179179 0.000000
# 6 0.000000 0.000000 0.000000 0.000000 0.000000 0.077415
#
#
# Mechanical properties :
#
#
# Convention : Reuss Voigt Hill
#
# Bulk Modulus (GPa) = 40.10629 40.38526 40.24578
# Shear Modulus (GPa) = 12.15627 17.56917 14.86272
#
# Velocity S-wave (km/s) = 2.62191 3.15206 2.89913
# Velocity P-wave (km/s) = 5.64325 6.00711 5.82802
#
# Compressibility (1/GPa) = 0.02493374
#
# Stress axis : x y z
#
# Youngs Moduli (GPa) = 80.51572 50.00991 56.55378
#
# Poissons Ratio (x) = 0.09646 0.06395
# Poissons Ratio (y) = 0.15530 0.53855
# Poissons Ratio (z) = 0.09104 0.47623
#
# Static dielectric constant tensor:
#      x y z
#    x 3.517990 0.000000 0.000000 
#    y 0.000000 3.315700 0.000000 
#    z 0.000000 0.000000 2.957920 
# 
# 
# High freq. dielectric constant tensor:
#      x y z
#    x 1.712360 0.000000 0.000000 
#    y 0.000000 1.664700 0.000000 
#    z 0.000000 0.000000 1.641970 
# 
# From -- ./inp_files/38780.got.cif
#   From: 2010.06.25/outbox.cif.g09.slc.cpg/sg52_20_cif.got.tgz:38780.got - 2010.06.26 19:32:48.
