data_PCOD8215076
_publ_section_title
;
Structure prediction by ZEFSAII (Michael W. Deem and Ramdas Pophale) SiO2 
 PCOD8215076
Probable space group: P N N A
;
_chemical_formula_sum "Si O2"
_cell_formula_units_Z 48
_cell_length_a 8.468515
_cell_length_b 10.609030
_cell_length_c 28.745458
_cell_angle_alpha 90.000000
_cell_angle_beta 90.000000
_cell_angle_gamma 90.000000
_cell_volume 2582.570413
_symmetry_space_group_name_H-M "P N N A"
_symmetry_group_IT_number 52
_symmetry_cell_setting 'orthorhombic'
loop_
_space_group_symop_operation_xyz
x,y,z
1/2-x,-y,z
x,1/2-y,1/2-z
1/2-x,1/2+y,1/2-z
-x,-y,-z
1/2+x,y,-z
-x,1/2+y,1/2+z
1/2+x,1/2-y,1/2+z
loop_
_atom_site_type_symbol
_atom_site_label
_atom_site_fract_x
_atom_site_fract_y
_atom_site_fract_z
Si Si1 0.250000 0.000000 0.670275
Si Si2 0.513532 0.105652 0.398359
Si Si3 0.470330 0.877871 0.273785
Si Si4 0.229282 0.246663 0.350099
Si Si5 0.051090 0.326779 0.066903
Si Si6 0.772377 0.851138 0.476234
Si Si7 0.250000 0.000000 0.203545
O O1 0.160184 0.098649 0.637301
O O2 0.375680 0.068434 0.702346
O O3 0.377910 0.183867 0.374271
O O4 0.577239 0.181089 0.443574
O O5 0.450088 0.968750 0.413393
O O6 0.527245 0.750000 0.250000
O O7 0.330787 0.847701 0.310149
O O8 0.403484 0.976119 0.235719
O O9 0.092950 0.264057 0.389567
O O10 0.281536 0.379852 0.328984
O O11 0.886007 0.285205 0.043373
O O12 0.190634 0.310603 0.028857
O O13 0.750000 0.000000 0.473643
#
# Coordination Sequence:
#
# PCOD8215076 Si02
#       7
#     4   8   8   8   8   8   4
#     4  12  20  34  56  83 116 137 178 222 288 338
#     4  11  19  31  54  85 113 144 175 223 279 332
#     4  10  22  38  55  77 106 141 184 234 276 327
#     4  11  21  37  60  77 111 146 186 227 276 328
#     4  11  19  32  53  85 116 148 178 227 276 333
#     4  10  18  30  49  86 122 143 178 219 275 332
#     4  10  24  42  56  79 102 147 196 232 272 332
#
# _framework density 18.586131999999999
#
# number of rings (size 3 to 8) (size 9 to 14) (size 15 to 20)
#    0.000    1.333    4.167    5.500    0.000    1.333 
#    0.000    0.000    0.000    4.000    0.000    0.000 
#    0.000    0.000    0.000    0.000    0.000    0.000 
#
# Total GULP energy -595124.533107 kJ/mol
# GULP energy per Si atom -12398.427773 kJ/mol
# Density = 1.854383 g / cm^3
# Si number density = 18.586132 Si / 1000 Ang^3
#
#
#
# Elastic Constant Matrix: (Units=GPa)
#
#
# Indices 1 2 3 4 5 6 
#
# 1 79.9833 39.3241 44.6267 0.0000 0.0000 0.0000
# 2 39.3241 64.9726 53.1674 0.0000 0.0000 0.0000
# 3 44.6267 53.1674 132.0302 0.0000 0.0000 0.0000
# 4 0.0000 0.0000 0.0000 21.9764 0.0000 0.0000
# 5 0.0000 0.0000 0.0000 0.0000 42.6710 0.0000
# 6 0.0000 0.0000 0.0000 0.0000 0.0000 10.3062
#
#
#
# Elastic Compliance Matrix: (Units=1/GPa)
#
#
# Indices 1 2 3 4 5 6 
#
# 1 0.018371 -0.009005 -0.002583 0.000000 0.000000 0.000000
# 2 -0.009005 0.027370 -0.007978 0.000000 0.000000 0.000000
# 3 -0.002583 -0.007978 0.011660 0.000000 0.000000 0.000000
# 4 0.000000 0.000000 0.000000 0.045503 0.000000 0.000000
# 5 0.000000 0.000000 0.000000 0.000000 0.023435 0.000000
# 6 0.000000 0.000000 0.000000 0.000000 0.000000 0.097029
#
#
# Mechanical properties :
#
#
# Convention : Reuss Voigt Hill
#
# Bulk Modulus (GPa) = 54.73945 61.24692 57.99319
# Shear Modulus (GPa) = 18.61569 24.31522 21.46546
#
# Velocity S-wave (km/s) = 3.16822 3.62089 3.40210
# Velocity P-wave (km/s) = 6.54975 7.10674 6.83392
#
# Compressibility (1/GPa) = 0.01826836
#
# Stress axis : x y z
#
# Youngs Moduli (GPa) = 54.43240 36.53682 85.76517
#
# Poissons Ratio (x) = 0.32902 0.22156
# Poissons Ratio (y) = 0.49018 0.68421
# Poissons Ratio (z) = 0.14061 0.29148
#
# Static dielectric constant tensor:
#      x y z
#    x 3.654780 0.000000 0.000000 
#    y 0.000000 2.559100 0.000000 
#    z 0.000000 0.000000 3.999650 
# 
# 
# High freq. dielectric constant tensor:
#      x y z
#    x 1.733090 0.000000 0.000000 
#    y 0.000000 1.651550 0.000000 
#    z 0.000000 0.000000 1.753770 
# 
# From -- ./inp_files/44415.got.cif
#   From: 2010.06.25/outbox.cif.g09.slc.cpg/sg52_23_cif.got.tgz:44415.got - 2010.06.26 19:32:48.
