data_PCOD8215174
_publ_section_title
;
Structure prediction by ZEFSAII (Michael W. Deem and Ramdas Pophale) SiO2 
 PCOD8215174
Probable space group: P N N A
;
_chemical_formula_sum "Si O2"
_cell_formula_units_Z 48
_cell_length_a 13.428214
_cell_length_b 12.341741
_cell_length_c 14.732932
_cell_angle_alpha 90.000000
_cell_angle_beta 90.000000
_cell_angle_gamma 90.000000
_cell_volume 2441.652567
_symmetry_space_group_name_H-M "P N N A"
_symmetry_group_IT_number 52
_symmetry_cell_setting 'orthorhombic'
loop_
_space_group_symop_operation_xyz
x,y,z
1/2-x,-y,z
x,1/2-y,1/2-z
1/2-x,1/2+y,1/2-z
-x,-y,-z
1/2+x,y,-z
-x,1/2+y,1/2+z
1/2+x,1/2-y,1/2+z
loop_
_atom_site_type_symbol
_atom_site_label
_atom_site_fract_x
_atom_site_fract_y
_atom_site_fract_z
Si Si1 0.341136 0.423308 0.218561
Si Si2 0.271131 0.236013 0.568156
Si Si3 0.053454 0.513788 0.769385
Si Si4 0.867074 0.212625 0.885767
Si Si5 0.103771 0.750000 0.750000
Si Si6 0.250000 0.000000 0.607856
Si Si7 0.084863 0.315874 0.657509
O O1 0.250000 0.500000 0.196338
O O2 0.447861 0.474631 0.188889
O O3 0.318943 0.317329 0.160149
O O4 0.341364 0.393432 0.325855
O O5 0.327009 0.298169 0.487622
O O6 0.329286 0.247570 0.661432
O O7 0.167269 0.297132 0.581304
O O8 0.255118 0.108039 0.546018
O O9 0.038147 0.640713 0.745871
O O10 0.148296 0.493624 0.834091
O O11 0.076739 0.443926 0.679042
O O12 0.985228 0.229325 0.887931
O O13 0.107262 0.250000 0.750000
#
# Coordination Sequence:
#
# PCOD8215174 Si02
#       7
#     8   8   8   8   4   4   8
#     4  10  21  42  62  81 122 170 207 253 313 377
#     4  11  21  37  61  96 124 157 205 263 311 371
#     4  10  19  38  67  85 117 167 204 251 313 368
#     4  10  22  40  61  90 120 161 218 252 305 384
#     4  10  22  38  58  98 130 144 200 274 316 350
#     4  10  18  34  60  96 118 148 208 264 314 354
#     4  11  17  41  68  83 118 175 206 243 309 379
#
# _framework density 19.658816999999999
#
# number of rings (size 3 to 8) (size 9 to 14) (size 15 to 20)
#    0.000    1.667    5.833    1.000    1.167    1.333 
#   12.000    5.833    0.000    0.000    0.000    0.000 
#    0.000    0.000    0.000    0.000    0.000    0.000 
#
# Total GULP energy -594971.127782 kJ/mol
# GULP energy per Si atom -12395.231829 kJ/mol
# Density = 1.961407 g / cm^3
# Si number density = 19.658817 Si / 1000 Ang^3
#
#
#
# Elastic Constant Matrix: (Units=GPa)
#
#
# Indices 1 2 3 4 5 6 
#
# 1 116.8574 27.3490 32.1944 0.0000 0.0000 0.0000
# 2 27.3490 95.2071 8.1412 0.0000 0.0000 0.0000
# 3 32.1944 8.1412 89.5081 0.0000 0.0000 0.0000
# 4 0.0000 0.0000 0.0000 17.0672 0.0000 0.0000
# 5 0.0000 0.0000 0.0000 0.0000 25.7905 0.0000
# 6 0.0000 0.0000 0.0000 0.0000 0.0000 23.1282
#
#
#
# Elastic Compliance Matrix: (Units=1/GPa)
#
#
# Indices 1 2 3 4 5 6 
#
# 1 0.010105 -0.002612 -0.003397 0.000000 0.000000 0.000000
# 2 -0.002612 0.011261 -0.000085 0.000000 0.000000 0.000000
# 3 -0.003397 -0.000085 0.012402 0.000000 0.000000 0.000000
# 4 0.000000 0.000000 0.000000 0.058592 0.000000 0.000000
# 5 0.000000 0.000000 0.000000 0.000000 0.038774 0.000000
# 6 0.000000 0.000000 0.000000 0.000000 0.000000 0.043237
#
#
# Mechanical properties :
#
#
# Convention : Reuss Voigt Hill
#
# Bulk Modulus (GPa) = 46.33948 48.54908 47.44428
# Shear Modulus (GPa) = 25.80631 28.78971 27.29801
#
# Velocity S-wave (km/s) = 3.62706 3.83099 3.73042
# Velocity P-wave (km/s) = 6.41590 6.65718 6.53766
#
# Compressibility (1/GPa) = 0.02157987
#
# Stress axis : x y z
#
# Youngs Moduli (GPa) = 98.96462 88.80183 80.63436
#
# Poissons Ratio (x) = 0.23197 0.27390
# Poissons Ratio (y) = 0.25851 0.00683
# Poissons Ratio (z) = 0.33617 0.00752
#
# Static dielectric constant tensor:
#      x y z
#    x 3.572620 0.000000 0.000000 
#    y 0.000000 4.031110 0.000000 
#    z 0.000000 0.000000 3.317780 
# 
# 
# High freq. dielectric constant tensor:
#      x y z
#    x 1.769010 0.000000 0.000000 
#    y 0.000000 1.775500 0.000000 
#    z 0.000000 0.000000 1.731710 
# 
# From -- ./inp_files/26104.got.cif
#   From: 2010.06.25/outbox.cif.g09.slc.cpg/sg52_14_cif.got.tgz:26104.got - 2010.06.26 19:32:48.
