data_PCOD8215987
_publ_section_title
;
Structure prediction by ZEFSAII (Michael W. Deem and Ramdas Pophale) SiO2 
 PCOD8215987
Probable space group: P N N A
;
_chemical_formula_sum "Si O2"
_cell_formula_units_Z 32
_cell_length_a 10.342628
_cell_length_b 5.097800
_cell_length_c 28.906466
_cell_angle_alpha 90.000000
_cell_angle_beta 90.000000
_cell_angle_gamma 90.000000
_cell_volume 1524.083274
_symmetry_space_group_name_H-M "P N N A"
_symmetry_group_IT_number 52
_symmetry_cell_setting 'orthorhombic'
loop_
_space_group_symop_operation_xyz
x,y,z
1/2-x,-y,z
x,1/2-y,1/2-z
1/2-x,1/2+y,1/2-z
-x,-y,-z
1/2+x,y,-z
-x,1/2+y,1/2+z
1/2+x,1/2-y,1/2+z
loop_
_atom_site_type_symbol
_atom_site_label
_atom_site_fract_x
_atom_site_fract_y
_atom_site_fract_z
Si Si1 0.626695 0.342409 0.984410
Si Si2 0.990181 0.906285 0.896706
Si Si3 0.750000 0.000000 0.061745
Si Si4 0.164471 0.750000 0.250000
Si Si5 0.897732 0.078790 0.653538
O O1 0.750000 0.500000 0.964441
O O2 0.588453 0.142201 0.944078
O O3 0.500000 0.500000 0.000000
O O4 0.675256 0.207783 0.030732
O O5 0.972659 0.687907 0.857337
O O6 0.142517 0.876874 0.905283
O O7 0.943652 0.192187 0.880638
O O8 0.250000 0.500000 0.265578
O O9 0.076074 0.831990 0.293607
O O10 0.750000 0.000000 0.646249
#
# Coordination Sequence:
#
# PCOD8215987 Si02
#       5
#     8   8   4   4   8
#     4  12  26  44  65  92 134 183 234 283 339 394
#     4  12  26  42  67  95 134 180 229 280 326 413
#     4  12  28  44  60  92 136 186 228 276 344 380
#     4  10  20  40  68 102 142 166 204 278 356 408
#     4  11  24  41  69 104 133 168 217 278 344 411
#
# _framework density 20.996227999999999
#
# number of rings (size 3 to 8) (size 9 to 14) (size 15 to 20)
#    0.000    0.500    2.500    6.750    7.000    0.000 
#    0.000    0.000    0.000    3.000    0.000    1.750 
#    0.000    0.000    0.000    0.000    0.000    0.000 
#
# Total GULP energy -396743.104531 kJ/mol
# GULP energy per Si atom -12398.222017 kJ/mol
# Density = 2.094844 g / cm^3
# Si number density = 20.996228 Si / 1000 Ang^3
#
#
#
# Elastic Constant Matrix: (Units=GPa)
#
#
# Indices 1 2 3 4 5 6 
#
# 1 157.5256 44.7870 53.6202 0.0000 0.0000 0.0000
# 2 44.7870 91.7018 12.7434 0.0000 0.0000 0.0000
# 3 53.6202 12.7434 97.6406 0.0000 0.0000 0.0000
# 4 0.0000 0.0000 0.0000 41.6686 0.0000 0.0000
# 5 0.0000 0.0000 0.0000 0.0000 -58.1567 0.0000
# 6 0.0000 0.0000 0.0000 0.0000 0.0000 43.0749
#
#
#
# Elastic Compliance Matrix: (Units=1/GPa)
#
#
# Indices 1 2 3 4 5 6 
#
# 1 0.008911 -0.003740 -0.004405 0.000000 0.000000 0.000000
# 2 -0.003740 0.012676 0.000399 0.000000 0.000000 0.000000
# 3 -0.004405 0.000399 0.012609 0.000000 0.000000 0.000000
# 4 0.000000 0.000000 0.000000 0.023999 0.000000 0.000000
# 5 0.000000 0.000000 0.000000 0.000000 -0.017195 0.000000
# 6 0.000000 0.000000 0.000000 0.000000 0.000000 0.023215
#
#
# Mechanical properties :
#
#
# Convention : Reuss Voigt Hill
#
# Bulk Modulus (GPa) = 53.46477 63.24102 58.35290
# Shear Modulus (GPa) = 58.17887 21.03185 39.60536
#
# Velocity S-wave (km/s) = 5.26966 3.16839 4.34788
# Velocity P-wave (km/s) = 7.90854 6.60080 7.28408
#
# Compressibility (1/GPa) = 0.01870390
#
# Stress axis : x y z
#
# Youngs Moduli (GPa) = 112.21978 78.88929 79.30957
#
# Poissons Ratio (x) = 0.29504 0.34940
# Poissons Ratio (y) = 0.41970 -0.03168
# Poissons Ratio (z) = 0.49438 -0.03151
#
# Static dielectric constant tensor:
#      x y z
#    x 4.130550 0.000000 0.000000 
#    y 0.000000 4.103600 0.000000 
#    z 0.000000 0.000000 3.991830 
# 
# 
# High freq. dielectric constant tensor:
#      x y z
#    x 1.812260 0.000000 0.000000 
#    y 0.000000 1.842910 0.000000 
#    z 0.000000 0.000000 1.822750 
# 
# From -- ./inp_files/44157.got.cif
#   From: 2010.06.25/outbox.cif.g09.slc.cpg/sg52_23_cif.got.tgz:44157.got - 2010.06.26 19:32:48.
