data_PCOD8215463
_publ_section_title
;
Structure prediction by ZEFSAII (Michael W. Deem and Ramdas Pophale) SiO2 
 PCOD8215463
Probable space group: P N N A
;
_chemical_formula_sum "Si O2"
_cell_formula_units_Z 48
_cell_length_a 17.673643
_cell_length_b 9.346540
_cell_length_c 13.702338
_cell_angle_alpha 90.000000
_cell_angle_beta 90.000000
_cell_angle_gamma 90.000000
_cell_volume 2263.453742
_symmetry_space_group_name_H-M "P N N A"
_symmetry_group_IT_number 52
_symmetry_cell_setting 'orthorhombic'
loop_
_space_group_symop_operation_xyz
x,y,z
1/2-x,-y,z
x,1/2-y,1/2-z
1/2-x,1/2+y,1/2-z
-x,-y,-z
1/2+x,y,-z
-x,1/2+y,1/2+z
1/2+x,1/2-y,1/2+z
loop_
_atom_site_type_symbol
_atom_site_label
_atom_site_fract_x
_atom_site_fract_y
_atom_site_fract_z
Si Si1 0.798919 0.706430 0.534880
Si Si2 0.943224 0.437528 0.417741
Si Si3 0.632363 0.780524 0.919306
Si Si4 0.189191 0.117915 0.824737
Si Si5 0.588740 0.052845 0.830694
Si Si6 0.835398 0.525461 0.862429
O O1 0.721548 0.689424 0.594555
O O2 0.776704 0.684678 0.422983
O O3 0.859548 0.592802 0.574840
O O4 0.834792 0.864166 0.547693
O O5 0.894908 0.312113 0.469165
O O6 0.890462 0.547384 0.357109
O O7 0.000000 0.500000 0.500000
O O8 0.004253 0.380709 0.337870
O O9 0.618350 0.613829 0.896476
O O10 0.588757 0.878376 0.839364
O O11 0.176963 0.250000 0.750000
O O12 0.250000 0.000000 0.784187
O O13 0.622412 0.102624 0.727768
O O14 0.750000 0.500000 0.827146
#
# Coordination Sequence:
#
# PCOD8215463 Si02
#       6
#     8   8   8   8   8   8
#     4  11  20  40  65  88 128 166 209 270 324 382
#     4  10  21  39  68  91 126 178 215 257 331 389
#     4  10  19  36  63  90 129 168 214 261 320 382
#     4  12  25  46  72  95 123 173 228 276 321 381
#     4  11  20  36  63  94 131 169 210 254 329 394
#     4  10  22  34  61 100 126 159 209 269 322 386
#
# _framework density 21.206530000000001
#
# number of rings (size 3 to 8) (size 9 to 14) (size 15 to 20)
#    0.000    1.333    5.000    2.500    0.000    7.333 
#    0.000    2.500    0.000    0.000    0.000    0.000 
#    0.000    0.000    0.000    0.000    0.000    0.000 
#
# Total GULP energy -594766.417220 kJ/mol
# GULP energy per Si atom -12390.967025 kJ/mol
# Density = 2.115826 g / cm^3
# Si number density = 21.206530 Si / 1000 Ang^3
#
#
#
# Elastic Constant Matrix: (Units=GPa)
#
#
# Indices 1 2 3 4 5 6 
#
# 1 106.5778 42.7276 30.0412 0.0000 0.0000 0.0000
# 2 42.7276 85.3563 32.5199 0.0000 0.0000 0.0000
# 3 30.0412 32.5199 81.0596 0.0000 0.0000 0.0000
# 4 0.0000 0.0000 0.0000 37.8120 0.0000 0.0000
# 5 0.0000 0.0000 0.0000 0.0000 28.3393 0.0000
# 6 0.0000 0.0000 0.0000 0.0000 0.0000 18.2482
#
#
#
# Elastic Compliance Matrix: (Units=1/GPa)
#
#
# Indices 1 2 3 4 5 6 
#
# 1 0.012131 -0.005146 -0.002431 0.000000 0.000000 0.000000
# 2 -0.005146 0.016013 -0.004517 0.000000 0.000000 0.000000
# 3 -0.002431 -0.004517 0.015050 0.000000 0.000000 0.000000
# 4 0.000000 0.000000 0.000000 0.026447 0.000000 0.000000
# 5 0.000000 0.000000 0.000000 0.000000 0.035287 0.000000
# 6 0.000000 0.000000 0.000000 0.000000 0.000000 0.054800
#
#
# Mechanical properties :
#
#
# Convention : Reuss Voigt Hill
#
# Bulk Modulus (GPa) = 52.61827 53.73011 53.17419
# Shear Modulus (GPa) = 26.28112 28.06023 27.17068
#
# Velocity S-wave (km/s) = 3.52418 3.64151 3.58333
# Velocity P-wave (km/s) = 6.43630 6.56296 6.49994
#
# Compressibility (1/GPa) = 0.01900481
#
# Stress axis : x y z
#
# Youngs Moduli (GPa) = 82.43104 62.45076 66.44654
#
# Poissons Ratio (x) = 0.32140 0.16155
# Poissons Ratio (y) = 0.42422 0.30012
# Poissons Ratio (z) = 0.20041 0.28207
#
# Static dielectric constant tensor:
#      x y z
#    x 4.166230 0.000000 0.000000 
#    y 0.000000 3.844310 0.000000 
#    z 0.000000 0.000000 3.802440 
# 
# 
# High freq. dielectric constant tensor:
#      x y z
#    x 1.832250 0.000000 0.000000 
#    y 0.000000 1.824260 0.000000 
#    z 0.000000 0.000000 1.811630 
# 
# From -- ./inp_files/28039.got.cif
#   From: 2010.06.25/outbox.cif.g09.slc.cpg/sg52_15_cif.got.tgz:28039.got - 2010.06.26 19:32:48.
