data_PCOD8215995
_publ_section_title
;
Structure prediction by ZEFSAII (Michael W. Deem and Ramdas Pophale) SiO2 
 PCOD8215995
Probable space group: P N N A
;
_chemical_formula_sum "Si O2"
_cell_formula_units_Z 64
_cell_length_a 17.716856
_cell_length_b 27.109647
_cell_length_c 6.697737
_cell_angle_alpha 90.000000
_cell_angle_beta 90.000000
_cell_angle_gamma 90.000000
_cell_volume 3216.907757
_symmetry_space_group_name_H-M "P N N A"
_symmetry_group_IT_number 52
_symmetry_cell_setting 'orthorhombic'
loop_
_space_group_symop_operation_xyz
x,y,z
1/2-x,-y,z
x,1/2-y,1/2-z
1/2-x,1/2+y,1/2-z
-x,-y,-z
1/2+x,y,-z
-x,1/2+y,1/2+z
1/2+x,1/2-y,1/2+z
loop_
_atom_site_type_symbol
_atom_site_label
_atom_site_fract_x
_atom_site_fract_y
_atom_site_fract_z
Si Si1 0.613628 0.125934 0.027867
Si Si2 0.599207 0.702014 0.620309
Si Si3 0.321476 0.470257 0.727818
Si Si4 0.211932 0.885144 0.071647
Si Si5 0.613235 0.942461 0.630418
Si Si6 0.989165 0.638726 0.123504
Si Si7 0.577262 0.478050 0.570076
Si Si8 0.981656 0.696892 0.708620
O O1 0.700200 0.124684 0.961578
O O2 0.592435 0.127234 0.267572
O O3 0.571678 0.080779 0.913801
O O4 0.578094 0.175153 0.943676
O O5 0.624975 0.750000 0.750000
O O6 0.671636 0.667785 0.580044
O O7 0.534038 0.678642 0.751516
O O8 0.562702 0.708538 0.398938
O O9 0.250000 0.500000 0.812855
O O10 0.311038 0.419089 0.612705
O O11 0.358929 0.511728 0.592489
O O12 0.374743 0.453033 0.901957
O O13 0.185855 0.914517 0.272035
O O14 0.536188 0.911751 0.640124
O O15 0.601397 0.996319 0.725071
O O16 0.984416 0.660538 0.900533
O O17 0.500000 0.500000 0.500000
O O18 0.945887 0.750000 0.750000
#
# Coordination Sequence:
#
# PCOD8215995 Si02
#       8
#     8   8   8   8   8   8   8   8
#     4  11  24  39  60  89 133 166 200 260 318 373
#     4  10  20  40  69  88 118 157 205 259 312 374
#     4  11  23  38  61  87 126 171 208 255 311 368
#     4  10  23  42  58  91 130 161 203 257 314 371
#     4  10  23  37  65  90 123 167 219 251 299 374
#     4  10  21  40  61  94 119 161 207 259 308 370
#     4  11  23  41  57  89 130 170 211 258 305 370
#     4  11  23  40  68  91 117 156 211 262 318 377
#
# _framework density 19.894883
#
# number of rings (size 3 to 8) (size 9 to 14) (size 15 to 20)
#    0.000    1.500    3.750    0.750    5.250    3.000 
#    0.000    0.000    2.750    0.000    0.000    0.000 
#    0.000    0.000    0.000    0.000    0.000    0.000 
#
# Total GULP energy -792863.778517 kJ/mol
# GULP energy per Si atom -12388.496539 kJ/mol
# Density = 1.984960 g / cm^3
# Si number density = 19.894883 Si / 1000 Ang^3
#
#
#
# Elastic Constant Matrix: (Units=GPa)
#
#
# Indices 1 2 3 4 5 6 
#
# 1 65.9332 12.9468 7.4913 0.0000 0.0000 0.0000
# 2 12.9468 112.7652 31.2726 0.0000 0.0000 0.0000
# 3 7.4913 31.2726 96.7836 0.0000 0.0000 0.0000
# 4 0.0000 0.0000 0.0000 23.8805 0.0000 0.0000
# 5 0.0000 0.0000 0.0000 0.0000 6.2645 0.0000
# 6 0.0000 0.0000 0.0000 0.0000 0.0000 17.5513
#
#
#
# Elastic Compliance Matrix: (Units=1/GPa)
#
#
# Indices 1 2 3 4 5 6 
#
# 1 0.015558 -0.001595 -0.000689 0.000000 0.000000 0.000000
# 2 -0.001595 0.009904 -0.003077 0.000000 0.000000 0.000000
# 3 -0.000689 -0.003077 0.011380 0.000000 0.000000 0.000000
# 4 0.000000 0.000000 0.000000 0.041875 0.000000 0.000000
# 5 0.000000 0.000000 0.000000 0.000000 0.159631 0.000000
# 6 0.000000 0.000000 0.000000 0.000000 0.000000 0.056976
#
#
# Mechanical properties :
#
#
# Convention : Reuss Voigt Hill
#
# Bulk Modulus (GPa) = 38.28363 42.10040 40.19202
# Shear Modulus (GPa) = 15.88547 24.45734 20.17141
#
# Velocity S-wave (km/s) = 2.82879 3.50998 3.18763
# Velocity P-wave (km/s) = 5.47303 6.13465 5.81326
#
# Compressibility (1/GPa) = 0.02612083
#
# Stress axis : x y z
#
# Youngs Moduli (GPa) = 64.27402 100.96502 87.87479
#
# Poissons Ratio (x) = 0.16107 0.06053
# Poissons Ratio (y) = 0.10253 0.27038
# Poissons Ratio (z) = 0.04427 0.31065
#
# Static dielectric constant tensor:
#      x y z
#    x 3.550060 0.000000 0.000000 
#    y 0.000000 4.069900 0.000000 
#    z 0.000000 0.000000 3.804030 
# 
# 
# High freq. dielectric constant tensor:
#      x y z
#    x 1.762760 0.000000 0.000000 
#    y 0.000000 1.788230 0.000000 
#    z 0.000000 0.000000 1.780140 
# 
# From -- ./inp_files/3684.got.cif
#   From: 2010.06.25/outbox.cif.g09.slc.cpg/sg52_2_cif.got.tgz:3684.got - 2010.06.26 19:32:48.
