data_PCOD8215545
_publ_section_title
;
Structure prediction by ZEFSAII (Michael W. Deem and Ramdas Pophale) SiO2 
 PCOD8215545
Probable space group: P N N A
;
_chemical_formula_sum "Si O2"
_cell_formula_units_Z 48
_cell_length_a 9.204381
_cell_length_b 18.442550
_cell_length_c 13.794070
_cell_angle_alpha 90.000000
_cell_angle_beta 90.000000
_cell_angle_gamma 90.000000
_cell_volume 2341.574513
_symmetry_space_group_name_H-M "P N N A"
_symmetry_group_IT_number 52
_symmetry_cell_setting 'orthorhombic'
loop_
_space_group_symop_operation_xyz
x,y,z
1/2-x,-y,z
x,1/2-y,1/2-z
1/2-x,1/2+y,1/2-z
-x,-y,-z
1/2+x,y,-z
-x,1/2+y,1/2+z
1/2+x,1/2-y,1/2+z
loop_
_atom_site_type_symbol
_atom_site_label
_atom_site_fract_x
_atom_site_fract_y
_atom_site_fract_z
Si Si1 0.701130 0.667519 0.973244
Si Si2 0.161763 0.426918 0.198528
Si Si3 0.568698 0.237037 0.044192
Si Si4 0.439410 0.812172 0.168604
Si Si5 0.261498 0.827167 0.797833
Si Si6 0.660605 0.569104 0.139803
O O1 0.770039 0.623886 0.884360
O O2 0.593367 0.732363 0.937615
O O3 0.819166 0.696299 0.051572
O O4 0.614904 0.613206 0.043567
O O5 0.250000 0.500000 0.215088
O O6 0.160495 0.379207 0.296903
O O7 0.995794 0.450845 0.182203
O O8 0.610005 0.171942 0.119863
O O9 0.612584 0.213518 0.935250
O O10 0.430778 0.750000 0.250000
O O11 0.606025 0.834382 0.150949
O O12 0.283691 0.750000 0.750000
O O13 0.266421 0.890871 0.718107
O O14 0.750000 0.500000 0.104772
#
# Coordination Sequence:
#
# PCOD8215545 Si02
#       6
#     8   8   8   8   8   8
#     4  12  22  39  65  95 125 159 202 261 315 370
#     4  11  25  41  61  92 128 168 207 253 313 374
#     4  12  21  39  65  95 120 159 209 254 315 363
#     4  10  19  40  62  83 123 162 200 258 313 359
#     4  10  20  39  63  86 121 162 205 253 308 371
#     4  11  24  42  62  89 131 170 202 252 319 373
#
# _framework density 20.499027999999999
#
# number of rings (size 3 to 8) (size 9 to 14) (size 15 to 20)
#    0.000    1.000    6.667    1.500    2.333    1.333 
#    6.000    0.833    0.000    4.000    0.000    0.000 
#    0.000    0.000    0.000    0.000    0.000    0.000 
#
# Total GULP energy -594665.247927 kJ/mol
# GULP energy per Si atom -12388.859332 kJ/mol
# Density = 2.045237 g / cm^3
# Si number density = 20.499028 Si / 1000 Ang^3
#
#
#
# Elastic Constant Matrix: (Units=GPa)
#
#
# Indices 1 2 3 4 5 6 
#
# 1 86.7384 39.4662 32.2366 0.0000 0.0000 0.0000
# 2 39.4662 68.8895 33.4208 0.0000 0.0000 0.0000
# 3 32.2366 33.4208 105.5326 0.0000 0.0000 0.0000
# 4 0.0000 0.0000 0.0000 19.3662 0.0000 0.0000
# 5 0.0000 0.0000 0.0000 0.0000 25.9488 0.0000
# 6 0.0000 0.0000 0.0000 0.0000 0.0000 32.9685
#
#
#
# Elastic Compliance Matrix: (Units=1/GPa)
#
#
# Indices 1 2 3 4 5 6 
#
# 1 0.016075 -0.008066 -0.002356 0.000000 0.000000 0.000000
# 2 -0.008066 0.021199 -0.004249 0.000000 0.000000 0.000000
# 3 -0.002356 -0.004249 0.011541 0.000000 0.000000 0.000000
# 4 0.000000 0.000000 0.000000 0.051636 0.000000 0.000000
# 5 0.000000 0.000000 0.000000 0.000000 0.038537 0.000000
# 6 0.000000 0.000000 0.000000 0.000000 0.000000 0.030332
#
#
# Mechanical properties :
#
#
# Convention : Reuss Voigt Hill
#
# Bulk Modulus (GPa) = 51.35681 52.37865 51.86773
# Shear Modulus (GPa) = 24.37204 26.05914 25.21559
#
# Velocity S-wave (km/s) = 3.45184 3.56931 3.51106
# Velocity P-wave (km/s) = 6.40270 6.52640 6.46485
#
# Compressibility (1/GPa) = 0.01947161
#
# Stress axis : x y z
#
# Youngs Moduli (GPa) = 62.21017 47.17312 86.64701
#
# Poissons Ratio (x) = 0.38050 0.20412
# Poissons Ratio (y) = 0.50179 0.36820
# Poissons Ratio (z) = 0.14655 0.20046
#
# Static dielectric constant tensor:
#      x y z
#    x 3.728540 0.000000 0.000000 
#    y 0.000000 3.679030 0.000000 
#    z 0.000000 0.000000 3.760940 
# 
# 
# High freq. dielectric constant tensor:
#      x y z
#    x 1.803750 0.000000 0.000000 
#    y 0.000000 1.777190 0.000000 
#    z 0.000000 0.000000 1.799770 
# 
# From -- ./inp_files/24733.got.cif
#   From: 2010.06.25/outbox.cif.g09.slc.cpg/sg52_13_cif.got.tgz:24733.got - 2010.06.26 19:32:48.
