data_PCOD8215911
_publ_section_title
;
Structure prediction by ZEFSAII (Michael W. Deem and Ramdas Pophale) SiO2 
 PCOD8215911
Probable space group: P N N A
;
_chemical_formula_sum "Si O2"
_cell_formula_units_Z 40
_cell_length_a 12.973298
_cell_length_b 18.223167
_cell_length_c 8.638992
_cell_angle_alpha 90.000000
_cell_angle_beta 90.000000
_cell_angle_gamma 90.000000
_cell_volume 2042.383631
_symmetry_space_group_name_H-M "P N N A"
_symmetry_group_IT_number 52
_symmetry_cell_setting 'orthorhombic'
loop_
_space_group_symop_operation_xyz
x,y,z
1/2-x,-y,z
x,1/2-y,1/2-z
1/2-x,1/2+y,1/2-z
-x,-y,-z
1/2+x,y,-z
-x,1/2+y,1/2+z
1/2+x,1/2-y,1/2+z
loop_
_atom_site_type_symbol
_atom_site_label
_atom_site_fract_x
_atom_site_fract_y
_atom_site_fract_z
Si Si1 0.850109 0.834568 0.768358
Si Si2 0.867920 0.987851 0.328587
Si Si3 0.119412 0.837386 0.256699
Si Si4 0.001425 0.898858 0.548501
Si Si5 0.962576 0.918839 0.046932
O O1 0.825724 0.750000 0.750000
O O2 0.735936 0.869644 0.751862
O O3 0.928097 0.839982 0.626155
O O4 0.903093 0.870298 0.919688
O O5 0.919725 0.957277 0.483675
O O6 0.880821 0.933069 0.184643
O O7 0.750000 0.000000 0.362503
O O8 0.927488 0.066139 0.313557
O O9 0.111073 0.750000 0.250000
O O10 0.072111 0.862857 0.418606
O O11 0.058522 0.872176 0.111471
O O12 0.000000 0.000000 0.000000
#
# Coordination Sequence:
#
# PCOD8215911 Si02
#       5
#     8   8   8   8   8
#     4  11  23  39  63  90 122 166 206 251 318 378
#     4  10  21  36  57  86 117 154 197 250 311 360
#     4  10  23  41  61  89 127 168 206 254 315 380
#     4  10  20  39  58  84 122 158 202 251 300 372
#     4  11  23  39  60  92 124 156 207 265 309 363
#
# _framework density 19.584959000000001
#
# number of rings (size 3 to 8) (size 9 to 14) (size 15 to 20)
#    0.000    1.600    2.000    2.400    2.800    0.000 
#    0.000    0.000    0.000    8.400    0.000    0.000 
#    0.000    0.000    0.000    0.000    0.000    0.000 
#
# Total GULP energy -495523.230455 kJ/mol
# GULP energy per Si atom -12388.080761 kJ/mol
# Density = 1.954038 g / cm^3
# Si number density = 19.584959 Si / 1000 Ang^3
#
#
#
# Elastic Constant Matrix: (Units=GPa)
#
#
# Indices 1 2 3 4 5 6 
#
# 1 181.5881 49.2660 74.5719 0.0000 0.0000 0.0000
# 2 49.2660 83.7968 33.8652 0.0000 0.0000 0.0000
# 3 74.5719 33.8652 100.1022 0.0000 0.0000 0.0000
# 4 0.0000 0.0000 0.0000 33.9485 0.0000 0.0000
# 5 0.0000 0.0000 0.0000 0.0000 26.0761 0.0000
# 6 0.0000 0.0000 0.0000 0.0000 0.0000 29.8404
#
#
#
# Elastic Compliance Matrix: (Units=1/GPa)
#
#
# Indices 1 2 3 4 5 6 
#
# 1 0.008471 -0.002815 -0.005358 0.000000 0.000000 0.000000
# 2 -0.002815 0.014759 -0.002896 0.000000 0.000000 0.000000
# 3 -0.005358 -0.002896 0.014961 0.000000 0.000000 0.000000
# 4 0.000000 0.000000 0.000000 0.029456 0.000000 0.000000
# 5 0.000000 0.000000 0.000000 0.000000 0.038349 0.000000
# 6 0.000000 0.000000 0.000000 0.000000 0.000000 0.033512
#
#
# Mechanical properties :
#
#
# Convention : Reuss Voigt Hill
#
# Bulk Modulus (GPa) = 62.29455 75.65482 68.97468
# Shear Modulus (GPa) = 29.94042 31.82526 30.88284
#
# Velocity S-wave (km/s) = 3.91416 4.03548 3.97528
# Velocity P-wave (km/s) = 7.23214 7.77344 7.50767
#
# Compressibility (1/GPa) = 0.01605277
#
# Stress axis : x y z
#
# Youngs Moduli (GPa) = 118.04776 67.75545 66.83909
#
# Poissons Ratio (x) = 0.19072 0.35815
# Poissons Ratio (y) = 0.33229 0.19357
# Poissons Ratio (z) = 0.63254 0.19623
#
# Static dielectric constant tensor:
#      x y z
#    x 4.011140 0.000000 0.000000 
#    y 0.000000 3.613020 0.000000 
#    z 0.000000 0.000000 3.577580 
# 
# 
# High freq. dielectric constant tensor:
#      x y z
#    x 1.780830 0.000000 0.000000 
#    y 0.000000 1.763600 0.000000 
#    z 0.000000 0.000000 1.762720 
# 
# From -- ./inp_files/8485.got.cif
#   From: 2010.06.25/outbox.cif.g09.slc.cpg/sg52_5_cif.got.tgz:8485.got - 2010.06.26 19:32:48.
