data_PCOD8215250
_publ_section_title
;
Structure prediction by ZEFSAII (Michael W. Deem and Ramdas Pophale) SiO2 
 PCOD8215250
Probable space group: P N N A
;
_chemical_formula_sum "Si O2"
_cell_formula_units_Z 48
_cell_length_a 21.737989
_cell_length_b 7.793786
_cell_length_c 16.737541
_cell_angle_alpha 90.000000
_cell_angle_beta 90.000000
_cell_angle_gamma 90.000000
_cell_volume 2835.694856
_symmetry_space_group_name_H-M "P N N A"
_symmetry_group_IT_number 52
_symmetry_cell_setting 'orthorhombic'
loop_
_space_group_symop_operation_xyz
x,y,z
1/2-x,-y,z
x,1/2-y,1/2-z
1/2-x,1/2+y,1/2-z
-x,-y,-z
1/2+x,y,-z
-x,1/2+y,1/2+z
1/2+x,1/2-y,1/2+z
loop_
_atom_site_type_symbol
_atom_site_label
_atom_site_fract_x
_atom_site_fract_y
_atom_site_fract_z
Si Si1 0.491476 0.876749 0.680090
Si Si2 0.936866 0.069669 0.034244
Si Si3 0.409686 0.082743 0.786728
Si Si4 0.563934 0.564144 0.964181
Si Si5 0.616017 0.226159 0.440210
Si Si6 0.703444 0.353964 0.323107
O O1 0.512484 0.750000 0.750000
O O2 0.553019 0.932453 0.631450
O O3 0.441899 0.787270 0.620855
O O4 0.461938 0.041671 0.721534
O O5 0.941246 0.114783 0.127868
O O6 0.916398 0.245261 0.991281
O O7 0.888149 0.915397 0.018990
O O8 0.000000 0.000000 0.000000
O O9 0.376698 0.250000 0.750000
O O10 0.359398 0.934544 0.789901
O O11 0.615311 0.426615 0.993848
O O12 0.500000 0.500000 0.000000
O O13 0.682145 0.224590 0.394231
O O14 0.750000 0.500000 0.354899
O O15 0.734643 0.250000 0.250000
#
# Coordination Sequence:
#
# PCOD8215250 Si02
#       6
#     8   8   8   8   8   8
#     4  11  16  31  45  66  95 128 165 215 243 290
#     4  11  18  28  44  67  91 123 169 196 237 297
#     4  11  20  29  47  67  92 126 175 205 245 297
#     4  10  19  28  47  65  92 130 168 199 251 294
#     4  10  19  33  47  63  94 126 170 211 243 299
#     4  11  21  35  48  65  93 126 175 227 260 284
#
# _framework density 16.927067999999998
#
# number of rings (size 3 to 8) (size 9 to 14) (size 15 to 20)
#    0.000    1.333    8.333    2.500    0.000    0.000 
#    0.000    0.000    0.000    0.000    0.000    0.000 
#    0.000    0.000    0.000    0.000  304.000   48.333 
#
# Total GULP energy -594745.074659 kJ/mol
# GULP energy per Si atom -12390.522389 kJ/mol
# Density = 1.688854 g / cm^3
# Si number density = 16.927068 Si / 1000 Ang^3
#
#
#
# Elastic Constant Matrix: (Units=GPa)
#
#
# Indices 1 2 3 4 5 6 
#
# 1 40.3057 18.8411 29.8594 0.0000 0.0000 0.0000
# 2 18.8411 97.8063 34.7309 0.0000 0.0000 0.0000
# 3 29.8594 34.7309 88.1392 0.0000 0.0000 0.0000
# 4 0.0000 0.0000 0.0000 35.2476 0.0000 0.0000
# 5 0.0000 0.0000 0.0000 0.0000 13.5549 0.0000
# 6 0.0000 0.0000 0.0000 0.0000 0.0000 24.2341
#
#
#
# Elastic Compliance Matrix: (Units=1/GPa)
#
#
# Indices 1 2 3 4 5 6 
#
# 1 0.033790 -0.002842 -0.010327 0.000000 0.000000 0.000000
# 2 -0.002842 0.012127 -0.003816 0.000000 0.000000 0.000000
# 3 -0.010327 -0.003816 0.016348 0.000000 0.000000 0.000000
# 4 0.000000 0.000000 0.000000 0.028371 0.000000 0.000000
# 5 0.000000 0.000000 0.000000 0.000000 0.073774 0.000000
# 6 0.000000 0.000000 0.000000 0.000000 0.000000 0.041264
#
#
# Mechanical properties :
#
#
# Convention : Reuss Voigt Hill
#
# Bulk Modulus (GPa) = 35.34270 43.67934 39.51102
# Shear Modulus (GPa) = 20.07432 24.12862 22.10147
#
# Velocity S-wave (km/s) = 3.44747 3.77960 3.61735
# Velocity P-wave (km/s) = 6.06395 6.70132 6.39058
#
# Compressibility (1/GPa) = 0.02829439
#
# Stress axis : x y z
#
# Youngs Moduli (GPa) = 29.59494 82.46262 61.17003
#
# Poissons Ratio (x) = 0.23435 0.63172
# Poissons Ratio (y) = 0.08411 0.23341
# Poissons Ratio (z) = 0.30563 0.31465
#
# Static dielectric constant tensor:
#      x y z
#    x 2.784280 0.000000 0.000000 
#    y 0.000000 3.577980 0.000000 
#    z 0.000000 0.000000 3.591700 
# 
# 
# High freq. dielectric constant tensor:
#      x y z
#    x 1.585040 0.000000 0.000000 
#    y 0.000000 1.677470 0.000000 
#    z 0.000000 0.000000 1.640840 
# 
# From -- ./inp_files/33998.got.cif
#   From: 2010.06.25/outbox.cif.g09.slc.cpg/sg52_17_cif.got.tgz:33998.got - 2010.06.26 19:32:48.
