data_PCOD8215552
_publ_section_title
;
Structure prediction by ZEFSAII (Michael W. Deem and Ramdas Pophale) SiO2 
 PCOD8215552
Probable space group: P N N A
;
_chemical_formula_sum "Si O2"
_cell_formula_units_Z 48
_cell_length_a 14.073547
_cell_length_b 16.813135
_cell_length_c 9.621526
_cell_angle_alpha 90.000000
_cell_angle_beta 90.000000
_cell_angle_gamma 90.000000
_cell_volume 2276.649770
_symmetry_space_group_name_H-M "P N N A"
_symmetry_group_IT_number 52
_symmetry_cell_setting 'orthorhombic'
loop_
_space_group_symop_operation_xyz
x,y,z
1/2-x,-y,z
x,1/2-y,1/2-z
1/2-x,1/2+y,1/2-z
-x,-y,-z
1/2+x,y,-z
-x,1/2+y,1/2+z
1/2+x,1/2-y,1/2+z
loop_
_atom_site_type_symbol
_atom_site_label
_atom_site_fract_x
_atom_site_fract_y
_atom_site_fract_z
Si Si1 0.882017 0.884809 0.701951
Si Si2 0.111963 0.188767 0.997531
Si Si3 0.246388 0.167595 0.533493
Si Si4 0.512151 0.530152 0.846265
Si Si5 0.465251 0.183699 0.493171
Si Si6 0.326345 0.561476 0.714691
O O1 0.785971 0.875223 0.610417
O O2 0.971906 0.850328 0.618721
O O3 0.902896 0.979412 0.727447
O O4 0.873919 0.834706 0.842183
O O5 0.127462 0.110949 0.908541
O O6 0.008718 0.228379 0.963038
O O7 0.192328 0.249958 0.951064
O O8 0.356601 0.189355 0.537791
O O9 0.221179 0.112278 0.663102
O O10 0.529583 0.625828 0.856578
O O11 0.413866 0.510091 0.771161
O O12 0.500000 0.500000 0.000000
O O13 0.250000 0.500000 0.652721
#
# Coordination Sequence:
#
# PCOD8215552 Si02
#       6
#     8   8   8   8   8   8
#     4  10  22  43  65  96 138 170 223 287 341 406
#     4  11  25  45  62 100 147 172 222 291 347 409
#     4  11  22  41  74  97 127 180 236 275 332 416
#     4  10  19  40  65  94 125 170 223 278 329 393
#     4  10  21  40  72  96 126 181 229 278 336 408
#     4  12  24  41  69  99 137 179 230 280 340 411
#
# _framework density 21.083613
#
# number of rings (size 3 to 8) (size 9 to 14) (size 15 to 20)
#    0.000    1.333    5.000    4.500    0.000    4.667 
#    9.000    0.000    0.000    0.000    0.000    0.000 
#    0.000    0.000    0.000    0.000    0.000    0.000 
#
# Total GULP energy -594902.013029 kJ/mol
# GULP energy per Si atom -12393.791938 kJ/mol
# Density = 2.103563 g / cm^3
# Si number density = 21.083613 Si / 1000 Ang^3
#
#
#
# Elastic Constant Matrix: (Units=GPa)
#
#
# Indices 1 2 3 4 5 6 
#
# 1 112.1757 25.9866 43.0570 0.0000 0.0000 0.0000
# 2 25.9866 98.9930 45.7600 0.0000 0.0000 0.0000
# 3 43.0570 45.7600 62.0790 0.0000 0.0000 0.0000
# 4 0.0000 0.0000 0.0000 29.7986 0.0000 0.0000
# 5 0.0000 0.0000 0.0000 0.0000 15.4697 0.0000
# 6 0.0000 0.0000 0.0000 0.0000 0.0000 43.3592
#
#
#
# Elastic Compliance Matrix: (Units=1/GPa)
#
#
# Indices 1 2 3 4 5 6 
#
# 1 0.012224 0.001077 -0.009273 0.000000 0.000000 0.000000
# 2 0.001077 0.015418 -0.012112 0.000000 0.000000 0.000000
# 3 -0.009273 -0.012112 0.031468 0.000000 0.000000 0.000000
# 4 0.000000 0.000000 0.000000 0.033559 0.000000 0.000000
# 5 0.000000 0.000000 0.000000 0.000000 0.064642 0.000000
# 6 0.000000 0.000000 0.000000 0.000000 0.000000 0.023063
#
#
# Mechanical properties :
#
#
# Convention : Reuss Voigt Hill
#
# Bulk Modulus (GPa) = 54.06802 55.87277 54.97039
# Shear Modulus (GPa) = 22.01152 28.28845 25.14999
#
# Velocity S-wave (km/s) = 3.23462 3.66693 3.45754
# Velocity P-wave (km/s) = 6.29687 6.66983 6.48603
#
# Compressibility (1/GPa) = 0.01849522
#
# Stress axis : x y z
#
# Youngs Moduli (GPa) = 81.80523 64.86016 31.77835
#
# Poissons Ratio (x) = -0.06988 0.29467
# Poissons Ratio (y) = -0.08813 0.38490
# Poissons Ratio (z) = 0.75855 0.78559
#
# Static dielectric constant tensor:
#      x y z
#    x 3.906690 0.000000 0.000000 
#    y 0.000000 4.839110 0.000000 
#    z 0.000000 0.000000 3.157800 
# 
# 
# High freq. dielectric constant tensor:
#      x y z
#    x 1.824190 0.000000 0.000000 
#    y 0.000000 1.834490 0.000000 
#    z 0.000000 0.000000 1.805620 
# 
# From -- ./inp_files/10437.got.cif
#   From: 2010.06.25/outbox.cif.g09.slc.cpg/sg52_6_cif.got.tgz:10437.got - 2010.06.26 19:32:48.
