data_PCOD8215582
_publ_section_title
;
Structure prediction by ZEFSAII (Michael W. Deem and Ramdas Pophale) SiO2 
 PCOD8215582
Probable space group: P N N A
;
_chemical_formula_sum "Si O2"
_cell_formula_units_Z 60
_cell_length_a 30.735334
_cell_length_b 6.428649
_cell_length_c 16.306367
_cell_angle_alpha 90.000000
_cell_angle_beta 90.000000
_cell_angle_gamma 90.000000
_cell_volume 3221.920824
_symmetry_space_group_name_H-M "P N N A"
_symmetry_group_IT_number 52
_symmetry_cell_setting 'orthorhombic'
loop_
_space_group_symop_operation_xyz
x,y,z
1/2-x,-y,z
x,1/2-y,1/2-z
1/2-x,1/2+y,1/2-z
-x,-y,-z
1/2+x,y,-z
-x,1/2+y,1/2+z
1/2+x,1/2-y,1/2+z
loop_
_atom_site_type_symbol
_atom_site_label
_atom_site_fract_x
_atom_site_fract_y
_atom_site_fract_z
Si Si1 0.319483 0.750000 0.750000
Si Si2 0.564236 0.776360 0.424493
Si Si3 0.146261 0.868087 0.832545
Si Si4 0.904996 0.322869 0.838949
Si Si5 0.479463 0.854060 0.337417
Si Si6 0.875444 0.580666 0.981909
Si Si7 0.570533 0.454761 0.551071
Si Si8 0.297813 0.477472 0.899157
O O1 0.347219 0.610468 0.686982
O O2 0.293250 0.601704 0.812241
O O3 0.602213 0.649657 0.381435
O O4 0.529959 0.882703 0.362317
O O5 0.584146 0.964446 0.475772
O O6 0.545022 0.595517 0.483805
O O7 0.137328 0.750000 0.750000
O O8 0.187311 0.760128 0.879744
O O9 0.887049 0.250000 0.750000
O O10 0.872304 0.479787 0.889173
O O11 0.952930 0.430472 0.833615
O O12 0.907965 0.105612 0.883693
O O13 0.475449 0.750000 0.250000
O O14 0.462572 0.703405 0.408015
O O15 0.888087 0.823107 0.982091
O O16 0.831071 0.567177 0.033442
O O17 0.250000 0.500000 0.939080
#
# Coordination Sequence:
#
# PCOD8215582 Si02
#       8
#     4   8   8   8   8   8   8   8
#     4  10  20  32  56  80 112 152 190 218 266 320
#     4  10  20  34  51  73 110 145 179 225 272 325
#     4   9  19  35  50  74 109 148 187 218 262 319
#     4  10  20  37  57  79 103 139 187 237 285 339
#     4  11  21  33  51  77 106 138 186 232 274 323
#     4   9  21  37  55  80 107 145 183 228 279 336
#     4  10  20  35  54  74 105 138 181 220 284 328
#     4  10  21  35  56  83 114 145 183 228 270 330
#
# _framework density 18.622433000000001
#
# number of rings (size 3 to 8) (size 9 to 14) (size 15 to 20)
#    0.000    2.133    1.333    1.600    2.800    5.867 
#    0.000    1.333    1.467    0.000    3.467    0.000 
#    0.000    0.000    0.000    0.000    0.000    0.000 
#
# Total GULP energy -743337.825733 kJ/mol
# GULP energy per Si atom -12388.963762 kJ/mol
# Density = 1.858005 g / cm^3
# Si number density = 18.622433 Si / 1000 Ang^3
#
#
#
# Elastic Constant Matrix: (Units=GPa)
#
#
# Indices 1 2 3 4 5 6 
#
# 1 86.1705 36.7828 45.3209 0.0000 0.0000 0.0000
# 2 36.7828 87.6580 37.1164 0.0000 0.0000 0.0000
# 3 45.3209 37.1164 75.6058 0.0000 0.0000 0.0000
# 4 0.0000 0.0000 0.0000 28.1498 0.0000 0.0000
# 5 0.0000 0.0000 0.0000 0.0000 -3.7981 0.0000
# 6 0.0000 0.0000 0.0000 0.0000 0.0000 -0.6135
#
#
#
# Elastic Compliance Matrix: (Units=1/GPa)
#
#
# Indices 1 2 3 4 5 6 
#
# 1 0.017869 -0.003740 -0.008875 0.000000 0.000000 0.000000
# 2 -0.003740 0.015184 -0.005212 0.000000 0.000000 0.000000
# 3 -0.008875 -0.005212 0.021106 0.000000 0.000000 0.000000
# 4 0.000000 0.000000 0.000000 0.035524 0.000000 0.000000
# 5 0.000000 0.000000 0.000000 0.000000 -0.263291 0.000000
# 6 0.000000 0.000000 0.000000 0.000000 0.000000 -1.629883
#
#
# Mechanical properties :
#
#
# Convention : Reuss Voigt Hill
#
# Bulk Modulus (GPa) = 54.04387 54.20828 54.12607
# Shear Modulus (GPa) = -2.83822 13.42859 5.29518
#
# Velocity S-wave (km/s) = -1.23588 2.68824 1.68808
# Velocity P-wave (km/s) = 5.20070 6.22959 5.73826
#
# Compressibility (1/GPa) = 0.01850349
#
# Stress axis : x y z
#
# Youngs Moduli (GPa) = 55.96148 65.85676 47.38085
#
# Poissons Ratio (x) = 0.24632 0.42052
# Poissons Ratio (y) = 0.20931 0.24696
# Poissons Ratio (z) = 0.49668 0.34327
#
# Static dielectric constant tensor:
#      x y z
#    x 3.103700 0.000000 0.000000 
#    y 0.000000 4.291600 0.000000 
#    z 0.000000 0.000000 3.831470 
# 
# 
# High freq. dielectric constant tensor:
#      x y z
#    x 1.682390 0.000000 0.000000 
#    y 0.000000 1.735060 0.000000 
#    z 0.000000 0.000000 1.729900 
# 
# From -- ./inp_files/34573.got.cif
#   From: 2010.06.25/outbox.cif.g09.slc.cpg/sg52_18_cif.got.tgz:34573.got - 2010.06.26 19:32:48.
