data_PCOD8215516
_publ_section_title
;
Structure prediction by ZEFSAII (Michael W. Deem and Ramdas Pophale) SiO2 
 PCOD8215516
Probable space group: P N N A
;
_chemical_formula_sum "Si O2"
_cell_formula_units_Z 60
_cell_length_a 17.388525
_cell_length_b 20.943807
_cell_length_c 7.607921
_cell_angle_alpha 90.000000
_cell_angle_beta 90.000000
_cell_angle_gamma 90.000000
_cell_volume 2770.667213
_symmetry_space_group_name_H-M "P N N A"
_symmetry_group_IT_number 52
_symmetry_cell_setting 'orthorhombic'
loop_
_space_group_symop_operation_xyz
x,y,z
1/2-x,-y,z
x,1/2-y,1/2-z
1/2-x,1/2+y,1/2-z
-x,-y,-z
1/2+x,y,-z
-x,1/2+y,1/2+z
1/2+x,1/2-y,1/2+z
loop_
_atom_site_type_symbol
_atom_site_label
_atom_site_fract_x
_atom_site_fract_y
_atom_site_fract_z
Si Si1 0.353070 0.338905 0.078554
Si Si2 0.723481 0.247050 0.048986
Si Si3 0.550799 0.500847 0.221739
Si Si4 0.164976 0.508487 0.484545
Si Si5 0.644178 0.657569 0.530614
Si Si6 0.887292 0.478443 0.866648
Si Si7 0.599490 0.250000 0.750000
Si Si8 0.533557 0.653115 0.224847
O O1 0.373232 0.314296 0.275271
O O2 0.339784 0.415142 0.083885
O O3 0.274916 0.307940 0.006385
O O4 0.422969 0.321931 0.949275
O O5 0.694821 0.250000 0.250000
O O6 0.773164 0.182735 0.030954
O O7 0.650019 0.242558 0.924416
O O8 0.601983 0.477406 0.385953
O O9 0.471592 0.461077 0.218161
O O10 0.529465 0.576125 0.224000
O O11 0.599345 0.482381 0.046145
O O12 0.250000 0.500000 0.562290
O O13 0.146274 0.582136 0.465780
O O14 0.157361 0.480547 0.284674
O O15 0.579041 0.679812 0.394698
O O16 0.549810 0.314663 0.770616
#
# Coordination Sequence:
#
# PCOD8215516 Si02
#       8
#     8   8   8   8   8   8   4   8
#     4  10  19  38  67  84 111 161 206 233 295 377
#     4  12  23  39  60  86 121 155 196 255 309 358
#     4   9  19  38  60  86 120 160 199 246 295 356
#     4  10  21  35  58  92 123 156 197 243 294 357
#     4  10  20  39  64  86 113 167 205 235 298 374
#     4   9  19  36  60  85 114 155 202 241 291 348
#     4  12  26  38  56  96 126 146 200 270 310 342
#     4  10  21  38  63  88 120 160 206 245 298 368
#
# _framework density 21.655434
#
# number of rings (size 3 to 8) (size 9 to 14) (size 15 to 20)
#    0.000    1.867    2.667    1.200    0.000    2.667 
#    0.000    4.000    0.000    0.000    0.000    0.000 
#    0.000    0.000    0.000    0.000    0.000    0.000 
#
# Total GULP energy -743665.063462 kJ/mol
# GULP energy per Si atom -12394.417724 kJ/mol
# Density = 2.160614 g / cm^3
# Si number density = 21.655434 Si / 1000 Ang^3
#
#
#
# Elastic Constant Matrix: (Units=GPa)
#
#
# Indices 1 2 3 4 5 6 
#
# 1 104.7779 12.3693 52.9627 0.0000 0.0000 0.0000
# 2 12.3693 21.3015 15.1436 0.0000 0.0000 0.0000
# 3 52.9627 15.1436 174.8627 0.0000 0.0000 0.0000
# 4 0.0000 0.0000 0.0000 12.6757 0.0000 0.0000
# 5 0.0000 0.0000 0.0000 0.0000 43.2279 0.0000
# 6 0.0000 0.0000 0.0000 0.0000 0.0000 19.6850
#
#
#
# Elastic Compliance Matrix: (Units=1/GPa)
#
#
# Indices 1 2 3 4 5 6 
#
# 1 0.011668 -0.004543 -0.003141 0.000000 0.000000 0.000000
# 2 -0.004543 0.051794 -0.003110 0.000000 0.000000 0.000000
# 3 -0.003141 -0.003110 0.006939 0.000000 0.000000 0.000000
# 4 0.000000 0.000000 0.000000 0.078891 0.000000 0.000000
# 5 0.000000 0.000000 0.000000 0.000000 0.023133 0.000000
# 6 0.000000 0.000000 0.000000 0.000000 0.000000 0.050800
#
#
# Mechanical properties :
#
#
# Convention : Reuss Voigt Hill
#
# Bulk Modulus (GPa) = 20.48541 51.32148 35.90344
# Shear Modulus (GPa) = 19.15105 29.81548 24.48327
#
# Velocity S-wave (km/s) = 2.97703 3.71457 3.36606
# Velocity P-wave (km/s) = 4.61489 6.49214 5.63228
#
# Compressibility (1/GPa) = 0.04881522
#
# Stress axis : x y z
#
# Youngs Moduli (GPa) = 85.70654 19.30740 144.10703
#
# Poissons Ratio (x) = 0.08770 0.45257
# Poissons Ratio (y) = 0.38932 0.44812
# Poissons Ratio (z) = 0.26916 0.06004
#
# Static dielectric constant tensor:
#      x y z
#    x 3.742130 0.000000 0.000000 
#    y 0.000000 3.603530 0.000000 
#    z 0.000000 0.000000 4.615450 
# 
# 
# High freq. dielectric constant tensor:
#      x y z
#    x 1.834670 0.000000 0.000000 
#    y 0.000000 1.822240 0.000000 
#    z 0.000000 0.000000 1.878900 
# 
# From -- ./inp_files/10933.got.cif
#   From: 2010.06.25/outbox.cif.g09.slc.cpg/sg52_6_cif.got.tgz:10933.got - 2010.06.26 19:32:48.
