data_PCOD8215210
_publ_section_title
;
Structure prediction by ZEFSAII (Michael W. Deem and Ramdas Pophale) SiO2 
 PCOD8215210
Probable space group: P N N A
;
_chemical_formula_sum "Si O2"
_cell_formula_units_Z 44
_cell_length_a 8.860279
_cell_length_b 8.350202
_cell_length_c 29.468897
_cell_angle_alpha 90.000000
_cell_angle_beta 90.000000
_cell_angle_gamma 90.000000
_cell_volume 2180.259864
_symmetry_space_group_name_H-M "P N N A"
_symmetry_group_IT_number 52
_symmetry_cell_setting 'orthorhombic'
loop_
_space_group_symop_operation_xyz
x,y,z
1/2-x,-y,z
x,1/2-y,1/2-z
1/2-x,1/2+y,1/2-z
-x,-y,-z
1/2+x,y,-z
-x,1/2+y,1/2+z
1/2+x,1/2-y,1/2+z
loop_
_atom_site_type_symbol
_atom_site_label
_atom_site_fract_x
_atom_site_fract_y
_atom_site_fract_z
Si Si1 0.328085 0.227817 0.852937
Si Si2 0.681856 0.824086 0.452920
Si Si3 0.250000 0.500000 0.792430
Si Si4 0.413722 0.840235 0.013472
Si Si5 0.250000 0.000000 0.092817
Si Si6 0.034081 0.250000 0.750000
Si Si7 0.504069 0.411785 0.338553
O O1 0.372582 0.264589 0.904111
O O2 0.354221 0.385739 0.823254
O O3 0.150081 0.187458 0.854083
O O4 0.437978 0.093689 0.831545
O O5 0.529058 0.809386 0.482414
O O6 0.801930 0.699167 0.472658
O O7 0.750000 0.000000 0.453151
O O8 0.140210 0.399458 0.760955
O O9 0.325759 0.865604 0.060945
O O10 0.500000 0.000000 0.000000
O O11 0.372124 0.092059 0.124162
O O12 0.939345 0.321671 0.707190
#
# Coordination Sequence:
#
# PCOD8215210 Si02
#       7
#     8   8   4   8   4   4   8
#     4  10  20  36  62  92 118 163 203 257 307 373
#     4  12  24  40  60  96 133 165 211 265 320 364
#     4  10  18  36  62  91 120 149 206 256 318 372
#     4  12  24  41  65  91 127 178 217 259 305 388
#     4  12  22  40  64  91 120 167 220 248 310 388
#     4  10  20  38  60  94 118 156 198 270 318 378
#     4  10  22  37  63  87 121 155 209 257 311 383
#
# _framework density 20.181080000000001
#
# number of rings (size 3 to 8) (size 9 to 14) (size 15 to 20)
#    0.000    1.091    4.545    3.818    2.545    0.000 
#    0.000    1.818    0.000    0.000    0.000    0.000 
#    0.000    0.000    0.000    0.000    0.000    0.000 
#
# Total GULP energy -545386.287993 kJ/mol
# GULP energy per Si atom -12395.142909 kJ/mol
# Density = 2.013515 g / cm^3
# Si number density = 20.181080 Si / 1000 Ang^3
#
#
#
# Elastic Constant Matrix: (Units=GPa)
#
#
# Indices 1 2 3 4 5 6 
#
# 1 69.8823 30.0638 22.2651 0.0000 0.0000 0.0000
# 2 30.0638 115.9518 39.0383 0.0000 0.0000 0.0000
# 3 22.2651 39.0383 100.2826 0.0000 0.0000 0.0000
# 4 0.0000 0.0000 0.0000 41.1461 0.0000 0.0000
# 5 0.0000 0.0000 0.0000 0.0000 53.4689 0.0000
# 6 0.0000 0.0000 0.0000 0.0000 0.0000 24.7323
#
#
#
# Elastic Compliance Matrix: (Units=1/GPa)
#
#
# Indices 1 2 3 4 5 6 
#
# 1 0.016558 -0.003516 -0.002307 0.000000 0.000000 0.000000
# 2 -0.003516 0.010672 -0.003374 0.000000 0.000000 0.000000
# 3 -0.002307 -0.003374 0.011797 0.000000 0.000000 0.000000
# 4 0.000000 0.000000 0.000000 0.024304 0.000000 0.000000
# 5 0.000000 0.000000 0.000000 0.000000 0.018702 0.000000
# 6 0.000000 0.000000 0.000000 0.000000 0.000000 0.040433
#
#
# Mechanical properties :
#
#
# Convention : Reuss Voigt Hill
#
# Bulk Modulus (GPa) = 48.46762 52.09458 50.28110
# Shear Modulus (GPa) = 33.84373 36.85276 35.34825
#
# Velocity S-wave (km/s) = 4.09957 4.27793 4.18970
# Velocity P-wave (km/s) = 6.81741 7.09017 6.95513
#
# Compressibility (1/GPa) = 0.02063233
#
# Stress axis : x y z
#
# Youngs Moduli (GPa) = 60.39519 93.70505 84.76427
#
# Poissons Ratio (x) = 0.32948 0.19558
# Poissons Ratio (y) = 0.21236 0.28597
# Poissons Ratio (z) = 0.13935 0.31613
#
# Static dielectric constant tensor:
#      x y z
#    x 3.600210 0.000000 0.000000 
#    y 0.000000 4.006300 0.000000 
#    z 0.000000 0.000000 3.951080 
# 
# 
# High freq. dielectric constant tensor:
#      x y z
#    x 1.765180 0.000000 0.000000 
#    y 0.000000 1.788050 0.000000 
#    z 0.000000 0.000000 1.802980 
# 
# From -- ./inp_files/44318.got.cif
#   From: 2010.06.25/outbox.cif.g09.slc.cpg/sg52_23_cif.got.tgz:44318.got - 2010.06.26 19:32:48.
