data_PCOD8215699
_publ_section_title
;
Structure prediction by ZEFSAII (Michael W. Deem and Ramdas Pophale) SiO2 
 PCOD8215699
Probable space group: P N N A
;
_chemical_formula_sum "Si O2"
_cell_formula_units_Z 48
_cell_length_a 19.562551
_cell_length_b 14.354646
_cell_length_c 8.978441
_cell_angle_alpha 90.000000
_cell_angle_beta 90.000000
_cell_angle_gamma 90.000000
_cell_volume 2521.267392
_symmetry_space_group_name_H-M "P N N A"
_symmetry_group_IT_number 52
_symmetry_cell_setting 'orthorhombic'
loop_
_space_group_symop_operation_xyz
x,y,z
1/2-x,-y,z
x,1/2-y,1/2-z
1/2-x,1/2+y,1/2-z
-x,-y,-z
1/2+x,y,-z
-x,1/2+y,1/2+z
1/2+x,1/2-y,1/2+z
loop_
_atom_site_type_symbol
_atom_site_label
_atom_site_fract_x
_atom_site_fract_y
_atom_site_fract_z
Si Si1 0.523786 0.766359 0.076842
Si Si2 0.894436 0.944041 0.417705
Si Si3 0.386877 0.761869 0.917670
Si Si4 0.322403 0.549060 0.612059
Si Si5 0.448422 0.089145 0.381582
Si Si6 0.932996 0.056717 0.954829
O O1 0.515494 0.750000 0.250000
O O2 0.449566 0.798523 0.015897
O O3 0.554837 0.681174 0.983052
O O4 0.573973 0.853729 0.061533
O O5 0.866392 0.842428 0.473046
O O6 0.851737 0.976752 0.274623
O O7 0.974250 0.947074 0.376609
O O8 0.891166 0.017581 0.552737
O O9 0.415634 0.750000 0.750000
O O10 0.324635 0.837645 0.914911
O O11 0.250000 0.500000 0.597588
O O12 0.367698 0.507391 0.480322
O O13 0.429580 0.100754 0.209864
O O14 0.000000 0.000000 0.000000
#
# Coordination Sequence:
#
# PCOD8215699 Si02
#       6
#     8   8   8   8   8   8
#     4  11  21  33  59  93 122 151 201 261 318 367
#     4   9  18  35  59  87 114 150 199 257 306 361
#     4   9  18  34  56  81 114 153 196 247 306 357
#     4  11  22  37  56  85 124 167 208 247 304 370
#     4  10  20  35  61  89 119 147 199 260 313 360
#     4  12  21  36  59  88 121 157 199 253 313 359
#
# _framework density 19.038043999999999
#
# number of rings (size 3 to 8) (size 9 to 14) (size 15 to 20)
#    0.000    1.667    3.333    3.500    4.667    0.000 
#    0.000    8.333    0.000    4.000    0.000    0.000 
#    0.000    0.000    0.000    0.000    0.000    0.000 
#
# Total GULP energy -594695.540403 kJ/mol
# GULP energy per Si atom -12389.490425 kJ/mol
# Density = 1.899471 g / cm^3
# Si number density = 19.038044 Si / 1000 Ang^3
#
#
#
# Elastic Constant Matrix: (Units=GPa)
#
#
# Indices 1 2 3 4 5 6 
#
# 1 78.0967 54.4562 30.6217 0.0000 0.0000 0.0000
# 2 54.4562 133.5612 54.7290 0.0000 0.0000 0.0000
# 3 30.6217 54.7290 112.5729 0.0000 0.0000 0.0000
# 4 0.0000 0.0000 0.0000 33.5709 0.0000 0.0000
# 5 0.0000 0.0000 0.0000 0.0000 20.6460 0.0000
# 6 0.0000 0.0000 0.0000 0.0000 0.0000 30.6959
#
#
#
# Elastic Compliance Matrix: (Units=1/GPa)
#
#
# Indices 1 2 3 4 5 6 
#
# 1 0.018140 -0.006711 -0.001672 0.000000 0.000000 0.000000
# 2 -0.006711 0.011833 -0.003927 0.000000 0.000000 0.000000
# 3 -0.001672 -0.003927 0.011247 0.000000 0.000000 0.000000
# 4 0.000000 0.000000 0.000000 0.029788 0.000000 0.000000
# 5 0.000000 0.000000 0.000000 0.000000 0.048436 0.000000
# 6 0.000000 0.000000 0.000000 0.000000 0.000000 0.032578
#
#
# Mechanical properties :
#
#
# Convention : Reuss Voigt Hill
#
# Bulk Modulus (GPa) = 60.24150 67.09384 63.66767
# Shear Modulus (GPa) = 27.44646 29.27750 28.36198
#
# Velocity S-wave (km/s) = 3.80104 3.92579 3.86392
# Velocity P-wave (km/s) = 7.13970 7.47446 7.30900
#
# Compressibility (1/GPa) = 0.01659985
#
# Stress axis : x y z
#
# Youngs Moduli (GPa) = 55.12795 84.51197 88.91205
#
# Poissons Ratio (x) = 0.56716 0.14863
# Poissons Ratio (y) = 0.36996 0.34917
# Poissons Ratio (z) = 0.09215 0.33189
#
# Static dielectric constant tensor:
#      x y z
#    x 3.027900 0.000000 0.000000 
#    y 0.000000 3.955160 0.000000 
#    z 0.000000 0.000000 3.619150 
# 
# 
# High freq. dielectric constant tensor:
#      x y z
#    x 1.674310 0.000000 0.000000 
#    y 0.000000 1.762790 0.000000 
#    z 0.000000 0.000000 1.743850 
# 
# From -- ./inp_files/12105.got.cif
#   From: 2010.06.25/outbox.cif.g09.slc.cpg/sg52_7_cif.got.tgz:12105.got - 2010.06.26 19:32:48.
