data_PCOD8215535
_publ_section_title
;
Structure prediction by ZEFSAII (Michael W. Deem and Ramdas Pophale) SiO2 
 PCOD8215535
Probable space group: P N N A
;
_chemical_formula_sum "Si O2"
_cell_formula_units_Z 44
_cell_length_a 13.914013
_cell_length_b 14.805605
_cell_length_c 10.411785
_cell_angle_alpha 90.000000
_cell_angle_beta 90.000000
_cell_angle_gamma 90.000000
_cell_volume 2144.883730
_symmetry_space_group_name_H-M "P N N A"
_symmetry_group_IT_number 52
_symmetry_cell_setting 'orthorhombic'
loop_
_space_group_symop_operation_xyz
x,y,z
1/2-x,-y,z
x,1/2-y,1/2-z
1/2-x,1/2+y,1/2-z
-x,-y,-z
1/2+x,y,-z
-x,1/2+y,1/2+z
1/2+x,1/2-y,1/2+z
loop_
_atom_site_type_symbol
_atom_site_label
_atom_site_fract_x
_atom_site_fract_y
_atom_site_fract_z
Si Si1 0.128514 0.152722 0.687843
Si Si2 0.094467 0.117985 0.163063
Si Si3 0.839128 0.163710 0.334259
Si Si4 0.910706 0.017411 0.145143
Si Si5 0.465176 0.691103 0.066787
Si Si6 0.250000 0.500000 0.445365
O O1 0.118022 0.250000 0.750000
O O2 0.233073 0.133324 0.622351
O O3 0.100721 0.084295 0.802258
O O4 0.059221 0.142848 0.566299
O O5 0.078317 0.208344 0.079430
O O6 0.077072 0.134257 0.313578
O O7 0.202769 0.079877 0.141295
O O8 0.020739 0.042080 0.105232
O O9 0.818960 0.250000 0.250000
O O10 0.918089 0.193760 0.439355
O O11 0.888419 0.082320 0.262083
O O12 0.834833 0.040090 0.033451
#
# Coordination Sequence:
#
# PCOD8215535 Si02
#       6
#     8   8   8   8   8   4
#     4  11  23  38  64  97 123 164 217 262 311 389
#     4  10  23  40  63  90 124 174 204 263 335 375
#     4  10  19  39  64  87 117 170 209 249 322 369
#     4  11  21  41  63  93 120 164 222 260 313 390
#     4  10  21  42  63  88 130 163 210 259 324 388
#     4  12  22  38  62  90 124 162 220 266 310 390
#
# _framework density 20.513933000000002
#
# number of rings (size 3 to 8) (size 9 to 14) (size 15 to 20)
#    0.000    1.455    5.455    1.636    2.545    2.909 
#    6.545    0.000    0.000    0.000    0.000    0.000 
#    0.000    0.000    0.000    0.000    0.000    0.000 
#
# Total GULP energy -545217.691863 kJ/mol
# GULP energy per Si atom -12391.311179 kJ/mol
# Density = 2.046724 g / cm^3
# Si number density = 20.513933 Si / 1000 Ang^3
#
#
#
# Elastic Constant Matrix: (Units=GPa)
#
#
# Indices 1 2 3 4 5 6 
#
# 1 135.3820 31.6613 33.9717 0.0000 0.0000 0.0000
# 2 31.6613 96.4919 4.7633 0.0000 0.0000 0.0000
# 3 33.9717 4.7633 58.1900 0.0000 0.0000 0.0000
# 4 0.0000 0.0000 0.0000 16.2256 0.0000 0.0000
# 5 0.0000 0.0000 0.0000 0.0000 39.1163 0.0000
# 6 0.0000 0.0000 0.0000 0.0000 0.0000 30.5518
#
#
#
# Elastic Compliance Matrix: (Units=1/GPa)
#
#
# Indices 1 2 3 4 5 6 
#
# 1 0.009357 -0.002812 -0.005233 0.000000 0.000000 0.000000
# 2 -0.002812 0.011251 0.000721 0.000000 0.000000 0.000000
# 3 -0.005233 0.000721 0.020181 0.000000 0.000000 0.000000
# 4 0.000000 0.000000 0.000000 0.061631 0.000000 0.000000
# 5 0.000000 0.000000 0.000000 0.000000 0.025565 0.000000
# 6 0.000000 0.000000 0.000000 0.000000 0.000000 0.032731
#
#
# Mechanical properties :
#
#
# Convention : Reuss Voigt Hill
#
# Bulk Modulus (GPa) = 38.25409 47.87294 43.06351
# Shear Modulus (GPa) = 27.16249 31.82324 29.49287
#
# Velocity S-wave (km/s) = 3.64277 3.94293 3.79581
# Velocity P-wave (km/s) = 6.03169 6.64201 6.34420
#
# Compressibility (1/GPa) = 0.02614100
#
# Stress axis : x y z
#
# Youngs Moduli (GPa) = 106.86998 88.88361 49.55176
#
# Poissons Ratio (x) = 0.24994 0.25928
# Poissons Ratio (y) = 0.30052 -0.03571
# Poissons Ratio (z) = 0.55921 -0.06406
#
# Static dielectric constant tensor:
#      x y z
#    x 4.282930 0.000000 0.000000 
#    y 0.000000 3.730540 0.000000 
#    z 0.000000 0.000000 3.454470 
# 
# 
# High freq. dielectric constant tensor:
#      x y z
#    x 1.814230 0.000000 0.000000 
#    y 0.000000 1.805620 0.000000 
#    z 0.000000 0.000000 1.778600 
# 
# From -- ./inp_files/19466.got.cif
#   From: 2010.06.25/outbox.cif.g09.slc.cpg/sg52_10_cif.got.tgz:19466.got - 2010.06.26 19:32:48.
