data_PCOD8215207
_publ_section_title
;
Structure prediction by ZEFSAII (Michael W. Deem and Ramdas Pophale) SiO2 
 PCOD8215207
Probable space group: P N N A
;
_chemical_formula_sum "Si O2"
_cell_formula_units_Z 64
_cell_length_a 18.474063
_cell_length_b 19.596518
_cell_length_c 8.684363
_cell_angle_alpha 90.000000
_cell_angle_beta 90.000000
_cell_angle_gamma 90.000000
_cell_volume 3143.976560
_symmetry_space_group_name_H-M "P N N A"
_symmetry_group_IT_number 52
_symmetry_cell_setting 'orthorhombic'
loop_
_space_group_symop_operation_xyz
x,y,z
1/2-x,-y,z
x,1/2-y,1/2-z
1/2-x,1/2+y,1/2-z
-x,-y,-z
1/2+x,y,-z
-x,1/2+y,1/2+z
1/2+x,1/2-y,1/2+z
loop_
_atom_site_type_symbol
_atom_site_label
_atom_site_fract_x
_atom_site_fract_y
_atom_site_fract_z
Si Si1 0.538297 0.194365 0.381407
Si Si2 0.608917 0.507021 0.076596
Si Si3 0.375741 0.115618 0.052296
Si Si4 0.328425 0.370258 0.764437
Si Si5 0.591398 0.732892 0.050704
Si Si6 0.024282 0.550519 0.216024
Si Si7 0.688643 0.366676 0.069845
Si Si8 0.707493 0.679283 0.817045
O O1 0.525668 0.250000 0.250000
O O2 0.493941 0.215952 0.534441
O O3 0.502648 0.124252 0.331795
O O4 0.622611 0.186443 0.418445
O O5 0.652530 0.575946 0.103300
O O6 0.547078 0.497881 0.210536
O O7 0.663292 0.444113 0.080076
O O8 0.577735 0.514692 0.904887
O O9 0.436881 0.062366 0.116646
O O10 0.316560 0.127000 0.184323
O O11 0.336836 0.088645 0.897306
O O12 0.403845 0.187042 0.982727
O O13 0.378926 0.301423 0.787611
O O14 0.244450 0.349606 0.790717
O O15 0.637351 0.693867 0.920304
O O16 0.727061 0.355583 0.906820
O O17 0.737964 0.750000 0.750000
#
# Coordination Sequence:
#
# PCOD8215207 Si02
#       8
#     8   8   8   8   8   8   8   8
#     4  11  18  34  64  89 114 144 195 249 298 346
#     4  10  21  38  61  80 117 154 209 239 282 355
#     4  11  20  34  62  86 115 149 194 248 302 346
#     4  11  22  37  56  86 123 156 198 239 291 359
#     4  10  18  36  61  85 110 149 196 238 287 361
#     4  10  19  36  62  90 103 152 201 249 289 338
#     4  10  23  37  59  84 117 162 195 236 292 358
#     4   9  18  36  60  83 113 147 191 235 289 356
#
# _framework density 20.356386000000001
#
# number of rings (size 3 to 8) (size 9 to 14) (size 15 to 20)
#    0.000    1.750    3.750    1.875    0.000    3.500 
#    0.000    3.750    5.500    0.000    0.000    0.000 
#    0.000    0.000    0.000    0.000    0.000    0.000 
#
# Total GULP energy -792887.317847 kJ/mol
# GULP energy per Si atom -12388.864341 kJ/mol
# Density = 2.031005 g / cm^3
# Si number density = 20.356386 Si / 1000 Ang^3
#
#
#
# Elastic Constant Matrix: (Units=GPa)
#
#
# Indices 1 2 3 4 5 6 
#
# 1 117.1414 21.7506 37.4911 0.0000 0.0000 0.0000
# 2 21.7506 57.8734 5.3816 0.0000 0.0000 0.0000
# 3 37.4911 5.3816 97.2524 0.0000 0.0000 0.0000
# 4 0.0000 0.0000 0.0000 28.5306 0.0000 0.0000
# 5 0.0000 0.0000 0.0000 0.0000 14.2103 0.0000
# 6 0.0000 0.0000 0.0000 0.0000 0.0000 22.8037
#
#
#
# Elastic Compliance Matrix: (Units=1/GPa)
#
#
# Indices 1 2 3 4 5 6 
#
# 1 0.010421 -0.003561 -0.003820 0.000000 0.000000 0.000000
# 2 -0.003561 0.018585 0.000344 0.000000 0.000000 0.000000
# 3 -0.003820 0.000344 0.011736 0.000000 0.000000 0.000000
# 4 0.000000 0.000000 0.000000 0.035050 0.000000 0.000000
# 5 0.000000 0.000000 0.000000 0.000000 0.070371 0.000000
# 6 0.000000 0.000000 0.000000 0.000000 0.000000 0.043853
#
#
# Mechanical properties :
#
#
# Convention : Reuss Voigt Hill
#
# Bulk Modulus (GPa) = 37.49753 44.61266 41.05509
# Shear Modulus (GPa) = 23.47646 26.95185 25.21415
#
# Velocity S-wave (km/s) = 3.39967 3.64263 3.52324
# Velocity P-wave (km/s) = 5.81987 6.29722 6.06325
#
# Compressibility (1/GPa) = 0.02666843
#
# Stress axis : x y z
#
# Youngs Moduli (GPa) = 95.96431 53.80547 85.20701
#
# Poissons Ratio (x) = 0.19161 0.32550
# Poissons Ratio (y) = 0.34174 -0.02934
# Poissons Ratio (z) = 0.36659 -0.01853
#
# Static dielectric constant tensor:
#      x y z
#    x 3.866410 0.000000 0.000000 
#    y 0.000000 4.288650 0.000000 
#    z 0.000000 0.000000 23.158040 
# 
# 
# High freq. dielectric constant tensor:
#      x y z
#    x 1.788860 0.000000 0.000000 
#    y 0.000000 1.797130 0.000000 
#    z 0.000000 0.000000 1.786460 
# 
# From -- ./inp_files/12607.got.cif
#   From: 2010.06.25/outbox.cif.g09.slc.cpg/sg52_7_cif.got.tgz:12607.got - 2010.06.26 19:32:48.
