data_PCOD8215778
_publ_section_title
;
Structure prediction by ZEFSAII (Michael W. Deem and Ramdas Pophale) SiO2 
 PCOD8215778
Probable space group: P N N A
;
_chemical_formula_sum "Si O2"
_cell_formula_units_Z 64
_cell_length_a 9.859936
_cell_length_b 13.893976
_cell_length_c 24.113703
_cell_angle_alpha 90.000000
_cell_angle_beta 90.000000
_cell_angle_gamma 90.000000
_cell_volume 3303.425736
_symmetry_space_group_name_H-M "P N N A"
_symmetry_group_IT_number 52
_symmetry_cell_setting 'orthorhombic'
loop_
_space_group_symop_operation_xyz
x,y,z
1/2-x,-y,z
x,1/2-y,1/2-z
1/2-x,1/2+y,1/2-z
-x,-y,-z
1/2+x,y,-z
-x,1/2+y,1/2+z
1/2+x,1/2-y,1/2+z
loop_
_atom_site_type_symbol
_atom_site_label
_atom_site_fract_x
_atom_site_fract_y
_atom_site_fract_z
Si Si1 0.688984 0.202346 0.885404
Si Si2 0.892887 0.536423 0.287392
Si Si3 0.231600 0.890438 0.338884
Si Si4 0.333747 0.675275 0.621868
Si Si5 0.942277 0.394934 0.432335
Si Si6 0.557223 0.178752 0.300492
Si Si7 0.557472 0.602479 0.559861
Si Si8 0.651617 0.413622 0.720591
O O1 0.712631 0.317347 0.885727
O O2 0.556907 0.184905 0.922817
O O3 0.813204 0.139276 0.907244
O O4 0.666404 0.174057 0.821463
O O5 0.750000 0.500000 0.307704
O O6 0.927430 0.611710 0.336126
O O7 0.872781 0.586823 0.227687
O O8 0.997840 0.449791 0.283016
O O9 0.314694 0.877671 0.282002
O O10 0.076387 0.860476 0.330368
O O11 0.250000 0.000000 0.360627
O O12 0.185530 0.634045 0.606607
O O13 0.335715 0.778451 0.653777
O O14 0.429096 0.675340 0.566985
O O15 0.896581 0.399718 0.495995
O O16 0.007544 0.498182 0.416804
O O17 0.517130 0.250000 0.250000
O O18 0.750000 0.500000 0.703159
#
# Coordination Sequence:
#
# PCOD8215778 Si02
#       8
#     8   8   8   8   8   8   8   8
#     4  12  22  36  61  88 116 156 200 245 298 349
#     4  11  21  34  55  85 123 158 191 234 290 355
#     4  11  22  38  59  85 115 153 204 255 288 346
#     4  11  21  37  58  82 123 164 192 231 292 373
#     4  11  24  38  57  93 121 152 197 243 295 362
#     4  10  20  37  57  83 116 163 198 231 299 360
#     4  11  22  39  61  85 124 157 189 241 303 362
#     4  11  20  33  57  87 118 151 194 240 287 356
#
# _framework density 19.373828
#
# number of rings (size 3 to 8) (size 9 to 14) (size 15 to 20)
#    0.000    1.000    3.750    6.375    0.000    3.000 
#    0.000    2.500    0.000    0.750    0.000    0.000 
#    0.000    0.000    0.000    0.000    0.000    0.000 
#
# Total GULP energy -793132.533323 kJ/mol
# GULP energy per Si atom -12392.695833 kJ/mol
# Density = 1.932973 g / cm^3
# Si number density = 19.373828 Si / 1000 Ang^3
#
#
#
# Elastic Constant Matrix: (Units=GPa)
#
#
# Indices 1 2 3 4 5 6 
#
# 1 122.6893 39.5219 34.5933 0.0000 0.0000 0.0000
# 2 39.5219 98.2314 45.5097 0.0000 0.0000 0.0000
# 3 34.5933 45.5097 61.9131 0.0000 0.0000 0.0000
# 4 0.0000 0.0000 0.0000 77.1591 0.0000 0.0000
# 5 0.0000 0.0000 0.0000 0.0000 30.2589 0.0000
# 6 0.0000 0.0000 0.0000 0.0000 0.0000 25.0942
#
#
#
# Elastic Compliance Matrix: (Units=1/GPa)
#
#
# Indices 1 2 3 4 5 6 
#
# 1 0.009971 -0.002169 -0.003976 0.000000 0.000000 0.000000
# 2 -0.002169 0.015909 -0.010482 0.000000 0.000000 0.000000
# 3 -0.003976 -0.010482 0.026078 0.000000 0.000000 0.000000
# 4 0.000000 0.000000 0.000000 0.012960 0.000000 0.000000
# 5 0.000000 0.000000 0.000000 0.000000 0.033048 0.000000
# 6 0.000000 0.000000 0.000000 0.000000 0.000000 0.039850
#
#
# Mechanical properties :
#
#
# Convention : Reuss Voigt Hill
#
# Bulk Modulus (GPa) = 53.46859 58.00930 55.73894
# Shear Modulus (GPa) = 28.19986 37.38304 32.79145
#
# Velocity S-wave (km/s) = 3.81933 4.39745 4.11854
# Velocity P-wave (km/s) = 6.86352 7.46930 7.17281
#
# Compressibility (1/GPa) = 0.01870257
#
# Stress axis : x y z
#
# Youngs Moduli (GPa) = 100.29429 62.85736 38.34602
#
# Poissons Ratio (x) = 0.13636 0.15248
# Poissons Ratio (y) = 0.21757 0.40194
# Poissons Ratio (z) = 0.39881 0.65887
#
# Static dielectric constant tensor:
#      x y z
#    x -2.265080 0.000000 0.000000 
#    y 0.000000 2.496400 0.000000 
#    z 0.000000 0.000000 3.483500 
# 
# 
# High freq. dielectric constant tensor:
#      x y z
#    x 1.757620 0.000000 0.000000 
#    y 0.000000 1.735260 0.000000 
#    z 0.000000 0.000000 1.741390 
# 
# From -- ./inp_files/39690.got.cif
#   From: 2010.06.25/outbox.cif.g09.slc.cpg/sg52_20_cif.got.tgz:39690.got - 2010.06.26 19:32:48.
