data_PCOD8215948
_publ_section_title
;
Structure prediction by ZEFSAII (Michael W. Deem and Ramdas Pophale) SiO2 
 PCOD8215948
Probable space group: P N N A
;
_chemical_formula_sum "Si O2"
_cell_formula_units_Z 32
_cell_length_a 13.615852
_cell_length_b 21.272256
_cell_length_c 4.885187
_cell_angle_alpha 90.000000
_cell_angle_beta 90.000000
_cell_angle_gamma 90.000000
_cell_volume 1414.945022
_symmetry_space_group_name_H-M "P N N A"
_symmetry_group_IT_number 52
_symmetry_cell_setting 'orthorhombic'
loop_
_space_group_symop_operation_xyz
x,y,z
1/2-x,-y,z
x,1/2-y,1/2-z
1/2-x,1/2+y,1/2-z
-x,-y,-z
1/2+x,y,-z
-x,1/2+y,1/2+z
1/2+x,1/2-y,1/2+z
loop_
_atom_site_type_symbol
_atom_site_label
_atom_site_fract_x
_atom_site_fract_y
_atom_site_fract_z
Si Si1 0.707889 0.320946 0.346130
Si Si2 0.099851 0.984714 0.336348
Si Si3 0.890550 0.622788 0.839607
Si Si4 0.891903 0.097666 0.198576
O O1 0.713105 0.250000 0.250000
O O2 0.660857 0.326177 0.645766
O O3 0.818310 0.346637 0.373809
O O4 0.638030 0.361508 0.149534
O O5 0.159909 0.942364 0.554985
O O6 0.149473 0.052007 0.267233
O O7 0.082503 0.946700 0.058113
O O8 0.000000 0.000000 0.500000
O O9 0.007723 0.628437 0.808852
#
# Coordination Sequence:
#
# PCOD8215948 Si02
#       4
#     8   8   8   8
#     4  12  27  42  61  92 126 173 226 251 297 383
#     4  10  20  39  68  99 125 156 204 259 330 394
#     4  11  23  43  66  92 127 162 205 267 320 369
#     4  11  23  42  66  95 130 163 202 266 325 373
#
# _framework density 22.61572
#
# number of rings (size 3 to 8) (size 9 to 14) (size 15 to 20)
#    0.000    1.000    0.000    9.750    0.000    8.000 
#    0.000    0.000    0.000    0.000    0.000    0.000 
#    0.000    0.000    0.000    0.000    0.000    0.000 
#
# Total GULP energy -396803.718745 kJ/mol
# GULP energy per Si atom -12400.116211 kJ/mol
# Density = 2.256425 g / cm^3
# Si number density = 22.615720 Si / 1000 Ang^3
#
#
#
# Elastic Constant Matrix: (Units=GPa)
#
#
# Indices 1 2 3 4 5 6 
#
# 1 92.3050 32.9199 16.0188 0.0000 0.0000 0.0000
# 2 32.9199 111.2886 -0.4142 0.0000 0.0000 0.0000
# 3 16.0188 -0.4142 84.4441 0.0000 0.0000 0.0000
# 4 0.0000 0.0000 0.0000 40.2074 0.0000 0.0000
# 5 0.0000 0.0000 0.0000 0.0000 25.0071 0.0000
# 6 0.0000 0.0000 0.0000 0.0000 0.0000 22.5521
#
#
#
# Elastic Compliance Matrix: (Units=1/GPa)
#
#
# Indices 1 2 3 4 5 6 
#
# 1 0.012582 -0.003731 -0.002405 0.000000 0.000000 0.000000
# 2 -0.003731 0.010092 0.000757 0.000000 0.000000 0.000000
# 3 -0.002405 0.000757 0.012302 0.000000 0.000000 0.000000
# 4 0.000000 0.000000 0.000000 0.024871 0.000000 0.000000
# 5 0.000000 0.000000 0.000000 0.000000 0.039989 0.000000
# 6 0.000000 0.000000 0.000000 0.000000 0.000000 0.044342
#
#
# Mechanical properties :
#
#
# Convention : Reuss Voigt Hill
#
# Bulk Modulus (GPa) = 41.29029 42.78740 42.03885
# Shear Modulus (GPa) = 30.67357 33.52088 32.09722
#
# Velocity S-wave (km/s) = 3.68679 3.85410 3.77137
# Velocity P-wave (km/s) = 6.03491 6.22622 6.13131
#
# Compressibility (1/GPa) = 0.02421877
#
# Stress axis : x y z
#
# Youngs Moduli (GPa) = 79.48166 99.08824 81.28699
#
# Poissons Ratio (x) = 0.36966 0.19549
# Poissons Ratio (y) = 0.29652 -0.06155
# Poissons Ratio (z) = 0.19115 -0.07503
#
# Static dielectric constant tensor:
#      x y z
#    x 3.826280 0.000000 0.000000 
#    y 0.000000 4.280920 0.000000 
#    z 0.000000 0.000000 4.385030 
# 
# 
# High freq. dielectric constant tensor:
#      x y z
#    x 1.885630 0.000000 0.000000 
#    y 0.000000 1.884930 0.000000 
#    z 0.000000 0.000000 1.912110 
# 
# From -- ./inp_files/2013.got.cif
#   From: 2010.06.25/outbox.cif.g09.slc.cpg/sg52_2_cif.got.tgz:2013.got - 2010.06.26 19:32:48.
