data_PCOD8215773
_publ_section_title
;
Structure prediction by ZEFSAII (Michael W. Deem and Ramdas Pophale) SiO2 
 PCOD8215773
Probable space group: P N N A
;
_chemical_formula_sum "Si O2"
_cell_formula_units_Z 48
_cell_length_a 9.087805
_cell_length_b 14.464696
_cell_length_c 17.202879
_cell_angle_alpha 90.000000
_cell_angle_beta 90.000000
_cell_angle_gamma 90.000000
_cell_volume 2261.358641
_symmetry_space_group_name_H-M "P N N A"
_symmetry_group_IT_number 52
_symmetry_cell_setting 'orthorhombic'
loop_
_space_group_symop_operation_xyz
x,y,z
1/2-x,-y,z
x,1/2-y,1/2-z
1/2-x,1/2+y,1/2-z
-x,-y,-z
1/2+x,y,-z
-x,1/2+y,1/2+z
1/2+x,1/2-y,1/2+z
loop_
_atom_site_type_symbol
_atom_site_label
_atom_site_fract_x
_atom_site_fract_y
_atom_site_fract_z
Si Si1 0.327458 0.811071 0.550487
Si Si2 0.413909 0.750000 0.250000
Si Si3 0.501146 0.163031 0.593245
Si Si4 0.884138 0.825975 0.181620
Si Si5 0.185060 0.904633 0.224800
Si Si6 0.005146 0.533924 0.139014
Si Si7 0.250000 0.500000 0.745148
O O1 0.157590 0.839444 0.552238
O O2 0.380441 0.787221 0.463078
O O3 0.349435 0.718746 0.599614
O O4 0.426249 0.894897 0.582322
O O5 0.511363 0.785929 0.322929
O O6 0.314002 0.831588 0.217863
O O7 0.561878 0.057629 0.596090
O O8 0.878065 0.750000 0.250000
O O9 0.762308 0.906054 0.194739
O O10 0.045591 0.871059 0.175226
O O11 0.137759 0.915375 0.315647
O O12 0.250000 0.000000 0.190844
O O13 0.894315 0.491884 0.202856
#
# Coordination Sequence:
#
# PCOD8215773 Si02
#       7
#     8   4   8   8   8   8   4
#     4  12  26  43  68 103 145 185 225 301 365 423
#     4  12  26  44  68  98 138 186 238 278 348 428
#     4  12  28  41  71 102 146 180 238 291 359 428
#     4  11  21  39  71  95 144 187 240 279 354 419
#     4  11  22  38  69 103 135 185 234 285 340 421
#     4  11  20  41  66 102 142 179 227 284 364 424
#     4  10  20  36  68 104 126 184 242 282 332 430
#
# _framework density 21.226177
#
# number of rings (size 3 to 8) (size 9 to 14) (size 15 to 20)
#    0.000    0.667    7.500    0.500    8.167    0.000 
#    0.000    0.000    1.833    2.000    0.000    0.000 
#    0.000    0.000    0.000    0.000    0.000    0.000 
#
# Total GULP energy -595247.462608 kJ/mol
# GULP energy per Si atom -12400.988804 kJ/mol
# Density = 2.117787 g / cm^3
# Si number density = 21.226177 Si / 1000 Ang^3
#
#
#
# Elastic Constant Matrix: (Units=GPa)
#
#
# Indices 1 2 3 4 5 6 
#
# 1 46.3763 13.3795 8.3487 0.0000 0.0000 0.0000
# 2 13.3795 125.8878 26.3203 0.0000 0.0000 0.0000
# 3 8.3487 26.3203 87.8530 0.0000 0.0000 0.0000
# 4 0.0000 0.0000 0.0000 28.4671 0.0000 0.0000
# 5 0.0000 0.0000 0.0000 0.0000 39.2897 0.0000
# 6 0.0000 0.0000 0.0000 0.0000 0.0000 42.5496
#
#
#
# Elastic Compliance Matrix: (Units=1/GPa)
#
#
# Indices 1 2 3 4 5 6 
#
# 1 0.022432 -0.002068 -0.001512 0.000000 0.000000 0.000000
# 2 -0.002068 0.008665 -0.002399 0.000000 0.000000 0.000000
# 3 -0.001512 -0.002399 0.012245 0.000000 0.000000 0.000000
# 4 0.000000 0.000000 0.000000 0.035128 0.000000 0.000000
# 5 0.000000 0.000000 0.000000 0.000000 0.025452 0.000000
# 6 0.000000 0.000000 0.000000 0.000000 0.000000 0.023502
#
#
# Mechanical properties :
#
#
# Convention : Reuss Voigt Hill
#
# Bulk Modulus (GPa) = 31.86464 39.57933 35.72198
# Shear Modulus (GPa) = 33.36804 36.19919 34.78362
#
# Velocity S-wave (km/s) = 3.96918 4.13413 4.05249
# Velocity P-wave (km/s) = 6.00419 6.44011 6.22597
#
# Compressibility (1/GPa) = 0.03138275
#
# Stress axis : x y z
#
# Youngs Moduli (GPa) = 44.58010 115.40635 81.66447
#
# Poissons Ratio (x) = 0.23865 0.12349
# Poissons Ratio (y) = 0.09219 0.19595
# Poissons Ratio (z) = 0.06741 0.27692
#
# Static dielectric constant tensor:
#      x y z
#    x 3.952180 0.000000 0.000000 
#    y 0.000000 4.033370 0.000000 
#    z 0.000000 0.000000 3.665530 
# 
# 
# High freq. dielectric constant tensor:
#      x y z
#    x 1.843210 0.000000 0.000000 
#    y 0.000000 1.839990 0.000000 
#    z 0.000000 0.000000 1.799740 
# 
# From -- ./inp_files/31293.got.cif
#   From: 2010.06.25/outbox.cif.g09.slc.cpg/sg52_16_cif.got.tgz:31293.got - 2010.06.26 19:32:48.
