data_PCOD8215930
_publ_section_title
;
Structure prediction by ZEFSAII (Michael W. Deem and Ramdas Pophale) SiO2 
 PCOD8215930
Probable space group: P N N A
;
_chemical_formula_sum "Si O2"
_cell_formula_units_Z 64
_cell_length_a 21.303470
_cell_length_b 11.738284
_cell_length_c 12.940410
_cell_angle_alpha 90.000000
_cell_angle_beta 90.000000
_cell_angle_gamma 90.000000
_cell_volume 3235.958910
_symmetry_space_group_name_H-M "P N N A"
_symmetry_group_IT_number 52
_symmetry_cell_setting 'orthorhombic'
loop_
_space_group_symop_operation_xyz
x,y,z
1/2-x,-y,z
x,1/2-y,1/2-z
1/2-x,1/2+y,1/2-z
-x,-y,-z
1/2+x,y,-z
-x,1/2+y,1/2+z
1/2+x,1/2-y,1/2+z
loop_
_atom_site_type_symbol
_atom_site_label
_atom_site_fract_x
_atom_site_fract_y
_atom_site_fract_z
Si Si1 0.421732 0.381713 0.523979
Si Si2 0.702291 0.592791 0.351506
Si Si3 0.946017 0.572791 0.628157
Si Si4 0.441829 0.371712 0.979986
Si Si5 0.832354 0.480028 0.122840
Si Si6 0.659310 0.262785 0.866643
Si Si7 0.057813 0.060963 0.365538
Si Si8 0.761365 0.813593 0.442993
O O1 0.365118 0.423325 0.595593
O O2 0.488616 0.392080 0.578055
O O3 0.420747 0.454682 0.419242
O O4 0.409811 0.249384 0.499192
O O5 0.750000 0.500000 0.398349
O O6 0.691409 0.569710 0.231117
O O7 0.734188 0.715501 0.368558
O O8 0.892975 0.667569 0.610115
O O9 0.961767 0.555195 0.747182
O O10 0.404739 0.452531 0.898198
O O11 0.510172 0.357823 0.929029
O O12 0.444495 0.433496 0.090356
O O13 0.818745 0.615916 0.112449
O O14 0.793254 0.406956 0.036991
O O15 0.686325 0.250000 0.750000
O O16 0.627082 0.386505 0.877960
O O17 0.715888 0.257193 0.949018
#
# Coordination Sequence:
#
# PCOD8215930 Si02
#       8
#     8   8   8   8   8   8   8   8
#     4  11  23  38  62  86 125 160 199 251 304 369
#     4  12  24  38  59  90 124 164 203 244 305 362
#     4  10  22  41  58  90 120 159 197 251 311 363
#     4  11  21  38  63  93 115 158 204 252 299 369
#     4  11  23  37  62  87 122 163 200 250 300 359
#     4  10  20  39  64  84 114 159 204 252 302 359
#     4  10  21  37  64  89 118 152 205 249 305 364
#     4  11  22  39  58  85 122 156 201 251 296 359
#
# _framework density 19.777754999999999
#
# number of rings (size 3 to 8) (size 9 to 14) (size 15 to 20)
#    0.000    1.250    5.000    1.875    0.000    1.500 
#    0.000    1.250    2.750    0.000    0.000    0.000 
#    0.000    0.000    0.000    0.000    0.000    0.000 
#
# Total GULP energy -793405.516646 kJ/mol
# GULP energy per Si atom -12396.961198 kJ/mol
# Density = 1.973274 g / cm^3
# Si number density = 19.777755 Si / 1000 Ang^3
#
#
#
# Elastic Constant Matrix: (Units=GPa)
#
#
# Indices 1 2 3 4 5 6 
#
# 1 51.0721 16.7958 15.8094 0.0000 0.0000 0.0000
# 2 16.7958 97.3236 39.1781 0.0000 0.0000 0.0000
# 3 15.8094 39.1781 102.3465 0.0000 0.0000 0.0000
# 4 0.0000 0.0000 0.0000 22.3218 0.0000 0.0000
# 5 0.0000 0.0000 0.0000 0.0000 30.2273 0.0000
# 6 0.0000 0.0000 0.0000 0.0000 0.0000 32.0668
#
#
#
# Elastic Compliance Matrix: (Units=1/GPa)
#
#
# Indices 1 2 3 4 5 6 
#
# 1 0.021174 -0.002763 -0.002213 0.000000 0.000000 0.000000
# 2 -0.002763 0.012507 -0.004361 0.000000 0.000000 0.000000
# 3 -0.002213 -0.004361 0.011782 0.000000 0.000000 0.000000
# 4 0.000000 0.000000 0.000000 0.044799 0.000000 0.000000
# 5 0.000000 0.000000 0.000000 0.000000 0.033083 0.000000
# 6 0.000000 0.000000 0.000000 0.000000 0.000000 0.031185
#
#
# Mechanical properties :
#
#
# Convention : Reuss Voigt Hill
#
# Bulk Modulus (GPa) = 37.32896 43.81209 40.57052
# Shear Modulus (GPa) = 27.45228 28.85376 28.15302
#
# Velocity S-wave (km/s) = 3.72968 3.82370 3.77698
# Velocity P-wave (km/s) = 6.12067 6.45713 6.29115
#
# Compressibility (1/GPa) = 0.02678885
#
# Stress axis : x y z
#
# Youngs Moduli (GPa) = 47.22786 79.95251 84.87565
#
# Poissons Ratio (x) = 0.22093 0.18782
# Poissons Ratio (y) = 0.13051 0.37014
# Poissons Ratio (z) = 0.10451 0.34867
#
# Static dielectric constant tensor:
#      x y z
#    x 3.639010 0.000000 0.000000 
#    y 0.000000 3.725980 0.000000 
#    z 0.000000 0.000000 3.470100 
# 
# 
# High freq. dielectric constant tensor:
#      x y z
#    x 1.772680 0.000000 0.000000 
#    y 0.000000 1.777150 0.000000 
#    z 0.000000 0.000000 1.757930 
# 
# From -- ./inp_files/22499.got.cif
#   From: 2010.06.25/outbox.cif.g09.slc.cpg/sg52_12_cif.got.tgz:22499.got - 2010.06.26 19:32:48.
