data_PCOD8215933
_publ_section_title
;
Structure prediction by ZEFSAII (Michael W. Deem and Ramdas Pophale) SiO2 
 PCOD8215933
Probable space group: P N N A
;
_chemical_formula_sum "Si O2"
_cell_formula_units_Z 64
_cell_length_a 19.416754
_cell_length_b 9.947327
_cell_length_c 17.067209
_cell_angle_alpha 90.000000
_cell_angle_beta 90.000000
_cell_angle_gamma 90.000000
_cell_volume 3296.442691
_symmetry_space_group_name_H-M "P N N A"
_symmetry_group_IT_number 52
_symmetry_cell_setting 'orthorhombic'
loop_
_space_group_symop_operation_xyz
x,y,z
1/2-x,-y,z
x,1/2-y,1/2-z
1/2-x,1/2+y,1/2-z
-x,-y,-z
1/2+x,y,-z
-x,1/2+y,1/2+z
1/2+x,1/2-y,1/2+z
loop_
_atom_site_type_symbol
_atom_site_label
_atom_site_fract_x
_atom_site_fract_y
_atom_site_fract_z
Si Si1 0.455878 0.632782 0.811675
Si Si2 0.699089 0.120293 0.302677
Si Si3 0.986681 0.842053 0.485604
Si Si4 0.130477 0.272686 0.100027
Si Si5 0.895641 0.462387 0.814582
Si Si6 0.871813 0.253134 0.551105
Si Si7 0.331750 0.009695 0.155047
Si Si8 0.241802 0.347167 0.978230
O O1 0.471828 0.750000 0.750000
O O2 0.380445 0.569500 0.793008
O O3 0.452389 0.685668 0.900993
O O4 0.520645 0.530446 0.805965
O O5 0.713558 0.250000 0.250000
O O6 0.712573 0.165898 0.391259
O O7 0.750000 0.000000 0.277216
O O8 0.939961 0.782603 0.552983
O O9 0.055825 0.755173 0.493067
O O10 0.000000 0.000000 0.500000
O O11 0.134501 0.393533 0.161602
O O12 0.133356 0.135670 0.148266
O O13 0.193233 0.272679 0.039535
O O14 0.871951 0.354047 0.878379
O O15 0.860325 0.420536 0.733458
O O16 0.856816 0.401707 0.582144
O O17 0.816351 0.220296 0.484211
O O18 0.250000 0.000000 0.158042
O O19 0.250000 0.500000 0.004266
#
# Coordination Sequence:
#
# PCOD8215933 Si02
#       8
#     8   8   8   8   8   8   8   8
#     4  10  20  39  64  91 122 161 208 261 312 375
#     4  10  23  41  65  93 122 159 208 260 321 374
#     4  11  20  40  69  94 118 159 216 264 305 368
#     4  12  23  39  63  95 127 163 211 265 314 362
#     4  11  23  40  66  90 125 172 221 253 307 375
#     4  11  23  40  65  92 124 172 218 254 312 378
#     4  12  27  41  57  95 141 172 200 257 323 382
#     4  11  20  38  65  92 120 162 215 261 301 368
#
# _framework density 19.414868999999999
#
# number of rings (size 3 to 8) (size 9 to 14) (size 15 to 20)
#    0.000    1.000    6.250    2.250    3.500    1.500 
#    2.250    2.500    0.000    0.000    0.000    0.000 
#    0.000    0.000    0.000    0.000    0.000    0.000 
#
# Total GULP energy -793627.690600 kJ/mol
# GULP energy per Si atom -12400.432666 kJ/mol
# Density = 1.937068 g / cm^3
# Si number density = 19.414869 Si / 1000 Ang^3
#
#
#
# Elastic Constant Matrix: (Units=GPa)
#
#
# Indices 1 2 3 4 5 6 
#
# 1 139.8180 27.8621 20.2911 0.0000 0.0000 0.0000
# 2 27.8621 74.7424 12.9268 0.0000 0.0000 0.0000
# 3 20.2911 12.9268 62.8686 0.0000 0.0000 0.0000
# 4 0.0000 0.0000 0.0000 -12.7634 0.0000 0.0000
# 5 0.0000 0.0000 0.0000 0.0000 16.2537 0.0000
# 6 0.0000 0.0000 0.0000 0.0000 0.0000 29.1393
#
#
#
# Elastic Compliance Matrix: (Units=1/GPa)
#
#
# Indices 1 2 3 4 5 6 
#
# 1 0.007969 -0.002619 -0.002034 0.000000 0.000000 0.000000
# 2 -0.002619 0.014733 -0.002184 0.000000 0.000000 0.000000
# 3 -0.002034 -0.002184 0.017012 0.000000 0.000000 0.000000
# 4 0.000000 0.000000 0.000000 -0.078349 0.000000 0.000000
# 5 0.000000 0.000000 0.000000 0.000000 0.061525 0.000000
# 6 0.000000 0.000000 0.000000 0.000000 0.000000 0.034318
#
#
# Mechanical properties :
#
#
# Convention : Reuss Voigt Hill
#
# Bulk Modulus (GPa) = 38.40135 44.39876 41.40005
# Shear Modulus (GPa) = 62.84481 20.94919 41.89700
#
# Velocity S-wave (km/s) = 5.69559 3.28842 4.65045
# Velocity P-wave (km/s) = 7.94199 6.11035 7.08560
#
# Compressibility (1/GPa) = 0.02604075
#
# Stress axis : x y z
#
# Youngs Moduli (GPa) = 125.48350 67.87328 58.78332
#
# Poissons Ratio (x) = 0.17776 0.11954
# Poissons Ratio (y) = 0.32864 0.12839
# Poissons Ratio (z) = 0.25518 0.14824
#
# Static dielectric constant tensor:
#      x y z
#    x 4.071590 0.000000 0.000000 
#    y 0.000000 3.318140 0.000000 
#    z 0.000000 0.000000 3.608040 
# 
# 
# High freq. dielectric constant tensor:
#      x y z
#    x 1.775250 0.000000 0.000000 
#    y 0.000000 1.734790 0.000000 
#    z 0.000000 0.000000 1.758320 
# 
# From -- ./inp_files/34117.got.cif
#   From: 2010.06.25/outbox.cif.g09.slc.cpg/sg52_18_cif.got.tgz:34117.got - 2010.06.26 19:32:48.
