data_PCOD8215965
_publ_section_title
;
Structure prediction by ZEFSAII (Michael W. Deem and Ramdas Pophale) SiO2 
 PCOD8215965
Probable space group: P N N A
;
_chemical_formula_sum "Si O2"
_cell_formula_units_Z 28
_cell_length_a 21.429356
_cell_length_b 7.231065
_cell_length_c 7.922495
_cell_angle_alpha 90.000000
_cell_angle_beta 90.000000
_cell_angle_gamma 90.000000
_cell_volume 1227.646582
_symmetry_space_group_name_H-M "P N N A"
_symmetry_group_IT_number 52
_symmetry_cell_setting 'orthorhombic'
loop_
_space_group_symop_operation_xyz
x,y,z
1/2-x,-y,z
x,1/2-y,1/2-z
1/2-x,1/2+y,1/2-z
-x,-y,-z
1/2+x,y,-z
-x,1/2+y,1/2+z
1/2+x,1/2-y,1/2+z
loop_
_atom_site_type_symbol
_atom_site_label
_atom_site_fract_x
_atom_site_fract_y
_atom_site_fract_z
Si Si1 0.622356 0.926074 0.087872
Si Si2 0.178194 0.953317 0.574722
Si Si3 0.594656 0.970562 0.732724
Si Si4 0.489984 0.250000 0.750000
O O1 0.641808 0.036653 0.258647
O O2 0.674972 0.768684 0.069912
O O3 0.554988 0.822710 0.100717
O O4 0.619247 0.046937 0.916435
O O5 0.145380 0.029674 0.406081
O O6 0.250000 0.000000 0.577471
O O7 0.583928 0.750000 0.750000
O O8 0.531171 0.077275 0.685332
#
# Coordination Sequence:
#
# PCOD8215965 Si02
#       4
#     8   8   8   4
#     4   9  21  39  61  84 126 156 194 265 290 348
#     4   9  19  38  57  83 118 160 205 241 300 359
#     4  10  21  39  61  89 121 159 191 254 303 348
#     4  10  20  40  62  96 120 152 212 232 306 380
#
# _framework density 22.807866000000001
#
# number of rings (size 3 to 8) (size 9 to 14) (size 15 to 20)
#    0.000    2.857    0.000    0.857    0.000   11.429 
#   18.000    0.000    6.286    0.000    0.000    0.000 
#    0.000    0.000    0.000    0.000    0.000    0.000 
#
# Total GULP energy -346865.622471 kJ/mol
# GULP energy per Si atom -12388.057945 kJ/mol
# Density = 2.275595 g / cm^3
# Si number density = 22.807866 Si / 1000 Ang^3
#
#
#
# Elastic Constant Matrix: (Units=GPa)
#
#
# Indices 1 2 3 4 5 6 
#
# 1 187.0190 47.6670 88.1989 0.0000 0.0000 0.0000
# 2 47.6670 54.3874 14.2284 0.0000 0.0000 0.0000
# 3 88.1989 14.2284 231.6245 0.0000 0.0000 0.0000
# 4 0.0000 0.0000 0.0000 -0.1461 0.0000 0.0000
# 5 0.0000 0.0000 0.0000 0.0000 13.3060 0.0000
# 6 0.0000 0.0000 0.0000 0.0000 0.0000 20.5483
#
#
#
# Elastic Compliance Matrix: (Units=1/GPa)
#
#
# Indices 1 2 3 4 5 6 
#
# 1 0.008328 -0.006575 -0.002767 0.000000 0.000000 0.000000
# 2 -0.006575 0.023878 0.001037 0.000000 0.000000 0.000000
# 3 -0.002767 0.001037 0.005307 0.000000 0.000000 0.000000
# 4 0.000000 0.000000 0.000000 -6.845544 0.000000 0.000000
# 5 0.000000 0.000000 0.000000 0.000000 0.075154 0.000000
# 6 0.000000 0.000000 0.000000 0.000000 0.000000 0.048666
#
#
# Mechanical properties :
#
#
# Convention : Reuss Voigt Hill
#
# Bulk Modulus (GPa) = 47.84123 85.91328 66.87725
# Shear Modulus (GPa) = -0.75068 28.27075 13.76003
#
# Velocity S-wave (km/s) = -0.57432 3.52450 2.45889
# Velocity P-wave (km/s) = 4.53668 7.36972 6.11941
#
# Compressibility (1/GPa) = 0.02090247
#
# Stress axis : x y z
#
# Youngs Moduli (GPa) = 120.07842 41.87981 188.41750
#
# Poissons Ratio (x) = 0.27536 0.52140
# Poissons Ratio (y) = 0.78950 -0.19536
# Poissons Ratio (z) = 0.33229 -0.04342
#
# Static dielectric constant tensor:
#      x y z
#    x 3.860430 0.000000 0.000000 
#    y 0.000000 3.873230 0.000000 
#    z 0.000000 0.000000 4.818090 
# 
# 
# High freq. dielectric constant tensor:
#      x y z
#    x 1.887210 0.000000 0.000000 
#    y 0.000000 1.861800 0.000000 
#    z 0.000000 0.000000 1.923790 
# 
# From -- ./inp_files/11354.got.cif
#   From: 2010.06.25/outbox.cif.g09.slc.cpg/sg52_6_cif.got.tgz:11354.got - 2010.06.26 19:32:48.
