data_PCOD8215941
_publ_section_title
;
Structure prediction by ZEFSAII (Michael W. Deem and Ramdas Pophale) SiO2 
 PCOD8215941
Probable space group: P N N A
;
_chemical_formula_sum "Si O2"
_cell_formula_units_Z 40
_cell_length_a 14.052519
_cell_length_b 14.263803
_cell_length_c 9.663875
_cell_angle_alpha 90.000000
_cell_angle_beta 90.000000
_cell_angle_gamma 90.000000
_cell_volume 1937.049938
_symmetry_space_group_name_H-M "P N N A"
_symmetry_group_IT_number 52
_symmetry_cell_setting 'orthorhombic'
loop_
_space_group_symop_operation_xyz
x,y,z
1/2-x,-y,z
x,1/2-y,1/2-z
1/2-x,1/2+y,1/2-z
-x,-y,-z
1/2+x,y,-z
-x,1/2+y,1/2+z
1/2+x,1/2-y,1/2+z
loop_
_atom_site_type_symbol
_atom_site_label
_atom_site_fract_x
_atom_site_fract_y
_atom_site_fract_z
Si Si1 0.681379 0.409557 0.738997
Si Si2 0.953998 0.813844 0.365089
Si Si3 0.095353 0.697136 0.886368
Si Si4 0.518949 0.983522 0.340806
Si Si5 0.215421 0.256154 0.031179
O O1 0.750000 0.500000 0.727053
O O2 0.573328 0.445613 0.757055
O O3 0.711946 0.345986 0.868520
O O4 0.691201 0.343173 0.603587
O O5 0.005297 0.750000 0.250000
O O6 0.849881 0.773598 0.397687
O O7 0.006083 0.808230 0.511446
O O8 0.949145 0.914635 0.287998
O O9 0.062275 0.750000 0.750000
O O10 0.107888 0.589409 0.832728
O O11 0.180058 0.747275 0.965742
O O12 0.500000 0.000000 0.500000
#
# Coordination Sequence:
#
# PCOD8215941 Si02
#       5
#     8   8   8   8   8
#     4  11  22  40  65  98 133 170 227 275 335 396
#     4  11  24  42  65  98 131 169 224 276 333 395
#     4  11  23  42  65  93 129 174 219 270 334 396
#     4  10  20  39  66  93 122 175 219 266 322 405
#     4  11  24  40  66  94 135 175 218 281 330 404
#
# _framework density 20.649958000000002
#
# number of rings (size 3 to 8) (size 9 to 14) (size 15 to 20)
#    0.000    1.200    4.000    4.200    5.600    0.000 
#    3.600    2.000    0.000    0.000    0.000    0.000 
#    0.000    0.000    0.000    0.000    0.000    0.000 
#
# Total GULP energy -495560.389406 kJ/mol
# GULP energy per Si atom -12389.009735 kJ/mol
# Density = 2.060296 g / cm^3
# Si number density = 20.649958 Si / 1000 Ang^3
#
#
#
# Elastic Constant Matrix: (Units=GPa)
#
#
# Indices 1 2 3 4 5 6 
#
# 1 68.2710 32.9450 24.1118 0.0000 0.0000 0.0000
# 2 32.9450 180.2845 72.0282 0.0000 0.0000 0.0000
# 3 24.1118 72.0282 83.1950 0.0000 0.0000 0.0000
# 4 0.0000 0.0000 0.0000 31.8047 0.0000 0.0000
# 5 0.0000 0.0000 0.0000 0.0000 26.3696 0.0000
# 6 0.0000 0.0000 0.0000 0.0000 0.0000 32.7780
#
#
#
# Elastic Compliance Matrix: (Units=1/GPa)
#
#
# Indices 1 2 3 4 5 6 
#
# 1 0.016653 -0.001704 -0.003351 0.000000 0.000000 0.000000
# 2 -0.001704 0.008654 -0.006999 0.000000 0.000000 0.000000
# 3 -0.003351 -0.006999 0.019051 0.000000 0.000000 0.000000
# 4 0.000000 0.000000 0.000000 0.031442 0.000000 0.000000
# 5 0.000000 0.000000 0.000000 0.000000 0.037923 0.000000
# 6 0.000000 0.000000 0.000000 0.000000 0.000000 0.030508
#
#
# Mechanical properties :
#
#
# Convention : Reuss Voigt Hill
#
# Bulk Modulus (GPa) = 49.38242 65.54675 57.46458
# Shear Modulus (GPa) = 28.55682 31.70149 30.12915
#
# Velocity S-wave (km/s) = 3.72277 3.92239 3.82388
# Velocity P-wave (km/s) = 6.51496 7.23355 6.88364
#
# Compressibility (1/GPa) = 0.02025012
#
# Stress axis : x y z
#
# Youngs Moduli (GPa) = 60.04749 115.54713 52.49197
#
# Poissons Ratio (x) = 0.19695 0.17589
# Poissons Ratio (y) = 0.10235 0.36738
# Poissons Ratio (z) = 0.20121 0.80870
#
# Static dielectric constant tensor:
#      x y z
#    x 3.562750 0.000000 0.000000 
#    y 0.000000 5.147380 0.000000 
#    z 0.000000 0.000000 3.641740 
# 
# 
# High freq. dielectric constant tensor:
#      x y z
#    x 1.793360 0.000000 0.000000 
#    y 0.000000 1.831090 0.000000 
#    z 0.000000 0.000000 1.797500 
# 
# From -- ./inp_files/19244.got.cif
#   From: 2010.06.25/outbox.cif.g09.slc.cpg/sg52_10_cif.got.tgz:19244.got - 2010.06.26 19:32:48.
