data_PCOD8215399
_publ_section_title
;
Structure prediction by ZEFSAII (Michael W. Deem and Ramdas Pophale) SiO2 
 PCOD8215399
Probable space group: P N N A
;
_chemical_formula_sum "Si O2"
_cell_formula_units_Z 56
_cell_length_a 10.169506
_cell_length_b 22.386005
_cell_length_c 12.962877
_cell_angle_alpha 90.000000
_cell_angle_beta 90.000000
_cell_angle_gamma 90.000000
_cell_volume 2951.058736
_symmetry_space_group_name_H-M "P N N A"
_symmetry_group_IT_number 52
_symmetry_cell_setting 'orthorhombic'
loop_
_space_group_symop_operation_xyz
x,y,z
1/2-x,-y,z
x,1/2-y,1/2-z
1/2-x,1/2+y,1/2-z
-x,-y,-z
1/2+x,y,-z
-x,1/2+y,1/2+z
1/2+x,1/2-y,1/2+z
loop_
_atom_site_type_symbol
_atom_site_label
_atom_site_fract_x
_atom_site_fract_y
_atom_site_fract_z
Si Si1 0.125571 0.540830 0.505322
Si Si2 0.723140 0.731209 0.581037
Si Si3 0.479800 0.113898 0.813482
Si Si4 0.276603 0.112138 0.183373
Si Si5 0.484187 0.268199 0.582477
Si Si6 0.978965 0.131557 0.411891
Si Si7 0.716278 0.631992 0.908891
O O1 0.250000 0.500000 0.523096
O O2 0.118547 0.584024 0.605012
O O3 0.132047 0.578048 0.398394
O O4 0.000000 0.500000 0.500000
O O5 0.713324 0.684337 0.674924
O O6 0.620083 0.706945 0.498580
O O7 0.688545 0.798354 0.614678
O O8 0.869830 0.729406 0.532866
O O9 0.627270 0.091146 0.838383
O O10 0.476016 0.186437 0.821167
O O11 0.444391 0.097199 0.694866
O O12 0.314978 0.096866 0.302110
O O13 0.449448 0.200776 0.612874
O O14 0.882751 0.108039 0.502579
O O15 0.131904 0.121409 0.442965
#
# Coordination Sequence:
#
# PCOD8215399 Si02
#       7
#     8   8   8   8   8   8   8
#     4  12  24  40  58  82 104 139 189 232 275 316
#     4   9  16  28  50  79 110 144 178 210 260 329
#     4  10  19  35  57  77 108 146 179 224 273 318
#     4  10  19  35  57  77 108 147 179 223 275 318
#     4   9  16  28  50  79 110 144 176 210 262 329
#     4   9  18  33  53  81 113 144 178 212 262 330
#     4   9  18  33  53  81 113 145 178 212 262 330
#
# _framework density 18.976241000000002
#
# number of rings (size 3 to 8) (size 9 to 14) (size 15 to 20)
#    0.000    2.286    2.857    0.857    0.000    3.429 
#    2.571    0.000    0.000    8.571    0.000    0.000 
#    0.000    0.000    0.000    0.000    0.000    0.000 
#
# Total GULP energy -693936.523016 kJ/mol
# GULP energy per Si atom -12391.723625 kJ/mol
# Density = 1.893305 g / cm^3
# Si number density = 18.976241 Si / 1000 Ang^3
#
#
#
# Elastic Constant Matrix: (Units=GPa)
#
#
# Indices 1 2 3 4 5 6 
#
# 1 94.0091 22.4005 69.0060 0.0000 0.0000 0.0000
# 2 22.4005 40.3887 30.5588 0.0000 0.0000 0.0000
# 3 69.0060 30.5588 149.9422 0.0000 0.0000 0.0000
# 4 0.0000 0.0000 0.0000 16.4430 0.0000 0.0000
# 5 0.0000 0.0000 0.0000 0.0000 33.5747 0.0000
# 6 0.0000 0.0000 0.0000 0.0000 0.0000 17.0893
#
#
#
# Elastic Compliance Matrix: (Units=1/GPa)
#
#
# Indices 1 2 3 4 5 6 
#
# 1 0.016607 -0.004053 -0.006817 0.000000 0.000000 0.000000
# 2 -0.004053 0.030262 -0.004302 0.000000 0.000000 0.000000
# 3 -0.006817 -0.004302 0.010683 0.000000 0.000000 0.000000
# 4 0.000000 0.000000 0.000000 0.060816 0.000000 0.000000
# 5 0.000000 0.000000 0.000000 0.000000 0.029784 0.000000
# 6 0.000000 0.000000 0.000000 0.000000 0.000000 0.058516
#
#
# Mechanical properties :
#
#
# Convention : Reuss Voigt Hill
#
# Bulk Modulus (GPa) = 36.75318 58.69673 47.72495
# Shear Modulus (GPa) = 20.31842 24.24640 22.28241
#
# Velocity S-wave (km/s) = 3.27575 3.57840 3.43042
# Velocity P-wave (km/s) = 5.80667 6.93341 6.39490
#
# Compressibility (1/GPa) = 0.02720853
#
# Stress axis : x y z
#
# Youngs Moduli (GPa) = 60.21674 33.04422 93.60440
#
# Poissons Ratio (x) = 0.13392 0.63807
# Poissons Ratio (y) = 0.24405 0.40273
# Poissons Ratio (z) = 0.41048 0.14217
#
# Static dielectric constant tensor:
#      x y z
#    x 3.434990 0.000000 0.000000 
#    y 0.000000 3.215160 0.000000 
#    z 0.000000 0.000000 3.523730 
# 
# 
# High freq. dielectric constant tensor:
#      x y z
#    x 1.727850 0.000000 0.000000 
#    y 0.000000 1.713400 0.000000 
#    z 0.000000 0.000000 1.731560 
# 
# From -- ./inp_files/18465.got.cif
#   From: 2010.06.25/outbox.cif.g09.slc.cpg/sg52_10_cif.got.tgz:18465.got - 2010.06.26 19:32:48.
