data_PCOD8215418
_publ_section_title
;
Structure prediction by ZEFSAII (Michael W. Deem and Ramdas Pophale) SiO2 
 PCOD8215418
Probable space group: P N N A
;
_chemical_formula_sum "Si O2"
_cell_formula_units_Z 64
_cell_length_a 14.974693
_cell_length_b 17.754492
_cell_length_c 11.960578
_cell_angle_alpha 90.000000
_cell_angle_beta 90.000000
_cell_angle_gamma 90.000000
_cell_volume 3179.935754
_symmetry_space_group_name_H-M "P N N A"
_symmetry_group_IT_number 52
_symmetry_cell_setting 'orthorhombic'
loop_
_space_group_symop_operation_xyz
x,y,z
1/2-x,-y,z
x,1/2-y,1/2-z
1/2-x,1/2+y,1/2-z
-x,-y,-z
1/2+x,y,-z
-x,1/2+y,1/2+z
1/2+x,1/2-y,1/2+z
loop_
_atom_site_type_symbol
_atom_site_label
_atom_site_fract_x
_atom_site_fract_y
_atom_site_fract_z
Si Si1 0.468757 0.249217 0.011063
Si Si2 0.579121 0.910748 0.937111
Si Si3 0.699346 0.756107 0.378613
Si Si4 0.383718 0.815143 0.658940
Si Si5 0.733718 0.112672 0.011353
Si Si6 0.102800 0.313147 0.336031
Si Si7 0.997379 0.546831 0.667227
Si Si8 0.159775 0.465151 0.719674
O O1 0.439392 0.177946 0.089838
O O2 0.529405 0.308197 0.079946
O O3 0.379102 0.287603 0.959903
O O4 0.523561 0.224933 0.903196
O O5 0.683682 0.931322 0.955021
O O6 0.551587 0.965148 0.834817
O O7 0.514532 0.926563 0.041117
O O8 0.668800 0.750000 0.250000
O O9 0.788580 0.804800 0.403886
O O10 0.718872 0.669304 0.403841
O O11 0.388795 0.750000 0.750000
O O12 0.382425 0.897194 0.711699
O O13 0.680113 0.158619 0.918298
O O14 0.672079 0.058469 0.088382
O O15 0.140555 0.250000 0.250000
O O16 0.062579 0.388099 0.273815
O O17 0.091165 0.534775 0.729510
O O18 0.250000 0.500000 0.771152
#
# Coordination Sequence:
#
# PCOD8215418 Si02
#       8
#     8   8   8   8   8   8   8   8
#     4  10  20  35  59  88 123 162 199 252 308 368
#     4   9  18  32  56  88 118 148 186 244 318 375
#     4  10  19  35  61  92 115 157 208 252 300 365
#     4  11  20  37  61  90 127 160 203 257 311 367
#     4  11  19  35  58  89 121 151 195 257 313 357
#     4  11  23  36  54  82 119 162 207 248 304 368
#     4  10  20  34  53  84 121 150 186 244 316 375
#     4  12  22  34  60  95 124 148 199 265 324 365
#
# _framework density 20.126193000000001
#
# number of rings (size 3 to 8) (size 9 to 14) (size 15 to 20)
#    0.000    1.500    5.000    3.375    0.000    1.000 
#    0.000    5.000    0.000    3.000    0.000    0.000 
#    0.000    0.000    0.000    0.000    0.000    0.000 
#
# Total GULP energy -793043.120022 kJ/mol
# GULP energy per Si atom -12391.298750 kJ/mol
# Density = 2.008038 g / cm^3
# Si number density = 20.126193 Si / 1000 Ang^3
#
#
#
# Elastic Constant Matrix: (Units=GPa)
#
#
# Indices 1 2 3 4 5 6 
#
# 1 124.6633 39.7191 47.7291 0.0000 0.0000 0.0000
# 2 39.7191 88.3301 38.5059 0.0000 0.0000 0.0000
# 3 47.7291 38.5059 50.6332 0.0000 0.0000 0.0000
# 4 0.0000 0.0000 0.0000 24.4529 0.0000 0.0000
# 5 0.0000 0.0000 0.0000 0.0000 31.0443 0.0000
# 6 0.0000 0.0000 0.0000 0.0000 0.0000 32.1488
#
#
#
# Elastic Compliance Matrix: (Units=1/GPa)
#
#
# Indices 1 2 3 4 5 6 
#
# 1 0.012583 -0.000729 -0.011307 0.000000 0.000000 0.000000
# 2 -0.000729 0.016978 -0.012224 0.000000 0.000000 0.000000
# 3 -0.011307 -0.012224 0.039704 0.000000 0.000000 0.000000
# 4 0.000000 0.000000 0.000000 0.040895 0.000000 0.000000
# 5 0.000000 0.000000 0.000000 0.000000 0.032212 0.000000
# 6 0.000000 0.000000 0.000000 0.000000 0.000000 0.031105
#
#
# Mechanical properties :
#
#
# Convention : Reuss Voigt Hill
#
# Bulk Modulus (GPa) = 48.20390 57.28163 52.74276
# Shear Modulus (GPa) = 21.84244 26.70737 24.27490
#
# Velocity S-wave (km/s) = 3.29792 3.64675 3.47671
# Velocity P-wave (km/s) = 6.20520 6.80108 6.50996
#
# Compressibility (1/GPa) = 0.02074521
#
# Stress axis : x y z
#
# Youngs Moduli (GPa) = 79.47351 58.89996 25.18624
#
# Poissons Ratio (x) = 0.04295 0.28477
# Poissons Ratio (y) = 0.05795 0.30788
# Poissons Ratio (z) = 0.89857 0.72000
#
# Static dielectric constant tensor:
#      x y z
#    x 4.052840 0.000000 0.000000 
#    y 0.000000 4.121270 0.000000 
#    z 0.000000 0.000000 3.205620 
# 
# 
# High freq. dielectric constant tensor:
#      x y z
#    x 1.803860 0.000000 0.000000 
#    y 0.000000 1.780730 0.000000 
#    z 0.000000 0.000000 1.717350 
# 
# From -- ./inp_files/19874.got.cif
#   From: 2010.06.25/outbox.cif.g09.slc.cpg/sg52_10_cif.got.tgz:19874.got - 2010.06.26 19:32:48.
