data_PCOD8215560
_publ_section_title
;
Structure prediction by ZEFSAII (Michael W. Deem and Ramdas Pophale) SiO2 
 PCOD8215560
Probable space group: P N N A
;
_chemical_formula_sum "Si O2"
_cell_formula_units_Z 36
_cell_length_a 15.051650
_cell_length_b 14.630983
_cell_length_c 7.675535
_cell_angle_alpha 90.000000
_cell_angle_beta 90.000000
_cell_angle_gamma 90.000000
_cell_volume 1690.309659
_symmetry_space_group_name_H-M "P N N A"
_symmetry_group_IT_number 52
_symmetry_cell_setting 'orthorhombic'
loop_
_space_group_symop_operation_xyz
x,y,z
1/2-x,-y,z
x,1/2-y,1/2-z
1/2-x,1/2+y,1/2-z
-x,-y,-z
1/2+x,y,-z
-x,1/2+y,1/2+z
1/2+x,1/2-y,1/2+z
loop_
_atom_site_type_symbol
_atom_site_label
_atom_site_fract_x
_atom_site_fract_y
_atom_site_fract_z
Si Si1 0.356932 0.750000 0.250000
Si Si2 0.232401 0.606194 0.694259
Si Si3 0.091251 0.381110 0.517059
Si Si4 0.724629 0.606233 0.917168
Si Si5 0.603653 0.918802 0.891411
O O1 0.422743 0.702321 0.385708
O O2 0.300194 0.670224 0.160923
O O3 0.250000 0.500000 0.704771
O O4 0.327491 0.649561 0.642368
O O5 0.156293 0.630136 0.551702
O O6 0.202370 0.640780 0.886046
O O7 0.117501 0.472671 0.411472
O O8 0.999977 0.394680 0.619247
O O9 0.750000 0.500000 0.917635
O O10 0.639264 0.616919 0.793186
#
# Coordination Sequence:
#
# PCOD8215560 Si02
#       5
#     4   8   8   8   8
#     4  12  22  40  66  94 126 176 216 270 326 384
#     4   9  19  39  65  94 123 171 218 266 329 386
#     4  10  21  39  66  96 131 173 219 275 326 395
#     4  11  21  41  67  91 129 173 217 269 329 388
#     4  10  19  43  65  90 134 174 216 269 335 388
#
# _framework density 21.297872999999999
#
# number of rings (size 3 to 8) (size 9 to 14) (size 15 to 20)
#    0.000    1.778    4.444    0.667    0.000    0.889 
#    8.000    4.444    0.000    0.000    0.000    0.000 
#    0.000    0.000    0.000    0.000    0.000    0.000 
#
# Total GULP energy -446203.880062 kJ/mol
# GULP energy per Si atom -12394.552224 kJ/mol
# Density = 2.124940 g / cm^3
# Si number density = 21.297873 Si / 1000 Ang^3
#
#
#
# Elastic Constant Matrix: (Units=GPa)
#
#
# Indices 1 2 3 4 5 6 
#
# 1 94.7920 17.5627 55.0665 0.0000 0.0000 0.0000
# 2 17.5627 63.6430 25.8260 0.0000 0.0000 0.0000
# 3 55.0665 25.8260 163.0482 0.0000 0.0000 0.0000
# 4 0.0000 0.0000 0.0000 22.3743 0.0000 0.0000
# 5 0.0000 0.0000 0.0000 0.0000 15.9299 0.0000
# 6 0.0000 0.0000 0.0000 0.0000 0.0000 15.3484
#
#
#
# Elastic Compliance Matrix: (Units=1/GPa)
#
#
# Indices 1 2 3 4 5 6 
#
# 1 0.013354 -0.001982 -0.004196 0.000000 0.000000 0.000000
# 2 -0.001982 0.017086 -0.002037 0.000000 0.000000 0.000000
# 3 -0.004196 -0.002037 0.007873 0.000000 0.000000 0.000000
# 4 0.000000 0.000000 0.000000 0.044694 0.000000 0.000000
# 5 0.000000 0.000000 0.000000 0.000000 0.062775 0.000000
# 6 0.000000 0.000000 0.000000 0.000000 0.000000 0.065154
#
#
# Mechanical properties :
#
#
# Convention : Reuss Voigt Hill
#
# Bulk Modulus (GPa) = 45.69831 57.59931 51.64881
# Shear Modulus (GPa) = 21.30730 25.59904 23.45317
#
# Velocity S-wave (km/s) = 3.16641 3.47068 3.32203
# Velocity P-wave (km/s) = 5.90521 6.56994 6.24643
#
# Compressibility (1/GPa) = 0.02188265
#
# Stress axis : x y z
#
# Youngs Moduli (GPa) = 74.88198 58.52656 127.01698
#
# Poissons Ratio (x) = 0.11603 0.53299
# Poissons Ratio (y) = 0.14845 0.25871
# Poissons Ratio (z) = 0.31422 0.11921
#
# Static dielectric constant tensor:
#      x y z
#    x 3.635110 0.000000 0.000000 
#    y 0.000000 3.845710 0.000000 
#    z 0.000000 0.000000 4.261850 
# 
# 
# High freq. dielectric constant tensor:
#      x y z
#    x 1.817900 0.000000 0.000000 
#    y 0.000000 1.829110 0.000000 
#    z 0.000000 0.000000 1.838350 
# 
# From -- ./inp_files/9926.got.cif
#   From: 2010.06.25/outbox.cif.g09.slc.cpg/sg52_5_cif.got.tgz:9926.got - 2010.06.26 19:32:48.
