data_PCOD8215541
_publ_section_title
;
Structure prediction by ZEFSAII (Michael W. Deem and Ramdas Pophale) SiO2 
 PCOD8215541
Probable space group: P N N A
;
_chemical_formula_sum "Si O2"
_cell_formula_units_Z 56
_cell_length_a 8.670717
_cell_length_b 13.654266
_cell_length_c 22.255357
_cell_angle_alpha 90.000000
_cell_angle_beta 90.000000
_cell_angle_gamma 90.000000
_cell_volume 2634.862376
_symmetry_space_group_name_H-M "P N N A"
_symmetry_group_IT_number 52
_symmetry_cell_setting 'orthorhombic'
loop_
_space_group_symop_operation_xyz
x,y,z
1/2-x,-y,z
x,1/2-y,1/2-z
1/2-x,1/2+y,1/2-z
-x,-y,-z
1/2+x,y,-z
-x,1/2+y,1/2+z
1/2+x,1/2-y,1/2+z
loop_
_atom_site_type_symbol
_atom_site_label
_atom_site_fract_x
_atom_site_fract_y
_atom_site_fract_z
Si Si1 0.357773 0.583385 0.147459
Si Si2 0.102131 0.936191 0.546654
Si Si3 0.172824 0.734427 0.314236
Si Si4 0.886794 0.929107 0.782742
Si Si5 0.530700 0.643766 0.574066
Si Si6 0.911968 0.051119 0.108184
Si Si7 0.706195 0.782131 0.030418
O O1 0.250000 0.500000 0.119517
O O2 0.502084 0.596585 0.103935
O O3 0.235946 0.671338 0.151336
O O4 0.426369 0.554369 0.212784
O O5 0.164625 0.832233 0.522380
O O6 0.250000 0.000000 0.566499
O O7 0.000000 0.000000 0.500000
O O8 0.083895 0.750000 0.250000
O O9 0.328517 0.679136 0.295791
O O10 0.055236 0.676693 0.357029
O O11 0.037925 0.942324 0.822669
O O12 0.750000 0.000000 0.804163
O O13 0.519016 0.525452 0.571426
O O14 0.680755 0.670766 0.535220
O O15 0.383744 0.703176 0.548289
O O16 0.904984 0.158165 0.076976
O O17 0.750000 0.000000 0.109014
#
# Coordination Sequence:
#
# PCOD8215541 Si02
#       7
#     8   8   8   8   8   8   8
#     4  10  24  40  65  93 125 165 223 270 317 384
#     4  12  27  45  64  91 128 175 224 275 329 391
#     4  10  22  41  68  97 129 171 222 270 323 393
#     4  10  19  39  66  94 124 170 209 261 322 389
#     4  11  24  41  66  97 129 170 211 267 334 402
#     4  10  22  41  63  98 135 165 213 266 335 400
#     4  11  26  42  63  94 130 171 213 270 331 396
#
# _framework density 21.253482000000002
#
# number of rings (size 3 to 8) (size 9 to 14) (size 15 to 20)
#    0.000    1.429    1.429    2.571   10.000    0.571 
#    0.000    2.857    0.000    0.000    0.000    0.000 
#    0.000    0.000    0.000    0.000    0.000    0.000 
#
# Total GULP energy -694076.825658 kJ/mol
# GULP energy per Si atom -12394.229030 kJ/mol
# Density = 2.120511 g / cm^3
# Si number density = 21.253482 Si / 1000 Ang^3
#
#
#
# Elastic Constant Matrix: (Units=GPa)
#
#
# Indices 1 2 3 4 5 6 
#
# 1 61.6297 18.6894 36.6610 0.0000 0.0000 0.0000
# 2 18.6894 107.7551 5.9696 0.0000 0.0000 0.0000
# 3 36.6610 5.9696 99.3219 0.0000 0.0000 0.0000
# 4 0.0000 0.0000 0.0000 24.8079 0.0000 0.0000
# 5 0.0000 0.0000 0.0000 0.0000 31.4243 0.0000
# 6 0.0000 0.0000 0.0000 0.0000 0.0000 23.3819
#
#
#
# Elastic Compliance Matrix: (Units=1/GPa)
#
#
# Indices 1 2 3 4 5 6 
#
# 1 0.021946 -0.003369 -0.007898 0.000000 0.000000 0.000000
# 2 -0.003369 0.009828 0.000653 0.000000 0.000000 0.000000
# 3 -0.007898 0.000653 0.012944 0.000000 0.000000 0.000000
# 4 0.000000 0.000000 0.000000 0.040310 0.000000 0.000000
# 5 0.000000 0.000000 0.000000 0.000000 0.031822 0.000000
# 6 0.000000 0.000000 0.000000 0.000000 0.000000 0.042768
#
#
# Mechanical properties :
#
#
# Convention : Reuss Voigt Hill
#
# Bulk Modulus (GPa) = 42.57060 43.48297 43.02679
# Shear Modulus (GPa) = 26.50034 29.74862 28.12448
#
# Velocity S-wave (km/s) = 3.53494 3.74532 3.64165
# Velocity P-wave (km/s) = 6.06090 6.26154 6.16204
#
# Compressibility (1/GPa) = 0.02349039
#
# Stress axis : x y z
#
# Youngs Moduli (GPa) = 45.56699 101.74558 77.25419
#
# Poissons Ratio (x) = 0.34276 0.61015
# Poissons Ratio (y) = 0.15351 -0.05043
# Poissons Ratio (z) = 0.35989 -0.06641
#
# Static dielectric constant tensor:
#      x y z
#    x 3.753530 0.000000 0.000000 
#    y 0.000000 4.347410 0.000000 
#    z 0.000000 0.000000 4.045210 
# 
# 
# High freq. dielectric constant tensor:
#      x y z
#    x 1.813530 0.000000 0.000000 
#    y 0.000000 1.853500 0.000000 
#    z 0.000000 0.000000 1.838820 
# 
# From -- ./inp_files/36023.got.cif
#   From: 2010.06.25/outbox.cif.g09.slc.cpg/sg52_19_cif.got.tgz:36023.got - 2010.06.26 19:32:48.
