data_PCOD8215747
_publ_section_title
;
Structure prediction by ZEFSAII (Michael W. Deem and Ramdas Pophale) SiO2 
 PCOD8215747
Probable space group: P N N A
;
_chemical_formula_sum "Si O2"
_cell_formula_units_Z 44
_cell_length_a 9.604834
_cell_length_b 14.384153
_cell_length_c 17.314523
_cell_angle_alpha 90.000000
_cell_angle_beta 90.000000
_cell_angle_gamma 90.000000
_cell_volume 2392.129511
_symmetry_space_group_name_H-M "P N N A"
_symmetry_group_IT_number 52
_symmetry_cell_setting 'orthorhombic'
loop_
_space_group_symop_operation_xyz
x,y,z
1/2-x,-y,z
x,1/2-y,1/2-z
1/2-x,1/2+y,1/2-z
-x,-y,-z
1/2+x,y,-z
-x,1/2+y,1/2+z
1/2+x,1/2-y,1/2+z
loop_
_atom_site_type_symbol
_atom_site_label
_atom_site_fract_x
_atom_site_fract_y
_atom_site_fract_z
Si Si1 0.840826 0.666133 0.939042
Si Si2 0.592455 0.481953 0.816403
Si Si3 0.750000 0.000000 0.057845
Si Si4 0.950503 0.408920 0.956986
Si Si5 0.746590 0.126652 0.918861
Si Si6 0.028655 0.993828 0.148586
O O1 0.912636 0.614313 0.865725
O O2 0.712532 0.606859 0.972941
O O3 0.777584 0.764092 0.913983
O O4 0.953989 0.675094 0.009124
O O5 0.750000 0.500000 0.790479
O O6 0.532531 0.569648 0.865723
O O7 0.503558 0.478469 0.738056
O O8 0.879812 0.975414 0.111468
O O9 0.783450 0.090342 0.004985
O O10 0.000000 0.500000 0.000000
O O11 0.602392 0.079518 0.893932
O O12 0.873641 0.098014 0.861712
#
# Coordination Sequence:
#
# PCOD8215747 Si02
#       6
#     8   8   4   8   8   8
#     4  10  21  33  61  87 108 146 194 232 268 336
#     4   9  17  38  55  79 111 149 188 216 279 340
#     4  10  22  36  58  80 114 144 192 228 290 322
#     4   9  19  36  56  81 112 146 185 228 276 330
#     4  10  20  36  61  80 110 145 193 233 273 333
#     4  10  20  38  57  80 114 151 181 231 289 330
#
# _framework density 18.393654000000002
#
# number of rings (size 3 to 8) (size 9 to 14) (size 15 to 20)
#    0.000    2.545    1.818    3.818    5.091    0.727 
#    6.545    0.000    0.000    0.000    0.000    0.000 
#    0.000    0.000    0.000    0.000    0.000    0.000 
#
# Total GULP energy -545248.693279 kJ/mol
# GULP energy per Si atom -12392.015756 kJ/mol
# Density = 1.835179 g / cm^3
# Si number density = 18.393654 Si / 1000 Ang^3
#
#
#
# Elastic Constant Matrix: (Units=GPa)
#
#
# Indices 1 2 3 4 5 6 
#
# 1 82.3178 19.9846 47.4344 0.0000 0.0000 0.0000
# 2 19.9846 88.4002 35.2022 0.0000 0.0000 0.0000
# 3 47.4344 35.2022 122.8134 0.0000 0.0000 0.0000
# 4 0.0000 0.0000 0.0000 12.3483 0.0000 0.0000
# 5 0.0000 0.0000 0.0000 0.0000 25.0141 0.0000
# 6 0.0000 0.0000 0.0000 0.0000 0.0000 17.4183
#
#
#
# Elastic Compliance Matrix: (Units=1/GPa)
#
#
# Indices 1 2 3 4 5 6 
#
# 1 0.015754 -0.001285 -0.005716 0.000000 0.000000 0.000000
# 2 -0.001285 0.012875 -0.003194 0.000000 0.000000 0.000000
# 3 -0.005716 -0.003194 0.011266 0.000000 0.000000 0.000000
# 4 0.000000 0.000000 0.000000 0.080983 0.000000 0.000000
# 5 0.000000 0.000000 0.000000 0.000000 0.039978 0.000000
# 6 0.000000 0.000000 0.000000 0.000000 0.000000 0.057411
#
#
# Mechanical properties :
#
#
# Convention : Reuss Voigt Hill
#
# Bulk Modulus (GPa) = 51.27278 55.41932 53.34605
# Shear Modulus (GPa) = 20.39507 23.68348 22.03927
#
# Velocity S-wave (km/s) = 3.33349 3.59219 3.46526
# Velocity P-wave (km/s) = 6.53850 6.88477 6.71387
#
# Compressibility (1/GPa) = 0.01950353
#
# Stress axis : x y z
#
# Youngs Moduli (GPa) = 63.47605 77.67239 88.76485
#
# Poissons Ratio (x) = 0.09982 0.50741
# Poissons Ratio (y) = 0.08158 0.28350
# Poissons Ratio (z) = 0.36285 0.24808
#
# Static dielectric constant tensor:
#      x y z
#    x 3.619150 0.000000 0.000000 
#    y 0.000000 3.281730 0.000000 
#    z 0.000000 0.000000 3.553250 
# 
# 
# High freq. dielectric constant tensor:
#      x y z
#    x 1.705940 0.000000 0.000000 
#    y 0.000000 1.691820 0.000000 
#    z 0.000000 0.000000 1.709770 
# 
# From -- ./inp_files/31150.got.cif
#   From: 2010.06.25/outbox.cif.g09.slc.cpg/sg52_16_cif.got.tgz:31150.got - 2010.06.26 19:32:48.
