data_PCOD8215884
_publ_section_title
;
Structure prediction by ZEFSAII (Michael W. Deem and Ramdas Pophale) SiO2 
 PCOD8215884
Probable space group: P N N A
;
_chemical_formula_sum "Si O2"
_cell_formula_units_Z 48
_cell_length_a 14.449083
_cell_length_b 18.146230
_cell_length_c 8.325031
_cell_angle_alpha 90.000000
_cell_angle_beta 90.000000
_cell_angle_gamma 90.000000
_cell_volume 2182.793020
_symmetry_space_group_name_H-M "P N N A"
_symmetry_group_IT_number 52
_symmetry_cell_setting 'orthorhombic'
loop_
_space_group_symop_operation_xyz
x,y,z
1/2-x,-y,z
x,1/2-y,1/2-z
1/2-x,1/2+y,1/2-z
-x,-y,-z
1/2+x,y,-z
-x,1/2+y,1/2+z
1/2+x,1/2-y,1/2+z
loop_
_atom_site_type_symbol
_atom_site_label
_atom_site_fract_x
_atom_site_fract_y
_atom_site_fract_z
Si Si1 0.488487 0.395599 0.260133
Si Si2 0.148524 0.496042 0.081131
Si Si3 0.354822 0.491698 0.718773
Si Si4 0.620030 0.333237 0.034543
Si Si5 0.238002 0.750000 0.750000
Si Si6 0.412511 0.343703 0.581337
Si Si7 0.556340 0.250000 0.750000
O O1 0.422753 0.461268 0.195651
O O2 0.585664 0.434102 0.313752
O O3 0.519855 0.337353 0.123049
O O4 0.441447 0.343946 0.394049
O O5 0.250000 0.500000 0.160011
O O6 0.144625 0.533524 0.905414
O O7 0.130822 0.409929 0.058085
O O8 0.250000 0.500000 0.658813
O O9 0.399244 0.429025 0.613152
O O10 0.701428 0.312254 0.159337
O O11 0.620001 0.270263 0.900627
O O12 0.176759 0.707285 0.616384
O O13 0.494511 0.319044 0.698166
#
# Coordination Sequence:
#
# PCOD8215884 Si02
#       7
#     8   8   8   8   4   8   4
#     4  11  22  39  66  93 124 166 217 274 326 385
#     4  10  21  38  63  92 126 166 213 272 327 383
#     4  10  20  38  64  90 124 165 210 271 324 374
#     4  11  23  42  64  91 127 172 220 262 324 383
#     4  11  24  42  62  93 136 174 210 263 318 399
#     4  11  23  39  61  92 127 164 209 259 324 386
#     4  11  24  40  62  85 122 170 210 259 312 395
#
# _framework density 21.990175000000001
#
# number of rings (size 3 to 8) (size 9 to 14) (size 15 to 20)
#    0.000    1.333    0.000    8.500    0.000    3.333 
#    0.000    1.667    0.000    0.000    0.000    0.000 
#    0.000    0.000    0.000    0.000    0.000    0.000 
#
# Total GULP energy -595018.030533 kJ/mol
# GULP energy per Si atom -12396.208969 kJ/mol
# Density = 2.194012 g / cm^3
# Si number density = 21.990175 Si / 1000 Ang^3
#
#
#
# Elastic Constant Matrix: (Units=GPa)
#
#
# Indices 1 2 3 4 5 6 
#
# 1 132.7852 39.2973 59.2617 0.0000 0.0000 0.0000
# 2 39.2973 73.3988 52.3534 0.0000 0.0000 0.0000
# 3 59.2617 52.3534 103.0054 0.0000 0.0000 0.0000
# 4 0.0000 0.0000 0.0000 43.3227 0.0000 0.0000
# 5 0.0000 0.0000 0.0000 0.0000 28.9347 0.0000
# 6 0.0000 0.0000 0.0000 0.0000 0.0000 23.3636
#
#
#
# Elastic Compliance Matrix: (Units=1/GPa)
#
#
# Indices 1 2 3 4 5 6 
#
# 1 0.010321 -0.002024 -0.004909 0.000000 0.000000 0.000000
# 2 -0.002024 0.021769 -0.009900 0.000000 0.000000 0.000000
# 3 -0.004909 -0.009900 0.017564 0.000000 0.000000 0.000000
# 4 0.000000 0.000000 0.000000 0.023083 0.000000 0.000000
# 5 0.000000 0.000000 0.000000 0.000000 0.034561 0.000000
# 6 0.000000 0.000000 0.000000 0.000000 0.000000 0.042802
#
#
# Mechanical properties :
#
#
# Convention : Reuss Voigt Hill
#
# Bulk Modulus (GPa) = 62.54638 67.89047 65.21843
# Shear Modulus (GPa) = 26.44176 29.67599 28.05887
#
# Velocity S-wave (km/s) = 3.47138 3.67755 3.57595
# Velocity P-wave (km/s) = 6.67622 6.99805 6.83903
#
# Compressibility (1/GPa) = 0.01598813
#
# Stress axis : x y z
#
# Youngs Moduli (GPa) = 96.89046 45.93636 56.93403
#
# Poissons Ratio (x) = 0.09299 0.27949
# Poissons Ratio (y) = 0.19613 0.56364
# Poissons Ratio (z) = 0.47564 0.45476
#
# Static dielectric constant tensor:
#      x y z
#    x 4.151110 0.000000 0.000000 
#    y 0.000000 3.844450 0.000000 
#    z 0.000000 0.000000 3.903120 
# 
# 
# High freq. dielectric constant tensor:
#      x y z
#    x 1.869720 0.000000 0.000000 
#    y 0.000000 1.868030 0.000000 
#    z 0.000000 0.000000 1.850980 
# 
# From -- ./inp_files/10545.got.cif
#   From: 2010.06.25/outbox.cif.g09.slc.cpg/sg52_6_cif.got.tgz:10545.got - 2010.06.26 19:32:48.
