data_PCOD8215887
_publ_section_title
;
Structure prediction by ZEFSAII (Michael W. Deem and Ramdas Pophale) SiO2 
 PCOD8215887
Probable space group: P N N A
;
_chemical_formula_sum "Si O2"
_cell_formula_units_Z 64
_cell_length_a 30.566783
_cell_length_b 18.216345
_cell_length_c 5.050891
_cell_angle_alpha 90.000000
_cell_angle_beta 90.000000
_cell_angle_gamma 90.000000
_cell_volume 2812.412199
_symmetry_space_group_name_H-M "P N N A"
_symmetry_group_IT_number 52
_symmetry_cell_setting 'orthorhombic'
loop_
_space_group_symop_operation_xyz
x,y,z
1/2-x,-y,z
x,1/2-y,1/2-z
1/2-x,1/2+y,1/2-z
-x,-y,-z
1/2+x,y,-z
-x,1/2+y,1/2+z
1/2+x,1/2-y,1/2+z
loop_
_atom_site_type_symbol
_atom_site_label
_atom_site_fract_x
_atom_site_fract_y
_atom_site_fract_z
Si Si1 0.406304 0.496020 0.372265
Si Si2 0.652119 0.124910 0.832636
Si Si3 0.102506 0.329646 0.824765
Si Si4 0.030305 0.070842 0.474126
Si Si5 0.534134 0.795984 0.482644
Si Si6 0.894551 0.099524 0.364714
Si Si7 0.696577 0.664769 0.265112
Si Si8 0.247685 0.165269 0.266104
O O1 0.360971 0.539607 0.356074
O O2 0.445177 0.554816 0.305109
O O3 0.415848 0.457273 0.653538
O O4 0.402742 0.432952 0.153423
O O5 0.626060 0.171014 0.609707
O O6 0.703656 0.120520 0.782711
O O7 0.641212 0.161034 0.113830
O O8 0.080051 0.250000 0.750000
O O9 0.068488 0.399861 0.818533
O O10 0.996768 0.135468 0.502267
O O11 0.000000 0.000000 0.500000
O O12 0.539154 0.750000 0.750000
O O13 0.581267 0.822210 0.372389
O O14 0.511776 0.750000 0.250000
O O15 0.844543 0.112626 0.288528
O O16 0.682661 0.750000 0.250000
O O17 0.715033 0.645170 0.553412
O O18 0.733943 0.645614 0.053784
O O19 0.234696 0.250000 0.250000
#
# Coordination Sequence:
#
# PCOD8215887 Si02
#       8
#     8   8   8   8   8   8   8   8
#     4  11  25  43  68  96 131 186 221 272 333 435
#     4  11  23  41  67  98 136 174 227 266 345 410
#     4  11  23  41  66  98 137 176 222 283 337 398
#     4  11  25  47  69  99 138 180 229 281 348 413
#     4  12  28  46  72 103 134 176 234 294 340 402
#     4  12  24  46  67  95 136 176 232 273 349 398
#     4  10  22  39  64  94 128 169 219 282 338 395
#     4  10  20  38  64  95 128 169 219 275 340 402
#
# _framework density 22.756267999999999
#
# number of rings (size 3 to 8) (size 9 to 14) (size 15 to 20)
#    0.000    1.000    1.250    5.625    0.000    8.000 
#    0.000    3.750    0.000    0.000    0.000    0.000 
#    0.000    0.000    0.000    0.000    0.000    0.000 
#
# Total GULP energy -793116.091747 kJ/mol
# GULP energy per Si atom -12392.438934 kJ/mol
# Density = 2.270447 g / cm^3
# Si number density = 22.756268 Si / 1000 Ang^3
#
#
#
# Elastic Constant Matrix: (Units=GPa)
#
#
# Indices 1 2 3 4 5 6 
#
# 1 103.5024 33.6374 10.6520 0.0000 0.0000 0.0000
# 2 33.6374 102.7869 29.4953 0.0000 0.0000 0.0000
# 3 10.6520 29.4953 95.2129 0.0000 0.0000 0.0000
# 4 0.0000 0.0000 0.0000 31.5448 0.0000 0.0000
# 5 0.0000 0.0000 0.0000 0.0000 18.8711 0.0000
# 6 0.0000 0.0000 0.0000 0.0000 0.0000 45.5220
#
#
#
# Elastic Compliance Matrix: (Units=1/GPa)
#
#
# Indices 1 2 3 4 5 6 
#
# 1 0.010813 -0.003503 -0.000125 0.000000 0.000000 0.000000
# 2 -0.003503 0.011813 -0.003268 0.000000 0.000000 0.000000
# 3 -0.000125 -0.003268 0.011529 0.000000 0.000000 0.000000
# 4 0.000000 0.000000 0.000000 0.031701 0.000000 0.000000
# 5 0.000000 0.000000 0.000000 0.000000 0.052991 0.000000
# 6 0.000000 0.000000 0.000000 0.000000 0.000000 0.021967
#
#
# Mechanical properties :
#
#
# Convention : Reuss Voigt Hill
#
# Bulk Modulus (GPa) = 49.10443 49.89684 49.50063
# Shear Modulus (GPa) = 30.98043 34.36872 32.67458
#
# Velocity S-wave (km/s) = 3.69372 3.89047 3.79337
# Velocity P-wave (km/s) = 6.31005 6.49271 6.40203
#
# Compressibility (1/GPa) = 0.02036476
#
# Stress axis : x y z
#
# Youngs Moduli (GPa) = 92.48288 84.65384 86.73818
#
# Poissons Ratio (x) = 0.29652 0.01081
# Poissons Ratio (y) = 0.32395 0.28342
# Poissons Ratio (z) = 0.01152 0.27661
#
# Static dielectric constant tensor:
#      x y z
#    x 4.176740 0.000000 0.000000 
#    y 0.000000 4.089540 0.000000 
#    z 0.000000 0.000000 4.141340 
# 
# 
# High freq. dielectric constant tensor:
#      x y z
#    x 1.897450 0.000000 0.000000 
#    y 0.000000 1.901280 0.000000 
#    z 0.000000 0.000000 1.906100 
# 
# From -- ./inp_files/6524.got.cif
#   From: 2010.06.25/outbox.cif.g09.slc.cpg/sg52_4_cif.got.tgz:6524.got - 2010.06.26 19:32:48.
