data_PCOD8215332
_publ_section_title
;
Structure prediction by ZEFSAII (Michael W. Deem and Ramdas Pophale) SiO2 
 PCOD8215332
Probable space group: P N N A
;
_chemical_formula_sum "Si O2"
_cell_formula_units_Z 40
_cell_length_a 24.452194
_cell_length_b 16.163237
_cell_length_c 4.907361
_cell_angle_alpha 90.000000
_cell_angle_beta 90.000000
_cell_angle_gamma 90.000000
_cell_volume 1939.519636
_symmetry_space_group_name_H-M "P N N A"
_symmetry_group_IT_number 52
_symmetry_cell_setting 'orthorhombic'
loop_
_space_group_symop_operation_xyz
x,y,z
1/2-x,-y,z
x,1/2-y,1/2-z
1/2-x,1/2+y,1/2-z
-x,-y,-z
1/2+x,y,-z
-x,1/2+y,1/2+z
1/2+x,1/2-y,1/2+z
loop_
_atom_site_type_symbol
_atom_site_label
_atom_site_fract_x
_atom_site_fract_y
_atom_site_fract_z
Si Si1 0.447456 0.805997 0.996589
Si Si2 0.814063 0.008821 0.327793
Si Si3 0.621682 0.454338 0.683748
Si Si4 0.058415 0.613242 0.373365
Si Si5 0.878196 0.164680 0.378935
O O1 0.468685 0.750000 0.250000
O O2 0.398627 0.863750 0.102274
O O3 0.424651 0.750000 0.750000
O O4 0.494822 0.863274 0.865992
O O5 0.826544 0.104054 0.406908
O O6 0.750000 0.000000 0.358207
O O7 0.847407 0.947543 0.527717
O O8 0.833133 0.989226 0.023347
O O9 0.570005 0.517683 0.710549
O O10 0.076947 0.624355 0.682557
O O11 0.092050 0.674450 0.171211
O O12 0.856909 0.250000 0.250000
#
# Coordination Sequence:
#
# PCOD8215332 Si02
#       5
#     8   8   8   8   8
#     4  12  23  36  56  85 119 154 183 220 275 341
#     4  10  21  39  61  81 108 150 192 235 287 336
#     4  10  22  39  58  82 113 147 190 234 277 338
#     4  10  20  35  57  81 113 149 182 223 276 332
#     4  10  19  33  55  85 111 138 185 240 279 319
#
# _framework density 20.623661999999999
#
# number of rings (size 3 to 8) (size 9 to 14) (size 15 to 20)
#    0.000    1.600    0.000    6.000    0.000    0.000 
#    0.000   11.000    0.000    2.400    0.000    0.000 
#    0.000    0.000    0.000    0.000    0.000    0.000 
#
# Total GULP energy -496046.248540 kJ/mol
# GULP energy per Si atom -12401.156213 kJ/mol
# Density = 2.057672 g / cm^3
# Si number density = 20.623662 Si / 1000 Ang^3
#
#
#
# Elastic Constant Matrix: (Units=GPa)
#
#
# Indices 1 2 3 4 5 6 
#
# 1 85.6861 43.5933 7.6480 0.0000 0.0000 0.0000
# 2 43.5933 92.3041 23.2436 0.0000 0.0000 0.0000
# 3 7.6480 23.2436 85.7159 0.0000 0.0000 0.0000
# 4 0.0000 0.0000 0.0000 35.3580 0.0000 0.0000
# 5 0.0000 0.0000 0.0000 0.0000 24.1050 0.0000
# 6 0.0000 0.0000 0.0000 0.0000 0.0000 18.7464
#
#
#
# Elastic Compliance Matrix: (Units=1/GPa)
#
#
# Indices 1 2 3 4 5 6 
#
# 1 0.015394 -0.007432 0.000642 0.000000 0.000000 0.000000
# 2 -0.007432 0.015216 -0.003463 0.000000 0.000000 0.000000
# 3 0.000642 -0.003463 0.012548 0.000000 0.000000 0.000000
# 4 0.000000 0.000000 0.000000 0.028282 0.000000 0.000000
# 5 0.000000 0.000000 0.000000 0.000000 0.041485 0.000000
# 6 0.000000 0.000000 0.000000 0.000000 0.000000 0.053344
#
#
# Mechanical properties :
#
#
# Convention : Reuss Voigt Hill
#
# Bulk Modulus (GPa) = 44.14630 45.85287 44.99959
# Shear Modulus (GPa) = 25.72991 28.25661 26.99326
#
# Velocity S-wave (km/s) = 3.53596 3.70551 3.62173
# Velocity P-wave (km/s) = 6.17437 6.37096 6.27343
#
# Compressibility (1/GPa) = 0.02265195
#
# Stress axis : x y z
#
# Youngs Moduli (GPa) = 64.95903 65.72124 79.69256
#
# Poissons Ratio (x) = 0.48844 -0.05115
# Poissons Ratio (y) = 0.48278 0.27597
# Poissons Ratio (z) = -0.04169 0.22759
#
# Static dielectric constant tensor:
#      x y z
#    x 3.290120 0.000000 0.000000 
#    y 0.000000 3.792990 0.000000 
#    z 0.000000 0.000000 3.957520 
# 
# 
# High freq. dielectric constant tensor:
#      x y z
#    x 1.768720 0.000000 0.000000 
#    y 0.000000 1.804090 0.000000 
#    z 0.000000 0.000000 1.830390 
# 
# From -- ./inp_files/5011.got.cif
#   From: 2010.06.25/outbox.cif.g09.slc.cpg/sg52_3_cif.got.tgz:5011.got - 2010.06.26 19:32:48.
