data_PCOD8215603
_publ_section_title
;
Structure prediction by ZEFSAII (Michael W. Deem and Ramdas Pophale) SiO2 
 PCOD8215603
Probable space group: P N N A
;
_chemical_formula_sum "Si O2"
_cell_formula_units_Z 64
_cell_length_a 5.516080
_cell_length_b 27.329777
_cell_length_c 22.353147
_cell_angle_alpha 90.000000
_cell_angle_beta 90.000000
_cell_angle_gamma 90.000000
_cell_volume 3369.809252
_symmetry_space_group_name_H-M "P N N A"
_symmetry_group_IT_number 52
_symmetry_cell_setting 'orthorhombic'
loop_
_space_group_symop_operation_xyz
x,y,z
1/2-x,-y,z
x,1/2-y,1/2-z
1/2-x,1/2+y,1/2-z
-x,-y,-z
1/2+x,y,-z
-x,1/2+y,1/2+z
1/2+x,1/2-y,1/2+z
loop_
_atom_site_type_symbol
_atom_site_label
_atom_site_fract_x
_atom_site_fract_y
_atom_site_fract_z
Si Si1 0.517327 0.119112 0.746296
Si Si2 0.006172 0.972655 0.173996
Si Si3 0.859776 0.951354 0.296965
Si Si4 0.863224 0.692744 0.251424
Si Si5 0.322341 0.306787 0.464084
Si Si6 0.113706 0.868696 0.151273
Si Si7 0.882174 0.133067 0.652051
Si Si8 0.826262 0.194831 0.535436
O O1 0.321042 0.076438 0.748760
O O2 0.408749 0.173912 0.742823
O O3 0.665567 0.115009 0.806771
O O4 0.645161 0.110807 0.682515
O O5 0.978085 0.920148 0.139590
O O6 0.057042 0.965739 0.246236
O O7 0.250000 0.000000 0.149625
O O8 0.750000 0.000000 0.161579
O O9 0.938829 0.914241 0.349844
O O10 0.750000 0.000000 0.327880
O O11 0.865379 0.750000 0.250000
O O12 0.952710 0.671600 0.314709
O O13 0.025196 0.675039 0.196309
O O14 0.581183 0.316312 0.496327
O O15 0.296155 0.344152 0.409612
O O16 0.322035 0.250579 0.440975
O O17 0.830237 0.155336 0.588026
O O18 0.574440 0.185023 0.500839
#
# Coordination Sequence:
#
# PCOD8215603 Si02
#       8
#     8   8   8   8   8   8   8   8
#     4  10  20  35  54  89 117 158 191 238 305 362
#     4  11  22  35  60  89 123 157 194 240 297 366
#     4  10  20  33  56  86 124 151 193 239 298 364
#     4  10  21  33  52  86 121 154 187 239 307 368
#     4  10  24  41  62  87 112 158 208 249 290 344
#     4  11  21  38  59  83 122 154 199 246 303 357
#     4  10  21  36  56  84 117 152 197 244 300 353
#     4  10  23  42  62  84 114 159 208 246 289 346
#
# _framework density 18.992173999999999
#
# number of rings (size 3 to 8) (size 9 to 14) (size 15 to 20)
#    0.000    1.750    3.750    2.250    5.250    3.000 
#    0.000    0.000    0.000    3.000    0.000    0.000 
#    0.000    0.000    0.000    0.000    0.000    0.000 
#
# Total GULP energy -792873.695535 kJ/mol
# GULP energy per Si atom -12388.651493 kJ/mol
# Density = 1.894895 g / cm^3
# Si number density = 18.992174 Si / 1000 Ang^3
#
#
#
# Elastic Constant Matrix: (Units=GPa)
#
#
# Indices 1 2 3 4 5 6 
#
# 1 108.9472 32.9884 30.1578 0.0000 0.0000 0.0000
# 2 32.9884 127.9359 29.6724 0.0000 0.0000 0.0000
# 3 30.1578 29.6724 77.4659 0.0000 0.0000 0.0000
# 4 0.0000 0.0000 0.0000 20.2147 0.0000 0.0000
# 5 0.0000 0.0000 0.0000 0.0000 1.2375 0.0000
# 6 0.0000 0.0000 0.0000 0.0000 0.0000 8.3402
#
#
#
# Elastic Compliance Matrix: (Units=1/GPa)
#
#
# Indices 1 2 3 4 5 6 
#
# 1 0.010722 -0.001972 -0.003419 0.000000 0.000000 0.000000
# 2 -0.001972 0.008941 -0.002657 0.000000 0.000000 0.000000
# 3 -0.003419 -0.002657 0.015258 0.000000 0.000000 0.000000
# 4 0.000000 0.000000 0.000000 0.049469 0.000000 0.000000
# 5 0.000000 0.000000 0.000000 0.000000 0.808084 0.000000
# 6 0.000000 0.000000 0.000000 0.000000 0.000000 0.119901
#
#
# Mechanical properties :
#
#
# Convention : Reuss Voigt Hill
#
# Bulk Modulus (GPa) = 53.12009 55.55404 54.33706
# Shear Modulus (GPa) = 4.83210 20.72718 12.77964
#
# Velocity S-wave (km/s) = 1.59680 3.30715 2.59683
# Velocity P-wave (km/s) = 5.60624 6.62552 6.13707
#
# Compressibility (1/GPa) = 0.01882527
#
# Stress axis : x y z
#
# Youngs Moduli (GPa) = 93.26450 111.84284 65.54057
#
# Poissons Ratio (x) = 0.22053 0.22408
# Poissons Ratio (y) = 0.18390 0.17415
# Poissons Ratio (z) = 0.31887 0.29719
#
# Static dielectric constant tensor:
#      x y z
#    x 3.871520 0.000000 0.000000 
#    y 0.000000 3.618770 0.000000 
#    z 0.000000 0.000000 3.071390 
# 
# 
# High freq. dielectric constant tensor:
#      x y z
#    x 1.754730 0.000000 0.000000 
#    y 0.000000 1.752560 0.000000 
#    z 0.000000 0.000000 1.687570 
# 
# From -- ./inp_files/35315.got.cif
#   From: 2010.06.25/outbox.cif.g09.slc.cpg/sg52_18_cif.got.tgz:35315.got - 2010.06.26 19:32:48.
