data_PCOD8215091
_publ_section_title
;
Structure prediction by ZEFSAII (Michael W. Deem and Ramdas Pophale) SiO2 
 PCOD8215091
Probable space group: P N N A
;
_chemical_formula_sum "Si O2"
_cell_formula_units_Z 64
_cell_length_a 18.291945
_cell_length_b 7.547149
_cell_length_c 25.810321
_cell_angle_alpha 90.000000
_cell_angle_beta 90.000000
_cell_angle_gamma 90.000000
_cell_volume 3563.167323
_symmetry_space_group_name_H-M "P N N A"
_symmetry_group_IT_number 52
_symmetry_cell_setting 'orthorhombic'
loop_
_space_group_symop_operation_xyz
x,y,z
1/2-x,-y,z
x,1/2-y,1/2-z
1/2-x,1/2+y,1/2-z
-x,-y,-z
1/2+x,y,-z
-x,1/2+y,1/2+z
1/2+x,1/2-y,1/2+z
loop_
_atom_site_type_symbol
_atom_site_label
_atom_site_fract_x
_atom_site_fract_y
_atom_site_fract_z
Si Si1 0.330165 0.792525 0.692268
Si Si2 0.168001 0.000000 0.118095
Si Si3 0.611643 0.701398 0.809408
Si Si4 0.522648 0.500000 0.559102
Si Si5 0.669835 0.707475 0.192268
Si Si6 0.888357 0.798602 0.690592
Si Si7 0.467344 0.204364 0.631204
Si Si8 0.467344 0.795636 0.631204
O O1 0.356250 0.750000 0.750000
O O2 0.250000 0.706710 0.681323
O O3 0.390481 0.719269 0.652582
O O4 0.325379 1.000000 0.684859
O O5 0.159218 0.173226 0.153793
O O6 0.250000 0.000000 0.094696
O O7 0.159218 0.826774 0.153793
O O8 0.110123 0.000000 0.070411
O O9 0.624685 0.750000 0.750000
O O10 0.636867 0.500000 0.819570
O O11 0.526300 0.727006 0.822906
O O12 0.500000 0.500000 0.500000
O O13 0.488423 0.321727 0.582279
O O14 0.488423 0.678273 0.582279
O O15 0.643750 0.750000 0.250000
O O16 0.609519 0.780731 0.152582
O O17 0.875315 0.750000 0.750000
O O18 0.973700 0.772994 0.677094
O O19 0.462082 0.000000 0.613202
#
# Coordination Sequence:
#
# PCOD8215091 Si02
#       8
#     8   8   8   8   8   8   8   8
#     4   9  17  28  44  72 109 144 172 203 251 306
#     4  10  22  38  54  76 110 138 165 213 260 305
#     4  10  18  31  50  77 108 144 178 200 241 306
#     4  10  22  40  60  78  94 128 182 225 264 307
#     4   9  17  28  44  72 109 144 172 203 251 306
#     4  10  18  31  50  77 108 144 178 200 241 306
#     4   9  19  33  52  75 103 136 173 219 258 304
#     4   9  19  33  52  75 103 136 173 219 258 304
#
# _framework density 17.961546999999999
#
# number of rings (size 3 to 8) (size 9 to 14) (size 15 to 20)
#    0.000    2.500    1.250    0.750    1.750    1.500 
#    0.000    1.250    0.000    0.000    0.000    0.000 
#    0.000    0.000    0.000    0.000    0.000    0.000 
#
# Total GULP energy -793359.704006 kJ/mol
# GULP energy per Si atom -12396.245375 kJ/mol
# Density = 1.792067 g / cm^3
# Si number density = 17.961547 Si / 1000 Ang^3
#
#
#
# Elastic Constant Matrix: (Units=GPa)
#
#
# Indices 1 2 3 4 5 6 
#
# 1 135.6685 43.0755 63.5848 0.0000 0.0000 0.0000
# 2 43.0755 92.7786 36.5146 0.0000 0.0000 0.0000
# 3 63.5848 36.5146 109.1506 0.0000 0.0000 0.0000
# 4 0.0000 0.0000 0.0000 19.8818 0.0000 0.0000
# 5 0.0000 0.0000 0.0000 0.0000 16.2342 0.0000
# 6 0.0000 0.0000 0.0000 0.0000 0.0000 15.7269
#
#
#
# Elastic Compliance Matrix: (Units=1/GPa)
#
#
# Indices 1 2 3 4 5 6 
#
# 1 0.010784 -0.002919 -0.005306 0.000000 0.000000 0.000000
# 2 -0.002919 0.013203 -0.002716 0.000000 0.000000 0.000000
# 3 -0.005306 -0.002716 0.013161 0.000000 0.000000 0.000000
# 4 0.000000 0.000000 0.000000 0.050297 0.000000 0.000000
# 5 0.000000 0.000000 0.000000 0.000000 0.061598 0.000000
# 6 0.000000 0.000000 0.000000 0.000000 0.000000 0.063585
#
#
# Mechanical properties :
#
#
# Convention : Reuss Voigt Hill
#
# Bulk Modulus (GPa) = 65.50477 69.32751 67.41614
# Shear Modulus (GPa) = 20.86809 23.33009 22.09909
#
# Velocity S-wave (km/s) = 3.41225 3.60792 3.51145
# Velocity P-wave (km/s) = 7.21618 7.48583 7.35224
#
# Compressibility (1/GPa) = 0.01526606
#
# Stress axis : x y z
#
# Youngs Moduli (GPa) = 92.72644 75.74280 75.98024
#
# Poissons Ratio (x) = 0.22108 0.40315
# Poissons Ratio (y) = 0.27065 0.20639
# Poissons Ratio (z) = 0.49200 0.20575
#
# Static dielectric constant tensor:
#      x y z
#    x 3.657950 0.000000 0.000000 
#    y 0.000000 3.552510 0.000000 
#    z 0.000000 0.000000 2.870740 
# 
# 
# High freq. dielectric constant tensor:
#      x y z
#    x 1.699880 0.000000 0.000000 
#    y 0.000000 1.710120 0.000000 
#    z 0.000000 0.000000 1.648800 
# 
# From -- ./inp_files/40921.got.cif
#   From: 2010.06.25/outbox.cif.g09.slc.cpg/sg52_21_cif.got.tgz:40921.got - 2010.06.26 19:32:48.
