data_PCOD8215100
_publ_section_title
;
Structure prediction by ZEFSAII (Michael W. Deem and Ramdas Pophale) SiO2 
 PCOD8215100
Probable space group: P N N A
;
_chemical_formula_sum "Si O2"
_cell_formula_units_Z 48
_cell_length_a 14.910152
_cell_length_b 16.672585
_cell_length_c 10.359441
_cell_angle_alpha 90.000000
_cell_angle_beta 90.000000
_cell_angle_gamma 90.000000
_cell_volume 2575.261483
_symmetry_space_group_name_H-M "P N N A"
_symmetry_group_IT_number 52
_symmetry_cell_setting 'orthorhombic'
loop_
_space_group_symop_operation_xyz
x,y,z
1/2-x,-y,z
x,1/2-y,1/2-z
1/2-x,1/2+y,1/2-z
-x,-y,-z
1/2+x,y,-z
-x,1/2+y,1/2+z
1/2+x,1/2-y,1/2+z
loop_
_atom_site_type_symbol
_atom_site_label
_atom_site_fract_x
_atom_site_fract_y
_atom_site_fract_z
Si Si1 0.116320 0.504795 0.120419
Si Si2 0.026281 0.242594 0.399710
Si Si3 0.782601 0.713371 0.553821
Si Si4 0.356351 0.176595 0.845806
Si Si5 0.939760 0.423889 0.136918
Si Si6 0.250947 0.371793 0.189775
O O1 0.174533 0.424251 0.122168
O O2 0.158428 0.576422 0.205743
O O3 0.017449 0.487133 0.176678
O O4 0.119399 0.534511 0.972468
O O5 0.056405 0.250000 0.250000
O O6 0.114329 0.264393 0.484341
O O7 0.946017 0.305497 0.430417
O O8 0.989688 0.153379 0.425358
O O9 0.731585 0.670572 0.434742
O O10 0.783415 0.649464 0.668437
O O11 0.731253 0.793949 0.600052
O O12 0.340742 0.250000 0.750000
O O13 0.375702 0.097230 0.759188
#
# Coordination Sequence:
#
# PCOD8215100 Si02
#       6
#     8   8   8   8   8   8
#     4  10  18  31  55  81 108 137 190 233 271 332
#     4   9  15  31  53  80 109 148 187 224 276 329
#     4  11  18  33  56  79 115 146 187 233 268 336
#     4   9  19  32  55  79 110 150 181 225 291 328
#     4   9  17  32  52  81 110 144 181 229 283 335
#     4  10  19  30  52  84 102 140 191 235 268 315
#
# _framework density 18.638884000000001
#
# number of rings (size 3 to 8) (size 9 to 14) (size 15 to 20)
#    0.000    2.667    3.333    3.000    0.000    0.000 
#    0.000    0.833    7.333    8.000    0.000    0.000 
#    0.000    0.000    0.000    0.000    0.000    0.000 
#
# Total GULP energy -594847.259023 kJ/mol
# GULP energy per Si atom -12392.651230 kJ/mol
# Density = 1.859646 g / cm^3
# Si number density = 18.638884 Si / 1000 Ang^3
#
#
#
# Elastic Constant Matrix: (Units=GPa)
#
#
# Indices 1 2 3 4 5 6 
#
# 1 101.9479 32.5764 51.5407 0.0000 0.0000 0.0000
# 2 32.5764 82.8123 43.1855 0.0000 0.0000 0.0000
# 3 51.5407 43.1855 72.7728 0.0000 0.0000 0.0000
# 4 0.0000 0.0000 0.0000 30.4794 0.0000 0.0000
# 5 0.0000 0.0000 0.0000 0.0000 28.9026 0.0000
# 6 0.0000 0.0000 0.0000 0.0000 0.0000 26.0941
#
#
#
# Elastic Compliance Matrix: (Units=1/GPa)
#
#
# Indices 1 2 3 4 5 6 
#
# 1 0.015296 -0.000532 -0.010517 0.000000 0.000000 0.000000
# 2 -0.000532 0.017506 -0.010011 0.000000 0.000000 0.000000
# 3 -0.010517 -0.010011 0.027131 0.000000 0.000000 0.000000
# 4 0.000000 0.000000 0.000000 0.032809 0.000000 0.000000
# 5 0.000000 0.000000 0.000000 0.000000 0.034599 0.000000
# 6 0.000000 0.000000 0.000000 0.000000 0.000000 0.038323
#
#
# Mechanical properties :
#
#
# Convention : Reuss Voigt Hill
#
# Bulk Modulus (GPa) = 56.14563 56.90427 56.52495
# Shear Modulus (GPa) = 23.39470 25.77725 24.58597
#
# Velocity S-wave (km/s) = 3.54666 3.72288 3.63584
# Velocity P-wave (km/s) = 6.85274 7.00542 6.92950
#
# Compressibility (1/GPa) = 0.01781083
#
# Stress axis : x y z
#
# Youngs Moduli (GPa) = 65.37529 57.12420 36.85778
#
# Poissons Ratio (x) = 0.03042 0.38765
# Poissons Ratio (y) = 0.03481 0.36899
# Poissons Ratio (z) = 0.68758 0.57189
#
# Static dielectric constant tensor:
#      x y z
#    x 3.626060 0.000000 0.000000 
#    y 0.000000 3.492680 0.000000 
#    z 0.000000 0.000000 3.038810 
# 
# 
# High freq. dielectric constant tensor:
#      x y z
#    x 1.729930 0.000000 0.000000 
#    y 0.000000 1.717830 0.000000 
#    z 0.000000 0.000000 1.674750 
# 
# From -- ./inp_files/19543.got.cif
#   From: 2010.06.25/outbox.cif.g09.slc.cpg/sg52_10_cif.got.tgz:19543.got - 2010.06.26 19:32:48.
