data_PCOD8215417
_publ_section_title
;
Structure prediction by ZEFSAII (Michael W. Deem and Ramdas Pophale) SiO2 
 PCOD8215417
Probable space group: P N N A
;
_chemical_formula_sum "Si O2"
_cell_formula_units_Z 52
_cell_length_a 10.492062
_cell_length_b 8.308651
_cell_length_c 28.145899
_cell_angle_alpha 90.000000
_cell_angle_beta 90.000000
_cell_angle_gamma 90.000000
_cell_volume 2453.615408
_symmetry_space_group_name_H-M "P N N A"
_symmetry_group_IT_number 52
_symmetry_cell_setting 'orthorhombic'
loop_
_space_group_symop_operation_xyz
x,y,z
1/2-x,-y,z
x,1/2-y,1/2-z
1/2-x,1/2+y,1/2-z
-x,-y,-z
1/2+x,y,-z
-x,1/2+y,1/2+z
1/2+x,1/2-y,1/2+z
loop_
_atom_site_type_symbol
_atom_site_label
_atom_site_fract_x
_atom_site_fract_y
_atom_site_fract_z
Si Si1 0.617699 0.790559 0.426628
Si Si2 0.842485 0.705520 0.554470
Si Si3 0.750000 0.000000 0.025641
Si Si4 0.470436 0.826914 0.697934
Si Si5 0.143338 0.112235 0.285092
Si Si6 0.796537 0.328509 0.648201
Si Si7 0.750000 0.000000 0.499851
Si Si8 0.750000 0.500000 0.150159
O O1 0.476970 0.718845 0.418793
O O2 0.701814 0.635164 0.438537
O O3 0.637836 0.916048 0.469469
O O4 0.656283 0.885978 0.379580
O O5 0.852807 0.577180 0.511157
O O6 0.726355 0.666194 0.591179
O O7 0.822127 0.879321 0.533394
O O8 0.465654 0.750000 0.750000
O O9 0.555881 0.711609 0.663026
O O10 0.524955 0.006613 0.699756
O O11 0.328559 0.863980 0.679423
O O12 0.095069 0.250000 0.250000
O O13 0.208268 0.187696 0.331525
O O14 0.250000 0.000000 0.259301
O O15 0.750000 0.500000 0.669233
#
# Coordination Sequence:
#
# PCOD8215417 Si02
#       8
#     8   8   4   8   8   8   4   4
#     4  10  22  42  64  90 132 173 222 271 324 388
#     4  11  21  37  62  95 130 172 216 269 331 393
#     4  10  22  42  59 100 134 176 213 268 330 392
#     4  11  25  45  68  93 132 171 222 288 335 408
#     4  10  19  35  61  91 124 163 208 265 344 396
#     4  11  22  37  62 101 134 169 216 277 339 401
#     4   9  22  36  60  92 128 176 218 266 330 389
#     4  11  26  46  65  94 122 180 233 264 326 407
#
# _framework density 21.193214999999999
#
# number of rings (size 3 to 8) (size 9 to 14) (size 15 to 20)
#    0.000    1.538    0.769    5.077    5.385    1.846 
#    5.538    3.846    0.000    0.000    0.000    0.000 
#    0.000    0.000    0.000    0.000    0.000    0.000 
#
# Total GULP energy -644365.730175 kJ/mol
# GULP energy per Si atom -12391.648657 kJ/mol
# Density = 2.114498 g / cm^3
# Si number density = 21.193215 Si / 1000 Ang^3
#
#
#
# Elastic Constant Matrix: (Units=GPa)
#
#
# Indices 1 2 3 4 5 6 
#
# 1 95.8019 23.7073 29.2652 0.0000 0.0000 0.0000
# 2 23.7073 117.5173 27.1989 0.0000 0.0000 0.0000
# 3 29.2652 27.1989 81.4539 0.0000 0.0000 0.0000
# 4 0.0000 0.0000 0.0000 58.1262 0.0000 0.0000
# 5 0.0000 0.0000 0.0000 0.0000 16.0497 0.0000
# 6 0.0000 0.0000 0.0000 0.0000 0.0000 19.9120
#
#
#
# Elastic Compliance Matrix: (Units=1/GPa)
#
#
# Indices 1 2 3 4 5 6 
#
# 1 0.011977 -0.001539 -0.003789 0.000000 0.000000 0.000000
# 2 -0.001539 0.009420 -0.002592 0.000000 0.000000 0.000000
# 3 -0.003789 -0.002592 0.014504 0.000000 0.000000 0.000000
# 4 0.000000 0.000000 0.000000 0.017204 0.000000 0.000000
# 5 0.000000 0.000000 0.000000 0.000000 0.062306 0.000000
# 6 0.000000 0.000000 0.000000 0.000000 0.000000 0.050221
#
#
# Mechanical properties :
#
#
# Convention : Reuss Voigt Hill
#
# Bulk Modulus (GPa) = 49.85286 50.56842 50.21064
# Shear Modulus (GPa) = 26.57324 33.12438 29.84881
#
# Velocity S-wave (km/s) = 3.54482 3.95773 3.75696
# Velocity P-wave (km/s) = 6.35047 6.69308 6.52402
#
# Compressibility (1/GPa) = 0.02005903
#
# Stress axis : x y z
#
# Youngs Moduli (GPa) = 83.49656 106.15822 68.94695
#
# Poissons Ratio (x) = 0.16339 0.26124
# Poissons Ratio (y) = 0.12851 0.17874
# Poissons Ratio (z) = 0.31637 0.27521
#
# Static dielectric constant tensor:
#      x y z
#    x 3.505590 0.000000 0.000000 
#    y 0.000000 4.202340 0.000000 
#    z 0.000000 0.000000 3.713710 
# 
# 
# High freq. dielectric constant tensor:
#      x y z
#    x 1.804650 0.000000 0.000000 
#    y 0.000000 1.853290 0.000000 
#    z 0.000000 0.000000 1.827590 
# 
# From -- ./inp_files/42759.got.cif
#   From: 2010.06.25/outbox.cif.g09.slc.cpg/sg52_22_cif.got.tgz:42759.got - 2010.06.26 19:32:48.
