data_PCOD8215566
_publ_section_title
;
Structure prediction by ZEFSAII (Michael W. Deem and Ramdas Pophale) SiO2 
 PCOD8215566
Probable space group: P N N A
;
_chemical_formula_sum "Si O2"
_cell_formula_units_Z 44
_cell_length_a 15.124607
_cell_length_b 5.093573
_cell_length_c 31.013179
_cell_angle_alpha 90.000000
_cell_angle_beta 90.000000
_cell_angle_gamma 90.000000
_cell_volume 2389.202273
_symmetry_space_group_name_H-M "P N N A"
_symmetry_group_IT_number 52
_symmetry_cell_setting 'orthorhombic'
loop_
_space_group_symop_operation_xyz
x,y,z
1/2-x,-y,z
x,1/2-y,1/2-z
1/2-x,1/2+y,1/2-z
-x,-y,-z
1/2+x,y,-z
-x,1/2+y,1/2+z
1/2+x,1/2-y,1/2+z
loop_
_atom_site_type_symbol
_atom_site_label
_atom_site_fract_x
_atom_site_fract_y
_atom_site_fract_z
Si Si1 0.853879 0.484190 0.956553
Si Si2 0.890070 0.349698 0.046337
Si Si3 0.750000 0.500000 0.422923
Si Si4 0.046683 0.034443 0.069336
Si Si5 0.809818 0.752569 0.299118
Si Si6 0.585246 0.252970 0.379341
O O1 0.750000 0.500000 0.949733
O O2 0.895705 0.700624 0.924450
O O3 0.889713 0.190230 0.949224
O O4 0.886354 0.548775 0.005643
O O5 0.919817 0.494612 0.090449
O O6 0.961734 0.113912 0.039382
O O7 0.790357 0.232570 0.047870
O O8 0.672257 0.408168 0.392536
O O9 0.003994 0.924894 0.114065
O O10 0.750000 0.500000 0.309230
O O11 0.843904 0.750000 0.250000
O O12 0.898521 0.789505 0.328419
O O13 0.750000 0.000000 0.309547
#
# Coordination Sequence:
#
# PCOD8215566 Si02
#       6
#     8   8   4   8   8   8
#     4  12  25  40  56  77 108 147 196 238 292 330
#     4  11  23  36  55  80 111 148 196 235 280 326
#     4  10  20  30  52  80 106 150 188 232 268 322
#     4  11  25  39  56  79 109 148 187 243 281 329
#     4  10  21  36  56  84 118 155 188 221 267 328
#     4  11  21  36  55  80 116 147 195 226 276 323
#
# _framework density 18.416187000000001
#
# number of rings (size 3 to 8) (size 9 to 14) (size 15 to 20)
#    0.000    1.091    2.727    4.364   10.182    0.000 
#    0.000    0.000    0.000    0.000    0.000    0.000 
#    0.000    2.909    0.364    0.000    0.000    0.000 
#
# Total GULP energy -545131.458346 kJ/mol
# GULP energy per Si atom -12389.351326 kJ/mol
# Density = 1.837427 g / cm^3
# Si number density = 18.416187 Si / 1000 Ang^3
#
#
#
# Elastic Constant Matrix: (Units=GPa)
#
#
# Indices 1 2 3 4 5 6 
#
# 1 103.9636 37.8347 48.6091 0.0000 0.0000 0.0000
# 2 37.8347 112.9482 33.2013 0.0000 0.0000 0.0000
# 3 48.6091 33.2013 88.9773 0.0000 0.0000 0.0000
# 4 0.0000 0.0000 0.0000 24.2861 0.0000 0.0000
# 5 0.0000 0.0000 0.0000 0.0000 20.2020 0.0000
# 6 0.0000 0.0000 0.0000 0.0000 0.0000 31.4213
#
#
#
# Elastic Compliance Matrix: (Units=1/GPa)
#
#
# Indices 1 2 3 4 5 6 
#
# 1 0.013596 -0.002663 -0.006434 0.000000 0.000000 0.000000
# 2 -0.002663 0.010466 -0.002450 0.000000 0.000000 0.000000
# 3 -0.006434 -0.002450 0.015668 0.000000 0.000000 0.000000
# 4 0.000000 0.000000 0.000000 0.041176 0.000000 0.000000
# 5 0.000000 0.000000 0.000000 0.000000 0.049500 0.000000
# 6 0.000000 0.000000 0.000000 0.000000 0.000000 0.031826
#
#
# Mechanical properties :
#
#
# Convention : Reuss Voigt Hill
#
# Bulk Modulus (GPa) = 60.11332 60.57547 60.34439
# Shear Modulus (GPa) = 26.19559 27.59816 26.89688
#
# Velocity S-wave (km/s) = 3.77559 3.87535 3.82580
# Velocity P-wave (km/s) = 7.19161 7.27931 7.23559
#
# Compressibility (1/GPa) = 0.01663525
#
# Stress axis : x y z
#
# Youngs Moduli (GPa) = 73.55008 95.54759 63.82376
#
# Poissons Ratio (x) = 0.25445 0.41064
# Poissons Ratio (y) = 0.19587 0.15640
# Poissons Ratio (z) = 0.47322 0.23414
#
# Static dielectric constant tensor:
#      x y z
#    x 3.515910 0.000000 0.000000 
#    y 0.000000 3.640730 0.000000 
#    z 0.000000 0.000000 3.337870 
# 
# 
# High freq. dielectric constant tensor:
#      x y z
#    x 1.703900 0.000000 0.000000 
#    y 0.000000 1.738410 0.000000 
#    z 0.000000 0.000000 1.663900 
# 
# From -- ./inp_files/42933.got.cif
#   From: 2010.06.25/outbox.cif.g09.slc.cpg/sg52_22_cif.got.tgz:42933.got - 2010.06.26 19:32:48.
