data_PCOD8215876
_publ_section_title
;
Structure prediction by ZEFSAII (Michael W. Deem and Ramdas Pophale) SiO2 
 PCOD8215876
Probable space group: P N N A
;
_chemical_formula_sum "Si O2"
_cell_formula_units_Z 48
_cell_length_a 15.109679
_cell_length_b 16.723074
_cell_length_c 8.693520
_cell_angle_alpha 90.000000
_cell_angle_beta 90.000000
_cell_angle_gamma 90.000000
_cell_volume 2196.681068
_symmetry_space_group_name_H-M "P N N A"
_symmetry_group_IT_number 52
_symmetry_cell_setting 'orthorhombic'
loop_
_space_group_symop_operation_xyz
x,y,z
1/2-x,-y,z
x,1/2-y,1/2-z
1/2-x,1/2+y,1/2-z
-x,-y,-z
1/2+x,y,-z
-x,1/2+y,1/2+z
1/2+x,1/2-y,1/2+z
loop_
_atom_site_type_symbol
_atom_site_label
_atom_site_fract_x
_atom_site_fract_y
_atom_site_fract_z
Si Si1 0.033725 0.159699 0.692790
Si Si2 0.708927 0.418472 0.821645
Si Si3 0.217113 0.413125 0.818635
Si Si4 0.878268 0.334702 0.306603
Si Si5 0.638263 0.666702 0.668371
Si Si6 0.485927 0.579505 0.106237
O O1 0.052796 0.250000 0.750000
O O2 0.117040 0.102981 0.736081
O O3 0.021077 0.156068 0.507766
O O4 0.945786 0.116564 0.764785
O O5 0.750000 0.500000 0.762281
O O6 0.761759 0.355161 0.716643
O O7 0.604023 0.421618 0.792836
O O8 0.729560 0.403337 0.999313
O O9 0.250000 0.500000 0.762197
O O10 0.277283 0.344921 0.744539
O O11 0.915857 0.250000 0.250000
O O12 0.877558 0.335278 0.488753
O O13 0.935308 0.406316 0.228044
O O14 0.617464 0.750000 0.750000
O O15 0.500000 0.500000 0.000000
#
# Coordination Sequence:
#
# PCOD8215876 Si02
#       6
#     8   8   8   8   8   8
#     4  10  20  38  63  90 125 167 212 271 329 386
#     4  10  21  40  66  91 124 164 207 262 322 385
#     4  10  21  39  64  92 123 166 214 263 321 389
#     4  12  24  40  65  94 126 170 221 272 330 399
#     4  11  24  40  61  91 131 170 210 268 329 387
#     4  11  23  43  70  96 127 173 224 272 329 398
#
# _framework density 21.851144999999999
#
# number of rings (size 3 to 8) (size 9 to 14) (size 15 to 20)
#    0.000    1.333    0.000    8.500    0.000    4.000 
#    0.000    5.833    0.000    0.000    0.000    0.000 
#    0.000    0.000    0.000    0.000    0.000    0.000 
#
# Total GULP energy -594794.947508 kJ/mol
# GULP energy per Si atom -12391.561406 kJ/mol
# Density = 2.180141 g / cm^3
# Si number density = 21.851145 Si / 1000 Ang^3
#
#
#
# Elastic Constant Matrix: (Units=GPa)
#
#
# Indices 1 2 3 4 5 6 
#
# 1 177.3434 32.8506 52.5135 0.0000 0.0000 0.0000
# 2 32.8506 77.7032 38.9699 0.0000 0.0000 0.0000
# 3 52.5135 38.9699 96.4910 0.0000 0.0000 0.0000
# 4 0.0000 0.0000 0.0000 27.9184 0.0000 0.0000
# 5 0.0000 0.0000 0.0000 0.0000 33.8163 0.0000
# 6 0.0000 0.0000 0.0000 0.0000 0.0000 18.2105
#
#
#
# Elastic Compliance Matrix: (Units=1/GPa)
#
#
# Indices 1 2 3 4 5 6 
#
# 1 0.006822 -0.001282 -0.003195 0.000000 0.000000 0.000000
# 2 -0.001282 0.016379 -0.005917 0.000000 0.000000 0.000000
# 3 -0.003195 -0.005917 0.014493 0.000000 0.000000 0.000000
# 4 0.000000 0.000000 0.000000 0.035819 0.000000 0.000000
# 5 0.000000 0.000000 0.000000 0.000000 0.029572 0.000000
# 6 0.000000 0.000000 0.000000 0.000000 0.000000 0.054913
#
#
# Mechanical properties :
#
#
# Convention : Reuss Voigt Hill
#
# Bulk Modulus (GPa) = 59.15422 66.68951 62.92186
# Shear Modulus (GPa) = 27.11182 31.13596 29.12389
#
# Velocity S-wave (km/s) = 3.52625 3.77890 3.65476
# Velocity P-wave (km/s) = 6.61131 7.04459 6.83139
#
# Compressibility (1/GPa) = 0.01690496
#
# Stress axis : x y z
#
# Youngs Moduli (GPa) = 146.57651 61.05338 69.00113
#
# Poissons Ratio (x) = 0.07826 0.22048
# Poissons Ratio (y) = 0.18788 0.40831
# Poissons Ratio (z) = 0.46835 0.36128
#
# Static dielectric constant tensor:
#      x y z
#    x 4.567220 0.000000 0.000000 
#    y 0.000000 3.955910 0.000000 
#    z 0.000000 0.000000 3.729270 
# 
# 
# High freq. dielectric constant tensor:
#      x y z
#    x 1.883100 0.000000 0.000000 
#    y 0.000000 1.850200 0.000000 
#    z 0.000000 0.000000 1.840220 
# 
# From -- ./inp_files/10490.got.cif
#   From: 2010.06.25/outbox.cif.g09.slc.cpg/sg52_6_cif.got.tgz:10490.got - 2010.06.26 19:32:48.
