data_PCOD8215219
_publ_section_title
;
Structure prediction by ZEFSAII (Michael W. Deem and Ramdas Pophale) SiO2 
 PCOD8215219
Probable space group: P N N A
;
_chemical_formula_sum "Si O2"
_cell_formula_units_Z 64
_cell_length_a 18.666708
_cell_length_b 9.473501
_cell_length_c 17.642398
_cell_angle_alpha 90.000000
_cell_angle_beta 90.000000
_cell_angle_gamma 90.000000
_cell_volume 3119.865377
_symmetry_space_group_name_H-M "P N N A"
_symmetry_group_IT_number 52
_symmetry_cell_setting 'orthorhombic'
loop_
_space_group_symop_operation_xyz
x,y,z
1/2-x,-y,z
x,1/2-y,1/2-z
1/2-x,1/2+y,1/2-z
-x,-y,-z
1/2+x,y,-z
-x,1/2+y,1/2+z
1/2+x,1/2-y,1/2+z
loop_
_atom_site_type_symbol
_atom_site_label
_atom_site_fract_x
_atom_site_fract_y
_atom_site_fract_z
Si Si1 0.565440 0.179167 0.484346
Si Si2 0.062405 0.511839 0.847421
Si Si3 0.668538 0.536903 0.942292
Si Si4 0.414084 0.254120 0.951421
Si Si5 0.528949 0.909898 0.777832
Si Si6 0.908154 0.948058 0.105827
Si Si7 0.183523 0.593267 0.233915
Si Si8 0.184482 0.093538 0.750387
O O1 0.535544 0.066502 0.423227
O O2 0.497071 0.235554 0.527838
O O3 0.605192 0.313525 0.447426
O O4 0.620825 0.101181 0.540306
O O5 0.091740 0.667108 0.869595
O O6 0.125503 0.415711 0.814767
O O7 0.999375 0.519771 0.785670
O O8 0.750000 0.500000 0.965844
O O9 0.662858 0.571563 0.853633
O O10 0.640079 0.673687 0.988511
O O11 0.396776 0.089320 0.943210
O O12 0.513637 0.750000 0.750000
O O13 0.488101 0.937137 0.857090
O O14 0.613729 0.938271 0.786258
O O15 0.847696 0.953360 0.169664
O O16 0.250000 0.500000 0.260692
O O17 0.210028 0.750000 0.250000
O O18 0.214473 0.250000 0.750000
O O19 0.250000 0.000000 0.726025
#
# Coordination Sequence:
#
# PCOD8215219 Si02
#       8
#     8   8   8   8   8   8   8   8
#     4  11  20  41  64  87 126 164 205 247 300 372
#     4  10  19  38  61  87 119 161 210 246 294 365
#     4  10  23  43  65  90 122 166 211 243 303 384
#     4  11  24  36  63  94 126 160 204 257 308 361
#     4  10  18  36  66  84 122 165 203 251 312 356
#     4  11  23  40  58  98 128 155 210 255 308 364
#     4  10  22  43  66  92 120 157 208 255 314 375
#     4  11  24  40  63  88 125 170 209 256 309 363
#
# _framework density 20.513705000000002
#
# number of rings (size 3 to 8) (size 9 to 14) (size 15 to 20)
#    0.000    1.500    2.500    4.125    3.500    4.500 
#    6.750    0.000    0.000    0.000    0.000    0.000 
#    0.000    0.000    0.000    0.000    0.000    0.000 
#
# Total GULP energy -793622.367778 kJ/mol
# GULP energy per Si atom -12400.349497 kJ/mol
# Density = 2.046701 g / cm^3
# Si number density = 20.513705 Si / 1000 Ang^3
#
#
#
# Elastic Constant Matrix: (Units=GPa)
#
#
# Indices 1 2 3 4 5 6 
#
# 1 93.8190 23.7141 12.1250 0.0000 0.0000 0.0000
# 2 23.7141 111.4284 28.8808 0.0000 0.0000 0.0000
# 3 12.1250 28.8808 62.1954 0.0000 0.0000 0.0000
# 4 0.0000 0.0000 0.0000 33.8028 0.0000 0.0000
# 5 0.0000 0.0000 0.0000 0.0000 15.5638 0.0000
# 6 0.0000 0.0000 0.0000 0.0000 0.0000 30.7272
#
#
#
# Elastic Compliance Matrix: (Units=1/GPa)
#
#
# Indices 1 2 3 4 5 6 
#
# 1 0.011348 -0.002094 -0.001240 0.000000 0.000000 0.000000
# 2 -0.002094 0.010589 -0.004509 0.000000 0.000000 0.000000
# 3 -0.001240 -0.004509 0.018414 0.000000 0.000000 0.000000
# 4 0.000000 0.000000 0.000000 0.029583 0.000000 0.000000
# 5 0.000000 0.000000 0.000000 0.000000 0.064252 0.000000
# 6 0.000000 0.000000 0.000000 0.000000 0.000000 0.032544
#
#
# Mechanical properties :
#
#
# Convention : Reuss Voigt Hill
#
# Bulk Modulus (GPa) = 40.54233 44.09805 42.32019
# Shear Modulus (GPa) = 26.22785 29.53362 27.88073
#
# Velocity S-wave (km/s) = 3.57956 3.79846 3.69063
# Velocity P-wave (km/s) = 6.07378 6.38602 6.23186
#
# Compressibility (1/GPa) = 0.02466558
#
# Stress axis : x y z
#
# Youngs Moduli (GPa) = 88.11885 94.44163 54.30721
#
# Poissons Ratio (x) = 0.19773 0.06735
# Poissons Ratio (y) = 0.18450 0.24485
# Poissons Ratio (z) = 0.10928 0.42581
#
# Static dielectric constant tensor:
#      x y z
#    x 3.708710 0.000000 0.000000 
#    y 0.000000 3.871050 0.000000 
#    z 0.000000 0.000000 3.683420 
# 
# 
# High freq. dielectric constant tensor:
#      x y z
#    x 1.799600 0.000000 0.000000 
#    y 0.000000 1.802400 0.000000 
#    z 0.000000 0.000000 1.794590 
# 
# From -- ./inp_files/34122.got.cif
#   From: 2010.06.25/outbox.cif.g09.slc.cpg/sg52_18_cif.got.tgz:34122.got - 2010.06.26 19:32:48.
