data_PCOD8215936
_publ_section_title
;
Structure prediction by ZEFSAII (Michael W. Deem and Ramdas Pophale) SiO2 
 PCOD8215936
Probable space group: P N N A
;
_chemical_formula_sum "Si O2"
_cell_formula_units_Z 32
_cell_length_a 36.031166
_cell_length_b 7.918702
_cell_length_c 5.028224
_cell_angle_alpha 90.000000
_cell_angle_beta 90.000000
_cell_angle_gamma 90.000000
_cell_volume 1434.653205
_symmetry_space_group_name_H-M "P N N A"
_symmetry_group_IT_number 52
_symmetry_cell_setting 'orthorhombic'
loop_
_space_group_symop_operation_xyz
x,y,z
1/2-x,-y,z
x,1/2-y,1/2-z
1/2-x,1/2+y,1/2-z
-x,-y,-z
1/2+x,y,-z
-x,1/2+y,1/2+z
1/2+x,1/2-y,1/2+z
loop_
_atom_site_type_symbol
_atom_site_label
_atom_site_fract_x
_atom_site_fract_y
_atom_site_fract_z
Si Si1 0.105180 0.550659 0.745037
Si Si2 0.778722 0.641188 0.512364
Si Si3 0.848860 0.449631 0.748334
Si Si4 0.523231 0.553393 0.247801
O O1 0.102072 0.750000 0.750000
O O2 0.119156 0.498806 0.456144
O O3 0.064196 0.468366 0.774668
O O4 0.135069 0.490319 0.966537
O O5 0.750000 0.500000 0.411265
O O6 0.759784 0.750000 0.750000
O O7 0.813303 0.555385 0.661424
O O8 0.789596 0.750000 0.250000
O O9 0.839309 0.250000 0.750000
O O10 0.529593 0.750000 0.250000
O O11 0.500000 0.500000 0.500000
O O12 0.500000 0.500000 0.000000
#
# Coordination Sequence:
#
# PCOD8215936 Si02
#       4
#     8   8   8   8
#     4   9  19  36  61  88 119 162 208 250 306 378
#     4  12  26  44  66  95 129 165 205 256 312 375
#     4  10  20  39  65  90 118 160 209 256 307 369
#     4  11  22  39  61  89 124 165 211 258 309 370
#
# _framework density 22.305042
#
# number of rings (size 3 to 8) (size 9 to 14) (size 15 to 20)
#    0.000    1.500    0.000    5.250    0.000    7.000 
#    0.000   12.500    0.000    0.000    0.000    0.000 
#    0.000    0.000    0.000    0.000    0.000    0.000 
#
# Total GULP energy -396628.688438 kJ/mol
# GULP energy per Si atom -12394.646514 kJ/mol
# Density = 2.225427 g / cm^3
# Si number density = 22.305042 Si / 1000 Ang^3
#
#
#
# Elastic Constant Matrix: (Units=GPa)
#
#
# Indices 1 2 3 4 5 6 
#
# 1 142.3960 43.0622 46.2146 0.0000 0.0000 0.0000
# 2 43.0622 67.1742 38.5100 0.0000 0.0000 0.0000
# 3 46.2146 38.5100 160.4511 0.0000 0.0000 0.0000
# 4 0.0000 0.0000 0.0000 35.3254 0.0000 0.0000
# 5 0.0000 0.0000 0.0000 0.0000 10.0877 0.0000
# 6 0.0000 0.0000 0.0000 0.0000 0.0000 15.5177
#
#
#
# Elastic Compliance Matrix: (Units=1/GPa)
#
#
# Indices 1 2 3 4 5 6 
#
# 1 0.008973 -0.004952 -0.001396 0.000000 0.000000 0.000000
# 2 -0.004952 0.019995 -0.003373 0.000000 0.000000 0.000000
# 3 -0.001396 -0.003373 0.007444 0.000000 0.000000 0.000000
# 4 0.000000 0.000000 0.000000 0.028308 0.000000 0.000000
# 5 0.000000 0.000000 0.000000 0.000000 0.099131 0.000000
# 6 0.000000 0.000000 0.000000 0.000000 0.000000 0.064443
#
#
# Mechanical properties :
#
#
# Convention : Reuss Voigt Hill
#
# Bulk Modulus (GPa) = 58.92543 69.51054 64.21799
# Shear Modulus (GPa) = 19.73228 28.33512 24.03370
#
# Velocity S-wave (km/s) = 2.97754 3.56806 3.28609
# Velocity P-wave (km/s) = 6.18840 6.94305 6.57656
#
# Compressibility (1/GPa) = 0.01697060
#
# Stress axis : x y z
#
# Youngs Moduli (GPa) = 111.44174 50.01344 134.33658
#
# Poissons Ratio (x) = 0.24767 0.18754
# Poissons Ratio (y) = 0.55186 0.45306
# Poissons Ratio (z) = 0.15558 0.16868
#
# Static dielectric constant tensor:
#      x y z
#    x 4.325180 0.000000 0.000000 
#    y 0.000000 4.246950 0.000000 
#    z 0.000000 0.000000 3.465960 
# 
# 
# High freq. dielectric constant tensor:
#      x y z
#    x 1.890000 0.000000 0.000000 
#    y 0.000000 1.863820 0.000000 
#    z 0.000000 0.000000 1.895570 
# 
# From -- ./inp_files/6227.got.cif
#   From: 2010.06.25/outbox.cif.g09.slc.cpg/sg52_4_cif.got.tgz:6227.got - 2010.06.26 19:32:48.
