data_PCOD8215563
_publ_section_title
;
Structure prediction by ZEFSAII (Michael W. Deem and Ramdas Pophale) SiO2 
 PCOD8215563
Probable space group: P N N A
;
_chemical_formula_sum "Si O2"
_cell_formula_units_Z 64
_cell_length_a 26.466608
_cell_length_b 9.128241
_cell_length_c 13.650778
_cell_angle_alpha 90.000000
_cell_angle_beta 90.000000
_cell_angle_gamma 90.000000
_cell_volume 3297.940276
_symmetry_space_group_name_H-M "P N N A"
_symmetry_group_IT_number 52
_symmetry_cell_setting 'orthorhombic'
loop_
_space_group_symop_operation_xyz
x,y,z
1/2-x,-y,z
x,1/2-y,1/2-z
1/2-x,1/2+y,1/2-z
-x,-y,-z
1/2+x,y,-z
-x,1/2+y,1/2+z
1/2+x,1/2-y,1/2+z
loop_
_atom_site_type_symbol
_atom_site_label
_atom_site_fract_x
_atom_site_fract_y
_atom_site_fract_z
Si Si1 0.569454 0.124798 0.997886
Si Si2 0.700849 0.586293 0.725567
Si Si3 0.604450 0.593518 0.850791
Si Si4 0.021407 0.894269 0.870719
Si Si5 0.645049 0.871937 0.955502
Si Si6 0.083715 0.434518 0.950235
Si Si7 0.494848 0.597468 0.795401
Si Si8 0.620412 0.786551 0.360653
O O1 0.599603 0.263636 0.043608
O O2 0.532940 0.048079 0.075917
O O3 0.532185 0.171415 0.907801
O O4 0.611701 0.014675 0.963561
O O5 0.750000 0.500000 0.759608
O O6 0.714379 0.750000 0.750000
O O7 0.651480 0.530886 0.787108
O O8 0.693525 0.575505 0.607166
O O9 0.616281 0.756130 0.887189
O O10 0.554991 0.605372 0.784901
O O11 0.588566 0.491475 0.940380
O O12 0.064559 0.773216 0.886196
O O13 0.021166 0.945628 0.758227
O O14 0.657674 0.796635 0.061521
O O15 0.026771 0.426138 0.905447
O O16 0.119357 0.537175 0.880050
O O17 0.472683 0.750000 0.750000
O O18 0.638088 0.750000 0.250000
#
# Coordination Sequence:
#
# PCOD8215563 Si02
#       8
#     8   8   8   8   8   8   8   8
#     4  10  20  32  47  73 107 146 192 238 272 324
#     4  10  21  41  66  89 112 142 185 239 304 362
#     4  10  22  36  55  80 112 150 186 236 292 343
#     4  10  20  30  45  66 103 152 193 227 274 321
#     4   9  20  38  55  78 109 150 181 225 294 357
#     4  11  23  32  50  78 111 149 201 240 270 321
#     4  12  20  32  51  74 111 159 198 227 270 331
#     4  10  20  34  50  74 112 150 193 231 274 331
#
# _framework density 19.406053
#
# number of rings (size 3 to 8) (size 9 to 14) (size 15 to 20)
#    0.000    1.750    2.500    3.000    7.000    1.000 
#    0.000    1.250    0.000    0.000    0.000    9.625 
#    0.000    0.000    0.000    0.000    0.000    0.000 
#
# Total GULP energy -792891.267864 kJ/mol
# GULP energy per Si atom -12388.926060 kJ/mol
# Density = 1.936188 g / cm^3
# Si number density = 19.406053 Si / 1000 Ang^3
#
#
#
# Elastic Constant Matrix: (Units=GPa)
#
#
# Indices 1 2 3 4 5 6 
#
# 1 70.4223 26.5180 39.7315 0.0000 0.0000 0.0000
# 2 26.5180 85.3912 33.8185 0.0000 0.0000 0.0000
# 3 39.7315 33.8185 111.4858 0.0000 0.0000 0.0000
# 4 0.0000 0.0000 0.0000 27.1317 0.0000 0.0000
# 5 0.0000 0.0000 0.0000 0.0000 13.4781 0.0000
# 6 0.0000 0.0000 0.0000 0.0000 0.0000 15.7957
#
#
#
# Elastic Compliance Matrix: (Units=1/GPa)
#
#
# Indices 1 2 3 4 5 6 
#
# 1 0.018699 -0.003600 -0.005572 0.000000 0.000000 0.000000
# 2 -0.003600 0.014003 -0.002965 0.000000 0.000000 0.000000
# 3 -0.005572 -0.002965 0.011855 0.000000 0.000000 0.000000
# 4 0.000000 0.000000 0.000000 0.036857 0.000000 0.000000
# 5 0.000000 0.000000 0.000000 0.000000 0.074195 0.000000
# 6 0.000000 0.000000 0.000000 0.000000 0.000000 0.063308
#
#
# Mechanical properties :
#
#
# Convention : Reuss Voigt Hill
#
# Bulk Modulus (GPa) = 49.30156 51.93729 50.61942
# Shear Modulus (GPa) = 20.00381 22.42985 21.21683
#
# Velocity S-wave (km/s) = 3.21409 3.40342 3.31011
# Velocity P-wave (km/s) = 6.26373 6.50122 6.38358
#
# Compressibility (1/GPa) = 0.02028333
#
# Stress axis : x y z
#
# Youngs Moduli (GPa) = 53.47758 71.41332 84.35391
#
# Poissons Ratio (x) = 0.25711 0.47002
# Poissons Ratio (y) = 0.19254 0.25008
# Poissons Ratio (z) = 0.29798 0.21171
#
# Static dielectric constant tensor:
#      x y z
#    x 3.070330 0.000000 0.000000 
#    y 0.000000 3.653370 0.000000 
#    z 0.000000 0.000000 3.845460 
# 
# 
# High freq. dielectric constant tensor:
#      x y z
#    x 1.686030 0.000000 0.000000 
#    y 0.000000 1.766560 0.000000 
#    z 0.000000 0.000000 1.768600 
# 
# From -- ./inp_files/29252.got.cif
#   From: 2010.06.25/outbox.cif.g09.slc.cpg/sg52_15_cif.got.tgz:29252.got - 2010.06.26 19:32:48.
