data_PCOD8215504
_publ_section_title
;
Structure prediction by ZEFSAII (Michael W. Deem and Ramdas Pophale) SiO2 
 PCOD8215504
Probable space group: P N N A
;
_chemical_formula_sum "Si O2"
_cell_formula_units_Z 40
_cell_length_a 12.499907
_cell_length_b 11.487309
_cell_length_c 14.184784
_cell_angle_alpha 90.000000
_cell_angle_beta 90.000000
_cell_angle_gamma 90.000000
_cell_volume 2036.797307
_symmetry_space_group_name_H-M "P N N A"
_symmetry_group_IT_number 52
_symmetry_cell_setting 'orthorhombic'
loop_
_space_group_symop_operation_xyz
x,y,z
1/2-x,-y,z
x,1/2-y,1/2-z
1/2-x,1/2+y,1/2-z
-x,-y,-z
1/2+x,y,-z
-x,1/2+y,1/2+z
1/2+x,1/2-y,1/2+z
loop_
_atom_site_type_symbol
_atom_site_label
_atom_site_fract_x
_atom_site_fract_y
_atom_site_fract_z
Si Si1 0.657473 0.857307 0.070498
Si Si2 0.461046 0.846337 0.177964
Si Si3 0.091107 0.737449 0.390880
Si Si4 0.139769 0.937048 0.260796
Si Si5 0.604628 0.110073 0.030178
O O1 0.589134 0.823315 0.163079
O O2 0.781941 0.877603 0.085027
O O3 0.589246 0.969176 0.028407
O O4 0.646860 0.755738 0.992592
O O5 0.414990 0.750000 0.250000
O O6 0.447816 0.970117 0.227938
O O7 0.397804 0.841145 0.077331
O O8 0.088787 0.867825 0.349245
O O9 0.162075 0.653630 0.323791
O O10 0.972557 0.683189 0.401523
O O11 0.250000 0.000000 0.288767
#
# Coordination Sequence:
#
# PCOD8215504 Si02
#       5
#     8   8   8   8   8
#     4  10  19  38  60  86 112 158 198 242 294 355
#     4  11  22  37  58  89 119 147 198 250 294 353
#     4  10  20  37  59  85 118 151 198 248 292 354
#     4  11  22  34  57  91 116 151 196 252 301 340
#     4  10  19  38  62  83 115 157 201 241 293 355
#
# _framework density 19.638676
#
# number of rings (size 3 to 8) (size 9 to 14) (size 15 to 20)
#    0.000    1.600    4.000    2.400    5.600    0.000 
#    3.600    4.000    0.000    0.000    0.000    0.000 
#    0.000    0.000    0.000    0.000    0.000    0.000 
#
# Total GULP energy -495708.919808 kJ/mol
# GULP energy per Si atom -12392.722995 kJ/mol
# Density = 1.959398 g / cm^3
# Si number density = 19.638676 Si / 1000 Ang^3
#
#
#
# Elastic Constant Matrix: (Units=GPa)
#
#
# Indices 1 2 3 4 5 6 
#
# 1 73.0235 36.1534 33.1185 0.0000 0.0000 0.0000
# 2 36.1534 91.8816 52.1498 0.0000 0.0000 0.0000
# 3 33.1185 52.1498 80.0636 0.0000 0.0000 0.0000
# 4 0.0000 0.0000 0.0000 33.2487 0.0000 0.0000
# 5 0.0000 0.0000 0.0000 0.0000 22.9222 0.0000
# 6 0.0000 0.0000 0.0000 0.0000 0.0000 20.6984
#
#
#
# Elastic Compliance Matrix: (Units=1/GPa)
#
#
# Indices 1 2 3 4 5 6 
#
# 1 0.017969 -0.004524 -0.004486 0.000000 0.000000 0.000000
# 2 -0.004524 0.018406 -0.010118 0.000000 0.000000 0.000000
# 3 -0.004486 -0.010118 0.020936 0.000000 0.000000 0.000000
# 4 0.000000 0.000000 0.000000 0.030076 0.000000 0.000000
# 5 0.000000 0.000000 0.000000 0.000000 0.043626 0.000000
# 6 0.000000 0.000000 0.000000 0.000000 0.000000 0.048313
#
#
# Mechanical properties :
#
#
# Convention : Reuss Voigt Hill
#
# Bulk Modulus (GPa) = 52.47865 54.20133 53.33999
# Shear Modulus (GPa) = 22.32815 23.61034 22.96924
#
# Velocity S-wave (km/s) = 3.37552 3.47109 3.42364
# Velocity P-wave (km/s) = 6.47860 6.61240 6.54584
#
# Compressibility (1/GPa) = 0.01905537
#
# Stress axis : x y z
#
# Youngs Moduli (GPa) = 55.65258 54.32951 47.76512
#
# Poissons Ratio (x) = 0.24579 0.21427
# Poissons Ratio (y) = 0.25178 0.48327
# Poissons Ratio (z) = 0.24965 0.54968
#
# Static dielectric constant tensor:
#      x y z
#    x 3.553390 0.000000 0.000000 
#    y 0.000000 3.492680 0.000000 
#    z 0.000000 0.000000 3.430570 
# 
# 
# High freq. dielectric constant tensor:
#      x y z
#    x 1.770450 0.000000 0.000000 
#    y 0.000000 1.744200 0.000000 
#    z 0.000000 0.000000 1.744680 
# 
# From -- ./inp_files/27034.got.cif
#   From: 2010.06.25/outbox.cif.g09.slc.cpg/sg52_14_cif.got.tgz:27034.got - 2010.06.26 19:32:48.
