data_PCOD8215485
_publ_section_title
;
Structure prediction by ZEFSAII (Michael W. Deem and Ramdas Pophale) SiO2 
 PCOD8215485
Probable space group: P N N A
;
_chemical_formula_sum "Si O2"
_cell_formula_units_Z 32
_cell_length_a 9.798855
_cell_length_b 19.238419
_cell_length_c 8.033287
_cell_angle_alpha 90.000000
_cell_angle_beta 90.000000
_cell_angle_gamma 90.000000
_cell_volume 1514.390907
_symmetry_space_group_name_H-M "P N N A"
_symmetry_group_IT_number 52
_symmetry_cell_setting 'orthorhombic'
loop_
_space_group_symop_operation_xyz
x,y,z
1/2-x,-y,z
x,1/2-y,1/2-z
1/2-x,1/2+y,1/2-z
-x,-y,-z
1/2+x,y,-z
-x,1/2+y,1/2+z
1/2+x,1/2-y,1/2+z
loop_
_atom_site_type_symbol
_atom_site_label
_atom_site_fract_x
_atom_site_fract_y
_atom_site_fract_z
Si Si1 0.423284 0.987081 0.241955
Si Si2 0.165855 0.172352 0.815224
Si Si3 0.410794 0.394252 0.495917
Si Si4 0.346615 0.942915 0.572215
O O1 0.326746 0.943563 0.369856
O O2 0.349472 0.041068 0.114050
O O3 0.502293 0.039033 0.366364
O O4 0.515129 0.930243 0.151080
O O5 0.168131 0.250000 0.750000
O O6 0.194655 0.131296 0.644575
O O7 0.020883 0.152813 0.897873
O O8 0.286655 0.154935 0.946696
O O9 0.250000 0.000000 0.657790
#
# Coordination Sequence:
#
# PCOD8215485 Si02
#       4
#     8   8   8   8
#     4   9  20  35  67  96 121 162 216 266 320 366
#     4  11  25  44  62  92 136 170 213 260 327 391
#     4  10  22  42  66  93 125 169 214 269 316 384
#     4  10  19  37  62  93 126 162 206 269 310 376
#
# _framework density 21.130609
#
# number of rings (size 3 to 8) (size 9 to 14) (size 15 to 20)
#    0.000    2.000    2.500    0.000    3.500    2.000 
#    4.500    1.250    0.000    0.000    0.000    0.000 
#    0.000    0.000    0.000    0.000    0.000    0.000 
#
# Total GULP energy -396421.553458 kJ/mol
# GULP energy per Si atom -12388.173546 kJ/mol
# Density = 2.108251 g / cm^3
# Si number density = 21.130609 Si / 1000 Ang^3
#
#
#
# Elastic Constant Matrix: (Units=GPa)
#
#
# Indices 1 2 3 4 5 6 
#
# 1 92.3916 51.7114 44.1175 0.0000 0.0000 0.0000
# 2 51.7114 162.5628 76.5715 0.0000 0.0000 0.0000
# 3 44.1175 76.5715 135.0049 0.0000 0.0000 0.0000
# 4 0.0000 0.0000 0.0000 26.6018 0.0000 0.0000
# 5 0.0000 0.0000 0.0000 0.0000 30.8782 0.0000
# 6 0.0000 0.0000 0.0000 0.0000 0.0000 29.8007
#
#
#
# Elastic Compliance Matrix: (Units=1/GPa)
#
#
# Indices 1 2 3 4 5 6 
#
# 1 0.013890 -0.003112 -0.002774 0.000000 0.000000 0.000000
# 2 -0.003112 0.009091 -0.004139 0.000000 0.000000 0.000000
# 3 -0.002774 -0.004139 0.010661 0.000000 0.000000 0.000000
# 4 0.000000 0.000000 0.000000 0.037592 0.000000 0.000000
# 5 0.000000 0.000000 0.000000 0.000000 0.032385 0.000000
# 6 0.000000 0.000000 0.000000 0.000000 0.000000 0.033556
#
#
# Mechanical properties :
#
#
# Convention : Reuss Voigt Hill
#
# Bulk Modulus (GPa) = 73.57301 81.64001 77.60651
# Shear Modulus (GPa) = 30.91073 31.96007 31.43540
#
# Velocity S-wave (km/s) = 3.82886 3.89331 3.86122
# Velocity P-wave (km/s) = 7.37839 7.67660 7.52898
#
# Compressibility (1/GPa) = 0.01359194
#
# Stress axis : x y z
#
# Youngs Moduli (GPa) = 71.99563 109.99820 93.79611
#
# Poissons Ratio (x) = 0.34228 0.26020
# Poissons Ratio (y) = 0.22403 0.38826
# Poissons Ratio (z) = 0.19972 0.45532
#
# Static dielectric constant tensor:
#      x y z
#    x 3.837160 0.000000 0.000000 
#    y 0.000000 3.540020 0.000000 
#    z 0.000000 0.000000 4.312250 
# 
# 
# High freq. dielectric constant tensor:
#      x y z
#    x 1.834960 0.000000 0.000000 
#    y 0.000000 1.796580 0.000000 
#    z 0.000000 0.000000 1.847890 
# 
# From -- ./inp_files/7218.got.cif
#   From: 2010.06.25/outbox.cif.g09.slc.cpg/sg52_4_cif.got.tgz:7218.got - 2010.06.26 19:32:48.
