data_PCOD8215132
_publ_section_title
;
Structure prediction by ZEFSAII (Michael W. Deem and Ramdas Pophale) SiO2 
 PCOD8215132
Probable space group: P N N A
;
_chemical_formula_sum "Si O2"
_cell_formula_units_Z 32
_cell_length_a 11.443085
_cell_length_b 8.101353
_cell_length_c 14.979619
_cell_angle_alpha 90.000000
_cell_angle_beta 90.000000
_cell_angle_gamma 90.000000
_cell_volume 1388.677655
_symmetry_space_group_name_H-M "P N N A"
_symmetry_group_IT_number 52
_symmetry_cell_setting 'orthorhombic'
loop_
_space_group_symop_operation_xyz
x,y,z
1/2-x,-y,z
x,1/2-y,1/2-z
1/2-x,1/2+y,1/2-z
-x,-y,-z
1/2+x,y,-z
-x,1/2+y,1/2+z
1/2+x,1/2-y,1/2+z
loop_
_atom_site_type_symbol
_atom_site_label
_atom_site_fract_x
_atom_site_fract_y
_atom_site_fract_z
Si Si1 0.251490 0.305983 0.342782
Si Si2 0.149355 0.118904 0.675037
Si Si3 0.204366 0.814378 0.963799
Si Si4 0.511409 0.810585 0.344241
O O1 0.250000 0.500000 0.337315
O O2 0.313611 0.250000 0.250000
O O3 0.315838 0.252643 0.433943
O O4 0.124831 0.222679 0.350018
O O5 0.111026 0.250000 0.750000
O O6 0.198819 0.203416 0.585611
O O7 0.250000 0.000000 0.715860
O O8 0.038057 0.006827 0.646946
O O9 0.077716 0.797002 0.918977
O O10 0.250000 0.000000 0.962379
O O11 0.562956 0.750000 0.250000
#
# Coordination Sequence:
#
# PCOD8215132 Si02
#       4
#     8   8   8   8
#     4  10  24  44  63  86 125 169 208 259 316 373
#     4  10  18  32  59  94 132 165 201 261 315 365
#     4  10  20  36  62  93 127 163 206 258 314 370
#     4  10  21  39  62  92 126 162 211 256 307 378
#
# _framework density 23.043505
#
# number of rings (size 3 to 8) (size 9 to 14) (size 15 to 20)
#    0.000    2.000    0.000    5.250    0.000    8.000 
#    0.000   12.500    0.000    1.500    0.000    0.000 
#    0.000    0.000    0.000    0.000    0.000    0.000 
#
# Total GULP energy -396647.429896 kJ/mol
# GULP energy per Si atom -12395.232184 kJ/mol
# Density = 2.299106 g / cm^3
# Si number density = 23.043505 Si / 1000 Ang^3
#
#
#
# Elastic Constant Matrix: (Units=GPa)
#
#
# Indices 1 2 3 4 5 6 
#
# 1 39.7495 10.9390 5.6339 0.0000 0.0000 0.0000
# 2 10.9390 96.7394 21.0425 0.0000 0.0000 0.0000
# 3 5.6339 21.0425 192.5157 0.0000 0.0000 0.0000
# 4 0.0000 0.0000 0.0000 29.2259 0.0000 0.0000
# 5 0.0000 0.0000 0.0000 0.0000 17.8593 0.0000
# 6 0.0000 0.0000 0.0000 0.0000 0.0000 32.8617
#
#
#
# Elastic Compliance Matrix: (Units=1/GPa)
#
#
# Indices 1 2 3 4 5 6 
#
# 1 0.026004 -0.002842 -0.000450 0.000000 0.000000 0.000000
# 2 -0.002842 0.010900 -0.001108 0.000000 0.000000 0.000000
# 3 -0.000450 -0.001108 0.005329 0.000000 0.000000 0.000000
# 4 0.000000 0.000000 0.000000 0.034216 0.000000 0.000000
# 5 0.000000 0.000000 0.000000 0.000000 0.055993 0.000000
# 6 0.000000 0.000000 0.000000 0.000000 0.000000 0.030431
#
#
# Mechanical properties :
#
#
# Convention : Reuss Voigt Hill
#
# Bulk Modulus (GPa) = 29.91327 44.91504 37.41415
# Shear Modulus (GPa) = 27.34977 35.41534 31.38256
#
# Velocity S-wave (km/s) = 3.44884 3.92457 3.69437
# Velocity P-wave (km/s) = 5.37297 6.33009 5.87107
#
# Compressibility (1/GPa) = 0.03342998
#
# Stress axis : x y z
#
# Youngs Moduli (GPa) = 38.45618 91.74725 187.66360
#
# Poissons Ratio (x) = 0.26079 0.08451
# Poissons Ratio (y) = 0.10931 0.20796
# Poissons Ratio (z) = 0.01732 0.10167
#
# Static dielectric constant tensor:
#      x y z
#    x 3.735930 0.000000 0.000000 
#    y 0.000000 4.334260 0.000000 
#    z 0.000000 0.000000 4.907030 
# 
# 
# High freq. dielectric constant tensor:
#      x y z
#    x 1.880030 0.000000 0.000000 
#    y 0.000000 1.920080 0.000000 
#    z 0.000000 0.000000 1.926890 
# 
# From -- ./inp_files/25454.got.cif
#   From: 2010.06.25/outbox.cif.g09.slc.cpg/sg52_13_cif.got.tgz:25454.got - 2010.06.26 19:32:48.
