data_PCOD8215202
_publ_section_title
;
Structure prediction by ZEFSAII (Michael W. Deem and Ramdas Pophale) SiO2 
 PCOD8215202
Probable space group: P N N A
;
_chemical_formula_sum "Si O2"
_cell_formula_units_Z 40
_cell_length_a 9.422029
_cell_length_b 15.871066
_cell_length_c 13.476611
_cell_angle_alpha 90.000000
_cell_angle_beta 90.000000
_cell_angle_gamma 90.000000
_cell_volume 2015.260660
_symmetry_space_group_name_H-M "P N N A"
_symmetry_group_IT_number 52
_symmetry_cell_setting 'orthorhombic'
loop_
_space_group_symop_operation_xyz
x,y,z
1/2-x,-y,z
x,1/2-y,1/2-z
1/2-x,1/2+y,1/2-z
-x,-y,-z
1/2+x,y,-z
-x,1/2+y,1/2+z
1/2+x,1/2-y,1/2+z
loop_
_atom_site_type_symbol
_atom_site_label
_atom_site_fract_x
_atom_site_fract_y
_atom_site_fract_z
Si Si1 0.147917 0.158872 0.738233
Si Si2 0.085264 0.015111 0.598937
Si Si3 0.033660 0.315459 0.402875
Si Si4 0.968376 0.346709 0.186818
Si Si5 0.738908 0.401319 0.445891
O O1 0.070303 0.250000 0.750000
O O2 0.063376 0.104127 0.655454
O O3 0.304852 0.179591 0.699999
O O4 0.153350 0.108556 0.842426
O O5 0.250000 0.000000 0.577062
O O6 0.019605 0.945324 0.670282
O O7 0.000000 0.000000 0.500000
O O8 0.058364 0.333385 0.286607
O O9 0.023586 0.212308 0.405050
O O10 0.893654 0.361667 0.441241
O O11 0.163222 0.349551 0.466855
O O12 0.750000 0.500000 0.472443
#
# Coordination Sequence:
#
# PCOD8215202 Si02
#       5
#     8   8   8   8   8
#     4  10  18  36  59  84 114 154 201 237 282 360
#     4  10  22  36  60  86 114 155 198 244 291 354
#     4  10  20  35  60  82 112 152 188 238 285 356
#     4   9  18  38  58  80 116 159 194 224 298 363
#     4  11  21  35  58  86 112 146 194 240 293 343
#
# _framework density 19.848548999999998
#
# number of rings (size 3 to 8) (size 9 to 14) (size 15 to 20)
#    0.000    2.000    4.000    3.600    2.800    0.000 
#    0.000    3.000    4.400    0.000    0.000    0.000 
#    0.000    0.000    0.000    0.000    0.000    0.000 
#
# Total GULP energy -495621.205777 kJ/mol
# GULP energy per Si atom -12390.530144 kJ/mol
# Density = 1.980337 g / cm^3
# Si number density = 19.848549 Si / 1000 Ang^3
#
#
#
# Elastic Constant Matrix: (Units=GPa)
#
#
# Indices 1 2 3 4 5 6 
#
# 1 36.1080 34.2705 36.0643 0.0000 0.0000 0.0000
# 2 34.2705 170.2941 60.6342 0.0000 0.0000 0.0000
# 3 36.0643 60.6342 94.8283 0.0000 0.0000 0.0000
# 4 0.0000 0.0000 0.0000 33.6297 0.0000 0.0000
# 5 0.0000 0.0000 0.0000 0.0000 19.7679 0.0000
# 6 0.0000 0.0000 0.0000 0.0000 0.0000 15.5201
#
#
#
# Elastic Compliance Matrix: (Units=1/GPa)
#
#
# Indices 1 2 3 4 5 6 
#
# 1 0.046649 -0.003976 -0.015199 0.000000 0.000000 0.000000
# 2 -0.003976 0.007942 -0.003566 0.000000 0.000000 0.000000
# 3 -0.015199 -0.003566 0.018606 0.000000 0.000000 0.000000
# 4 0.000000 0.000000 0.000000 0.029736 0.000000 0.000000
# 5 0.000000 0.000000 0.000000 0.000000 0.050587 0.000000
# 6 0.000000 0.000000 0.000000 0.000000 0.000000 0.064433
#
#
# Mechanical properties :
#
#
# Convention : Reuss Voigt Hill
#
# Bulk Modulus (GPa) = 36.08176 62.57426 49.32801
# Shear Modulus (GPa) = 18.33705 25.13430 21.73568
#
# Velocity S-wave (km/s) = 3.04279 3.56238 3.31278
# Velocity P-wave (km/s) = 5.52836 6.96527 6.28799
#
# Compressibility (1/GPa) = 0.02771483
#
# Stress axis : x y z
#
# Youngs Moduli (GPa) = 21.43678 125.91145 53.74667
#
# Poissons Ratio (x) = 0.50064 0.81688
# Poissons Ratio (y) = 0.08524 0.19166
# Poissons Ratio (z) = 0.32581 0.44901
#
# Static dielectric constant tensor:
#      x y z
#    x 3.913560 0.000000 0.000000 
#    y 0.000000 12.903110 0.000000 
#    z 0.000000 0.000000 3.459100 
# 
# 
# High freq. dielectric constant tensor:
#      x y z
#    x 1.723620 0.000000 0.000000 
#    y 0.000000 1.800710 0.000000 
#    z 0.000000 0.000000 1.773210 
# 
# From -- ./inp_files/24390.got.cif
#   From: 2010.06.25/outbox.cif.g09.slc.cpg/sg52_13_cif.got.tgz:24390.got - 2010.06.26 19:32:48.
