data_PCOD8215902
_publ_section_title
;
Structure prediction by ZEFSAII (Michael W. Deem and Ramdas Pophale) SiO2 
 PCOD8215902
Probable space group: P N N A
;
_chemical_formula_sum "Si O2"
_cell_formula_units_Z 48
_cell_length_a 9.997056
_cell_length_b 8.828424
_cell_length_c 27.494881
_cell_angle_alpha 90.000000
_cell_angle_beta 90.000000
_cell_angle_gamma 90.000000
_cell_volume 2426.650057
_symmetry_space_group_name_H-M "P N N A"
_symmetry_group_IT_number 52
_symmetry_cell_setting 'orthorhombic'
loop_
_space_group_symop_operation_xyz
x,y,z
1/2-x,-y,z
x,1/2-y,1/2-z
1/2-x,1/2+y,1/2-z
-x,-y,-z
1/2+x,y,-z
-x,1/2+y,1/2+z
1/2+x,1/2-y,1/2+z
loop_
_atom_site_type_symbol
_atom_site_label
_atom_site_fract_x
_atom_site_fract_y
_atom_site_fract_z
Si Si1 0.973173 0.346662 0.528728
Si Si2 0.040460 0.432801 0.634024
Si Si3 0.257760 0.827446 0.520416
Si Si4 0.624913 0.903881 0.279465
Si Si5 0.192879 0.739456 0.627192
Si Si6 0.390814 0.079543 0.233971
O O1 0.831398 0.276831 0.514380
O O2 0.000000 0.500000 0.500000
O O3 0.964115 0.377247 0.586130
O O4 0.090613 0.228756 0.516468
O O5 0.088213 0.603178 0.624520
O O6 0.164518 0.322341 0.645688
O O7 0.940217 0.430296 0.678806
O O8 0.201703 0.815922 0.574855
O O9 0.250000 0.000000 0.502454
O O10 0.617825 0.750000 0.250000
O O11 0.640478 0.868993 0.336515
O O12 0.750000 0.000000 0.259381
O O13 0.491257 0.998887 0.271357
O O14 0.373023 0.250000 0.250000
O O15 0.250000 0.000000 0.238401
#
# Coordination Sequence:
#
# PCOD8215902 Si02
#       6
#     8   8   8   8   8   8
#     4  11  22  41  68  93 127 173 216 256 313 386
#     4  10  21  41  65  95 126 165 219 263 311 382
#     4  11  23  40  63  98 135 164 209 271 323 370
#     4  12  22  37  65  94 122 160 208 260 317 378
#     4  10  20  38  67  95 123 163 212 268 313 370
#     4  12  27  45  63  90 129 169 210 263 325 385
#
# _framework density 19.780356000000001
#
# number of rings (size 3 to 8) (size 9 to 14) (size 15 to 20)
#    0.000    1.000    3.333    4.500    0.000    2.667 
#    0.000    0.833    0.000    0.000    0.000    0.000 
#    0.000    0.000    0.000    0.000    0.000    0.000 
#
# Total GULP energy -595520.205881 kJ/mol
# GULP energy per Si atom -12406.670956 kJ/mol
# Density = 1.973534 g / cm^3
# Si number density = 19.780356 Si / 1000 Ang^3
#
#
#
# Elastic Constant Matrix: (Units=GPa)
#
#
# Indices 1 2 3 4 5 6 
#
# 1 102.9644 31.7253 26.9440 0.0000 0.0000 0.0000
# 2 31.7253 113.2589 13.7282 0.0000 0.0000 0.0000
# 3 26.9440 13.7282 77.8561 0.0000 0.0000 0.0000
# 4 0.0000 0.0000 0.0000 38.6697 0.0000 0.0000
# 5 0.0000 0.0000 0.0000 0.0000 44.0126 0.0000
# 6 0.0000 0.0000 0.0000 0.0000 0.0000 -15.9313
#
#
#
# Elastic Compliance Matrix: (Units=1/GPa)
#
#
# Indices 1 2 3 4 5 6 
#
# 1 0.011484 -0.002795 -0.003482 0.000000 0.000000 0.000000
# 2 -0.002795 0.009702 -0.000744 0.000000 0.000000 0.000000
# 3 -0.003482 -0.000744 0.014180 0.000000 0.000000 0.000000
# 4 0.000000 0.000000 0.000000 0.025860 0.000000 0.000000
# 5 0.000000 0.000000 0.000000 0.000000 0.022721 0.000000
# 6 0.000000 0.000000 0.000000 0.000000 0.000000 -0.062770
#
#
# Mechanical properties :
#
#
# Convention : Reuss Voigt Hill
#
# Bulk Modulus (GPa) = 46.88946 48.76383 47.82664
# Shear Modulus (GPa) = 118.12757 28.12899 73.12828
#
# Velocity S-wave (km/s) = 7.73623 3.77512 6.08690
# Velocity P-wave (km/s) = 10.17623 6.61122 8.58090
#
# Compressibility (1/GPa) = 0.02132676
#
# Stress axis : x y z
#
# Youngs Moduli (GPa) = 87.07515 103.06788 70.52081
#
# Poissons Ratio (x) = 0.28806 0.24553
# Poissons Ratio (y) = 0.24337 0.05244
# Poissons Ratio (z) = 0.30316 0.07664
#
# Static dielectric constant tensor:
#      x y z
#    x 3.617670 0.000000 0.000000 
#    y 0.000000 6.382200 0.000000 
#    z 0.000000 0.000000 3.828360 
# 
# 
# High freq. dielectric constant tensor:
#      x y z
#    x 1.765390 0.000000 0.000000 
#    y 0.000000 1.787060 0.000000 
#    z 0.000000 0.000000 1.776380 
# 
# From -- ./inp_files/44403.got.cif
#   From: 2010.06.25/outbox.cif.g09.slc.cpg/sg52_23_cif.got.tgz:44403.got - 2010.06.26 19:32:48.
