data_PCOD8215784
_publ_section_title
;
Structure prediction by ZEFSAII (Michael W. Deem and Ramdas Pophale) SiO2 
 PCOD8215784
Probable space group: P N N A
;
_chemical_formula_sum "Si O2"
_cell_formula_units_Z 52
_cell_length_a 26.601386
_cell_length_b 4.930342
_cell_length_c 19.689425
_cell_angle_alpha 90.000000
_cell_angle_beta 90.000000
_cell_angle_gamma 90.000000
_cell_volume 2582.345481
_symmetry_space_group_name_H-M "P N N A"
_symmetry_group_IT_number 52
_symmetry_cell_setting 'orthorhombic'
loop_
_space_group_symop_operation_xyz
x,y,z
1/2-x,-y,z
x,1/2-y,1/2-z
1/2-x,1/2+y,1/2-z
-x,-y,-z
1/2+x,y,-z
-x,1/2+y,1/2+z
1/2+x,1/2-y,1/2+z
loop_
_atom_site_type_symbol
_atom_site_label
_atom_site_fract_x
_atom_site_fract_y
_atom_site_fract_z
Si Si1 0.718137 0.750000 0.250000
Si Si2 0.136184 0.142944 0.445631
Si Si3 0.698138 0.645327 0.520567
Si Si4 0.657823 0.620793 0.380109
Si Si5 0.497433 0.780971 0.672981
Si Si6 0.096950 0.387455 0.912240
Si Si7 0.064557 0.273267 0.326133
O O1 0.750000 0.500000 0.220135
O O2 0.684700 0.625346 0.308790
O O3 0.153799 0.445579 0.459739
O O4 0.096444 0.068989 0.505810
O O5 0.108322 0.161950 0.374139
O O6 0.183642 0.931253 0.442468
O O7 0.750000 0.500000 0.543347
O O8 0.696977 0.705876 0.439790
O O9 0.642003 0.312362 0.392344
O O10 0.609565 0.821515 0.378884
O O11 0.476273 0.750000 0.750000
O O12 0.454012 0.755349 0.616623
O O13 0.543690 0.574972 0.657792
O O14 0.516291 0.085440 0.665502
O O15 0.086616 0.250000 0.250000
#
# Coordination Sequence:
#
# PCOD8215784 Si02
#       7
#     4   8   8   8   8   8   8
#     4  12  24  36  52  76 106 150 196 232 284 326
#     4  10  21  36  58  83 111 144 185 226 279 334
#     4  10  20  37  58  82 109 142 183 228 276 335
#     4  10  22  35  53  77 110 147 183 236 275 321
#     4  10  21  34  55  80 112 150 188 226 271 333
#     4  10  21  36  53  82 109 146 191 227 278 315
#     4  10  21  38  56  83 111 145 183 225 282 339
#
# _framework density 20.136733
#
# number of rings (size 3 to 8) (size 9 to 14) (size 15 to 20)
#    0.000    1.846    0.000    3.692    2.154    3.692 
#    0.000    0.000    0.000    1.846    0.000    0.000 
#    0.000    0.000    0.000    0.000    0.000    0.000 
#
# Total GULP energy -644634.380514 kJ/mol
# GULP energy per Si atom -12396.815010 kJ/mol
# Density = 2.009090 g / cm^3
# Si number density = 20.136733 Si / 1000 Ang^3
#
#
#
# Elastic Constant Matrix: (Units=GPa)
#
#
# Indices 1 2 3 4 5 6 
#
# 1 66.7903 8.8073 56.3498 0.0000 0.0000 0.0000
# 2 8.8073 89.0830 24.3167 0.0000 0.0000 0.0000
# 3 56.3498 24.3167 116.1893 0.0000 0.0000 0.0000
# 4 0.0000 0.0000 0.0000 23.3254 0.0000 0.0000
# 5 0.0000 0.0000 0.0000 0.0000 16.8109 0.0000
# 6 0.0000 0.0000 0.0000 0.0000 0.0000 1.4373
#
#
#
# Elastic Compliance Matrix: (Units=1/GPa)
#
#
# Indices 1 2 3 4 5 6 
#
# 1 0.025409 0.000903 -0.012512 0.000000 0.000000 0.000000
# 2 0.000903 0.011938 -0.002936 0.000000 0.000000 0.000000
# 3 -0.012512 -0.002936 0.015289 0.000000 0.000000 0.000000
# 4 0.000000 0.000000 0.000000 0.042872 0.000000 0.000000
# 5 0.000000 0.000000 0.000000 0.000000 0.059485 0.000000
# 6 0.000000 0.000000 0.000000 0.000000 0.000000 0.695756
#
#
# Mechanical properties :
#
#
# Convention : Reuss Voigt Hill
#
# Bulk Modulus (GPa) = 42.47035 50.11225 46.29130
# Shear Modulus (GPa) = 5.63261 20.48732 13.05996
#
# Velocity S-wave (km/s) = 1.67429 3.19315 2.54945
# Velocity P-wave (km/s) = 4.98743 6.20765 5.63069
#
# Compressibility (1/GPa) = 0.02354584
#
# Stress axis : x y z
#
# Youngs Moduli (GPa) = 39.35541 83.76795 65.40472
#
# Poissons Ratio (x) = -0.07567 0.81836
# Poissons Ratio (y) = -0.03555 0.19206
# Poissons Ratio (z) = 0.49242 0.24598
#
# Static dielectric constant tensor:
#      x y z
#    x 3.246840 0.000000 0.000000 
#    y 0.000000 3.937010 0.000000 
#    z 0.000000 0.000000 3.683910 
# 
# 
# High freq. dielectric constant tensor:
#      x y z
#    x 1.756880 0.000000 0.000000 
#    y 0.000000 1.811960 0.000000 
#    z 0.000000 0.000000 1.770550 
# 
# From -- ./inp_files/34444.got.cif
#   From: 2010.06.25/outbox.cif.g09.slc.cpg/sg52_18_cif.got.tgz:34444.got - 2010.06.26 19:32:48.
