data_PCOD8215382
_publ_section_title
;
Structure prediction by ZEFSAII (Michael W. Deem and Ramdas Pophale) SiO2 
 PCOD8215382
Probable space group: P N N A
;
_chemical_formula_sum "Si O2"
_cell_formula_units_Z 52
_cell_length_a 9.177494
_cell_length_b 13.829624
_cell_length_c 20.401865
_cell_angle_alpha 90.000000
_cell_angle_beta 90.000000
_cell_angle_gamma 90.000000
_cell_volume 2589.431050
_symmetry_space_group_name_H-M "P N N A"
_symmetry_group_IT_number 52
_symmetry_cell_setting 'orthorhombic'
loop_
_space_group_symop_operation_xyz
x,y,z
1/2-x,-y,z
x,1/2-y,1/2-z
1/2-x,1/2+y,1/2-z
-x,-y,-z
1/2+x,y,-z
-x,1/2+y,1/2+z
1/2+x,1/2-y,1/2+z
loop_
_atom_site_type_symbol
_atom_site_label
_atom_site_fract_x
_atom_site_fract_y
_atom_site_fract_z
Si Si1 0.250000 0.000000 0.673386
Si Si2 0.378198 0.856169 0.877288
Si Si3 0.407302 0.523518 0.350253
Si Si4 0.117084 0.153722 0.029393
Si Si5 0.123532 0.857330 0.776586
Si Si6 0.397136 0.646387 0.912217
Si Si7 0.359420 0.213431 0.497570
O O1 0.170290 0.919616 0.714905
O O2 0.377597 0.948964 0.630976
O O3 0.230931 0.873834 0.837567
O O4 0.422334 0.743467 0.868923
O O5 0.498857 0.925965 0.846691
O O6 0.357128 0.879741 0.954183
O O7 0.250000 0.500000 0.321362
O O8 0.393659 0.560250 0.425179
O O9 0.468508 0.607117 0.303187
O O10 0.258411 0.218825 0.049381
O O11 0.970888 0.217434 0.037209
O O12 0.111161 0.750000 0.750000
O O13 0.542688 0.636252 0.956834
O O14 0.246751 0.657007 0.953201
#
# Coordination Sequence:
#
# PCOD8215382 Si02
#       7
#     4   8   8   8   8   8   8
#     4  12  24  40  70  86 110 166 228 242 296 366
#     4  10  20  38  63  92 126 161 208 249 298 370
#     4  12  23  37  60  95 129 161 200 254 317 369
#     4  10  19  34  60  96 129 161 192 247 317 369
#     4  12  25  45  65  87 120 166 215 256 292 368
#     4  10  20  37  63  92 122 157 201 260 307 359
#     4   8  18  36  58  92 128 157 198 252 314 357
#
# _framework density 20.081633
#
# number of rings (size 3 to 8) (size 9 to 14) (size 15 to 20)
#    0.000    1.846    3.077    4.154    0.000    1.846 
#    0.000    3.846    0.000    0.000    0.000    0.000 
#    0.000    0.000    0.000    0.000    0.000    0.000 
#
# Total GULP energy -644622.065642 kJ/mol
# GULP energy per Si atom -12396.578185 kJ/mol
# Density = 2.003593 g / cm^3
# Si number density = 20.081633 Si / 1000 Ang^3
#
#
#
# Elastic Constant Matrix: (Units=GPa)
#
#
# Indices 1 2 3 4 5 6 
#
# 1 142.9304 49.9981 48.2060 0.0000 0.0000 0.0000
# 2 49.9981 126.5050 52.8263 0.0000 0.0000 0.0000
# 3 48.2060 52.8263 75.9990 0.0000 0.0000 0.0000
# 4 0.0000 0.0000 0.0000 16.6325 0.0000 0.0000
# 5 0.0000 0.0000 0.0000 0.0000 7.7039 0.0000
# 6 0.0000 0.0000 0.0000 0.0000 0.0000 28.5880
#
#
#
# Elastic Compliance Matrix: (Units=1/GPa)
#
#
# Indices 1 2 3 4 5 6 
#
# 1 0.009147 -0.001680 -0.004634 0.000000 0.000000 0.000000
# 2 -0.001680 0.011446 -0.006891 0.000000 0.000000 0.000000
# 3 -0.004634 -0.006891 0.020887 0.000000 0.000000 0.000000
# 4 0.000000 0.000000 0.000000 0.060123 0.000000 0.000000
# 5 0.000000 0.000000 0.000000 0.000000 0.129804 0.000000
# 6 0.000000 0.000000 0.000000 0.000000 0.000000 0.034980
#
#
# Mechanical properties :
#
#
# Convention : Reuss Voigt Hill
#
# Bulk Modulus (GPa) = 66.35323 71.94393 69.14858
# Shear Modulus (GPa) = 16.78865 23.54514 20.16690
#
# Velocity S-wave (km/s) = 2.89454 3.42785 3.17242
# Velocity P-wave (km/s) = 6.65467 7.18125 6.92297
#
# Compressibility (1/GPa) = 0.01507086
#
# Stress axis : x y z
#
# Youngs Moduli (GPa) = 109.32466 87.36550 47.87646
#
# Poissons Ratio (x) = 0.14677 0.22187
# Poissons Ratio (y) = 0.18366 0.32989
# Poissons Ratio (z) = 0.50663 0.60199
#
# Static dielectric constant tensor:
#      x y z
#    x 3.822140 0.000000 0.000000 
#    y 0.000000 3.664380 0.000000 
#    z 0.000000 0.000000 3.530110 
# 
# 
# High freq. dielectric constant tensor:
#      x y z
#    x 1.789440 0.000000 0.000000 
#    y 0.000000 1.780250 0.000000 
#    z 0.000000 0.000000 1.761570 
# 
# From -- ./inp_files/35988.got.cif
#   From: 2010.06.25/outbox.cif.g09.slc.cpg/sg52_18_cif.got.tgz:35988.got - 2010.06.26 19:32:48.
