data_PCOD8215641
_publ_section_title
;
Structure prediction by ZEFSAII (Michael W. Deem and Ramdas Pophale) SiO2 
 PCOD8215641
Probable space group: P N N A
;
_chemical_formula_sum "Si O2"
_cell_formula_units_Z 56
_cell_length_a 9.499089
_cell_length_b 19.051168
_cell_length_c 14.596107
_cell_angle_alpha 90.000000
_cell_angle_beta 90.000000
_cell_angle_gamma 90.000000
_cell_volume 2641.439098
_symmetry_space_group_name_H-M "P N N A"
_symmetry_group_IT_number 52
_symmetry_cell_setting 'orthorhombic'
loop_
_space_group_symop_operation_xyz
x,y,z
1/2-x,-y,z
x,1/2-y,1/2-z
1/2-x,1/2+y,1/2-z
-x,-y,-z
1/2+x,y,-z
-x,1/2+y,1/2+z
1/2+x,1/2-y,1/2+z
loop_
_atom_site_type_symbol
_atom_site_label
_atom_site_fract_x
_atom_site_fract_y
_atom_site_fract_z
Si Si1 0.216563 0.920191 0.432179
Si Si2 0.475184 0.118769 0.986574
Si Si3 0.017209 0.454149 0.813773
Si Si4 0.521682 0.899483 0.404735
Si Si5 0.593656 0.501673 0.629057
Si Si6 0.238732 0.340439 0.813310
Si Si7 0.787497 0.805663 0.103950
O O1 0.360582 0.875339 0.420127
O O2 0.119134 0.883562 0.507943
O O3 0.130176 0.914818 0.336296
O O4 0.250000 0.000000 0.459920
O O5 0.555265 0.075957 0.906984
O O6 0.357446 0.169238 0.942881
O O7 0.581736 0.166686 0.044654
O O8 0.403415 0.059662 0.049457
O O9 0.023514 0.518699 0.882506
O O10 0.150320 0.408158 0.844019
O O11 0.018351 0.476921 0.707375
O O12 0.593792 0.856327 0.321436
O O13 0.750000 0.500000 0.671709
O O14 0.202572 0.278041 0.884228
O O15 0.200337 0.331419 0.707910
#
# Coordination Sequence:
#
# PCOD8215641 Si02
#       7
#     8   8   8   8   8   8   8
#     4  10  20  34  56  89 127 160 202 266 332 389
#     4  11  23  42  66  96 134 168 221 279 339 405
#     4  11  21  37  63  97 132 167 218 282 340 395
#     4  11  21  37  60  92 127 166 222 277 329 396
#     4  11  21  37  69 103 130 164 215 288 355 390
#     4  11  24  42  64  89 129 180 224 264 333 400
#     4  11  25  45  62  91 133 178 222 270 327 419
#
# _framework density 21.200565000000001
#
# number of rings (size 3 to 8) (size 9 to 14) (size 15 to 20)
#    0.000    1.143    2.857    6.000    0.000    2.286 
#    0.000    0.000    0.000    3.429    0.000    0.000 
#    0.000    0.000    0.000    0.000    0.000    0.000 
#
# Total GULP energy -694171.244854 kJ/mol
# GULP energy per Si atom -12395.915087 kJ/mol
# Density = 2.115231 g / cm^3
# Si number density = 21.200565 Si / 1000 Ang^3
#
#
#
# Elastic Constant Matrix: (Units=GPa)
#
#
# Indices 1 2 3 4 5 6 
#
# 1 122.2296 39.0380 32.3094 0.0000 0.0000 0.0000
# 2 39.0380 72.8130 36.6701 0.0000 0.0000 0.0000
# 3 32.3094 36.6701 87.6529 0.0000 0.0000 0.0000
# 4 0.0000 0.0000 0.0000 23.6581 0.0000 0.0000
# 5 0.0000 0.0000 0.0000 0.0000 39.1365 0.0000
# 6 0.0000 0.0000 0.0000 0.0000 0.0000 21.6155
#
#
#
# Elastic Compliance Matrix: (Units=1/GPa)
#
#
# Indices 1 2 3 4 5 6 
#
# 1 0.010102 -0.004486 -0.001847 0.000000 0.000000 0.000000
# 2 -0.004486 0.019392 -0.006459 0.000000 0.000000 0.000000
# 3 -0.001847 -0.006459 0.014792 0.000000 0.000000 0.000000
# 4 0.000000 0.000000 0.000000 0.042269 0.000000 0.000000
# 5 0.000000 0.000000 0.000000 0.000000 0.025552 0.000000
# 6 0.000000 0.000000 0.000000 0.000000 0.000000 0.046263
#
#
# Mechanical properties :
#
#
# Convention : Reuss Voigt Hill
#
# Bulk Modulus (GPa) = 53.47164 55.41449 54.44306
# Shear Modulus (GPa) = 26.28982 28.52722 27.40852
#
# Velocity S-wave (km/s) = 3.52526 3.67221 3.59948
# Velocity P-wave (km/s) = 6.46889 6.64643 6.55826
#
# Compressibility (1/GPa) = 0.01870150
#
# Stress axis : x y z
#
# Youngs Moduli (GPa) = 98.98720 51.56788 67.60559
#
# Poissons Ratio (x) = 0.23134 0.12487
# Poissons Ratio (y) = 0.44406 0.43667
# Poissons Ratio (z) = 0.18283 0.33308
#
# Static dielectric constant tensor:
#      x y z
#    x 4.122460 0.000000 0.000000 
#    y 0.000000 3.657220 0.000000 
#    z 0.000000 0.000000 3.791240 
# 
# 
# High freq. dielectric constant tensor:
#      x y z
#    x 1.842710 0.000000 0.000000 
#    y 0.000000 1.804460 0.000000 
#    z 0.000000 0.000000 1.838990 
# 
# From -- ./inp_files/24957.got.cif
#   From: 2010.06.25/outbox.cif.g09.slc.cpg/sg52_13_cif.got.tgz:24957.got - 2010.06.26 19:32:48.
