data_PCOD8215171
_publ_section_title
;
Structure prediction by ZEFSAII (Michael W. Deem and Ramdas Pophale) SiO2 
 PCOD8215171
Probable space group: P N N A
;
_chemical_formula_sum "Si O2"
_cell_formula_units_Z 32
_cell_length_a 14.925571
_cell_length_b 16.779216
_cell_length_c 6.822961
_cell_angle_alpha 90.000000
_cell_angle_beta 90.000000
_cell_angle_gamma 90.000000
_cell_volume 1708.738121
_symmetry_space_group_name_H-M "P N N A"
_symmetry_group_IT_number 52
_symmetry_cell_setting 'orthorhombic'
loop_
_space_group_symop_operation_xyz
x,y,z
1/2-x,-y,z
x,1/2-y,1/2-z
1/2-x,1/2+y,1/2-z
-x,-y,-z
1/2+x,y,-z
-x,1/2+y,1/2+z
1/2+x,1/2-y,1/2+z
loop_
_atom_site_type_symbol
_atom_site_label
_atom_site_fract_x
_atom_site_fract_y
_atom_site_fract_z
Si Si1 0.841681 0.963127 0.969971
Si Si2 0.401916 0.584032 0.881052
Si Si3 0.277428 0.662828 0.161135
Si Si4 0.897365 0.432147 0.866395
O O1 0.895477 0.925377 0.148275
O O2 0.750000 0.000000 0.052909
O O3 0.821801 0.893213 0.820277
O O4 0.897714 0.031319 0.854388
O O5 0.506104 0.604135 0.922941
O O6 0.339126 0.655300 0.964777
O O7 0.371656 0.501358 0.980593
O O8 0.277053 0.750000 0.250000
O O9 0.175845 0.637398 0.111212
#
# Coordination Sequence:
#
# PCOD8215171 Si02
#       4
#     8   8   8   8
#     4   9  17  32  56  80 102 137 180 220 261 309
#     4  10  18  34  60  78 102 139 187 220 266 313
#     4  10  21  36  49  76 117 142 169 217 275 325
#     4   9  19  34  56  82 103 137 179 234 260 306
#
# _framework density 18.727270000000001
#
# number of rings (size 3 to 8) (size 9 to 14) (size 15 to 20)
#    0.000    2.500    0.000    4.500    0.000    1.000 
#    4.500    0.000    0.000    0.000    0.000    0.000 
#    0.000    0.000    0.000    0.000    0.000    0.000 
#
# Total GULP energy -396727.839384 kJ/mol
# GULP energy per Si atom -12397.744981 kJ/mol
# Density = 1.868465 g / cm^3
# Si number density = 18.727270 Si / 1000 Ang^3
#
#
#
# Elastic Constant Matrix: (Units=GPa)
#
#
# Indices 1 2 3 4 5 6 
#
# 1 112.8520 54.8718 34.9217 0.0000 0.0000 0.0000
# 2 54.8718 71.2646 6.6300 0.0000 0.0000 0.0000
# 3 34.9217 6.6300 77.1309 0.0000 0.0000 0.0000
# 4 0.0000 0.0000 0.0000 16.1110 0.0000 0.0000
# 5 0.0000 0.0000 0.0000 0.0000 22.6669 0.0000
# 6 0.0000 0.0000 0.0000 0.0000 0.0000 17.9730
#
#
#
# Elastic Compliance Matrix: (Units=1/GPa)
#
#
# Indices 1 2 3 4 5 6 
#
# 1 0.016954 -0.012440 -0.006607 0.000000 0.000000 0.000000
# 2 -0.012440 0.023272 0.003632 0.000000 0.000000 0.000000
# 3 -0.006607 0.003632 0.015644 0.000000 0.000000 0.000000
# 4 0.000000 0.000000 0.000000 0.062069 0.000000 0.000000
# 5 0.000000 0.000000 0.000000 0.000000 0.044117 0.000000
# 6 0.000000 0.000000 0.000000 0.000000 0.000000 0.055639
#
#
# Mechanical properties :
#
#
# Convention : Reuss Voigt Hill
#
# Bulk Modulus (GPa) = 39.93413 50.45495 45.19454
# Shear Modulus (GPa) = 19.46490 22.33845 20.90168
#
# Velocity S-wave (km/s) = 3.22745 3.45748 3.34445
# Velocity P-wave (km/s) = 5.93792 6.55281 6.25293
#
# Compressibility (1/GPa) = 0.02504124
#
# Stress axis : x y z
#
# Youngs Moduli (GPa) = 58.98292 42.96932 63.92176
#
# Poissons Ratio (x) = 0.53452 0.42232
# Poissons Ratio (y) = 0.73372 -0.23214
# Poissons Ratio (z) = 0.38969 -0.15605
#
# Static dielectric constant tensor:
#      x y z
#    x 3.536730 0.000000 0.000000 
#    y 0.000000 3.135500 0.000000 
#    z 0.000000 0.000000 3.465920 
# 
# 
# High freq. dielectric constant tensor:
#      x y z
#    x 1.737530 0.000000 0.000000 
#    y 0.000000 1.687810 0.000000 
#    z 0.000000 0.000000 1.729640 
# 
# From -- ./inp_files/1890.got.cif
#   From: 2010.06.25/outbox.cif.g09.slc.cpg/sg52_1_cif.got.tgz:1890.got - 2010.06.26 19:32:48.
