data_PCOD8215058
_publ_section_title
;
Structure prediction by ZEFSAII (Michael W. Deem and Ramdas Pophale) SiO2 
 PCOD8215058
Probable space group: P N N A
;
_chemical_formula_sum "Si O2"
_cell_formula_units_Z 64
_cell_length_a 13.642434
_cell_length_b 15.913708
_cell_length_c 17.363842
_cell_angle_alpha 90.000000
_cell_angle_beta 90.000000
_cell_angle_gamma 90.000000
_cell_volume 3769.719809
_symmetry_space_group_name_H-M "P N N A"
_symmetry_group_IT_number 52
_symmetry_cell_setting 'orthorhombic'
loop_
_space_group_symop_operation_xyz
x,y,z
1/2-x,-y,z
x,1/2-y,1/2-z
1/2-x,1/2+y,1/2-z
-x,-y,-z
1/2+x,y,-z
-x,1/2+y,1/2+z
1/2+x,1/2-y,1/2+z
loop_
_atom_site_type_symbol
_atom_site_label
_atom_site_fract_x
_atom_site_fract_y
_atom_site_fract_z
Si Si1 0.742952 0.216767 0.437596
Si Si2 0.339416 0.061512 0.314402
Si Si3 0.674133 0.172655 0.191863
Si Si4 0.547573 0.667944 0.698054
Si Si5 0.299895 0.083647 0.688475
Si Si6 0.053490 0.123824 0.524773
Si Si7 0.629222 0.786696 0.584054
Si Si8 0.983901 0.034622 0.384368
O O1 0.712771 0.301985 0.392838
O O2 0.785000 0.155116 0.373982
O O3 0.651745 0.177013 0.482175
O O4 0.823266 0.235075 0.502342
O O5 0.391475 0.092918 0.236632
O O6 0.309069 0.143315 0.366510
O O7 0.250000 0.000000 0.293596
O O8 0.413410 0.002451 0.359593
O O9 0.668476 0.250000 0.250000
O O10 0.563846 0.135031 0.182081
O O11 0.752390 0.106777 0.228560
O O12 0.539637 0.750000 0.750000
O O13 0.611937 0.696451 0.624406
O O14 0.417679 0.065890 0.688212
O O15 0.250000 0.000000 0.657294
O O16 0.979223 0.175144 0.577939
O O17 0.007346 0.112898 0.440147
O O18 0.076103 0.034674 0.565811
#
# Coordination Sequence:
#
# PCOD8215058 Si02
#       8
#     8   8   8   8   8   8   8   8
#     4  11  19  31  50  74 105 134 169 210 254 308
#     4  10  20  32  51  76 105 135 175 209 252 311
#     4   9  19  31  50  73 100 134 174 212 253 304
#     4   9  17  33  52  71  98 136 180 209 243 308
#     4  11  19  29  48  76 102 132 166 208 261 306
#     4  10  18  29  45  74 108 135 163 196 250 319
#     4  10  19  31  52  74 102 139 171 209 251 308
#     4  10  19  29  46  74 108 137 159 203 259 306
#
# _framework density 16.97739
#
# number of rings (size 3 to 8) (size 9 to 14) (size 15 to 20)
#    0.000    2.000    3.750    1.500    3.500    0.500 
#    0.000    0.000    2.750    3.000    0.000    2.625 
#    0.000    0.000    0.000    0.000    0.000    0.000 
#
# Total GULP energy -793105.582955 kJ/mol
# GULP energy per Si atom -12392.274734 kJ/mol
# Density = 1.693875 g / cm^3
# Si number density = 16.977390 Si / 1000 Ang^3
#
#
#
# Elastic Constant Matrix: (Units=GPa)
#
#
# Indices 1 2 3 4 5 6 
#
# 1 80.0005 25.9144 36.9971 0.0000 0.0000 0.0000
# 2 25.9144 38.6450 31.9375 0.0000 0.0000 0.0000
# 3 36.9971 31.9375 82.3313 0.0000 0.0000 0.0000
# 4 0.0000 0.0000 0.0000 9.8670 0.0000 0.0000
# 5 0.0000 0.0000 0.0000 0.0000 37.0102 0.0000
# 6 0.0000 0.0000 0.0000 0.0000 0.0000 19.8242
#
#
#
# Elastic Compliance Matrix: (Units=1/GPa)
#
#
# Indices 1 2 3 4 5 6 
#
# 1 0.017158 -0.007556 -0.004779 0.000000 0.000000 0.000000
# 2 -0.007556 0.041414 -0.012670 0.000000 0.000000 0.000000
# 3 -0.004779 -0.012670 0.019208 0.000000 0.000000 0.000000
# 4 0.000000 0.000000 0.000000 0.101348 0.000000 0.000000
# 5 0.000000 0.000000 0.000000 0.000000 0.027020 0.000000
# 6 0.000000 0.000000 0.000000 0.000000 0.000000 0.050443
#
#
# Mechanical properties :
#
#
# Convention : Reuss Voigt Hill
#
# Bulk Modulus (GPa) = 36.00919 43.40830 39.70875
# Shear Modulus (GPa) = 15.82994 20.41546 18.12270
#
# Velocity S-wave (km/s) = 3.05686 3.47148 3.27075
# Velocity P-wave (km/s) = 5.80649 6.45694 6.14033
#
# Compressibility (1/GPa) = 0.02777069
#
# Stress axis : x y z
#
# Youngs Moduli (GPa) = 58.28315 24.14638 52.06067
#
# Poissons Ratio (x) = 0.18245 0.24880
# Poissons Ratio (y) = 0.44038 0.65959
# Poissons Ratio (z) = 0.27854 0.30593
#
# Static dielectric constant tensor:
#      x y z
#    x 3.225470 0.000000 0.000000 
#    y 0.000000 3.055910 0.000000 
#    z 0.000000 0.000000 3.149830 
# 
# 
# High freq. dielectric constant tensor:
#      x y z
#    x 1.657300 0.000000 0.000000 
#    y 0.000000 1.622020 0.000000 
#    z 0.000000 0.000000 1.632070 
# 
# From -- ./inp_files/33347.got.cif
#   From: 2010.06.25/outbox.cif.g09.slc.cpg/sg52_17_cif.got.tgz:33347.got - 2010.06.26 19:32:48.
