data_PCOD8215300
_publ_section_title
;
Structure prediction by ZEFSAII (Michael W. Deem and Ramdas Pophale) SiO2 
 PCOD8215300
Probable space group: P N N A
;
_chemical_formula_sum "Si O2"
_cell_formula_units_Z 48
_cell_length_a 10.303800
_cell_length_b 8.682310
_cell_length_c 28.046179
_cell_angle_alpha 90.000000
_cell_angle_beta 90.000000
_cell_angle_gamma 90.000000
_cell_volume 2509.033211
_symmetry_space_group_name_H-M "P N N A"
_symmetry_group_IT_number 52
_symmetry_cell_setting 'orthorhombic'
loop_
_space_group_symop_operation_xyz
x,y,z
1/2-x,-y,z
x,1/2-y,1/2-z
1/2-x,1/2+y,1/2-z
-x,-y,-z
1/2+x,y,-z
-x,1/2+y,1/2+z
1/2+x,1/2-y,1/2+z
loop_
_atom_site_type_symbol
_atom_site_label
_atom_site_fract_x
_atom_site_fract_y
_atom_site_fract_z
Si Si1 0.606639 0.981908 0.565376
Si Si2 0.896807 0.000386 0.065208
Si Si3 0.892794 0.068149 0.256747
Si Si4 0.389982 0.919895 0.835746
Si Si5 0.501589 0.253631 0.996949
Si Si6 0.893295 0.940624 0.352813
O O1 0.592058 0.121325 0.528035
O O2 0.750000 0.000000 0.588840
O O3 0.601611 0.827535 0.533357
O O4 0.492148 0.971723 0.603866
O O5 0.750000 0.000000 0.081443
O O6 0.968453 0.971565 0.116178
O O7 0.929225 0.167384 0.045591
O O8 0.913331 0.868523 0.026016
O O9 0.892332 0.250000 0.250000
O O10 0.750000 0.000000 0.263855
O O11 0.964075 0.980741 0.212149
O O12 0.958257 0.029632 0.307801
O O13 0.378493 0.736734 0.837773
O O14 0.250000 0.000000 0.830485
O O15 0.750000 0.000000 0.368293
#
# Coordination Sequence:
#
# PCOD8215300 Si02
#       6
#     8   8   8   8   8   8
#     4  11  24  39  58  84 121 157 194 236 286 342
#     4  10  20  34  58  85 114 144 189 242 291 336
#     4  10  19  32  55  87 118 145 184 242 297 339
#     4  10  19  33  56  88 119 142 187 244 293 336
#     4  10  22  38  56  80 112 158 198 233 281 342
#     4  11  22  36  60  88 116 154 194 238 289 344
#
# _framework density 19.130875
#
# number of rings (size 3 to 8) (size 9 to 14) (size 15 to 20)
#    0.000    1.667    1.667    5.500    7.000    2.667 
#    0.000    0.000    0.000    2.000    0.000    0.000 
#    0.000    0.000    0.000    0.000    0.000    0.000 
#
# Total GULP energy -594687.915660 kJ/mol
# GULP energy per Si atom -12389.331576 kJ/mol
# Density = 1.908733 g / cm^3
# Si number density = 19.130875 Si / 1000 Ang^3
#
#
#
# Elastic Constant Matrix: (Units=GPa)
#
#
# Indices 1 2 3 4 5 6 
#
# 1 67.4386 24.1022 33.5112 0.0000 0.0000 0.0000
# 2 24.1022 128.8508 46.6811 0.0000 0.0000 0.0000
# 3 33.5112 46.6811 140.0643 0.0000 0.0000 0.0000
# 4 0.0000 0.0000 0.0000 44.4257 0.0000 0.0000
# 5 0.0000 0.0000 0.0000 0.0000 20.6491 0.0000
# 6 0.0000 0.0000 0.0000 0.0000 0.0000 12.1920
#
#
#
# Elastic Compliance Matrix: (Units=1/GPa)
#
#
# Indices 1 2 3 4 5 6 
#
# 1 0.017258 -0.001970 -0.003472 0.000000 0.000000 0.000000
# 2 -0.001970 0.009052 -0.002545 0.000000 0.000000 0.000000
# 3 -0.003472 -0.002545 0.008819 0.000000 0.000000 0.000000
# 4 0.000000 0.000000 0.000000 0.022510 0.000000 0.000000
# 5 0.000000 0.000000 0.000000 0.000000 0.048428 0.000000
# 6 0.000000 0.000000 0.000000 0.000000 0.000000 0.082021
#
#
# Mechanical properties :
#
#
# Convention : Reuss Voigt Hill
#
# Bulk Modulus (GPa) = 52.21305 60.54917 56.38111
# Shear Modulus (GPa) = 23.75895 30.92398 27.34147
#
# Velocity S-wave (km/s) = 3.52791 4.02486 3.78455
# Velocity P-wave (km/s) = 6.62923 7.30192 6.97369
#
# Compressibility (1/GPa) = 0.01915230
#
# Stress axis : x y z
#
# Youngs Moduli (GPa) = 57.94436 110.47773 113.39532
#
# Poissons Ratio (x) = 0.21766 0.39376
# Poissons Ratio (y) = 0.11416 0.28863
# Poissons Ratio (z) = 0.20121 0.28121
#
# Static dielectric constant tensor:
#      x y z
#    x 2.938150 0.000000 0.000000 
#    y 0.000000 3.819510 0.000000 
#    z 0.000000 0.000000 4.343020 
# 
# 
# High freq. dielectric constant tensor:
#      x y z
#    x 1.671200 0.000000 0.000000 
#    y 0.000000 1.765700 0.000000 
#    z 0.000000 0.000000 1.775850 
# 
# From -- ./inp_files/42689.got.cif
#   From: 2010.06.25/outbox.cif.g09.slc.cpg/sg52_22_cif.got.tgz:42689.got - 2010.06.26 19:32:48.
