data_PCOD8215117
_publ_section_title
;
Structure prediction by ZEFSAII (Michael W. Deem and Ramdas Pophale) SiO2 
 PCOD8215117
Probable space group: P N N A
;
_chemical_formula_sum "Si O2"
_cell_formula_units_Z 56
_cell_length_a 22.495325
_cell_length_b 19.760038
_cell_length_c 6.744478
_cell_angle_alpha 90.000000
_cell_angle_beta 90.000000
_cell_angle_gamma 90.000000
_cell_volume 2997.977643
_symmetry_space_group_name_H-M "P N N A"
_symmetry_group_IT_number 52
_symmetry_cell_setting 'orthorhombic'
loop_
_space_group_symop_operation_xyz
x,y,z
1/2-x,-y,z
x,1/2-y,1/2-z
1/2-x,1/2+y,1/2-z
-x,-y,-z
1/2+x,y,-z
-x,1/2+y,1/2+z
1/2+x,1/2-y,1/2+z
loop_
_atom_site_type_symbol
_atom_site_label
_atom_site_fract_x
_atom_site_fract_y
_atom_site_fract_z
Si Si1 0.234742 0.430376 0.541019
Si Si2 0.235134 0.324738 0.209199
Si Si3 0.414594 0.030248 0.357506
Si Si4 0.465827 0.588200 0.887381
Si Si5 0.101575 0.437627 0.495298
Si Si6 0.902723 0.822898 0.677852
Si Si7 0.789184 0.062853 0.460728
O O1 0.250000 0.500000 0.420887
O O2 0.246380 0.364905 0.411237
O O3 0.165521 0.430014 0.601494
O O4 0.279597 0.431011 0.726159
O O5 0.260660 0.250000 0.250000
O O6 0.167529 0.321320 0.132877
O O7 0.271068 0.363836 0.041541
O O8 0.462169 0.091897 0.369571
O O9 0.357162 0.050335 0.483236
O O10 0.445600 0.966023 0.453013
O O11 0.399796 0.008101 0.130305
O O12 0.445391 0.564532 0.670904
O O13 0.438049 0.658239 0.973598
O O14 0.085784 0.375143 0.353943
O O15 0.925747 0.750000 0.750000
O O16 0.750000 0.000000 0.544312
#
# Coordination Sequence:
#
# PCOD8215117 Si02
#       7
#     8   8   8   8   8   8   8
#     4  10  19  31  54  83 105 137 178 223 275 329
#     4  10  20  34  53  77 109 142 176 226 279 328
#     4  10  21  33  53  80 110 138 174 229 282 327
#     4  10  19  34  53  78 108 139 181 223 279 331
#     4  10  18  32  54  81 107 135 178 226 275 329
#     4   9  19  34  53  77 106 141 181 229 271 317
#     4  11  20  34  55  78 108 140 180 227 278 333
#
# _framework density 18.679259999999999
#
# number of rings (size 3 to 8) (size 9 to 14) (size 15 to 20)
#    0.000    2.000    0.000    6.857    0.000    1.143 
#    0.000    4.286    6.286    0.000    0.000    0.000 
#    0.000    0.000    0.000    0.000    0.000    0.000 
#
# Total GULP energy -694026.573941 kJ/mol
# GULP energy per Si atom -12393.331678 kJ/mol
# Density = 1.863675 g / cm^3
# Si number density = 18.679260 Si / 1000 Ang^3
#
#
#
# Elastic Constant Matrix: (Units=GPa)
#
#
# Indices 1 2 3 4 5 6 
#
# 1 98.4612 35.6672 51.2618 0.0000 0.0000 0.0000
# 2 35.6672 114.7501 28.5428 0.0000 0.0000 0.0000
# 3 51.2618 28.5428 92.4806 0.0000 0.0000 0.0000
# 4 0.0000 0.0000 0.0000 30.3716 0.0000 0.0000
# 5 0.0000 0.0000 0.0000 0.0000 21.3534 0.0000
# 6 0.0000 0.0000 0.0000 0.0000 0.0000 22.8966
#
#
#
# Elastic Compliance Matrix: (Units=1/GPa)
#
#
# Indices 1 2 3 4 5 6 
#
# 1 0.015076 -0.002824 -0.007485 0.000000 0.000000 0.000000
# 2 -0.002824 0.009968 -0.001511 0.000000 0.000000 0.000000
# 3 -0.007485 -0.001511 0.015428 0.000000 0.000000 0.000000
# 4 0.000000 0.000000 0.000000 0.032925 0.000000 0.000000
# 5 0.000000 0.000000 0.000000 0.000000 0.046831 0.000000
# 6 0.000000 0.000000 0.000000 0.000000 0.000000 0.043675
#
#
# Mechanical properties :
#
#
# Convention : Reuss Voigt Hill
#
# Bulk Modulus (GPa) = 59.41013 59.62617 59.51815
# Shear Modulus (GPa) = 25.88583 27.60565 26.74574
#
# Velocity S-wave (km/s) = 3.72668 3.84849 3.78807
# Velocity P-wave (km/s) = 7.09873 7.19292 7.14598
#
# Compressibility (1/GPa) = 0.01683215
#
# Stress axis : x y z
#
# Youngs Moduli (GPa) = 66.32903 100.31791 64.81534
#
# Poissons Ratio (x) = 0.28333 0.48515
# Poissons Ratio (y) = 0.18733 0.09794
# Poissons Ratio (z) = 0.49648 0.15159
#
# Static dielectric constant tensor:
#      x y z
#    x 3.503890 0.000000 0.000000 
#    y 0.000000 3.484100 0.000000 
#    z 0.000000 0.000000 3.419220 
# 
# 
# High freq. dielectric constant tensor:
#      x y z
#    x 1.714950 0.000000 0.000000 
#    y 0.000000 1.705130 0.000000 
#    z 0.000000 0.000000 1.729750 
# 
# From -- ./inp_files/5237.got.cif
#   From: 2010.06.25/outbox.cif.g09.slc.cpg/sg52_3_cif.got.tgz:5237.got - 2010.06.26 19:32:48.
