data_PCOD8215242
_publ_section_title
;
Structure prediction by ZEFSAII (Michael W. Deem and Ramdas Pophale) SiO2 
 PCOD8215242
Probable space group: P N N A
;
_chemical_formula_sum "Si O2"
_cell_formula_units_Z 44
_cell_length_a 15.234201
_cell_length_b 8.326289
_cell_length_c 17.325548
_cell_angle_alpha 90.000000
_cell_angle_beta 90.000000
_cell_angle_gamma 90.000000
_cell_volume 2197.648051
_symmetry_space_group_name_H-M "P N N A"
_symmetry_group_IT_number 52
_symmetry_cell_setting 'orthorhombic'
loop_
_space_group_symop_operation_xyz
x,y,z
1/2-x,-y,z
x,1/2-y,1/2-z
1/2-x,1/2+y,1/2-z
-x,-y,-z
1/2+x,y,-z
-x,1/2+y,1/2+z
1/2+x,1/2-y,1/2+z
loop_
_atom_site_type_symbol
_atom_site_label
_atom_site_fract_x
_atom_site_fract_y
_atom_site_fract_z
Si Si1 0.633080 0.569858 0.356156
Si Si2 0.206118 0.254268 0.593243
Si Si3 0.322719 0.117781 0.187240
Si Si4 0.211664 0.171635 0.420409
Si Si5 0.750000 0.500000 0.215990
Si Si6 0.058561 0.171756 0.167104
O O1 0.697427 0.668549 0.411526
O O2 0.631180 0.386914 0.388048
O O3 0.673465 0.576052 0.269366
O O4 0.540284 0.657562 0.363140
O O5 0.192431 0.171936 0.511228
O O6 0.200905 0.128243 0.662727
O O7 0.349736 0.250000 0.250000
O O8 0.281304 0.195648 0.109674
O O9 0.250000 0.000000 0.225484
O O10 0.406660 0.011575 0.165655
O O11 0.116257 0.207752 0.384306
O O12 0.250000 0.000000 0.395321
O O13 0.059880 0.250000 0.250000
#
# Coordination Sequence:
#
# PCOD8215242 Si02
#       6
#     8   8   8   8   4   8
#     4  10  22  38  64  87 121 154 207 254 303 366
#     4  10  21  38  63  89 119 163 202 249 312 367
#     4  10  20  35  59  85 116 160 202 245 295 366
#     4  11  22  40  60  87 125 162 204 248 308 374
#     4  10  18  40  64  90 114 164 210 252 302 370
#     4  11  23  39  63  91 123 159 202 256 305 366
#
# _framework density 20.021404
#
# number of rings (size 3 to 8) (size 9 to 14) (size 15 to 20)
#    0.000    1.818    0.909    7.091    7.636    2.182 
#    0.000    2.727    0.000    0.000    0.000    0.000 
#    0.000    0.000    0.000    0.000    0.000    0.000 
#
# Total GULP energy -545451.797384 kJ/mol
# GULP energy per Si atom -12396.631759 kJ/mol
# Density = 1.997583 g / cm^3
# Si number density = 20.021404 Si / 1000 Ang^3
#
#
#
# Elastic Constant Matrix: (Units=GPa)
#
#
# Indices 1 2 3 4 5 6 
#
# 1 125.7746 44.2504 39.1931 0.0000 0.0000 0.0000
# 2 44.2504 106.1888 30.9374 0.0000 0.0000 0.0000
# 3 39.1931 30.9374 77.4736 0.0000 0.0000 0.0000
# 4 0.0000 0.0000 0.0000 33.6547 0.0000 0.0000
# 5 0.0000 0.0000 0.0000 0.0000 12.8022 0.0000
# 6 0.0000 0.0000 0.0000 0.0000 0.0000 28.4666
#
#
#
# Elastic Compliance Matrix: (Units=1/GPa)
#
#
# Indices 1 2 3 4 5 6 
#
# 1 0.010285 -0.003135 -0.003951 0.000000 0.000000 0.000000
# 2 -0.003135 0.011612 -0.003051 0.000000 0.000000 0.000000
# 3 -0.003951 -0.003051 0.016125 0.000000 0.000000 0.000000
# 4 0.000000 0.000000 0.000000 0.029714 0.000000 0.000000
# 5 0.000000 0.000000 0.000000 0.000000 0.078112 0.000000
# 6 0.000000 0.000000 0.000000 0.000000 0.000000 0.035129
#
#
# Mechanical properties :
#
#
# Convention : Reuss Voigt Hill
#
# Bulk Modulus (GPa) = 56.34522 59.79986 58.07254
# Shear Modulus (GPa) = 24.13515 27.98843 26.06179
#
# Velocity S-wave (km/s) = 3.47575 3.74294 3.61182
# Velocity P-wave (km/s) = 6.65668 6.97225 6.81629
#
# Compressibility (1/GPa) = 0.01774773
#
# Stress axis : x y z
#
# Youngs Moduli (GPa) = 97.23044 86.11439 62.01548
#
# Poissons Ratio (x) = 0.26994 0.24504
# Poissons Ratio (y) = 0.30479 0.18923
# Poissons Ratio (z) = 0.38418 0.26277
#
# Static dielectric constant tensor:
#      x y z
#    x 3.624300 0.000000 0.000000 
#    y 0.000000 3.998010 0.000000 
#    z 0.000000 0.000000 3.503030 
# 
# 
# High freq. dielectric constant tensor:
#      x y z
#    x 1.755080 0.000000 0.000000 
#    y 0.000000 1.795990 0.000000 
#    z 0.000000 0.000000 1.780200 
# 
# From -- ./inp_files/32953.got.cif
#   From: 2010.06.25/outbox.cif.g09.slc.cpg/sg52_17_cif.got.tgz:32953.got - 2010.06.26 19:32:48.
