data_PCOD8215295
_publ_section_title
;
Structure prediction by ZEFSAII (Michael W. Deem and Ramdas Pophale) SiO2 
 PCOD8215295
Probable space group: P N N A
;
_chemical_formula_sum "Si O2"
_cell_formula_units_Z 56
_cell_length_a 5.038655
_cell_length_b 16.209660
_cell_length_c 33.757999
_cell_angle_alpha 90.000000
_cell_angle_beta 90.000000
_cell_angle_gamma 90.000000
_cell_volume 2757.180666
_symmetry_space_group_name_H-M "P N N A"
_symmetry_group_IT_number 52
_symmetry_cell_setting 'orthorhombic'
loop_
_space_group_symop_operation_xyz
x,y,z
1/2-x,-y,z
x,1/2-y,1/2-z
1/2-x,1/2+y,1/2-z
-x,-y,-z
1/2+x,y,-z
-x,1/2+y,1/2+z
1/2+x,1/2-y,1/2+z
loop_
_atom_site_type_symbol
_atom_site_label
_atom_site_fract_x
_atom_site_fract_y
_atom_site_fract_z
Si Si1 0.470959 0.142276 0.976203
Si Si2 0.856718 0.361663 0.111697
Si Si3 0.501169 0.944527 0.105083
Si Si4 0.441711 0.162462 0.523425
Si Si5 0.364663 0.413817 0.155916
Si Si6 0.664213 0.702149 0.341188
Si Si7 0.346965 0.256211 0.203473
O O1 0.562711 0.107365 0.934076
O O2 0.458982 0.239874 0.971967
O O3 0.684552 0.111544 0.008841
O O4 0.850104 0.376310 0.064868
O O5 0.644081 0.422871 0.132579
O O6 0.789441 0.266937 0.123025
O O7 0.155384 0.378342 0.124861
O O8 0.576064 0.885535 0.141651
O O9 0.750000 0.000000 0.094821
O O10 0.250000 0.000000 0.117410
O O11 0.729962 0.132082 0.509358
O O12 0.250000 0.500000 0.172656
O O13 0.406442 0.351560 0.192420
O O14 0.447509 0.732949 0.309854
O O15 0.942443 0.695075 0.317699
O O16 0.374651 0.250000 0.250000
#
# Coordination Sequence:
#
# PCOD8215295 Si02
#       7
#     8   8   8   8   8   8   8
#     4  10  21  35  52  76 110 151 200 254 296 333
#     4  10  19  36  60  80 111 153 187 236 282 334
#     4  12  24  37  55  79 118 161 200 247 293 340
#     4  10  19  32  54  81 108 143 196 245 287 333
#     4  10  21  36  60  90 116 142 185 232 283 339
#     4  10  21  39  58  84 114 148 199 231 280 351
#     4  10  21  39  66  90 115 149 184 232 285 348
#
# _framework density 20.310601999999999
#
# number of rings (size 3 to 8) (size 9 to 14) (size 15 to 20)
#    0.000    1.714    1.429    3.429    0.000    1.714 
#    0.000    2.143    0.000   10.286    0.000    0.000 
#    0.000    0.000    0.000    0.000    0.000    0.000 
#
# Total GULP energy -694466.206583 kJ/mol
# GULP energy per Si atom -12401.182260 kJ/mol
# Density = 2.026437 g / cm^3
# Si number density = 20.310602 Si / 1000 Ang^3
#
#
#
# Elastic Constant Matrix: (Units=GPa)
#
#
# Indices 1 2 3 4 5 6 
#
# 1 106.8573 20.9713 22.6586 0.0000 0.0000 0.0000
# 2 20.9713 61.9273 33.3049 0.0000 0.0000 0.0000
# 3 22.6586 33.3049 121.4870 0.0000 0.0000 0.0000
# 4 0.0000 0.0000 0.0000 21.4065 0.0000 0.0000
# 5 0.0000 0.0000 0.0000 0.0000 26.9097 0.0000
# 6 0.0000 0.0000 0.0000 0.0000 0.0000 32.7186
#
#
#
# Elastic Compliance Matrix: (Units=1/GPa)
#
#
# Indices 1 2 3 4 5 6 
#
# 1 0.010152 -0.002838 -0.001115 0.000000 0.000000 0.000000
# 2 -0.002838 0.019734 -0.004881 0.000000 0.000000 0.000000
# 3 -0.001115 -0.004881 0.009777 0.000000 0.000000 0.000000
# 4 0.000000 0.000000 0.000000 0.046715 0.000000 0.000000
# 5 0.000000 0.000000 0.000000 0.000000 0.037161 0.000000
# 6 0.000000 0.000000 0.000000 0.000000 0.000000 0.030564
#
#
# Mechanical properties :
#
#
# Convention : Reuss Voigt Hill
#
# Bulk Modulus (GPa) = 45.46480 49.34901 47.40690
# Shear Modulus (GPa) = 27.91700 30.42941 29.17321
#
# Velocity S-wave (km/s) = 3.71145 3.87486 3.79404
# Velocity P-wave (km/s) = 6.38748 6.66103 6.52569
#
# Compressibility (1/GPa) = 0.02199504
#
# Stress axis : x y z
#
# Youngs Moduli (GPa) = 98.50508 50.67433 102.27723
#
# Poissons Ratio (x) = 0.14381 0.11408
# Poissons Ratio (y) = 0.27955 0.49917
# Poissons Ratio (z) = 0.10987 0.24732
#
# Static dielectric constant tensor:
#      x y z
#    x 3.879210 0.000000 0.000000 
#    y 0.000000 3.550150 0.000000 
#    z 0.000000 0.000000 3.426760 
# 
# 
# High freq. dielectric constant tensor:
#      x y z
#    x 1.814550 0.000000 0.000000 
#    y 0.000000 1.775450 0.000000 
#    z 0.000000 0.000000 1.776720 
# 
# From -- ./inp_files/43785.got.cif
#   From: 2010.06.25/outbox.cif.g09.slc.cpg/sg52_22_cif.got.tgz:43785.got - 2010.06.26 19:32:48.
