data_PCOD8215860
_publ_section_title
;
Structure prediction by ZEFSAII (Michael W. Deem and Ramdas Pophale) SiO2 
 PCOD8215860
Probable space group: P N N A
;
_chemical_formula_sum "Si O2"
_cell_formula_units_Z 48
_cell_length_a 8.577868
_cell_length_b 10.102121
_cell_length_c 26.096573
_cell_angle_alpha 90.000000
_cell_angle_beta 90.000000
_cell_angle_gamma 90.000000
_cell_volume 2261.389672
_symmetry_space_group_name_H-M "P N N A"
_symmetry_group_IT_number 52
_symmetry_cell_setting 'orthorhombic'
loop_
_space_group_symop_operation_xyz
x,y,z
1/2-x,-y,z
x,1/2-y,1/2-z
1/2-x,1/2+y,1/2-z
-x,-y,-z
1/2+x,y,-z
-x,1/2+y,1/2+z
1/2+x,1/2-y,1/2+z
loop_
_atom_site_type_symbol
_atom_site_label
_atom_site_fract_x
_atom_site_fract_y
_atom_site_fract_z
Si Si1 0.311901 0.146340 0.956947
Si Si2 0.750000 0.000000 0.216737
Si Si3 0.235925 0.242253 0.850736
Si Si4 0.594042 0.286395 0.841300
Si Si5 0.676781 0.356290 0.560896
Si Si6 0.702970 0.750000 0.750000
Si Si7 0.520139 0.041872 0.298564
O O1 0.222702 0.228248 0.912269
O O2 0.495665 0.133645 0.952197
O O3 0.250000 0.000000 0.955027
O O4 0.266933 0.207585 0.012298
O O5 0.823606 0.884022 0.181656
O O6 0.887074 0.044970 0.256056
O O7 0.418272 0.237374 0.839241
O O8 0.141134 0.371618 0.833070
O O9 0.689481 0.247785 0.892524
O O10 0.686496 0.209962 0.796964
O O11 0.582734 0.445956 0.834652
O O12 0.750000 0.500000 0.575481
O O13 0.598259 0.871059 0.733158
#
# Coordination Sequence:
#
# PCOD8215860 Si02
#       7
#     8   4   8   8   8   4   8
#     4  10  20  38  61  95 124 163 221 278 323 391
#     4  12  20  38  64  90 124 164 230 258 312 384
#     4  11  22  39  66  91 124 174 223 267 321 393
#     4  11  25  42  61  92 136 165 212 273 333 395
#     4  10  22  39  65  90 128 171 213 276 338 387
#     4  12  26  40  62  94 130 172 212 268 338 390
#     4  12  24  42  64  93 129 180 220 267 326 406
#
# _framework density 21.225887
#
# number of rings (size 3 to 8) (size 9 to 14) (size 15 to 20)
#    0.000    1.000    4.167    3.500    0.000    6.667 
#    0.000    0.833    0.000    2.000    0.000    0.000 
#    0.000    0.000    0.000    0.000    0.000    0.000 
#
# Total GULP energy -594772.996628 kJ/mol
# GULP energy per Si atom -12391.104096 kJ/mol
# Density = 2.117758 g / cm^3
# Si number density = 21.225887 Si / 1000 Ang^3
#
#
#
# Elastic Constant Matrix: (Units=GPa)
#
#
# Indices 1 2 3 4 5 6 
#
# 1 79.2650 20.9207 70.6031 0.0000 0.0000 0.0000
# 2 20.9207 89.6971 72.8347 0.0000 0.0000 0.0000
# 3 70.6031 72.8347 194.5134 0.0000 0.0000 0.0000
# 4 0.0000 0.0000 0.0000 38.9341 0.0000 0.0000
# 5 0.0000 0.0000 0.0000 0.0000 25.8788 0.0000
# 6 0.0000 0.0000 0.0000 0.0000 0.0000 24.9821
#
#
#
# Elastic Compliance Matrix: (Units=1/GPa)
#
#
# Indices 1 2 3 4 5 6 
#
# 1 0.018814 0.001663 -0.007452 0.000000 0.000000 0.000000
# 2 0.001663 0.016166 -0.006657 0.000000 0.000000 0.000000
# 3 -0.007452 -0.006657 0.010338 0.000000 0.000000 0.000000
# 4 0.000000 0.000000 0.000000 0.025684 0.000000 0.000000
# 5 0.000000 0.000000 0.000000 0.000000 0.038642 0.000000
# 6 0.000000 0.000000 0.000000 0.000000 0.000000 0.040029
#
#
# Mechanical properties :
#
#
# Convention : Reuss Voigt Hill
#
# Bulk Modulus (GPa) = 48.95419 76.91028 62.93224
# Shear Modulus (GPa) = 27.56719 31.23346 29.40033
#
# Velocity S-wave (km/s) = 3.60773 3.84015 3.72575
# Velocity P-wave (km/s) = 6.36143 7.48166 6.94417
#
# Compressibility (1/GPa) = 0.02042726
#
# Stress axis : x y z
#
# Youngs Moduli (GPa) = 53.15052 61.85707 96.72635
#
# Poissons Ratio (x) = -0.10284 0.72078
# Poissons Ratio (y) = -0.08837 0.64390
# Poissons Ratio (z) = 0.39606 0.41178
#
# Static dielectric constant tensor:
#      x y z
#    x 4.125710 0.000000 0.000000 
#    y 0.000000 5.014900 0.000000 
#    z 0.000000 0.000000 4.717110 
# 
# 
# High freq. dielectric constant tensor:
#      x y z
#    x 1.849080 0.000000 0.000000 
#    y 0.000000 1.804990 0.000000 
#    z 0.000000 0.000000 1.842210 
# 
# From -- ./inp_files/39513.got.cif
#   From: 2010.06.25/outbox.cif.g09.slc.cpg/sg52_20_cif.got.tgz:39513.got - 2010.06.26 19:32:48.
