data_PCOD8215920
_publ_section_title
;
Structure prediction by ZEFSAII (Michael W. Deem and Ramdas Pophale) SiO2 
 PCOD8215920
Probable space group: P N N A
;
_chemical_formula_sum "Si O2"
_cell_formula_units_Z 56
_cell_length_a 21.056832
_cell_length_b 14.449909
_cell_length_c 8.950482
_cell_angle_alpha 90.000000
_cell_angle_beta 90.000000
_cell_angle_gamma 90.000000
_cell_volume 2723.356949
_symmetry_space_group_name_H-M "P N N A"
_symmetry_group_IT_number 52
_symmetry_cell_setting 'orthorhombic'
loop_
_space_group_symop_operation_xyz
x,y,z
1/2-x,-y,z
x,1/2-y,1/2-z
1/2-x,1/2+y,1/2-z
-x,-y,-z
1/2+x,y,-z
-x,1/2+y,1/2+z
1/2+x,1/2-y,1/2+z
loop_
_atom_site_type_symbol
_atom_site_label
_atom_site_fract_x
_atom_site_fract_y
_atom_site_fract_z
Si Si1 0.830929 0.327787 0.636841
Si Si2 0.889389 0.496269 0.788686
Si Si3 0.369630 0.642598 0.704647
Si Si4 0.294251 0.590146 0.407456
Si Si5 0.023090 0.002671 0.833827
Si Si6 0.679795 0.988808 0.410270
Si Si7 0.373215 0.152748 0.807758
O O1 0.856004 0.250000 0.750000
O O2 0.873316 0.415321 0.674799
O O3 0.755199 0.336255 0.659913
O O4 0.841373 0.314961 0.461534
O O5 0.847217 0.580211 0.722713
O O6 0.965047 0.511636 0.782100
O O7 0.870333 0.471541 0.957339
O O8 0.374355 0.750000 0.750000
O O9 0.329731 0.627471 0.553825
O O10 0.440561 0.599895 0.691341
O O11 0.334834 0.586526 0.834369
O O12 0.250000 0.500000 0.445460
O O13 0.068271 0.915790 0.814439
O O14 0.000000 0.000000 0.000000
O O15 0.677996 0.900638 0.297458
O O16 0.750000 0.000000 0.479043
O O17 0.399078 0.250000 0.750000
#
# Coordination Sequence:
#
# PCOD8215920 Si02
#       7
#     8   8   8   8   8   8   8
#     4  11  22  37  62  94 127 167 213 266 322 387
#     4  11  22  40  65  89 124 167 216 262 322 388
#     4  11  24  40  64  94 125 171 217 262 328 391
#     4  10  20  39  62  87 123 170 212 260 327 389
#     4  11  21  47  68  87 127 174 213 269 321 380
#     4  11  23  42  66  97 134 169 211 272 334 395
#     4  11  24  42  66  96 127 171 219 267 325 387
#
# _framework density 20.562857999999999
#
# number of rings (size 3 to 8) (size 9 to 14) (size 15 to 20)
#    0.000    1.143    2.857    6.000    0.000    7.429 
#    5.143    0.714    0.000    0.000    0.000    0.000 
#    0.000    0.000    0.000    0.000    0.000    0.000 
#
# Total GULP energy -694057.603450 kJ/mol
# GULP energy per Si atom -12393.885776 kJ/mol
# Density = 2.051606 g / cm^3
# Si number density = 20.562858 Si / 1000 Ang^3
#
#
#
# Elastic Constant Matrix: (Units=GPa)
#
#
# Indices 1 2 3 4 5 6 
#
# 1 125.4413 34.6860 24.2363 0.0000 0.0000 0.0000
# 2 34.6860 113.7281 38.8418 0.0000 0.0000 0.0000
# 3 24.2363 38.8418 103.8392 0.0000 0.0000 0.0000
# 4 0.0000 0.0000 0.0000 28.9252 0.0000 0.0000
# 5 0.0000 0.0000 0.0000 0.0000 35.9902 0.0000
# 6 0.0000 0.0000 0.0000 0.0000 0.0000 4.3055
#
#
#
# Elastic Compliance Matrix: (Units=1/GPa)
#
#
# Indices 1 2 3 4 5 6 
#
# 1 0.008836 -0.002282 -0.001209 0.000000 0.000000 0.000000
# 2 -0.002282 0.010670 -0.003459 0.000000 0.000000 0.000000
# 3 -0.001209 -0.003459 0.011206 0.000000 0.000000 0.000000
# 4 0.000000 0.000000 0.000000 0.034572 0.000000 0.000000
# 5 0.000000 0.000000 0.000000 0.000000 0.027785 0.000000
# 6 0.000000 0.000000 0.000000 0.000000 0.000000 0.232258
#
#
# Mechanical properties :
#
#
# Convention : Reuss Voigt Hill
#
# Bulk Modulus (GPa) = 59.47556 59.83740 59.65648
# Shear Modulus (GPa) = 14.49981 30.19381 22.34681
#
# Velocity S-wave (km/s) = 2.65834 3.83608 3.30017
# Velocity P-wave (km/s) = 6.19749 6.98453 6.60275
#
# Compressibility (1/GPa) = 0.01681363
#
# Stress axis : x y z
#
# Youngs Moduli (GPa) = 113.16750 93.71925 89.23699
#
# Poissons Ratio (x) = 0.21389 0.10787
# Poissons Ratio (y) = 0.25827 0.30863
# Poissons Ratio (z) = 0.13679 0.32414
#
# Static dielectric constant tensor:
#      x y z
#    x 5.995480 0.000000 0.000000 
#    y 0.000000 3.715930 0.000000 
#    z 0.000000 0.000000 4.048200 
# 
# 
# High freq. dielectric constant tensor:
#      x y z
#    x 1.810190 0.000000 0.000000 
#    y 0.000000 1.791850 0.000000 
#    z 0.000000 0.000000 1.814580 
# 
# From -- ./inp_files/13461.got.cif
#   From: 2010.06.25/outbox.cif.g09.slc.cpg/sg52_7_cif.got.tgz:13461.got - 2010.06.26 19:32:48.
