data_PCOD8215257
_publ_section_title
;
Structure prediction by ZEFSAII (Michael W. Deem and Ramdas Pophale) SiO2 
 PCOD8215257
Probable space group: P N N A
;
_chemical_formula_sum "Si O2"
_cell_formula_units_Z 64
_cell_length_a 16.949289
_cell_length_b 15.546534
_cell_length_c 13.561537
_cell_angle_alpha 90.000000
_cell_angle_beta 90.000000
_cell_angle_gamma 90.000000
_cell_volume 3573.501585
_symmetry_space_group_name_H-M "P N N A"
_symmetry_group_IT_number 52
_symmetry_cell_setting 'orthorhombic'
loop_
_space_group_symop_operation_xyz
x,y,z
1/2-x,-y,z
x,1/2-y,1/2-z
1/2-x,1/2+y,1/2-z
-x,-y,-z
1/2+x,y,-z
-x,1/2+y,1/2+z
1/2+x,1/2-y,1/2+z
loop_
_atom_site_type_symbol
_atom_site_label
_atom_site_fract_x
_atom_site_fract_y
_atom_site_fract_z
Si Si1 0.565100 0.078631 0.112222
Si Si2 0.589050 0.191649 0.840092
Si Si3 0.053598 0.891649 0.949359
Si Si4 0.538045 0.339169 0.193470
Si Si5 0.857102 0.753096 0.041884
Si Si6 0.748621 0.402471 0.675648
Si Si7 0.309834 0.221913 0.009369
Si Si8 0.864437 0.169453 0.677461
O O1 0.565613 0.086796 0.230980
O O2 0.625887 0.148575 0.071885
O O3 0.591632 0.982419 0.083797
O O4 0.479579 0.099621 0.061868
O O5 0.559574 0.250000 0.750000
O O6 0.517250 0.131590 0.875247
O O7 0.660631 0.131610 0.802393
O O8 0.617865 0.255649 0.927502
O O9 0.119257 0.816943 0.943640
O O10 0.530532 0.250000 0.250000
O O11 0.598380 0.322031 0.103208
O O12 0.451475 0.369573 0.159280
O O13 0.762949 0.744984 0.057612
O O14 0.750000 0.500000 0.641201
O O15 0.784364 0.351834 0.584360
O O16 0.802247 0.396488 0.774443
O O17 0.337201 0.305627 0.068440
O O18 0.867476 0.250000 0.750000
#
# Coordination Sequence:
#
# PCOD8215257 Si02
#       8
#     8   8   8   8   8   8   8   8
#     4   9  18  30  49  79 109 128 168 215 276 321
#     4  10  20  35  49  71 110 143 174 213 271 326
#     4  10  20  30  52  79 107 138 167 219 274 322
#     4   9  16  30  51  73 104 136 173 214 259 317
#     4   9  18  31  50  73 102 142 175 216 260 313
#     4  10  20  28  49  80 108 137 165 221 283 322
#     4  10  19  30  48  75 106 140 177 216 262 320
#     4   9  16  29  47  71 103 134 174 213 259 323
#
# _framework density 17.909603000000001
#
# number of rings (size 3 to 8) (size 9 to 14) (size 15 to 20)
#    0.000    2.500    0.000    5.625    8.750    0.000 
#    0.000    1.875    0.000    0.750    3.250    0.000 
#    0.000    0.000    0.000    0.000    0.000    0.000 
#
# Total GULP energy -793233.496615 kJ/mol
# GULP energy per Si atom -12394.273385 kJ/mol
# Density = 1.786884 g / cm^3
# Si number density = 17.909603 Si / 1000 Ang^3
#
#
#
# Elastic Constant Matrix: (Units=GPa)
#
#
# Indices 1 2 3 4 5 6 
#
# 1 115.6556 13.8418 46.3027 0.0000 0.0000 0.0000
# 2 13.8418 33.8606 32.8908 0.0000 0.0000 0.0000
# 3 46.3027 32.8908 84.1225 0.0000 0.0000 0.0000
# 4 0.0000 0.0000 0.0000 18.8463 0.0000 0.0000
# 5 0.0000 0.0000 0.0000 0.0000 23.3355 0.0000
# 6 0.0000 0.0000 0.0000 0.0000 0.0000 17.9867
#
#
#
# Elastic Compliance Matrix: (Units=1/GPa)
#
#
# Indices 1 2 3 4 5 6 
#
# 1 0.011198 0.002272 -0.007052 0.000000 0.000000 0.000000
# 2 0.002272 0.048078 -0.020049 0.000000 0.000000 0.000000
# 3 -0.007052 -0.020049 0.023608 0.000000 0.000000 0.000000
# 4 0.000000 0.000000 0.000000 0.053061 0.000000 0.000000
# 5 0.000000 0.000000 0.000000 0.000000 0.042853 0.000000
# 6 0.000000 0.000000 0.000000 0.000000 0.000000 0.055597
#
#
# Mechanical properties :
#
#
# Convention : Reuss Voigt Hill
#
# Bulk Modulus (GPa) = 30.09575 46.63437 38.36506
# Shear Modulus (GPa) = 16.94187 21.40726 19.17456
#
# Velocity S-wave (km/s) = 3.07899 3.46105 3.27560
# Velocity P-wave (km/s) = 5.42964 6.48592 5.98114
#
# Compressibility (1/GPa) = 0.03322728
#
# Stress axis : x y z
#
# Youngs Moduli (GPa) = 89.30469 20.79933 42.35891
#
# Poissons Ratio (x) = -0.04727 0.29871
# Poissons Ratio (y) = -0.20294 0.84925
# Poissons Ratio (z) = 0.62977 0.41700
#
# Static dielectric constant tensor:
#      x y z
#    x 3.492070 0.000000 0.000000 
#    y 0.000000 3.007220 0.000000 
#    z 0.000000 0.000000 3.276660 
# 
# 
# High freq. dielectric constant tensor:
#      x y z
#    x 1.697840 0.000000 0.000000 
#    y 0.000000 1.655010 0.000000 
#    z 0.000000 0.000000 1.668970 
# 
# From -- ./inp_files/19853.got.cif
#   From: 2010.06.25/outbox.cif.g09.slc.cpg/sg52_10_cif.got.tgz:19853.got - 2010.06.26 19:32:48.
