data_PCOD8215644
_publ_section_title
;
Structure prediction by ZEFSAII (Michael W. Deem and Ramdas Pophale) SiO2 
 PCOD8215644
Probable space group: P N N A
;
_chemical_formula_sum "Si O2"
_cell_formula_units_Z 40
_cell_length_a 5.641713
_cell_length_b 8.765411
_cell_length_c 38.961165
_cell_angle_alpha 90.000000
_cell_angle_beta 90.000000
_cell_angle_gamma 90.000000
_cell_volume 1926.704929
_symmetry_space_group_name_H-M "P N N A"
_symmetry_group_IT_number 52
_symmetry_cell_setting 'orthorhombic'
loop_
_space_group_symop_operation_xyz
x,y,z
1/2-x,-y,z
x,1/2-y,1/2-z
1/2-x,1/2+y,1/2-z
-x,-y,-z
1/2+x,y,-z
-x,1/2+y,1/2+z
1/2+x,1/2-y,1/2+z
loop_
_atom_site_type_symbol
_atom_site_label
_atom_site_fract_x
_atom_site_fract_y
_atom_site_fract_z
Si Si1 0.750000 0.500000 0.626325
Si Si2 0.133350 0.336005 0.591862
Si Si3 0.371557 0.658564 0.784297
Si Si4 0.225988 0.318900 0.515996
Si Si5 0.577275 0.748101 0.346723
Si Si6 0.250000 0.000000 0.325678
O O1 0.640808 0.631358 0.601514
O O2 0.563432 0.412328 0.650627
O O3 0.250000 0.500000 0.592056
O O4 0.172940 0.261374 0.554700
O O5 0.242749 0.231091 0.621569
O O6 0.250000 0.500000 0.774584
O O7 0.421221 0.750000 0.750000
O O8 0.211213 0.757221 0.810339
O O9 0.621742 0.625312 0.802056
O O10 0.250000 0.500000 0.512812
O O11 0.488800 0.257200 0.504370
O O12 0.424029 0.902418 0.349556
#
# Coordination Sequence:
#
# PCOD8215644 Si02
#       6
#     4   8   8   8   8   4
#     4  10  20  34  57  84 116 150 196 238 300 346
#     4   9  19  31  50  78 115 151 194 241 291 351
#     4  10  23  41  59  84 116 148 191 239 289 352
#     4   9  18  28  46  75 115 159 196 245 303 361
#     4  10  21  38  57  85 115 151 193 243 285 351
#     4  10  22  40  61  82 114 150 196 228 292 352
#
# _framework density 20.760833999999999
#
# number of rings (size 3 to 8) (size 9 to 14) (size 15 to 20)
#    0.000    2.400    0.000    1.200    9.800    7.200 
#    0.000    2.000    0.000    0.000    0.000    1.400 
#    0.000    0.000    0.000    0.000    0.000    0.000 
#
# Total GULP energy -495672.320714 kJ/mol
# GULP energy per Si atom -12391.808018 kJ/mol
# Density = 2.071358 g / cm^3
# Si number density = 20.760834 Si / 1000 Ang^3
#
#
#
# Elastic Constant Matrix: (Units=GPa)
#
#
# Indices 1 2 3 4 5 6 
#
# 1 139.5108 32.4893 63.8431 0.0000 0.0000 0.0000
# 2 32.4893 45.7231 52.8678 0.0000 0.0000 0.0000
# 3 63.8431 52.8678 146.6063 0.0000 0.0000 0.0000
# 4 0.0000 0.0000 0.0000 8.9048 0.0000 0.0000
# 5 0.0000 0.0000 0.0000 0.0000 30.7504 0.0000
# 6 0.0000 0.0000 0.0000 0.0000 0.0000 29.8766
#
#
#
# Elastic Compliance Matrix: (Units=1/GPa)
#
#
# Indices 1 2 3 4 5 6 
#
# 1 0.009230 -0.003278 -0.002837 0.000000 0.000000 0.000000
# 2 -0.003278 0.038676 -0.012520 0.000000 0.000000 0.000000
# 3 -0.002837 -0.012520 0.012571 0.000000 0.000000 0.000000
# 4 0.000000 0.000000 0.000000 0.112299 0.000000 0.000000
# 5 0.000000 0.000000 0.000000 0.000000 0.032520 0.000000
# 6 0.000000 0.000000 0.000000 0.000000 0.000000 0.033471
#
#
# Mechanical properties :
#
#
# Convention : Reuss Voigt Hill
#
# Bulk Modulus (GPa) = 43.08942 70.02673 56.55807
# Shear Modulus (GPa) = 17.61983 26.08236 21.85110
#
# Velocity S-wave (km/s) = 2.91642 3.54831 3.24777
# Velocity P-wave (km/s) = 5.66929 7.11272 6.43163
#
# Compressibility (1/GPa) = 0.02320756
#
# Stress axis : x y z
#
# Youngs Moduli (GPa) = 108.34707 25.85614 79.54662
#
# Poissons Ratio (x) = 0.08475 0.22570
# Poissons Ratio (y) = 0.35512 0.99589
# Poissons Ratio (z) = 0.30741 0.32371
#
# Static dielectric constant tensor:
#      x y z
#    x 4.730400 0.000000 0.000000 
#    y 0.000000 3.358610 0.000000 
#    z 0.000000 0.000000 3.880870 
# 
# 
# High freq. dielectric constant tensor:
#      x y z
#    x 1.831580 0.000000 0.000000 
#    y 0.000000 1.765530 0.000000 
#    z 0.000000 0.000000 1.807600 
# 
# From -- ./inp_files/43685.got.cif
#   From: 2010.06.25/outbox.cif.g09.slc.cpg/sg52_22_cif.got.tgz:43685.got - 2010.06.26 19:32:48.
