data_PCOD8215353
_publ_section_title
;
Structure prediction by ZEFSAII (Michael W. Deem and Ramdas Pophale) SiO2 
 PCOD8215353
Probable space group: P N N A
;
_chemical_formula_sum "Si O2"
_cell_formula_units_Z 52
_cell_length_a 22.150156
_cell_length_b 21.709088
_cell_length_c 5.557503
_cell_angle_alpha 90.000000
_cell_angle_beta 90.000000
_cell_angle_gamma 90.000000
_cell_volume 2672.379147
_symmetry_space_group_name_H-M "P N N A"
_symmetry_group_IT_number 52
_symmetry_cell_setting 'orthorhombic'
loop_
_space_group_symop_operation_xyz
x,y,z
1/2-x,-y,z
x,1/2-y,1/2-z
1/2-x,1/2+y,1/2-z
-x,-y,-z
1/2+x,y,-z
-x,1/2+y,1/2+z
1/2+x,1/2-y,1/2+z
loop_
_atom_site_type_symbol
_atom_site_label
_atom_site_fract_x
_atom_site_fract_y
_atom_site_fract_z
Si Si1 0.169608 0.417633 0.483109
Si Si2 0.055509 0.473702 0.236036
Si Si3 0.250000 0.500000 0.177153
Si Si4 0.444131 0.417174 0.577709
Si Si5 0.487273 0.214606 0.000630
Si Si6 0.872251 0.784994 0.001137
Si Si7 0.143404 0.509578 0.856245
O O1 0.104539 0.437602 0.389508
O O2 0.224953 0.441991 0.324783
O O3 0.171169 0.344302 0.503678
O O4 0.176670 0.450900 0.738786
O O5 0.040866 0.540618 0.347840
O O6 0.995881 0.431220 0.221776
O O7 0.081235 0.484270 0.970617
O O8 0.194309 0.533073 0.039382
O O9 0.445681 0.346200 0.500769
O O10 0.377182 0.435062 0.678506
O O11 0.470649 0.250000 0.250000
O O12 0.557553 0.196273 0.006350
O O13 0.472788 0.250000 0.750000
O O14 0.856243 0.750000 0.250000
O O15 0.857929 0.750000 0.750000
#
# Coordination Sequence:
#
# PCOD8215353 Si02
#       7
#     8   8   4   8   8   8   8
#     4  10  20  37  57  88 120 154 204 255 313 371
#     4   9  19  32  54  87 122 153 187 244 304 365
#     4  10  22  38  58  88 114 148 206 272 324 356
#     4  10  19  34  53  89 123 154 200 237 305 371
#     4  10  22  36  56  86 128 172 201 236 294 372
#     4  10  22  37  58  90 126 167 199 241 301 373
#     4  10  21  34  60  88 110 159 194 259 315 368
#
# _framework density 19.458317000000001
#
# number of rings (size 3 to 8) (size 9 to 14) (size 15 to 20)
#    0.000    2.154    1.538    0.923    6.462    1.231 
#    0.000    0.000    0.000    0.000   16.000    0.000 
#    0.000    0.000    0.000    0.000    0.000    0.000 
#
# Total GULP energy -644368.150779 kJ/mol
# GULP energy per Si atom -12391.695207 kJ/mol
# Density = 1.941403 g / cm^3
# Si number density = 19.458317 Si / 1000 Ang^3
#
#
#
# Elastic Constant Matrix: (Units=GPa)
#
#
# Indices 1 2 3 4 5 6 
#
# 1 64.2539 44.9722 34.7674 0.0000 0.0000 0.0000
# 2 44.9722 153.0652 62.4644 0.0000 0.0000 0.0000
# 3 34.7674 62.4644 126.0818 0.0000 0.0000 0.0000
# 4 0.0000 0.0000 0.0000 13.3943 0.0000 0.0000
# 5 0.0000 0.0000 0.0000 0.0000 13.8394 0.0000
# 6 0.0000 0.0000 0.0000 0.0000 0.0000 23.3495
#
#
#
# Elastic Compliance Matrix: (Units=1/GPa)
#
#
# Indices 1 2 3 4 5 6 
#
# 1 0.020677 -0.004698 -0.003374 0.000000 0.000000 0.000000
# 2 -0.004698 0.009256 -0.003290 0.000000 0.000000 0.000000
# 3 -0.003374 -0.003290 0.010492 0.000000 0.000000 0.000000
# 4 0.000000 0.000000 0.000000 0.074659 0.000000 0.000000
# 5 0.000000 0.000000 0.000000 0.000000 0.072257 0.000000
# 6 0.000000 0.000000 0.000000 0.000000 0.000000 0.042828
#
#
# Mechanical properties :
#
#
# Convention : Reuss Voigt Hill
#
# Bulk Modulus (GPa) = 56.49679 69.75655 63.12667
# Shear Modulus (GPa) = 19.32035 23.52977 21.42506
#
# Velocity S-wave (km/s) = 3.15447 3.48118 3.32184
# Velocity P-wave (km/s) = 6.50887 7.21701 6.87207
#
# Compressibility (1/GPa) = 0.01770012
#
# Stress axis : x y z
#
# Youngs Moduli (GPa) = 48.36199 108.03470 95.31171
#
# Poissons Ratio (x) = 0.50758 0.32160
# Poissons Ratio (y) = 0.22722 0.31360
# Poissons Ratio (z) = 0.16318 0.35546
#
# Static dielectric constant tensor:
#      x y z
#    x 3.405720 0.000000 0.000000 
#    y 0.000000 3.376900 0.000000 
#    z 0.000000 0.000000 3.833880 
# 
# 
# High freq. dielectric constant tensor:
#      x y z
#    x 1.735950 0.000000 0.000000 
#    y 0.000000 1.734370 0.000000 
#    z 0.000000 0.000000 1.772290 
# 
# From -- ./inp_files/5919.got.cif
#   From: 2010.06.25/outbox.cif.g09.slc.cpg/sg52_3_cif.got.tgz:5919.got - 2010.06.26 19:32:48.
