data_PCOD8215598
_publ_section_title
;
Structure prediction by ZEFSAII (Michael W. Deem and Ramdas Pophale) SiO2 
 PCOD8215598
Probable space group: P N N A
;
_chemical_formula_sum "Si O2"
_cell_formula_units_Z 32
_cell_length_a 14.243209
_cell_length_b 5.076375
_cell_length_c 20.317440
_cell_angle_alpha 90.000000
_cell_angle_beta 90.000000
_cell_angle_gamma 90.000000
_cell_volume 1469.029542
_symmetry_space_group_name_H-M "P N N A"
_symmetry_group_IT_number 52
_symmetry_cell_setting 'orthorhombic'
loop_
_space_group_symop_operation_xyz
x,y,z
1/2-x,-y,z
x,1/2-y,1/2-z
1/2-x,1/2+y,1/2-z
-x,-y,-z
1/2+x,y,-z
-x,1/2+y,1/2+z
1/2+x,1/2-y,1/2+z
loop_
_atom_site_type_symbol
_atom_site_label
_atom_site_fract_x
_atom_site_fract_y
_atom_site_fract_z
Si Si1 0.851377 0.592838 0.023391
Si Si2 0.191119 0.259669 0.657448
Si Si3 0.482953 0.688822 0.091352
Si Si4 0.986351 0.290919 0.678506
O O1 0.750000 0.500000 0.996056
O O2 0.908005 0.742762 0.966344
O O3 0.831948 0.807454 0.080194
O O4 0.914176 0.357713 0.057847
O O5 0.250000 0.500000 0.687108
O O6 0.094321 0.230134 0.695677
O O7 0.250000 0.000000 0.668191
O O8 0.447120 0.423704 0.127424
O O9 0.478743 0.921445 0.145053
O O10 0.934909 0.250000 0.750000
#
# Coordination Sequence:
#
# PCOD8215598 Si02
#       4
#     8   8   8   8
#     4   9  19  36  59  86 116 143 180 238 297 345
#     4  10  20  33  53  83 112 141 180 227 285 351
#     4  10  22  36  57  86 112 146 190 231 285 347
#     4  11  22  37  54  76 113 155 191 231 275 331
#
# _framework density 21.783086999999998
#
# number of rings (size 3 to 8) (size 9 to 14) (size 15 to 20)
#    0.000    2.000    0.000    5.250    0.000   14.000 
#    0.000    0.000    0.000    3.000    0.000    0.000 
#    0.000    0.000    0.000    0.000    0.000    0.000 
#
# Total GULP energy -396440.800569 kJ/mol
# GULP energy per Si atom -12388.775018 kJ/mol
# Density = 2.173351 g / cm^3
# Si number density = 21.783087 Si / 1000 Ang^3
#
#
#
# Elastic Constant Matrix: (Units=GPa)
#
#
# Indices 1 2 3 4 5 6 
#
# 1 72.9629 7.7679 34.1580 0.0000 0.0000 0.0000
# 2 7.7679 111.9202 36.2838 0.0000 0.0000 0.0000
# 3 34.1580 36.2838 128.5269 0.0000 0.0000 0.0000
# 4 0.0000 0.0000 0.0000 22.0373 0.0000 0.0000
# 5 0.0000 0.0000 0.0000 0.0000 8.2301 0.0000
# 6 0.0000 0.0000 0.0000 0.0000 0.0000 8.9589
#
#
#
# Elastic Compliance Matrix: (Units=1/GPa)
#
#
# Indices 1 2 3 4 5 6 
#
# 1 0.015662 0.000289 -0.004244 0.000000 0.000000 0.000000
# 2 0.000289 0.009840 -0.002855 0.000000 0.000000 0.000000
# 3 -0.004244 -0.002855 0.009714 0.000000 0.000000 0.000000
# 4 0.000000 0.000000 0.000000 0.045378 0.000000 0.000000
# 5 0.000000 0.000000 0.000000 0.000000 0.121506 0.000000
# 6 0.000000 0.000000 0.000000 0.000000 0.000000 0.111621
#
#
# Mechanical properties :
#
#
# Convention : Reuss Voigt Hill
#
# Bulk Modulus (GPa) = 46.30337 52.20327 49.25332
# Shear Modulus (GPa) = 14.94596 23.52528 19.23562
#
# Velocity S-wave (km/s) = 2.62224 3.28987 2.97484
# Velocity P-wave (km/s) = 5.52005 6.20065 5.87022
#
# Compressibility (1/GPa) = 0.02159670
#
# Stress axis : x y z
#
# Youngs Moduli (GPa) = 63.85031 101.62211 102.94148
#
# Poissons Ratio (x) = -0.02935 0.43687
# Poissons Ratio (y) = -0.01844 0.29387
# Poissons Ratio (z) = 0.27097 0.29011
#
# Static dielectric constant tensor:
#      x y z
#    x 3.743920 0.000000 0.000000 
#    y 0.000000 3.776400 0.000000 
#    z 0.000000 0.000000 4.078080 
# 
# 
# High freq. dielectric constant tensor:
#      x y z
#    x 1.820030 0.000000 0.000000 
#    y 0.000000 1.846380 0.000000 
#    z 0.000000 0.000000 1.871630 
# 
# From -- ./inp_files/32712.got.cif
#   From: 2010.06.25/outbox.cif.g09.slc.cpg/sg52_17_cif.got.tgz:32712.got - 2010.06.26 19:32:48.
