data_PCOD8215140
_publ_section_title
;
Structure prediction by ZEFSAII (Michael W. Deem and Ramdas Pophale) SiO2 
 PCOD8215140
Probable space group: P N N A
;
_chemical_formula_sum "Si O2"
_cell_formula_units_Z 44
_cell_length_a 21.911947
_cell_length_b 16.645025
_cell_length_c 5.557441
_cell_angle_alpha 90.000000
_cell_angle_beta 90.000000
_cell_angle_gamma 90.000000
_cell_volume 2026.937144
_symmetry_space_group_name_H-M "P N N A"
_symmetry_group_IT_number 52
_symmetry_cell_setting 'orthorhombic'
loop_
_space_group_symop_operation_xyz
x,y,z
1/2-x,-y,z
x,1/2-y,1/2-z
1/2-x,1/2+y,1/2-z
-x,-y,-z
1/2+x,y,-z
-x,1/2+y,1/2+z
1/2+x,1/2-y,1/2+z
loop_
_atom_site_type_symbol
_atom_site_label
_atom_site_fract_x
_atom_site_fract_y
_atom_site_fract_z
Si Si1 0.881824 0.882355 0.530146
Si Si2 0.076788 0.513192 0.711950
Si Si3 0.700667 0.570569 0.454925
Si Si4 0.244030 0.595118 0.047961
Si Si5 0.549905 0.250000 0.250000
Si Si6 0.021263 0.123348 0.083700
O O1 0.810564 0.865150 0.559813
O O2 0.906279 0.821887 0.329723
O O3 0.915840 0.863719 0.776371
O O4 0.894811 0.976062 0.457000
O O5 0.132662 0.533977 0.534188
O O6 0.031097 0.445736 0.612671
O O7 0.035691 0.594153 0.751905
O O8 0.750000 0.500000 0.456693
O O9 0.709095 0.621764 0.703886
O O10 0.710060 0.621128 0.203564
O O11 0.250000 0.500000 0.046459
O O12 0.507099 0.290092 0.457235
#
# Coordination Sequence:
#
# PCOD8215140 Si02
#       6
#     8   8   8   8   4   8
#     4  11  20  37  59  87 118 162 203 261 310 370
#     4  10  20  34  59  90 120 149 205 256 314 366
#     4  10  18  33  52  92 121 153 181 245 311 363
#     4  10  19  31  58  85 124 149 194 243 311 360
#     4  10  24  38  56  84 116 166 208 252 312 378
#     4  10  21  37  57  86 117 156 205 254 312 367
#
# _framework density 21.707630000000002
#
# number of rings (size 3 to 8) (size 9 to 14) (size 15 to 20)
#    0.000    1.818    3.636    3.273    2.545    0.000 
#    0.000    0.000    0.000    2.182    0.000    0.000 
#    0.000    0.000    0.000    0.000    0.000    0.000 
#
# Total GULP energy -545101.065895 kJ/mol
# GULP energy per Si atom -12388.660589 kJ/mol
# Density = 2.165822 g / cm^3
# Si number density = 21.707630 Si / 1000 Ang^3
#
#
#
# Elastic Constant Matrix: (Units=GPa)
#
#
# Indices 1 2 3 4 5 6 
#
# 1 75.4298 33.9506 11.5660 0.0000 0.0000 0.0000
# 2 33.9506 67.4207 28.8126 0.0000 0.0000 0.0000
# 3 11.5660 28.8126 144.7086 0.0000 0.0000 0.0000
# 4 0.0000 0.0000 0.0000 15.1305 0.0000 0.0000
# 5 0.0000 0.0000 0.0000 0.0000 15.4869 0.0000
# 6 0.0000 0.0000 0.0000 0.0000 0.0000 15.9842
#
#
#
# Elastic Compliance Matrix: (Units=1/GPa)
#
#
# Indices 1 2 3 4 5 6 
#
# 1 0.017162 -0.008805 0.000381 0.000000 0.000000 0.000000
# 2 -0.008805 0.020729 -0.003424 0.000000 0.000000 0.000000
# 3 0.000381 -0.003424 0.007562 0.000000 0.000000 0.000000
# 4 0.000000 0.000000 0.000000 0.066092 0.000000 0.000000
# 5 0.000000 0.000000 0.000000 0.000000 0.064571 0.000000
# 6 0.000000 0.000000 0.000000 0.000000 0.000000 0.062562
#
#
# Mechanical properties :
#
#
# Convention : Reuss Voigt Hill
#
# Bulk Modulus (GPa) = 45.95941 48.46862 47.21402
# Shear Modulus (GPa) = 18.54429 23.53563 21.03996
#
# Velocity S-wave (km/s) = 2.92597 3.29631 3.11664
# Velocity P-wave (km/s) = 5.71253 6.07157 5.89478
#
# Compressibility (1/GPa) = 0.02175833
#
# Stress axis : x y z
#
# Youngs Moduli (GPa) = 58.26804 48.24085 132.24688
#
# Poissons Ratio (x) = 0.42477 -0.05045
# Poissons Ratio (y) = 0.51306 0.45276
# Poissons Ratio (z) = -0.02223 0.16516
#
# Static dielectric constant tensor:
#      x y z
#    x 3.998650 0.000000 0.000000 
#    y 0.000000 3.744750 0.000000 
#    z 0.000000 0.000000 5.114270 
# 
# 
# High freq. dielectric constant tensor:
#      x y z
#    x 1.841070 0.000000 0.000000 
#    y 0.000000 1.796620 0.000000 
#    z 0.000000 0.000000 1.864020 
# 
# From -- ./inp_files/5097.got.cif
#   From: 2010.06.25/outbox.cif.g09.slc.cpg/sg52_3_cif.got.tgz:5097.got - 2010.06.26 19:32:48.
