data_PCOD8215047
_publ_section_title
;
Structure prediction by ZEFSAII (Michael W. Deem and Ramdas Pophale) SiO2 
 PCOD8215047
Probable space group: P N N A
;
_chemical_formula_sum "Si O2"
_cell_formula_units_Z 36
_cell_length_a 20.297469
_cell_length_b 5.035161
_cell_length_c 18.974270
_cell_angle_alpha 90.000000
_cell_angle_beta 90.000000
_cell_angle_gamma 90.000000
_cell_volume 1939.189829
_symmetry_space_group_name_H-M "P N N A"
_symmetry_group_IT_number 52
_symmetry_cell_setting 'orthorhombic'
loop_
_space_group_symop_operation_xyz
x,y,z
1/2-x,-y,z
x,1/2-y,1/2-z
1/2-x,1/2+y,1/2-z
-x,-y,-z
1/2+x,y,-z
-x,1/2+y,1/2+z
1/2+x,1/2-y,1/2+z
loop_
_atom_site_type_symbol
_atom_site_label
_atom_site_fract_x
_atom_site_fract_y
_atom_site_fract_z
Si Si1 0.791236 0.250000 0.250000
Si Si2 0.119523 0.519036 0.872428
Si Si3 0.404922 0.960863 0.053130
Si Si4 0.173752 0.978326 0.474967
Si Si5 0.041616 0.032709 0.900719
O O1 0.750000 0.500000 0.282176
O O2 0.833572 0.387382 0.189618
O O3 0.080065 0.248079 0.851996
O O4 0.063759 0.736986 0.883914
O O5 0.163933 0.472765 0.941575
O O6 0.365178 0.694005 0.072635
O O7 0.351531 0.190674 0.046664
O O8 0.462017 0.037982 0.109541
O O9 0.441633 0.890390 0.980548
O O10 0.250000 0.000000 0.456448
#
# Coordination Sequence:
#
# PCOD8215047 Si02
#       5
#     4   8   8   8   8
#     4  12  24  36  48  66  94 128 166 202 234 266
#     4  10  20  32  47  63  87 123 161 198 227 260
#     4   9  17  28  45  65  87 115 150 190 229 277
#     4  10  18  28  43  66  94 123 151 182 226 280
#     4   9  17  31  47  64  83 113 157 196 233 269
#
# _framework density 18.564454999999999
#
# number of rings (size 3 to 8) (size 9 to 14) (size 15 to 20)
#    0.000    2.222    0.000    4.000    0.000    8.889 
#    0.000    0.000    0.000    0.000    0.000    0.000 
#    0.000    0.000    0.000   56.000    0.000    0.000 
#
# Total GULP energy -446244.709822 kJ/mol
# GULP energy per Si atom -12395.686384 kJ/mol
# Density = 1.852220 g / cm^3
# Si number density = 18.564455 Si / 1000 Ang^3
#
#
#
# Elastic Constant Matrix: (Units=GPa)
#
#
# Indices 1 2 3 4 5 6 
#
# 1 140.7846 44.7806 21.0773 0.0000 0.0000 0.0000
# 2 44.7806 102.0614 5.8634 0.0000 0.0000 0.0000
# 3 21.0773 5.8634 21.3432 0.0000 0.0000 0.0000
# 4 0.0000 0.0000 0.0000 15.0133 0.0000 0.0000
# 5 0.0000 0.0000 0.0000 0.0000 10.4588 0.0000
# 6 0.0000 0.0000 0.0000 0.0000 0.0000 25.4577
#
#
#
# Elastic Compliance Matrix: (Units=1/GPa)
#
#
# Indices 1 2 3 4 5 6 
#
# 1 0.009539 -0.003702 -0.008403 0.000000 0.000000 0.000000
# 2 -0.003702 0.011392 0.000527 0.000000 0.000000 0.000000
# 3 -0.008403 0.000527 0.055007 0.000000 0.000000 0.000000
# 4 0.000000 0.000000 0.000000 0.066608 0.000000 0.000000
# 5 0.000000 0.000000 0.000000 0.000000 0.095613 0.000000
# 6 0.000000 0.000000 0.000000 0.000000 0.000000 0.039281
#
#
# Mechanical properties :
#
#
# Convention : Reuss Voigt Hill
#
# Bulk Modulus (GPa) = 18.94634 45.29242 32.11938
# Shear Modulus (GPa) = 15.71389 23.01716 19.36553
#
# Velocity S-wave (km/s) = 2.91254 3.52497 3.23329
# Velocity P-wave (km/s) = 4.64095 6.40450 5.59267
#
# Compressibility (1/GPa) = 0.05278064
#
# Stress axis : x y z
#
# Youngs Moduli (GPa) = 104.83567 87.77880 18.17957
#
# Poissons Ratio (x) = 0.32500 0.15276
# Poissons Ratio (y) = 0.38815 -0.00957
# Poissons Ratio (z) = 0.88091 -0.04623
#
# Static dielectric constant tensor:
#      x y z
#    x 3.564330 0.000000 0.000000 
#    y 0.000000 3.858290 0.000000 
#    z 0.000000 0.000000 2.818900 
# 
# 
# High freq. dielectric constant tensor:
#      x y z
#    x 1.732170 0.000000 0.000000 
#    y 0.000000 1.747120 0.000000 
#    z 0.000000 0.000000 1.636020 
# 
# From -- ./inp_files/37502.got.cif
#   From: 2010.06.25/outbox.cif.g09.slc.cpg/sg52_19_cif.got.tgz:37502.got - 2010.06.26 19:32:48.
