data_PCOD8215494
_publ_section_title
;
Structure prediction by ZEFSAII (Michael W. Deem and Ramdas Pophale) SiO2 
 PCOD8215494
Probable space group: P N N A
;
_chemical_formula_sum "Si O2"
_cell_formula_units_Z 32
_cell_length_a 15.904394
_cell_length_b 11.782140
_cell_length_c 8.383129
_cell_angle_alpha 90.000000
_cell_angle_beta 90.000000
_cell_angle_gamma 90.000000
_cell_volume 1570.896073
_symmetry_space_group_name_H-M "P N N A"
_symmetry_group_IT_number 52
_symmetry_cell_setting 'orthorhombic'
loop_
_space_group_symop_operation_xyz
x,y,z
1/2-x,-y,z
x,1/2-y,1/2-z
1/2-x,1/2+y,1/2-z
-x,-y,-z
1/2+x,y,-z
-x,1/2+y,1/2+z
1/2+x,1/2-y,1/2+z
loop_
_atom_site_type_symbol
_atom_site_label
_atom_site_fract_x
_atom_site_fract_y
_atom_site_fract_z
Si Si1 0.224186 0.370908 0.539903
Si Si2 0.996414 0.900675 0.778514
Si Si3 0.857539 0.250000 0.250000
Si Si4 0.540416 0.142938 0.143989
Si Si5 0.147195 0.250000 0.250000
O O1 0.250000 0.500000 0.501663
O O2 0.300322 0.300357 0.612132
O O3 0.141564 0.371938 0.651291
O O4 0.207470 0.300578 0.381616
O O5 0.914288 0.852005 0.686528
O O6 0.080830 0.852631 0.694767
O O7 0.991029 0.851766 0.961302
O O8 0.996098 0.035771 0.771716
O O9 0.512338 0.250000 0.250000
#
# Coordination Sequence:
#
# PCOD8215494 Si02
#       5
#     8   8   4   8   4
#     4  11  21  39  62  89 126 158 198 252 309 355
#     4   9  20  39  59  86 123 156 201 250 294 361
#     4  11  20  38  62  89 118 160 200 247 308 356
#     4  10  19  37  64  88 117 163 201 246 304 354
#     4   9  22  42  62  85 124 162 196 249 302 358
#
# _framework density 20.370539999999998
#
# number of rings (size 3 to 8) (size 9 to 14) (size 15 to 20)
#    0.000    2.000    3.750    0.000    0.000    0.000 
#    2.250   20.000    0.000    0.000    0.000    0.000 
#    0.000    0.000    0.000    0.000    0.000    0.000 
#
# Total GULP energy -396497.137494 kJ/mol
# GULP energy per Si atom -12390.535547 kJ/mol
# Density = 2.032418 g / cm^3
# Si number density = 20.370540 Si / 1000 Ang^3
#
#
#
# Elastic Constant Matrix: (Units=GPa)
#
#
# Indices 1 2 3 4 5 6 
#
# 1 114.6407 55.5276 40.5468 0.0000 0.0000 0.0000
# 2 55.5276 191.1197 72.6054 0.0000 0.0000 0.0000
# 3 40.5468 72.6054 57.9622 0.0000 0.0000 0.0000
# 4 0.0000 0.0000 0.0000 38.1589 0.0000 0.0000
# 5 0.0000 0.0000 0.0000 0.0000 14.2992 0.0000
# 6 0.0000 0.0000 0.0000 0.0000 0.0000 23.5546
#
#
#
# Elastic Compliance Matrix: (Units=1/GPa)
#
#
# Indices 1 2 3 4 5 6 
#
# 1 0.011621 -0.000550 -0.007441 0.000000 0.000000 0.000000
# 2 -0.000550 0.010009 -0.012153 0.000000 0.000000 0.000000
# 3 -0.007441 -0.012153 0.037681 0.000000 0.000000 0.000000
# 4 0.000000 0.000000 0.000000 0.026206 0.000000 0.000000
# 5 0.000000 0.000000 0.000000 0.000000 0.069934 0.000000
# 6 0.000000 0.000000 0.000000 0.000000 0.000000 0.042455
#
#
# Mechanical properties :
#
#
# Convention : Reuss Voigt Hill
#
# Bulk Modulus (GPa) = 52.56532 77.89801 65.23166
# Shear Modulus (GPa) = 20.44711 28.20539 24.32625
#
# Velocity S-wave (km/s) = 3.17165 3.72508 3.45945
# Velocity P-wave (km/s) = 6.26683 7.53825 6.93175
#
# Compressibility (1/GPa) = 0.01902395
#
# Stress axis : x y z
#
# Youngs Moduli (GPa) = 86.05270 99.91166 26.53863
#
# Poissons Ratio (x) = 0.05491 0.19747
# Poissons Ratio (y) = 0.04729 0.32252
# Poissons Ratio (z) = 0.64030 1.21422
#
# Static dielectric constant tensor:
#      x y z
#    x 3.936640 0.000000 0.000000 
#    y 0.000000 3.903070 0.000000 
#    z 0.000000 0.000000 3.334340 
# 
# 
# High freq. dielectric constant tensor:
#      x y z
#    x 1.807470 0.000000 0.000000 
#    y 0.000000 1.811390 0.000000 
#    z 0.000000 0.000000 1.754060 
# 
# From -- ./inp_files/9598.got.cif
#   From: 2010.06.25/outbox.cif.g09.slc.cpg/sg52_5_cif.got.tgz:9598.got - 2010.06.26 19:32:48.
