data_PCOD8215746
_publ_section_title
;
Structure prediction by ZEFSAII (Michael W. Deem and Ramdas Pophale) SiO2 
 PCOD8215746
Probable space group: P N N A
;
_chemical_formula_sum "Si O2"
_cell_formula_units_Z 44
_cell_length_a 9.979469
_cell_length_b 12.434809
_cell_length_c 17.949685
_cell_angle_alpha 90.000000
_cell_angle_beta 90.000000
_cell_angle_gamma 90.000000
_cell_volume 2227.426508
_symmetry_space_group_name_H-M "P N N A"
_symmetry_group_IT_number 52
_symmetry_cell_setting 'orthorhombic'
loop_
_space_group_symop_operation_xyz
x,y,z
1/2-x,-y,z
x,1/2-y,1/2-z
1/2-x,1/2+y,1/2-z
-x,-y,-z
1/2+x,y,-z
-x,1/2+y,1/2+z
1/2+x,1/2-y,1/2+z
loop_
_atom_site_type_symbol
_atom_site_label
_atom_site_fract_x
_atom_site_fract_y
_atom_site_fract_z
Si Si1 0.947122 0.335116 0.852870
Si Si2 0.130973 0.928318 0.497485
Si Si3 0.657122 0.906574 0.193747
Si Si4 0.764553 0.319973 0.147414
Si Si5 0.887114 0.966157 0.755113
Si Si6 0.247461 0.250000 0.250000
O O1 0.919725 0.450056 0.811475
O O2 0.856570 0.239247 0.817660
O O3 0.104330 0.309133 0.849794
O O4 0.900005 0.335407 0.938428
O O5 0.176606 0.882409 0.577000
O O6 0.250000 0.000000 0.464808
O O7 0.000000 0.000000 0.500000
O O8 0.674283 0.799560 0.145367
O O9 0.687308 0.884939 0.280599
O O10 0.507509 0.954271 0.186691
O O11 0.750000 0.000000 0.161051
O O12 0.851629 0.846219 0.726514
O O13 0.750000 0.000000 0.797782
#
# Coordination Sequence:
#
# PCOD8215746 Si02
#       6
#     8   8   8   8   8   4
#     4  11  22  40  63  92 130 163 202 265 317 371
#     4  12  23  39  61  91 130 163 204 259 315 381
#     4  11  21  38  66  88 126 163 210 262 301 375
#     4  11  23  38  62  95 123 167 214 249 321 374
#     4  10  21  36  58  92 124 153 203 254 315 364
#     4  10  20  36  60  92 122 160 206 252 320 370
#
# _framework density 19.753738999999999
#
# number of rings (size 3 to 8) (size 9 to 14) (size 15 to 20)
#    0.000    1.091    3.636    5.455    2.545    1.455 
#    0.000    0.000    0.000    4.364    0.000    0.000 
#    0.000    0.000    0.000    0.000    0.000    0.000 
#
# Total GULP energy -545106.944665 kJ/mol
# GULP energy per Si atom -12388.794197 kJ/mol
# Density = 1.970878 g / cm^3
# Si number density = 19.753739 Si / 1000 Ang^3
#
#
#
# Elastic Constant Matrix: (Units=GPa)
#
#
# Indices 1 2 3 4 5 6 
#
# 1 151.2862 19.8996 11.9191 0.0000 0.0000 0.0000
# 2 19.8996 66.8410 1.0931 0.0000 0.0000 0.0000
# 3 11.9191 1.0931 59.4523 0.0000 0.0000 0.0000
# 4 0.0000 0.0000 0.0000 29.3526 0.0000 0.0000
# 5 0.0000 0.0000 0.0000 0.0000 23.5834 0.0000
# 6 0.0000 0.0000 0.0000 0.0000 0.0000 37.0710
#
#
#
# Elastic Compliance Matrix: (Units=1/GPa)
#
#
# Indices 1 2 3 4 5 6 
#
# 1 0.006988 -0.002058 -0.001363 0.000000 0.000000 0.000000
# 2 -0.002058 0.015572 0.000126 0.000000 0.000000 0.000000
# 3 -0.001363 0.000126 0.017091 0.000000 0.000000 0.000000
# 4 0.000000 0.000000 0.000000 0.034069 0.000000 0.000000
# 5 0.000000 0.000000 0.000000 0.000000 0.042403 0.000000
# 6 0.000000 0.000000 0.000000 0.000000 0.000000 0.026975
#
#
# Mechanical properties :
#
#
# Convention : Reuss Voigt Hill
#
# Bulk Modulus (GPa) = 30.24727 38.15592 34.20159
# Shear Modulus (GPa) = 31.11240 34.31259 32.71249
#
# Velocity S-wave (km/s) = 3.97295 4.17228 4.07383
# Velocity P-wave (km/s) = 6.03251 6.52443 6.28329
#
# Compressibility (1/GPa) = 0.03306083
#
# Stress axis : x y z
#
# Youngs Moduli (GPa) = 143.10024 64.21967 58.50975
#
# Poissons Ratio (x) = 0.13218 0.07976
# Poissons Ratio (y) = 0.29453 -0.00739
# Poissons Ratio (z) = 0.19507 -0.00811
#
# Static dielectric constant tensor:
#      x y z
#    x 4.131770 0.000000 0.000000 
#    y 0.000000 4.628890 0.000000 
#    z 0.000000 0.000000 3.814080 
# 
# 
# High freq. dielectric constant tensor:
#      x y z
#    x 1.807120 0.000000 0.000000 
#    y 0.000000 1.768680 0.000000 
#    z 0.000000 0.000000 1.720610 
# 
# From -- ./inp_files/31134.got.cif
#   From: 2010.06.25/outbox.cif.g09.slc.cpg/sg52_16_cif.got.tgz:31134.got - 2010.06.26 19:32:48.
