data_PCOD8215854
_publ_section_title
;
Structure prediction by ZEFSAII (Michael W. Deem and Ramdas Pophale) SiO2 
 PCOD8215854
Probable space group: P N N A
;
_chemical_formula_sum "Si O2"
_cell_formula_units_Z 40
_cell_length_a 15.419116
_cell_length_b 5.052613
_cell_length_c 24.216384
_cell_angle_alpha 90.000000
_cell_angle_beta 90.000000
_cell_angle_gamma 90.000000
_cell_volume 1886.621613
_symmetry_space_group_name_H-M "P N N A"
_symmetry_group_IT_number 52
_symmetry_cell_setting 'orthorhombic'
loop_
_space_group_symop_operation_xyz
x,y,z
1/2-x,-y,z
x,1/2-y,1/2-z
1/2-x,1/2+y,1/2-z
-x,-y,-z
1/2+x,y,-z
-x,1/2+y,1/2+z
1/2+x,1/2-y,1/2+z
loop_
_atom_site_type_symbol
_atom_site_label
_atom_site_fract_x
_atom_site_fract_y
_atom_site_fract_z
Si Si1 0.536213 0.298454 0.378247
Si Si2 0.084656 0.890044 0.028732
Si Si3 0.999276 0.786908 0.685371
Si Si4 0.799949 0.750352 0.815552
Si Si5 0.843087 0.627320 0.023766
O O1 0.442251 0.335490 0.408007
O O2 0.557764 0.573998 0.347526
O O3 0.614786 0.225961 0.419076
O O4 0.528683 0.078819 0.330993
O O5 0.101885 0.606595 0.002400
O O6 0.158880 0.116991 0.018355
O O7 0.000000 0.000000 0.000000
O O8 0.013310 0.750000 0.750000
O O9 0.899793 0.745345 0.667382
O O10 0.750000 0.500000 0.841291
O O11 0.791070 0.750000 0.750000
O O12 0.750000 0.000000 0.841325
O O13 0.750000 0.500000 0.035531
#
# Coordination Sequence:
#
# PCOD8215854 Si02
#       5
#     8   8   8   8   8
#     4  11  21  38  60  84 117 156 196 241 294 350
#     4  10  20  38  61  86 116 150 188 238 300 362
#     4  11  22  36  57  84 117 161 208 244 280 340
#     4   9  17  31  49  69  99 141 188 236 281 322
#     4  11  22  39  64  91 119 152 193 243 303 368
#
# _framework density 21.201919
#
# number of rings (size 3 to 8) (size 9 to 14) (size 15 to 20)
#    0.000    1.600    0.000    8.400    0.000    3.200 
#    0.000   10.000    0.000    2.400    0.000    0.000 
#    0.000    0.000    0.000    0.000    0.000    0.000 
#
# Total GULP energy -495775.254290 kJ/mol
# GULP energy per Si atom -12394.381357 kJ/mol
# Density = 2.115366 g / cm^3
# Si number density = 21.201919 Si / 1000 Ang^3
#
#
#
# Elastic Constant Matrix: (Units=GPa)
#
#
# Indices 1 2 3 4 5 6 
#
# 1 69.0810 21.4049 26.6040 0.0000 0.0000 0.0000
# 2 21.4049 151.1481 41.8973 0.0000 0.0000 0.0000
# 3 26.6040 41.8973 90.3601 0.0000 0.0000 0.0000
# 4 0.0000 0.0000 0.0000 41.2014 0.0000 0.0000
# 5 0.0000 0.0000 0.0000 0.0000 17.6473 0.0000
# 6 0.0000 0.0000 0.0000 0.0000 0.0000 35.6602
#
#
#
# Elastic Compliance Matrix: (Units=1/GPa)
#
#
# Indices 1 2 3 4 5 6 
#
# 1 0.016495 -0.001136 -0.004330 0.000000 0.000000 0.000000
# 2 -0.001136 0.007670 -0.003222 0.000000 0.000000 0.000000
# 3 -0.004330 -0.003222 0.013836 0.000000 0.000000 0.000000
# 4 0.000000 0.000000 0.000000 0.024271 0.000000 0.000000
# 5 0.000000 0.000000 0.000000 0.000000 0.056666 0.000000
# 6 0.000000 0.000000 0.000000 0.000000 0.000000 0.028042
#
#
# Mechanical properties :
#
#
# Convention : Reuss Voigt Hill
#
# Bulk Modulus (GPa) = 48.48370 54.48906 51.48638
# Shear Modulus (GPa) = 29.20042 33.61400 31.40721
#
# Velocity S-wave (km/s) = 3.71516 3.98606 3.85299
# Velocity P-wave (km/s) = 6.42810 6.85133 6.64309
#
# Compressibility (1/GPa) = 0.02062549
#
# Stress axis : x y z
#
# Youngs Moduli (GPa) = 60.62376 130.37868 72.27746
#
# Poissons Ratio (x) = 0.14808 0.31296
# Poissons Ratio (y) = 0.06885 0.23287
# Poissons Ratio (z) = 0.26250 0.42007
#
# Static dielectric constant tensor:
#      x y z
#    x 3.468890 0.000000 0.000000 
#    y 0.000000 4.424010 0.000000 
#    z 0.000000 0.000000 3.668020 
# 
# 
# High freq. dielectric constant tensor:
#      x y z
#    x 1.797910 0.000000 0.000000 
#    y 0.000000 1.862950 0.000000 
#    z 0.000000 0.000000 1.818880 
# 
# From -- ./inp_files/40493.got.cif
#   From: 2010.06.25/outbox.cif.g09.slc.cpg/sg52_21_cif.got.tgz:40493.got - 2010.06.26 19:32:48.
