data_PCOD8215903
_publ_section_title
;
Structure prediction by ZEFSAII (Michael W. Deem and Ramdas Pophale) SiO2 
 PCOD8215903
Probable space group: P N N A
;
_chemical_formula_sum "Si O2"
_cell_formula_units_Z 40
_cell_length_a 19.907928
_cell_length_b 11.261147
_cell_length_c 7.733395
_cell_angle_alpha 90.000000
_cell_angle_beta 90.000000
_cell_angle_gamma 90.000000
_cell_volume 1733.719693
_symmetry_space_group_name_H-M "P N N A"
_symmetry_group_IT_number 52
_symmetry_cell_setting 'orthorhombic'
loop_
_space_group_symop_operation_xyz
x,y,z
1/2-x,-y,z
x,1/2-y,1/2-z
1/2-x,1/2+y,1/2-z
-x,-y,-z
1/2+x,y,-z
-x,1/2+y,1/2+z
1/2+x,1/2-y,1/2+z
loop_
_atom_site_type_symbol
_atom_site_label
_atom_site_fract_x
_atom_site_fract_y
_atom_site_fract_z
Si Si1 0.036032 0.347524 0.970956
Si Si2 0.108500 0.924014 0.496363
Si Si3 0.178640 0.553117 0.658506
Si Si4 0.709269 0.874903 0.797246
Si Si5 0.448485 0.592171 0.582859
O O1 0.962907 0.369186 0.051654
O O2 0.024010 0.371986 0.768821
O O3 0.056198 0.214269 0.025593
O O4 0.095370 0.434939 0.036020
O O5 0.153553 0.889967 0.662998
O O6 0.143191 0.875959 0.323516
O O7 0.250000 0.500000 0.706573
O O8 0.186582 0.642862 0.496835
O O9 0.127292 0.453493 0.591636
O O10 0.748049 0.750000 0.750000
O O11 0.750000 0.000000 0.772661
O O12 0.500000 0.500000 0.500000
#
# Coordination Sequence:
#
# PCOD8215903 Si02
#       5
#     8   8   8   8   8
#     4   9  21  39  64  99 136 176 232 281 352 411
#     4  10  21  42  68  98 134 177 226 292 340 416
#     4  10  23  43  66 101 136 182 231 280 356 415
#     4  11  26  45  68  97 136 181 231 284 346 422
#     4  10  20  38  67  97 139 181 229 295 343 415
#
# _framework density 23.071783
#
# number of rings (size 3 to 8) (size 9 to 14) (size 15 to 20)
#    0.000    2.000    0.000    1.800    5.600    4.000 
#    3.600   17.000    0.000    0.000    0.000    0.000 
#    0.000    0.000    0.000    0.000    0.000    0.000 
#
# Total GULP energy -495591.229786 kJ/mol
# GULP energy per Si atom -12389.780745 kJ/mol
# Density = 2.301927 g / cm^3
# Si number density = 23.071783 Si / 1000 Ang^3
#
#
#
# Elastic Constant Matrix: (Units=GPa)
#
#
# Indices 1 2 3 4 5 6 
#
# 1 109.4182 21.8271 33.0530 0.0000 0.0000 0.0000
# 2 21.8271 134.5691 6.0996 0.0000 0.0000 0.0000
# 3 33.0530 6.0996 94.8704 0.0000 0.0000 0.0000
# 4 0.0000 0.0000 0.0000 28.5481 0.0000 0.0000
# 5 0.0000 0.0000 0.0000 0.0000 33.6566 0.0000
# 6 0.0000 0.0000 0.0000 0.0000 0.0000 20.0486
#
#
#
# Elastic Compliance Matrix: (Units=1/GPa)
#
#
# Indices 1 2 3 4 5 6 
#
# 1 0.010525 -0.001545 -0.003568 0.000000 0.000000 0.000000
# 2 -0.001545 0.007680 0.000045 0.000000 0.000000 0.000000
# 3 -0.003568 0.000045 0.011781 0.000000 0.000000 0.000000
# 4 0.000000 0.000000 0.000000 0.035029 0.000000 0.000000
# 5 0.000000 0.000000 0.000000 0.000000 0.029712 0.000000
# 6 0.000000 0.000000 0.000000 0.000000 0.000000 0.049879
#
#
# Mechanical properties :
#
#
# Convention : Reuss Voigt Hill
#
# Bulk Modulus (GPa) = 50.38054 51.20190 50.79122
# Shear Modulus (GPa) = 30.98692 34.97585 32.98139
#
# Velocity S-wave (km/s) = 3.66876 3.89775 3.78499
# Velocity P-wave (km/s) = 6.31112 6.51899 6.41590
#
# Compressibility (1/GPa) = 0.01984893
#
# Stress axis : x y z
#
# Youngs Moduli (GPa) = 95.00958 130.21213 84.88389
#
# Poissons Ratio (x) = 0.20124 0.30284
# Poissons Ratio (y) = 0.14684 -0.00379
# Poissons Ratio (z) = 0.33896 -0.00582
#
# Static dielectric constant tensor:
#      x y z
#    x 3.940110 0.000000 0.000000 
#    y 0.000000 4.489580 0.000000 
#    z 0.000000 0.000000 4.254330 
# 
# 
# High freq. dielectric constant tensor:
#      x y z
#    x 1.902450 0.000000 0.000000 
#    y 0.000000 1.914280 0.000000 
#    z 0.000000 0.000000 1.915010 
# 
# From -- ./inp_files/11645.got.cif
#   From: 2010.06.25/outbox.cif.g09.slc.cpg/sg52_6_cif.got.tgz:11645.got - 2010.06.26 19:32:48.
