data_PCOD8215826
_publ_section_title
;
Structure prediction by ZEFSAII (Michael W. Deem and Ramdas Pophale) SiO2 
 PCOD8215826
Probable space group: P N N A
;
_chemical_formula_sum "Si O2"
_cell_formula_units_Z 48
_cell_length_a 8.676941
_cell_length_b 10.076222
_cell_length_c 28.182509
_cell_angle_alpha 90.000000
_cell_angle_beta 90.000000
_cell_angle_gamma 90.000000
_cell_volume 2464.018851
_symmetry_space_group_name_H-M "P N N A"
_symmetry_group_IT_number 52
_symmetry_cell_setting 'orthorhombic'
loop_
_space_group_symop_operation_xyz
x,y,z
1/2-x,-y,z
x,1/2-y,1/2-z
1/2-x,1/2+y,1/2-z
-x,-y,-z
1/2+x,y,-z
-x,1/2+y,1/2+z
1/2+x,1/2-y,1/2+z
loop_
_atom_site_type_symbol
_atom_site_label
_atom_site_fract_x
_atom_site_fract_y
_atom_site_fract_z
Si Si1 0.894320 0.404697 0.198826
Si Si2 0.110512 0.601464 0.697093
Si Si3 0.412314 0.760890 0.043147
Si Si4 0.065682 0.509350 0.599366
Si Si5 0.070056 0.020163 0.392413
Si Si6 0.049296 0.746174 0.059138
O O1 0.750000 0.500000 0.193222
O O2 0.971763 0.416476 0.251565
O O3 0.835735 0.254052 0.190748
O O4 0.020604 0.448105 0.161003
O O5 0.250000 0.500000 0.696285
O O6 0.008875 0.563059 0.651106
O O7 0.482654 0.639660 0.073334
O O8 0.228953 0.760880 0.047939
O O9 0.491377 0.896903 0.059650
O O10 0.449863 0.744105 0.988312
O O11 0.250000 0.500000 0.593823
O O12 0.997136 0.364354 0.593684
O O13 0.250000 0.000000 0.391756
O O14 0.997819 0.885577 0.412740
#
# Coordination Sequence:
#
# PCOD8215826 Si02
#       6
#     8   8   8   8   8   8
#     4  10  20  37  65  88 117 154 194 241 290 341
#     4   9  20  37  60  91 120 148 193 242 287 340
#     4  11  22  42  59  85 116 156 192 244 289 347
#     4  11  22  38  60  87 118 153 194 238 287 347
#     4  10  23  40  59  86 120 152 192 241 293 346
#     4  11  24  38  61  84 118 152 197 239 292 344
#
# _framework density 19.480370000000001
#
# number of rings (size 3 to 8) (size 9 to 14) (size 15 to 20)
#    0.000    1.667    1.667    2.500    4.667    1.333 
#    0.000    1.667    0.000    0.000    0.000    0.000 
#    0.000    0.000    0.000    0.000    0.000    0.000 
#
# Total GULP energy -595027.528829 kJ/mol
# GULP energy per Si atom -12396.406851 kJ/mol
# Density = 1.943603 g / cm^3
# Si number density = 19.480370 Si / 1000 Ang^3
#
#
#
# Elastic Constant Matrix: (Units=GPa)
#
#
# Indices 1 2 3 4 5 6 
#
# 1 44.2285 28.0378 19.7730 0.0000 0.0000 0.0000
# 2 28.0378 143.0076 58.7398 0.0000 0.0000 0.0000
# 3 19.7730 58.7398 139.1454 0.0000 0.0000 0.0000
# 4 0.0000 0.0000 0.0000 35.4279 0.0000 0.0000
# 5 0.0000 0.0000 0.0000 0.0000 24.2118 0.0000
# 6 0.0000 0.0000 0.0000 0.0000 0.0000 26.0472
#
#
#
# Elastic Compliance Matrix: (Units=1/GPa)
#
#
# Indices 1 2 3 4 5 6 
#
# 1 0.026220 -0.004368 -0.001882 0.000000 0.000000 0.000000
# 2 -0.004368 0.009187 -0.003258 0.000000 0.000000 0.000000
# 3 -0.001882 -0.003258 0.008829 0.000000 0.000000 0.000000
# 4 0.000000 0.000000 0.000000 0.028226 0.000000 0.000000
# 5 0.000000 0.000000 0.000000 0.000000 0.041302 0.000000
# 6 0.000000 0.000000 0.000000 0.000000 0.000000 0.038392
#
#
# Mechanical properties :
#
#
# Convention : Reuss Voigt Hill
#
# Bulk Modulus (GPa) = 39.64841 59.94253 49.79547
# Shear Modulus (GPa) = 27.84292 31.79276 29.81784
#
# Velocity S-wave (km/s) = 3.78468 4.04423 3.91661
# Velocity P-wave (km/s) = 6.28456 7.25571 6.78752
#
# Compressibility (1/GPa) = 0.02522169
#
# Stress axis : x y z
#
# Youngs Moduli (GPa) = 38.13872 108.84970 113.25813
#
# Poissons Ratio (x) = 0.47541 0.21317
# Poissons Ratio (y) = 0.16657 0.36895
# Poissons Ratio (z) = 0.07178 0.35459
#
# Static dielectric constant tensor:
#      x y z
#    x 3.237230 0.000000 0.000000 
#    y 0.000000 3.897960 0.000000 
#    z 0.000000 0.000000 4.118600 
# 
# 
# High freq. dielectric constant tensor:
#      x y z
#    x 1.725260 0.000000 0.000000 
#    y 0.000000 1.784060 0.000000 
#    z 0.000000 0.000000 1.780030 
# 
# From -- ./inp_files/44364.got.cif
#   From: 2010.06.25/outbox.cif.g09.slc.cpg/sg52_23_cif.got.tgz:44364.got - 2010.06.26 19:32:48.
