data_PCOD8215348
_publ_section_title
;
Structure prediction by ZEFSAII (Michael W. Deem and Ramdas Pophale) SiO2 
 PCOD8215348
Probable space group: P N N A
;
_chemical_formula_sum "Si O2"
_cell_formula_units_Z 48
_cell_length_a 14.050085
_cell_length_b 11.214346
_cell_length_c 19.517858
_cell_angle_alpha 90.000000
_cell_angle_beta 90.000000
_cell_angle_gamma 90.000000
_cell_volume 3075.282785
_symmetry_space_group_name_H-M "P N N A"
_symmetry_group_IT_number 52
_symmetry_cell_setting 'orthorhombic'
loop_
_space_group_symop_operation_xyz
x,y,z
1/2-x,-y,z
x,1/2-y,1/2-z
1/2-x,1/2+y,1/2-z
-x,-y,-z
1/2+x,y,-z
-x,1/2+y,1/2+z
1/2+x,1/2-y,1/2+z
loop_
_atom_site_type_symbol
_atom_site_label
_atom_site_fract_x
_atom_site_fract_y
_atom_site_fract_z
Si Si1 0.147752 0.058945 0.491933
Si Si2 0.884244 0.253120 0.668588
Si Si3 0.355113 0.986080 0.171942
Si Si4 0.818183 0.745010 0.885146
Si Si5 0.004021 0.051758 0.607593
Si Si6 0.031087 0.137214 0.285735
O O1 0.155949 0.190099 0.458663
O O2 0.100640 0.075306 0.566296
O O3 0.250000 0.000000 0.501698
O O4 0.082309 0.977887 0.443459
O O5 0.872000 0.250000 0.750000
O O6 0.895587 0.389610 0.641981
O O7 0.788896 0.205652 0.632590
O O8 0.974039 0.172215 0.647231
O O9 0.340632 0.887007 0.111977
O O10 0.431981 0.951540 0.228167
O O11 0.250000 0.000000 0.206304
O O12 0.878803 0.692594 0.823292
O O13 0.028196 0.942761 0.660177
O O14 0.974383 0.250000 0.250000
#
# Coordination Sequence:
#
# PCOD8215348 Si02
#       6
#     8   8   8   8   8   8
#     4  10  19  34  49  64  98 127 171 205 230 292
#     4  11  17  26  45  73 106 125 153 203 252 303
#     4   9  16  24  40  69 100 128 147 184 257 307
#     4   9  17  27  43  66  97 133 158 188 245 299
#     4  10  20  29  48  75  90 130 166 197 247 291
#     4   9  16  26  41  67  98 120 149 192 244 299
#
# _framework density 15.608320000000001
#
# number of rings (size 3 to 8) (size 9 to 14) (size 15 to 20)
#    0.000    2.333    3.333    2.500    0.000    0.000 
#    0.000    0.833    0.000    1.000    0.000    0.000 
#    0.000    0.000    0.000    0.000    0.000    0.000 
#
# Total GULP energy -594740.576786 kJ/mol
# GULP energy per Si atom -12390.428683 kJ/mol
# Density = 1.557279 g / cm^3
# Si number density = 15.608320 Si / 1000 Ang^3
#
#
#
# Elastic Constant Matrix: (Units=GPa)
#
#
# Indices 1 2 3 4 5 6 
#
# 1 50.0333 30.9309 37.6899 0.0000 0.0000 0.0000
# 2 30.9309 110.8705 48.5426 0.0000 0.0000 0.0000
# 3 37.6899 48.5426 80.6912 0.0000 0.0000 0.0000
# 4 0.0000 0.0000 0.0000 24.5863 0.0000 0.0000
# 5 0.0000 0.0000 0.0000 0.0000 20.2915 0.0000
# 6 0.0000 0.0000 0.0000 0.0000 0.0000 13.1059
#
#
#
# Elastic Compliance Matrix: (Units=1/GPa)
#
#
# Indices 1 2 3 4 5 6 
#
# 1 0.031652 -0.003200 -0.012859 0.000000 0.000000 0.000000
# 2 -0.003200 0.012568 -0.006066 0.000000 0.000000 0.000000
# 3 -0.012859 -0.006066 0.022048 0.000000 0.000000 0.000000
# 4 0.000000 0.000000 0.000000 0.040673 0.000000 0.000000
# 5 0.000000 0.000000 0.000000 0.000000 0.049282 0.000000
# 6 0.000000 0.000000 0.000000 0.000000 0.000000 0.076302
#
#
# Mechanical properties :
#
#
# Convention : Reuss Voigt Hill
#
# Bulk Modulus (GPa) = 45.41755 52.88021 49.14888
# Shear Modulus (GPa) = 17.59853 19.89218 18.74536
#
# Velocity S-wave (km/s) = 3.36148 3.57383 3.46928
# Velocity P-wave (km/s) = 6.65038 7.14022 6.89965
#
# Compressibility (1/GPa) = 0.02201792
#
# Stress axis : x y z
#
# Youngs Moduli (GPa) = 31.59388 79.56554 45.35459
#
# Poissons Ratio (x) = 0.25462 0.58321
# Poissons Ratio (y) = 0.10111 0.27513
# Poissons Ratio (z) = 0.40626 0.48265
#
# Static dielectric constant tensor:
#      x y z
#    x 2.606450 0.000000 0.000000 
#    y 0.000000 3.389760 0.000000 
#    z 0.000000 0.000000 2.879300 
# 
# 
# High freq. dielectric constant tensor:
#      x y z
#    x 1.549960 0.000000 0.000000 
#    y 0.000000 1.615460 0.000000 
#    z 0.000000 0.000000 1.576380 
# 
# From -- ./inp_files/27155.got.cif
#   From: 2010.06.25/outbox.cif.g09.slc.cpg/sg52_14_cif.got.tgz:27155.got - 2010.06.26 19:32:48.
