data_PCOD8215719
_publ_section_title
;
Structure prediction by ZEFSAII (Michael W. Deem and Ramdas Pophale) SiO2 
 PCOD8215719
Probable space group: P N N A
;
_chemical_formula_sum "Si O2"
_cell_formula_units_Z 36
_cell_length_a 5.116810
_cell_length_b 20.553360
_cell_length_c 15.988595
_cell_angle_alpha 90.000000
_cell_angle_beta 90.000000
_cell_angle_gamma 90.000000
_cell_volume 1681.482771
_symmetry_space_group_name_H-M "P N N A"
_symmetry_group_IT_number 52
_symmetry_cell_setting 'orthorhombic'
loop_
_space_group_symop_operation_xyz
x,y,z
1/2-x,-y,z
x,1/2-y,1/2-z
1/2-x,1/2+y,1/2-z
-x,-y,-z
1/2+x,y,-z
-x,1/2+y,1/2+z
1/2+x,1/2-y,1/2+z
loop_
_atom_site_type_symbol
_atom_site_label
_atom_site_fract_x
_atom_site_fract_y
_atom_site_fract_z
Si Si1 0.820917 0.072856 0.037789
Si Si2 0.250000 0.000000 0.653419
Si Si3 0.515273 0.112204 0.443018
Si Si4 0.525429 0.823032 0.728347
Si Si5 0.963496 0.396316 0.278230
O O1 0.925294 0.071665 0.131790
O O2 0.750000 0.000000 0.006569
O O3 0.541411 0.108074 0.021008
O O4 0.043414 0.040290 0.597375
O O5 0.421267 0.048893 0.708423
O O6 0.258343 0.122376 0.496544
O O7 0.502409 0.167043 0.371159
O O8 0.605540 0.750000 0.750000
O O9 0.246176 0.838499 0.769805
O O10 0.743981 0.870398 0.767190
#
# Coordination Sequence:
#
# PCOD8215719 Si02
#       5
#     8   4   8   8   8
#     4  10  20  36  57  89 127 158 192 253 312 365
#     4  10  22  38  64 100 130 166 200 258 324 402
#     4  11  23  41  64  96 128 162 202 262 319 374
#     4  11  25  44  64  87 123 172 216 258 303 370
#     4  11  22  40  64  92 124 167 213 255 315 386
#
# _framework density 21.409673999999999
#
# number of rings (size 3 to 8) (size 9 to 14) (size 15 to 20)
#    0.000    1.333    1.111    5.333    0.000    7.111 
#    0.000    6.667    0.000    0.000    0.000    0.000 
#    0.000    0.000    0.000    0.000    0.000    0.000 
#
# Total GULP energy -446319.808285 kJ/mol
# GULP energy per Si atom -12397.772452 kJ/mol
# Density = 2.136094 g / cm^3
# Si number density = 21.409674 Si / 1000 Ang^3
#
#
#
# Elastic Constant Matrix: (Units=GPa)
#
#
# Indices 1 2 3 4 5 6 
#
# 1 169.7448 24.7082 72.8571 0.0000 0.0000 0.0000
# 2 24.7082 93.6011 37.8869 0.0000 0.0000 0.0000
# 3 72.8571 37.8869 140.2157 0.0000 0.0000 0.0000
# 4 0.0000 0.0000 0.0000 18.3195 0.0000 0.0000
# 5 0.0000 0.0000 0.0000 0.0000 39.7933 0.0000
# 6 0.0000 0.0000 0.0000 0.0000 0.0000 24.5658
#
#
#
# Elastic Compliance Matrix: (Units=1/GPa)
#
#
# Indices 1 2 3 4 5 6 
#
# 1 0.007600 -0.000458 -0.003825 0.000000 0.000000 0.000000
# 2 -0.000458 0.012023 -0.003011 0.000000 0.000000 0.000000
# 3 -0.003825 -0.003011 0.009933 0.000000 0.000000 0.000000
# 4 0.000000 0.000000 0.000000 0.054587 0.000000 0.000000
# 5 0.000000 0.000000 0.000000 0.000000 0.025130 0.000000
# 6 0.000000 0.000000 0.000000 0.000000 0.000000 0.040707
#
#
# Mechanical properties :
#
#
# Convention : Reuss Voigt Hill
#
# Bulk Modulus (GPa) = 66.80806 74.94068 70.87437
# Shear Modulus (GPa) = 29.48875 34.40969 31.94922
#
# Velocity S-wave (km/s) = 3.71530 4.01334 3.86719
# Velocity P-wave (km/s) = 7.04819 7.52031 7.28807
#
# Compressibility (1/GPa) = 0.01496825
#
# Stress axis : x y z
#
# Youngs Moduli (GPa) = 131.58514 83.17265 100.67474
#
# Poissons Ratio (x) = 0.03808 0.38509
# Poissons Ratio (y) = 0.06024 0.30312
# Poissons Ratio (z) = 0.50333 0.25042
#
# Static dielectric constant tensor:
#      x y z
#    x 4.265860 0.000000 0.000000 
#    y 0.000000 3.534980 0.000000 
#    z 0.000000 0.000000 4.007910 
# 
# 
# High freq. dielectric constant tensor:
#      x y z
#    x 1.866540 0.000000 0.000000 
#    y 0.000000 1.798150 0.000000 
#    z 0.000000 0.000000 1.853990 
# 
# From -- ./inp_files/23568.got.cif
#   From: 2010.06.25/outbox.cif.g09.slc.cpg/sg52_12_cif.got.tgz:23568.got - 2010.06.26 19:32:48.
