data_PCOD8215281
_publ_section_title
;
Structure prediction by ZEFSAII (Michael W. Deem and Ramdas Pophale) SiO2 
 PCOD8215281
Probable space group: P N N A
;
_chemical_formula_sum "Si O2"
_cell_formula_units_Z 32
_cell_length_a 5.057112
_cell_length_b 11.763108
_cell_length_c 28.325532
_cell_angle_alpha 90.000000
_cell_angle_beta 90.000000
_cell_angle_gamma 90.000000
_cell_volume 1685.010967
_symmetry_space_group_name_H-M "P N N A"
_symmetry_group_IT_number 52
_symmetry_cell_setting 'orthorhombic'
loop_
_space_group_symop_operation_xyz
x,y,z
1/2-x,-y,z
x,1/2-y,1/2-z
1/2-x,1/2+y,1/2-z
-x,-y,-z
1/2+x,y,-z
-x,1/2+y,1/2+z
1/2+x,1/2-y,1/2+z
loop_
_atom_site_type_symbol
_atom_site_label
_atom_site_fract_x
_atom_site_fract_y
_atom_site_fract_z
Si Si1 0.123611 0.378758 0.869516
Si Si2 0.589597 0.285387 0.824073
Si Si3 0.011183 0.374271 0.978379
Si Si4 0.495395 0.575341 0.265701
O O1 0.250000 0.500000 0.853947
O O2 0.372560 0.292923 0.866080
O O3 0.015991 0.381612 0.922341
O O4 0.875788 0.338787 0.837158
O O5 0.447087 0.350407 0.780685
O O6 0.604669 0.153242 0.809579
O O7 0.255960 0.307627 0.002055
O O8 0.000000 0.500000 0.000000
O O9 0.250000 0.500000 0.251533
O O10 0.750000 0.500000 0.279674
#
# Coordination Sequence:
#
# PCOD8215281 Si02
#       4
#     8   8   8   8
#     4  12  21  33  54  80 121 149 184 225 269 342
#     4  11  24  35  55  87 105 146 204 229 269 353
#     4  10  19  32  47  73 111 161 169 202 280 344
#     4  11  22  41  57  74 114 150 185 240 296 315
#
# _framework density 18.990973
#
# number of rings (size 3 to 8) (size 9 to 14) (size 15 to 20)
#    0.000    1.000    2.500    7.500    3.500    4.000 
#    0.000    0.000    0.000    0.000    0.000    0.000 
#    0.000   70.000    0.000    0.000    0.000    0.000 
#
# Total GULP energy -396451.019978 kJ/mol
# GULP energy per Si atom -12389.094374 kJ/mol
# Density = 1.894775 g / cm^3
# Si number density = 18.990973 Si / 1000 Ang^3
#
#
#
# Elastic Constant Matrix: (Units=GPa)
#
#
# Indices 1 2 3 4 5 6 
#
# 1 165.8490 30.2071 30.1447 0.0000 0.0000 0.0000
# 2 30.2071 58.5617 28.2418 0.0000 0.0000 0.0000
# 3 30.1447 28.2418 73.2264 0.0000 0.0000 0.0000
# 4 0.0000 0.0000 0.0000 30.0269 0.0000 0.0000
# 5 0.0000 0.0000 0.0000 0.0000 40.3491 0.0000
# 6 0.0000 0.0000 0.0000 0.0000 0.0000 24.7950
#
#
#
# Elastic Compliance Matrix: (Units=1/GPa)
#
#
# Indices 1 2 3 4 5 6 
#
# 1 0.006840 -0.002666 -0.001788 0.000000 0.000000 0.000000
# 2 -0.002666 0.022017 -0.007394 0.000000 0.000000 0.000000
# 3 -0.001788 -0.007394 0.017244 0.000000 0.000000 0.000000
# 4 0.000000 0.000000 0.000000 0.033303 0.000000 0.000000
# 5 0.000000 0.000000 0.000000 0.000000 0.024784 0.000000
# 6 0.000000 0.000000 0.000000 0.000000 0.000000 0.040331
#
#
# Mechanical properties :
#
#
# Convention : Reuss Voigt Hill
#
# Bulk Modulus (GPa) = 44.63153 52.75824 48.69488
# Shear Modulus (GPa) = 28.46043 32.97045 30.71544
#
# Velocity S-wave (km/s) = 3.87541 4.17119 4.02602
# Velocity P-wave (km/s) = 6.60133 7.14419 6.87812
#
# Compressibility (1/GPa) = 0.02240569
#
# Stress axis : x y z
#
# Youngs Moduli (GPa) = 146.19684 45.41944 57.99185
#
# Poissons Ratio (x) = 0.12110 0.10366
# Poissons Ratio (y) = 0.38979 0.42879
# Poissons Ratio (z) = 0.26133 0.33583
#
# Static dielectric constant tensor:
#      x y z
#    x 2.443320 0.000000 0.000000 
#    y 0.000000 3.118410 0.000000 
#    z 0.000000 0.000000 3.392380 
# 
# 
# High freq. dielectric constant tensor:
#      x y z
#    x 1.773850 0.000000 0.000000 
#    y 0.000000 1.683190 0.000000 
#    z 0.000000 0.000000 1.731410 
# 
# From -- ./inp_files/38534.got.cif
#   From: 2010.06.25/outbox.cif.g09.slc.cpg/sg52_20_cif.got.tgz:38534.got - 2010.06.26 19:32:48.
