data_PCOD8215145
_publ_section_title
;
Structure prediction by ZEFSAII (Michael W. Deem and Ramdas Pophale) SiO2 
 PCOD8215145
Probable space group: P N N A
;
_chemical_formula_sum "Si O2"
_cell_formula_units_Z 44
_cell_length_a 14.685340
_cell_length_b 9.439104
_cell_length_c 15.190401
_cell_angle_alpha 90.000000
_cell_angle_beta 90.000000
_cell_angle_gamma 90.000000
_cell_volume 2105.639484
_symmetry_space_group_name_H-M "P N N A"
_symmetry_group_IT_number 52
_symmetry_cell_setting 'orthorhombic'
loop_
_space_group_symop_operation_xyz
x,y,z
1/2-x,-y,z
x,1/2-y,1/2-z
1/2-x,1/2+y,1/2-z
-x,-y,-z
1/2+x,y,-z
-x,1/2+y,1/2+z
1/2+x,1/2-y,1/2+z
loop_
_atom_site_type_symbol
_atom_site_label
_atom_site_fract_x
_atom_site_fract_y
_atom_site_fract_z
Si Si1 0.409635 0.994651 0.853676
Si Si2 0.881730 0.235728 0.438296
Si Si3 0.176530 0.206469 0.594652
Si Si4 0.356631 0.996672 0.440565
Si Si5 0.250000 0.000000 0.737539
Si Si6 0.008803 0.391275 0.202816
O O1 0.390986 0.837211 0.887319
O O2 0.428643 0.107303 0.934120
O O3 0.323764 0.068950 0.803573
O O4 0.489351 0.993923 0.780239
O O5 0.773508 0.258177 0.438821
O O6 0.918807 0.141317 0.356288
O O7 0.899130 0.148465 0.528521
O O8 0.126710 0.111848 0.521208
O O9 0.194475 0.116317 0.682576
O O10 0.408924 0.949791 0.354421
O O11 0.250000 0.000000 0.417840
O O12 0.043980 0.250000 0.250000
#
# Coordination Sequence:
#
# PCOD8215145 Si02
#       6
#     8   8   8   8   4   8
#     4  11  21  30  57  90 129 150 192 249 317 375
#     4  10  18  33  54  86 119 153 190 250 312 370
#     4  11  19  32  54  91 122 160 193 243 313 371
#     4  10  21  38  63  84 118 164 215 251 305 367
#     4  12  18  28  52  90 130 148 182 234 314 382
#     4  10  21  37  59  88 121 164 209 256 304 365
#
# _framework density 20.896265
#
# number of rings (size 3 to 8) (size 9 to 14) (size 15 to 20)
#    0.000    1.455    6.364    1.091    0.000    0.000 
#    0.000    3.636    0.000   17.455    0.000    0.000 
#    0.000    0.000    0.000    0.000    0.000    0.000 
#
# Total GULP energy -545134.401730 kJ/mol
# GULP energy per Si atom -12389.418221 kJ/mol
# Density = 2.084870 g / cm^3
# Si number density = 20.896265 Si / 1000 Ang^3
#
#
#
# Elastic Constant Matrix: (Units=GPa)
#
#
# Indices 1 2 3 4 5 6 
#
# 1 62.5610 50.0312 50.1490 0.0000 0.0000 0.0000
# 2 50.0312 128.3677 58.8469 0.0000 0.0000 0.0000
# 3 50.1490 58.8469 92.9302 0.0000 0.0000 0.0000
# 4 0.0000 0.0000 0.0000 32.9297 0.0000 0.0000
# 5 0.0000 0.0000 0.0000 0.0000 32.1243 0.0000
# 6 0.0000 0.0000 0.0000 0.0000 0.0000 19.1760
#
#
#
# Elastic Compliance Matrix: (Units=1/GPa)
#
#
# Indices 1 2 3 4 5 6 
#
# 1 0.031414 -0.006302 -0.012962 0.000000 0.000000 0.000000
# 2 -0.006302 0.012241 -0.004351 0.000000 0.000000 0.000000
# 3 -0.012962 -0.004351 0.020511 0.000000 0.000000 0.000000
# 4 0.000000 0.000000 0.000000 0.030368 0.000000 0.000000
# 5 0.000000 0.000000 0.000000 0.000000 0.031129 0.000000
# 6 0.000000 0.000000 0.000000 0.000000 0.000000 0.052148
#
#
# Mechanical properties :
#
#
# Convention : Reuss Voigt Hill
#
# Bulk Modulus (GPa) = 59.04239 66.87925 62.96082
# Shear Modulus (GPa) = 21.67459 25.16812 23.42136
#
# Velocity S-wave (km/s) = 3.22413 3.47426 3.35153
# Velocity P-wave (km/s) = 6.49433 6.94037 6.72105
#
# Compressibility (1/GPa) = 0.01693698
#
# Stress axis : x y z
#
# Youngs Moduli (GPa) = 31.83268 81.69544 48.75526
#
# Poissons Ratio (x) = 0.51481 0.63197
# Poissons Ratio (y) = 0.20060 0.21212
# Poissons Ratio (z) = 0.41262 0.35543
#
# Static dielectric constant tensor:
#      x y z
#    x 3.451530 0.000000 0.000000 
#    y 0.000000 3.833460 0.000000 
#    z 0.000000 0.000000 3.629420 
# 
# 
# High freq. dielectric constant tensor:
#      x y z
#    x 1.792280 0.000000 0.000000 
#    y 0.000000 1.820370 0.000000 
#    z 0.000000 0.000000 1.796220 
# 
# From -- ./inp_files/32948.got.cif
#   From: 2010.06.25/outbox.cif.g09.slc.cpg/sg52_17_cif.got.tgz:32948.got - 2010.06.26 19:32:48.
