data_PCOD8215436
_publ_section_title
;
Structure prediction by ZEFSAII (Michael W. Deem and Ramdas Pophale) SiO2 
 PCOD8215436
Probable space group: P N N A
;
_chemical_formula_sum "Si O2"
_cell_formula_units_Z 32
_cell_length_a 14.816136
_cell_length_b 13.024446
_cell_length_c 8.326132
_cell_angle_alpha 90.000000
_cell_angle_beta 90.000000
_cell_angle_gamma 90.000000
_cell_volume 1606.710038
_symmetry_space_group_name_H-M "P N N A"
_symmetry_group_IT_number 52
_symmetry_cell_setting 'orthorhombic'
loop_
_space_group_symop_operation_xyz
x,y,z
1/2-x,-y,z
x,1/2-y,1/2-z
1/2-x,1/2+y,1/2-z
-x,-y,-z
1/2+x,y,-z
-x,1/2+y,1/2+z
1/2+x,1/2-y,1/2+z
loop_
_atom_site_type_symbol
_atom_site_label
_atom_site_fract_x
_atom_site_fract_y
_atom_site_fract_z
Si Si1 0.970782 0.750000 0.750000
Si Si2 0.521919 0.618042 0.965248
Si Si3 0.217312 0.608360 0.169186
Si Si4 0.310554 0.807996 0.054971
Si Si5 0.611324 0.250000 0.250000
O O1 0.907469 0.824626 0.857919
O O2 0.032339 0.821361 0.634593
O O3 0.613087 0.627748 0.864013
O O4 0.445368 0.671512 0.858179
O O5 0.500000 0.500000 0.000000
O O6 0.250000 0.500000 0.101449
O O7 0.279625 0.690815 0.081774
O O8 0.236403 0.616537 0.363412
O O9 0.324859 0.821283 0.864171
#
# Coordination Sequence:
#
# PCOD8215436 Si02
#       5
#     4   8   8   8   4
#     4   8  18  36  56  82 112 144 188 236 278 336
#     4  11  21  38  62  86 115 154 193 236 289 343
#     4  10  19  36  57  81 115 152 186 233 287 339
#     4   9  19  36  55  80 113 147 184 235 285 332
#     4  10  20  38  60  84 112 150 194 238 286 344
#
# _framework density 19.916475999999999
#
# number of rings (size 3 to 8) (size 9 to 14) (size 15 to 20)
#    0.000    2.500    0.000    6.000    0.000    1.000 
#    0.000   20.000    0.000    0.000    0.000    0.000 
#    0.000    0.000    0.000    0.000    0.000    0.000 
#
# Total GULP energy -396502.000726 kJ/mol
# GULP energy per Si atom -12390.687523 kJ/mol
# Density = 1.987114 g / cm^3
# Si number density = 19.916476 Si / 1000 Ang^3
#
#
#
# Elastic Constant Matrix: (Units=GPa)
#
#
# Indices 1 2 3 4 5 6 
#
# 1 102.0923 25.9078 58.4954 0.0000 0.0000 0.0000
# 2 25.9078 102.8565 29.9672 0.0000 0.0000 0.0000
# 3 58.4954 29.9672 143.9974 0.0000 0.0000 0.0000
# 4 0.0000 0.0000 0.0000 19.6269 0.0000 0.0000
# 5 0.0000 0.0000 0.0000 0.0000 30.0491 0.0000
# 6 0.0000 0.0000 0.0000 0.0000 0.0000 24.9960
#
#
#
# Elastic Compliance Matrix: (Units=1/GPa)
#
#
# Indices 1 2 3 4 5 6 
#
# 1 0.013093 -0.001861 -0.004931 0.000000 0.000000 0.000000
# 2 -0.001861 0.010614 -0.001453 0.000000 0.000000 0.000000
# 3 -0.004931 -0.001453 0.009250 0.000000 0.000000 0.000000
# 4 0.000000 0.000000 0.000000 0.050950 0.000000 0.000000
# 5 0.000000 0.000000 0.000000 0.000000 0.033279 0.000000
# 6 0.000000 0.000000 0.000000 0.000000 0.000000 0.040006
#
#
# Mechanical properties :
#
#
# Convention : Reuss Voigt Hill
#
# Bulk Modulus (GPa) = 60.72878 64.18741 62.45810
# Shear Modulus (GPa) = 27.90604 30.57279 29.23942
#
# Velocity S-wave (km/s) = 3.74726 3.92222 3.83574
# Velocity P-wave (km/s) = 7.02001 7.26705 7.14460
#
# Compressibility (1/GPa) = 0.01646666
#
# Stress axis : x y z
#
# Youngs Moduli (GPa) = 76.37766 94.21184 108.10617
#
# Poissons Ratio (x) = 0.17534 0.53311
# Poissons Ratio (y) = 0.14215 0.15707
# Poissons Ratio (z) = 0.37664 0.13688
#
# Static dielectric constant tensor:
#      x y z
#    x 3.684510 0.000000 0.000000 
#    y 0.000000 3.510010 0.000000 
#    z 0.000000 0.000000 3.997420 
# 
# 
# High freq. dielectric constant tensor:
#      x y z
#    x 1.770590 0.000000 0.000000 
#    y 0.000000 1.759340 0.000000 
#    z 0.000000 0.000000 1.777100 
# 
# From -- ./inp_files/9600.got.cif
#   From: 2010.06.25/outbox.cif.g09.slc.cpg/sg52_5_cif.got.tgz:9600.got - 2010.06.26 19:32:48.
