data_PCOD8215795
_publ_section_title
;
Structure prediction by ZEFSAII (Michael W. Deem and Ramdas Pophale) SiO2 
 PCOD8215795
Probable space group: P N N A
;
_chemical_formula_sum "Si O2"
_cell_formula_units_Z 48
_cell_length_a 8.047306
_cell_length_b 31.857042
_cell_length_c 9.059481
_cell_angle_alpha 90.000000
_cell_angle_beta 90.000000
_cell_angle_gamma 90.000000
_cell_volume 2322.519036
_symmetry_space_group_name_H-M "P N N A"
_symmetry_group_IT_number 52
_symmetry_cell_setting 'orthorhombic'
loop_
_space_group_symop_operation_xyz
x,y,z
1/2-x,-y,z
x,1/2-y,1/2-z
1/2-x,1/2+y,1/2-z
-x,-y,-z
1/2+x,y,-z
-x,1/2+y,1/2+z
1/2+x,1/2-y,1/2+z
loop_
_atom_site_type_symbol
_atom_site_label
_atom_site_fract_x
_atom_site_fract_y
_atom_site_fract_z
Si Si1 0.943389 0.167277 0.075721
Si Si2 0.664340 0.631793 0.879021
Si Si3 0.355021 0.915295 0.136384
Si Si4 0.789751 0.875630 0.303915
Si Si5 0.194719 0.547136 0.638100
Si Si6 0.253135 0.795649 0.197888
O O1 0.793535 0.156504 0.187468
O O2 0.062080 0.126059 0.059567
O O3 0.058384 0.205396 0.135254
O O4 0.871122 0.182404 0.919747
O O5 0.754457 0.595372 0.784724
O O6 0.473309 0.638970 0.838966
O O7 0.755054 0.675647 0.843676
O O8 0.675217 0.622580 0.051325
O O9 0.499157 0.948674 0.173807
O O10 0.223902 0.937275 0.028752
O O11 0.799905 0.923128 0.245346
O O12 0.250000 0.500000 0.664825
O O13 0.193786 0.750000 0.250000
#
# Coordination Sequence:
#
# PCOD8215795 Si02
#       6
#     8   8   8   8   8   8
#     4  10  21  40  61  84 116 156 193 230 284 351
#     4  11  22  40  62  86 114 155 197 236 290 353
#     4  10  20  37  60  85 115 153 196 235 286 351
#     4  11  22  40  62  83 115 156 195 234 287 355
#     4  11  21  36  58  88 117 151 195 244 289 338
#     4  11  23  39  61  90 118 149 193 243 287 334
#
# _framework density 20.667216
#
# number of rings (size 3 to 8) (size 9 to 14) (size 15 to 20)
#    0.000    1.333    0.000   10.500    0.000    2.667 
#    0.000    5.833    0.000    0.000    0.000    0.000 
#    0.000    0.000    0.000    0.000    0.000    0.000 
#
# Total GULP energy -595183.811378 kJ/mol
# GULP energy per Si atom -12399.662737 kJ/mol
# Density = 2.062018 g / cm^3
# Si number density = 20.667216 Si / 1000 Ang^3
#
#
#
# Elastic Constant Matrix: (Units=GPa)
#
#
# Indices 1 2 3 4 5 6 
#
# 1 82.7230 0.3442 5.9710 0.0000 0.0000 0.0000
# 2 0.3442 82.1144 40.8846 0.0000 0.0000 0.0000
# 3 5.9710 40.8846 91.0021 0.0000 0.0000 0.0000
# 4 0.0000 0.0000 0.0000 12.8573 0.0000 0.0000
# 5 0.0000 0.0000 0.0000 0.0000 34.8690 0.0000
# 6 0.0000 0.0000 0.0000 0.0000 0.0000 23.8853
#
#
#
# Elastic Compliance Matrix: (Units=1/GPa)
#
#
# Indices 1 2 3 4 5 6 
#
# 1 0.012159 0.000446 -0.000998 0.000000 0.000000 0.000000
# 2 0.000446 0.015704 -0.007084 0.000000 0.000000 0.000000
# 3 -0.000998 -0.007084 0.014237 0.000000 0.000000 0.000000
# 4 0.000000 0.000000 0.000000 0.077777 0.000000 0.000000
# 5 0.000000 0.000000 0.000000 0.000000 0.028679 0.000000
# 6 0.000000 0.000000 0.000000 0.000000 0.000000 0.041867
#
#
# Mechanical properties :
#
#
# Convention : Reuss Voigt Hill
#
# Bulk Modulus (GPa) = 37.27694 38.91546 38.09620
# Shear Modulus (GPa) = 23.29511 28.23161 25.76336
#
# Velocity S-wave (km/s) = 3.36095 3.69997 3.53453
# Velocity P-wave (km/s) = 5.75649 6.09290 5.92708
#
# Compressibility (1/GPa) = 0.02682624
#
# Stress axis : x y z
#
# Youngs Moduli (GPa) = 82.24544 63.67967 70.23913
#
# Poissons Ratio (x) = -0.02840 0.07011
# Poissons Ratio (y) = -0.03668 0.49760
# Poissons Ratio (z) = 0.08209 0.45113
#
# Static dielectric constant tensor:
#      x y z
#    x 3.975500 0.000000 0.000000 
#    y 0.000000 3.559840 0.000000 
#    z 0.000000 0.000000 3.797820 
# 
# 
# High freq. dielectric constant tensor:
#      x y z
#    x 1.828140 0.000000 0.000000 
#    y 0.000000 1.782100 0.000000 
#    z 0.000000 0.000000 1.807460 
# 
# From -- ./inp_files/7673.got.cif
#   From: 2010.06.25/outbox.cif.g09.slc.cpg/sg52_4_cif.got.tgz:7673.got - 2010.06.26 19:32:48.
