data_PCOD8215858
_publ_section_title
;
Structure prediction by ZEFSAII (Michael W. Deem and Ramdas Pophale) SiO2 
 PCOD8215858
Probable space group: P N N A
;
_chemical_formula_sum "Si O2"
_cell_formula_units_Z 44
_cell_length_a 5.237744
_cell_length_b 21.857823
_cell_length_c 15.309593
_cell_angle_alpha 90.000000
_cell_angle_beta 90.000000
_cell_angle_gamma 90.000000
_cell_volume 1752.729185
_symmetry_space_group_name_H-M "P N N A"
_symmetry_group_IT_number 52
_symmetry_cell_setting 'orthorhombic'
loop_
_space_group_symop_operation_xyz
x,y,z
1/2-x,-y,z
x,1/2-y,1/2-z
1/2-x,1/2+y,1/2-z
-x,-y,-z
1/2+x,y,-z
-x,1/2+y,1/2+z
1/2+x,1/2-y,1/2+z
loop_
_atom_site_type_symbol
_atom_site_label
_atom_site_fract_x
_atom_site_fract_y
_atom_site_fract_z
Si Si1 0.903570 0.173411 0.185450
Si Si2 0.099255 0.764497 0.547177
Si Si3 0.608861 0.625371 0.773581
Si Si4 0.914123 0.395595 0.973077
Si Si5 0.438482 0.431469 0.556102
Si Si6 0.750000 0.500000 0.690440
O O1 0.887284 0.243644 0.150159
O O2 0.638740 0.152630 0.227300
O O3 0.142245 0.164943 0.249874
O O4 0.955987 0.136138 0.095628
O O5 0.344648 0.737070 0.497125
O O6 0.099479 0.838119 0.541039
O O7 0.568150 0.630413 0.876394
O O8 0.645802 0.554396 0.750679
O O9 0.660279 0.434820 0.995696
O O10 0.152369 0.442598 0.519301
O O11 0.506787 0.478497 0.633795
#
# Coordination Sequence:
#
# PCOD8215858 Si02
#       6
#     8   8   8   8   8   4
#     4  11  22  38  61  93 125 161 204 253 308 372
#     4  10  20  38  61  88 122 162 202 249 302 364
#     4  11  24  42  63  91 126 162 204 260 313 363
#     4  10  22  44  66  88 121 161 206 260 311 368
#     4  11  21  35  57  87 123 163 198 239 298 367
#     4  10  24  40  60  92 128 166 212 260 306 364
#
# _framework density 25.103708999999998
#
# number of rings (size 3 to 8) (size 9 to 14) (size 15 to 20)
#    0.000    1.455    0.000    6.000    0.000    5.818 
#    0.000   22.727    0.000    0.000    0.000    0.000 
#    0.000    0.000    0.000    0.000    0.000    0.000 
#
# Total GULP energy -545450.730296 kJ/mol
# GULP energy per Si atom -12396.607507 kJ/mol
# Density = 2.504657 g / cm^3
# Si number density = 25.103709 Si / 1000 Ang^3
#
#
#
# Elastic Constant Matrix: (Units=GPa)
#
#
# Indices 1 2 3 4 5 6 
#
# 1 223.1046 12.0235 36.4056 0.0000 0.0000 0.0000
# 2 12.0235 48.2552 -2.3534 0.0000 0.0000 0.0000
# 3 36.4056 -2.3534 70.1063 0.0000 0.0000 0.0000
# 4 0.0000 0.0000 0.0000 17.3514 0.0000 0.0000
# 5 0.0000 0.0000 0.0000 0.0000 37.3981 0.0000
# 6 0.0000 0.0000 0.0000 0.0000 0.0000 14.8632
#
#
#
# Elastic Compliance Matrix: (Units=1/GPa)
#
#
# Indices 1 2 3 4 5 6 
#
# 1 0.004986 -0.001371 -0.002635 0.000000 0.000000 0.000000
# 2 -0.001371 0.021134 0.001421 0.000000 0.000000 0.000000
# 3 -0.002635 0.001421 0.015680 0.000000 0.000000 0.000000
# 4 0.000000 0.000000 0.000000 0.057632 0.000000 0.000000
# 5 0.000000 0.000000 0.000000 0.000000 0.026739 0.000000
# 6 0.000000 0.000000 0.000000 0.000000 0.000000 0.067280
#
#
# Mechanical properties :
#
#
# Convention : Reuss Voigt Hill
#
# Bulk Modulus (GPa) = 27.29947 48.17971 37.73959
# Shear Modulus (GPa) = 23.71553 33.61522 28.66538
#
# Velocity S-wave (km/s) = 3.07694 3.66328 3.38283
# Velocity P-wave (km/s) = 4.84991 6.09317 5.50674
#
# Compressibility (1/GPa) = 0.03663075
#
# Stress axis : x y z
#
# Youngs Moduli (GPa) = 200.55778 47.31705 63.77456
#
# Poissons Ratio (x) = 0.06487 0.16806
# Poissons Ratio (y) = 0.27494 -0.09064
# Poissons Ratio (z) = 0.52852 -0.06725
#
# Static dielectric constant tensor:
#      x y z
#    x 5.589410 0.000000 0.000000 
#    y 0.000000 4.462420 0.000000 
#    z 0.000000 0.000000 4.398140 
# 
# 
# High freq. dielectric constant tensor:
#      x y z
#    x 2.031930 0.000000 0.000000 
#    y 0.000000 1.983100 0.000000 
#    z 0.000000 0.000000 1.999030 
# 
# From -- ./inp_files/23678.got.cif
#   From: 2010.06.25/outbox.cif.g09.slc.cpg/sg52_12_cif.got.tgz:23678.got - 2010.06.26 19:32:48.
