data_PCOD8215425
_publ_section_title
;
Structure prediction by ZEFSAII (Michael W. Deem and Ramdas Pophale) SiO2 
 PCOD8215425
Probable space group: P N N A
;
_chemical_formula_sum "Si O2"
_cell_formula_units_Z 32
_cell_length_a 13.238507
_cell_length_b 11.167766
_cell_length_c 11.389138
_cell_angle_alpha 90.000000
_cell_angle_beta 90.000000
_cell_angle_gamma 90.000000
_cell_volume 1683.821964
_symmetry_space_group_name_H-M "P N N A"
_symmetry_group_IT_number 52
_symmetry_cell_setting 'orthorhombic'
loop_
_space_group_symop_operation_xyz
x,y,z
1/2-x,-y,z
x,1/2-y,1/2-z
1/2-x,1/2+y,1/2-z
-x,-y,-z
1/2+x,y,-z
-x,1/2+y,1/2+z
1/2+x,1/2-y,1/2+z
loop_
_atom_site_type_symbol
_atom_site_label
_atom_site_fract_x
_atom_site_fract_y
_atom_site_fract_z
Si Si1 0.483321 0.535738 0.163368
Si Si2 0.982538 0.885606 0.924709
Si Si3 0.400553 0.338812 0.021925
Si Si4 0.308961 0.778741 0.379267
O O1 0.514233 0.574144 0.293828
O O2 0.450898 0.396179 0.141621
O O3 0.387785 0.613492 0.122269
O O4 0.580189 0.564848 0.081779
O O5 0.866497 0.840192 0.926646
O O6 0.053012 0.785948 0.981716
O O7 0.000000 0.000000 0.000000
O O8 0.281958 0.316162 0.036738
O O9 0.265578 0.750000 0.250000
#
# Coordination Sequence:
#
# PCOD8215425 Si02
#       4
#     8   8   8   8
#     4   9  20  38  59  85 112 153 197 246 292 352
#     4  10  22  37  57  85 124 151 192 244 300 356
#     4  10  19  35  63  79 113 154 194 240 300 340
#     4   9  19  35  59  87 107 145 201 244 282 354
#
# _framework density 19.004383000000001
#
# number of rings (size 3 to 8) (size 9 to 14) (size 15 to 20)
#    0.000    2.500    0.000    3.000    3.500    1.000 
#    0.000    0.000   55.000    0.000    0.000    0.000 
#    0.000    0.000    0.000    0.000    0.000    0.000 
#
# Total GULP energy -396498.184570 kJ/mol
# GULP energy per Si atom -12390.568268 kJ/mol
# Density = 1.896113 g / cm^3
# Si number density = 19.004383 Si / 1000 Ang^3
#
#
#
# Elastic Constant Matrix: (Units=GPa)
#
#
# Indices 1 2 3 4 5 6 
#
# 1 112.3252 34.3769 71.7255 0.0000 0.0000 0.0000
# 2 34.3769 113.0821 74.7235 0.0000 0.0000 0.0000
# 3 71.7255 74.7235 101.4133 0.0000 0.0000 0.0000
# 4 0.0000 0.0000 0.0000 41.0386 0.0000 0.0000
# 5 0.0000 0.0000 0.0000 0.0000 26.8346 0.0000
# 6 0.0000 0.0000 0.0000 0.0000 0.0000 18.4411
#
#
#
# Elastic Compliance Matrix: (Units=1/GPa)
#
#
# Indices 1 2 3 4 5 6 
#
# 1 0.017948 0.005714 -0.016904 0.000000 0.000000 0.000000
# 2 0.005714 0.019053 -0.018080 0.000000 0.000000 0.000000
# 3 -0.016904 -0.018080 0.035138 0.000000 0.000000 0.000000
# 4 0.000000 0.000000 0.000000 0.024367 0.000000 0.000000
# 5 0.000000 0.000000 0.000000 0.000000 0.037265 0.000000
# 6 0.000000 0.000000 0.000000 0.000000 0.000000 0.054227
#
#
# Mechanical properties :
#
#
# Convention : Reuss Voigt Hill
#
# Bulk Modulus (GPa) = 73.53574 76.49695 75.01635
# Shear Modulus (GPa) = 19.91465 26.99585 23.45525
#
# Velocity S-wave (km/s) = 3.24064 3.77305 3.51693
# Velocity P-wave (km/s) = 7.26501 7.70200 7.48670
#
# Compressibility (1/GPa) = 0.01359883
#
# Stress axis : x y z
#
# Youngs Moduli (GPa) = 55.71618 52.48475 28.45940
#
# Poissons Ratio (x) = -0.29989 0.48108
# Poissons Ratio (y) = -0.31835 0.51454
# Poissons Ratio (z) = 0.94183 0.94892
#
# Static dielectric constant tensor:
#      x y z
#    x 3.340770 0.000000 0.000000 
#    y 0.000000 3.624100 0.000000 
#    z 0.000000 0.000000 3.235040 
# 
# 
# High freq. dielectric constant tensor:
#      x y z
#    x 1.720470 0.000000 0.000000 
#    y 0.000000 1.750780 0.000000 
#    z 0.000000 0.000000 1.733380 
# 
# From -- ./inp_files/9549.got.cif
#   From: 2010.06.25/outbox.cif.g09.slc.cpg/sg52_5_cif.got.tgz:9549.got - 2010.06.26 19:32:48.
