data_PCOD8215302
_publ_section_title
;
Structure prediction by ZEFSAII (Michael W. Deem and Ramdas Pophale) SiO2 
 PCOD8215302
Probable space group: P N N A
;
_chemical_formula_sum "Si O2"
_cell_formula_units_Z 48
_cell_length_a 9.590589
_cell_length_b 14.470406
_cell_length_c 16.535402
_cell_angle_alpha 90.000000
_cell_angle_beta 90.000000
_cell_angle_gamma 90.000000
_cell_volume 2294.778404
_symmetry_space_group_name_H-M "P N N A"
_symmetry_group_IT_number 52
_symmetry_cell_setting 'orthorhombic'
loop_
_space_group_symop_operation_xyz
x,y,z
1/2-x,-y,z
x,1/2-y,1/2-z
1/2-x,1/2+y,1/2-z
-x,-y,-z
1/2+x,y,-z
-x,1/2+y,1/2+z
1/2+x,1/2-y,1/2+z
loop_
_atom_site_type_symbol
_atom_site_label
_atom_site_fract_x
_atom_site_fract_y
_atom_site_fract_z
Si Si1 0.013467 0.315151 0.126730
Si Si2 0.242611 0.282296 0.583099
Si Si3 0.026862 0.156348 0.801298
Si Si4 0.974498 0.868937 0.447528
Si Si5 0.413941 0.497695 0.817821
Si Si6 0.792312 0.231626 0.903570
O O1 0.894428 0.237004 0.120390
O O2 0.972884 0.393115 0.193123
O O3 0.155730 0.261051 0.147842
O O4 0.034549 0.370754 0.043494
O O5 0.159127 0.356658 0.637821
O O6 0.251754 0.315936 0.489598
O O7 0.154390 0.188411 0.588905
O O8 0.046066 0.250000 0.750000
O O9 0.013645 0.066241 0.745897
O O10 0.882806 0.159784 0.851723
O O11 0.120689 0.824531 0.420724
O O12 0.955752 0.969970 0.408789
O O13 0.250000 0.500000 0.804057
#
# Coordination Sequence:
#
# PCOD8215302 Si02
#       6
#     8   8   8   8   8   8
#     4  10  19  32  56  87 117 152 198 230 290 363
#     4   9  17  35  59  83 114 159 205 233 282 365
#     4  11  20  38  58  82 123 159 194 245 300 346
#     4   9  17  33  53  83 122 155 181 222 292 365
#     4  12  21  34  56  86 120 160 193 233 293 363
#     4   9  19  34  58  86 116 159 189 242 304 349
#
# _framework density 20.917052000000002
#
# number of rings (size 3 to 8) (size 9 to 14) (size 15 to 20)
#    0.000    2.000    5.000    1.500    0.000    0.667 
#    0.000    2.500    0.000    1.000    0.000    0.000 
#    0.000    0.000    0.000    0.000    0.000    0.000 
#
# Total GULP energy -595019.740698 kJ/mol
# GULP energy per Si atom -12396.244598 kJ/mol
# Density = 2.086944 g / cm^3
# Si number density = 20.917052 Si / 1000 Ang^3
#
#
#
# Elastic Constant Matrix: (Units=GPa)
#
#
# Indices 1 2 3 4 5 6 
#
# 1 147.1017 27.2505 36.2722 0.0000 0.0000 0.0000
# 2 27.2505 43.0786 30.9803 0.0000 0.0000 0.0000
# 3 36.2722 30.9803 86.5494 0.0000 0.0000 0.0000
# 4 0.0000 0.0000 0.0000 24.7799 0.0000 0.0000
# 5 0.0000 0.0000 0.0000 0.0000 31.7146 0.0000
# 6 0.0000 0.0000 0.0000 0.0000 0.0000 16.9171
#
#
#
# Elastic Compliance Matrix: (Units=1/GPa)
#
#
# Indices 1 2 3 4 5 6 
#
# 1 0.007966 -0.003553 -0.002067 0.000000 0.000000 0.000000
# 2 -0.003553 0.032845 -0.010268 0.000000 0.000000 0.000000
# 3 -0.002067 -0.010268 0.016096 0.000000 0.000000 0.000000
# 4 0.000000 0.000000 0.000000 0.040355 0.000000 0.000000
# 5 0.000000 0.000000 0.000000 0.000000 0.031531 0.000000
# 6 0.000000 0.000000 0.000000 0.000000 0.000000 0.059112
#
#
# Mechanical properties :
#
#
# Convention : Reuss Voigt Hill
#
# Bulk Modulus (GPa) = 39.79033 51.74842 45.76938
# Shear Modulus (GPa) = 21.92438 26.83077 24.37757
#
# Velocity S-wave (km/s) = 3.24104 3.58540 3.41756
# Velocity P-wave (km/s) = 5.75065 6.47562 6.12387
#
# Compressibility (1/GPa) = 0.02513173
#
# Stress axis : x y z
#
# Youngs Moduli (GPa) = 125.53741 30.44609 62.12867
#
# Poissons Ratio (x) = 0.10816 0.12840
# Poissons Ratio (y) = 0.44599 0.63793
# Poissons Ratio (z) = 0.25945 0.31262
#
# Static dielectric constant tensor:
#      x y z
#    x 4.021040 0.000000 0.000000 
#    y 0.000000 3.284350 0.000000 
#    z 0.000000 0.000000 3.970380 
# 
# 
# High freq. dielectric constant tensor:
#      x y z
#    x 1.830830 0.000000 0.000000 
#    y 0.000000 1.762140 0.000000 
#    z 0.000000 0.000000 1.815730 
# 
# From -- ./inp_files/31376.got.cif
#   From: 2010.06.25/outbox.cif.g09.slc.cpg/sg52_16_cif.got.tgz:31376.got - 2010.06.26 19:32:48.
