data_PCOD8215808
_publ_section_title
;
Structure prediction by ZEFSAII (Michael W. Deem and Ramdas Pophale) SiO2 
 PCOD8215808
Probable space group: P N N A
;
_chemical_formula_sum "Si O2"
_cell_formula_units_Z 32
_cell_length_a 14.905956
_cell_length_b 8.672278
_cell_length_c 9.733060
_cell_angle_alpha 90.000000
_cell_angle_beta 90.000000
_cell_angle_gamma 90.000000
_cell_volume 1258.178984
_symmetry_space_group_name_H-M "P N N A"
_symmetry_group_IT_number 52
_symmetry_cell_setting 'orthorhombic'
loop_
_space_group_symop_operation_xyz
x,y,z
1/2-x,-y,z
x,1/2-y,1/2-z
1/2-x,1/2+y,1/2-z
-x,-y,-z
1/2+x,y,-z
-x,1/2+y,1/2+z
1/2+x,1/2-y,1/2+z
loop_
_atom_site_type_symbol
_atom_site_label
_atom_site_fract_x
_atom_site_fract_y
_atom_site_fract_z
Si Si1 0.731449 0.181730 0.400468
Si Si2 0.530517 0.329092 0.102827
Si Si3 0.519953 0.077084 0.782457
Si Si4 0.111589 0.880513 0.999830
O O1 0.746468 0.250000 0.250000
O O2 0.630493 0.197446 0.453760
O O3 0.792161 0.294784 0.497076
O O4 0.750000 0.000000 0.407582
O O5 0.516941 0.250000 0.250000
O O6 0.495493 0.504040 0.130154
O O7 0.464789 0.250641 0.995619
O O8 0.548231 0.250000 0.750000
O O9 0.421795 0.040701 0.856555
O O10 0.601114 0.996144 0.870534
#
# Coordination Sequence:
#
# PCOD8215808 Si02
#       4
#     8   8   8   8
#     4  11  22  37  61  93 125 160 211 273 326 381
#     4   9  20  38  61  89 120 158 206 258 315 377
#     4  10  20  37  61  91 128 169 213 263 319 378
#     4  10  21  38  62  91 126 167 211 261 321 381
#
# _framework density 25.433584
#
# number of rings (size 3 to 8) (size 9 to 14) (size 15 to 20)
#    0.000    2.000    0.000    3.750    0.000    6.000 
#    0.000    0.000    0.000   21.000    0.000    0.000 
#    0.000    0.000    0.000    0.000    0.000    4.500 
#
# Total GULP energy -396476.116847 kJ/mol
# GULP energy per Si atom -12389.878651 kJ/mol
# Density = 2.537570 g / cm^3
# Si number density = 25.433584 Si / 1000 Ang^3
#
#
#
# Elastic Constant Matrix: (Units=GPa)
#
#
# Indices 1 2 3 4 5 6 
#
# 1 145.6820 48.5827 24.8247 0.0000 0.0000 0.0000
# 2 48.5827 155.2423 32.1433 0.0000 0.0000 0.0000
# 3 24.8247 32.1433 57.5542 0.0000 0.0000 0.0000
# 4 0.0000 0.0000 0.0000 45.5497 0.0000 0.0000
# 5 0.0000 0.0000 0.0000 0.0000 26.8920 0.0000
# 6 0.0000 0.0000 0.0000 0.0000 0.0000 35.8451
#
#
#
# Elastic Compliance Matrix: (Units=1/GPa)
#
#
# Indices 1 2 3 4 5 6 
#
# 1 0.007924 -0.002004 -0.002299 0.000000 0.000000 0.000000
# 2 -0.002004 0.007791 -0.003487 0.000000 0.000000 0.000000
# 3 -0.002299 -0.003487 0.020314 0.000000 0.000000 0.000000
# 4 0.000000 0.000000 0.000000 0.021954 0.000000 0.000000
# 5 0.000000 0.000000 0.000000 0.000000 0.037186 0.000000
# 6 0.000000 0.000000 0.000000 0.000000 0.000000 0.027898
#
#
# Mechanical properties :
#
#
# Convention : Reuss Voigt Hill
#
# Bulk Modulus (GPa) = 48.89995 63.28666 56.09330
# Shear Modulus (GPa) = 34.37337 38.51920 36.44629
#
# Velocity S-wave (km/s) = 3.68026 3.89588 3.78960
# Velocity P-wave (km/s) = 6.10961 6.72118 6.42268
#
# Compressibility (1/GPa) = 0.02044992
#
# Stress axis : x y z
#
# Youngs Moduli (GPa) = 126.19476 128.36027 49.22788
#
# Poissons Ratio (x) = 0.25722 0.11316
# Poissons Ratio (y) = 0.25288 0.17164
# Poissons Ratio (z) = 0.29010 0.44754
#
# Static dielectric constant tensor:
#      x y z
#    x 4.365890 0.000000 0.000000 
#    y 0.000000 5.472920 0.000000 
#    z 0.000000 0.000000 4.755820 
# 
# 
# High freq. dielectric constant tensor:
#      x y z
#    x 1.981110 0.000000 0.000000 
#    y 0.000000 2.057330 0.000000 
#    z 0.000000 0.000000 2.016220 
# 
# From -- ./inp_files/18834.got.cif
#   From: 2010.06.25/outbox.cif.g09.slc.cpg/sg52_10_cif.got.tgz:18834.got - 2010.06.26 19:32:48.
