data_PCOD8215779
_publ_section_title
;
Structure prediction by ZEFSAII (Michael W. Deem and Ramdas Pophale) SiO2 
 PCOD8215779
Probable space group: P N N A
;
_chemical_formula_sum "Si O2"
_cell_formula_units_Z 60
_cell_length_a 11.685695
_cell_length_b 28.159323
_cell_length_c 8.921362
_cell_angle_alpha 90.000000
_cell_angle_beta 90.000000
_cell_angle_gamma 90.000000
_cell_volume 2935.674620
_symmetry_space_group_name_H-M "P N N A"
_symmetry_group_IT_number 52
_symmetry_cell_setting 'orthorhombic'
loop_
_space_group_symop_operation_xyz
x,y,z
1/2-x,-y,z
x,1/2-y,1/2-z
1/2-x,1/2+y,1/2-z
-x,-y,-z
1/2+x,y,-z
-x,1/2+y,1/2+z
1/2+x,1/2-y,1/2+z
loop_
_atom_site_type_symbol
_atom_site_label
_atom_site_fract_x
_atom_site_fract_y
_atom_site_fract_z
Si Si1 0.976303 0.093357 0.179905
Si Si2 0.319039 0.330637 0.563339
Si Si3 0.394085 0.895654 0.888116
Si Si4 0.755899 0.446123 0.163171
Si Si5 0.790309 0.750000 0.250000
Si Si6 0.652836 0.381668 0.914117
Si Si7 0.801148 0.198046 0.737800
Si Si8 0.534415 0.324055 0.151063
O O1 0.924812 0.146431 0.156129
O O2 0.875303 0.060945 0.247733
O O3 0.083951 0.088162 0.291418
O O4 0.027401 0.079092 0.015763
O O5 0.216305 0.368425 0.547209
O O6 0.287960 0.281924 0.645019
O O7 0.352811 0.317753 0.396186
O O8 0.349747 0.936569 0.775565
O O9 0.466879 0.855945 0.801194
O O10 0.750000 0.500000 0.106702
O O11 0.741524 0.412650 0.015099
O O12 0.867557 0.715847 0.147570
O O13 0.715591 0.339819 0.828159
O O14 0.553649 0.359142 0.013889
O O15 0.742104 0.250000 0.750000
O O16 0.912369 0.201413 0.630478
#
# Coordination Sequence:
#
# PCOD8215779 Si02
#       8
#     8   8   8   8   4   8   8   8
#     4  11  21  41  67  88 123 172 204 261 336 385
#     4  10  21  37  58  87 122 165 214 260 314 379
#     4   9  19  39  64  86 122 165 203 258 321 392
#     4  10  24  44  67  99 129 162 216 274 332 408
#     4  10  20  38  56  82 130 164 212 266 310 360
#     4  11  24  41  63  91 132 172 210 265 333 389
#     4  12  22  36  61  92 125 168 226 262 306 384
#     4  10  20  37  57  83 125 170 206 258 321 360
#
# _framework density 20.438233
#
# number of rings (size 3 to 8) (size 9 to 14) (size 15 to 20)
#    0.000    1.600    3.333    2.400    0.000    2.133 
#    3.600    0.667    0.000    0.000    0.000    0.000 
#    0.000    0.000    0.000    0.000    0.000    0.000 
#
# Total GULP energy -743621.774386 kJ/mol
# GULP energy per Si atom -12393.696240 kJ/mol
# Density = 2.039171 g / cm^3
# Si number density = 20.438233 Si / 1000 Ang^3
#
#
#
# Elastic Constant Matrix: (Units=GPa)
#
#
# Indices 1 2 3 4 5 6 
#
# 1 83.7693 23.1152 27.6475 0.0000 0.0000 0.0000
# 2 23.1152 100.8049 29.8501 0.0000 0.0000 0.0000
# 3 27.6475 29.8501 82.5362 0.0000 0.0000 0.0000
# 4 0.0000 0.0000 0.0000 21.6589 0.0000 0.0000
# 5 0.0000 0.0000 0.0000 0.0000 20.6495 0.0000
# 6 0.0000 0.0000 0.0000 0.0000 0.0000 20.2096
#
#
#
# Elastic Compliance Matrix: (Units=1/GPa)
#
#
# Indices 1 2 3 4 5 6 
#
# 1 0.013775 -0.002007 -0.003888 0.000000 0.000000 0.000000
# 2 -0.002007 0.011402 -0.003451 0.000000 0.000000 0.000000
# 3 -0.003888 -0.003451 0.014667 0.000000 0.000000 0.000000
# 4 0.000000 0.000000 0.000000 0.046170 0.000000 0.000000
# 5 0.000000 0.000000 0.000000 0.000000 0.048427 0.000000
# 6 0.000000 0.000000 0.000000 0.000000 0.000000 0.049481
#
#
# Mechanical properties :
#
#
# Convention : Reuss Voigt Hill
#
# Bulk Modulus (GPa) = 47.28150 47.59289 47.43720
# Shear Modulus (GPa) = 23.84739 24.93679 24.39209
#
# Velocity S-wave (km/s) = 3.41956 3.49679 3.45839
# Velocity P-wave (km/s) = 6.22697 6.29604 6.26160
#
# Compressibility (1/GPa) = 0.02114992
#
# Stress axis : x y z
#
# Youngs Moduli (GPa) = 72.59678 87.70036 68.18218
#
# Poissons Ratio (x) = 0.17604 0.26511
# Poissons Ratio (y) = 0.14572 0.23533
# Poissons Ratio (z) = 0.28227 0.30269
#
# Static dielectric constant tensor:
#      x y z
#    x 3.661880 0.000000 0.000000 
#    y 0.000000 3.451410 0.000000 
#    z 0.000000 0.000000 3.807740 
# 
# 
# High freq. dielectric constant tensor:
#      x y z
#    x 1.798290 0.000000 0.000000 
#    y 0.000000 1.773150 0.000000 
#    z 0.000000 0.000000 1.803920 
# 
# From -- ./inp_files/9042.got.cif
#   From: 2010.06.25/outbox.cif.g09.slc.cpg/sg52_5_cif.got.tgz:9042.got - 2010.06.26 19:32:48.
