data_PCOD8215689
_publ_section_title
;
Structure prediction by ZEFSAII (Michael W. Deem and Ramdas Pophale) SiO2 
 PCOD8215689
Probable space group: P N N A
;
_chemical_formula_sum "Si O2"
_cell_formula_units_Z 40
_cell_length_a 14.359314
_cell_length_b 8.366473
_cell_length_c 15.475240
_cell_angle_alpha 90.000000
_cell_angle_beta 90.000000
_cell_angle_gamma 90.000000
_cell_volume 1859.146012
_symmetry_space_group_name_H-M "P N N A"
_symmetry_group_IT_number 52
_symmetry_cell_setting 'orthorhombic'
loop_
_space_group_symop_operation_xyz
x,y,z
1/2-x,-y,z
x,1/2-y,1/2-z
1/2-x,1/2+y,1/2-z
-x,-y,-z
1/2+x,y,-z
-x,1/2+y,1/2+z
1/2+x,1/2-y,1/2+z
loop_
_atom_site_type_symbol
_atom_site_label
_atom_site_fract_x
_atom_site_fract_y
_atom_site_fract_z
Si Si1 0.250000 0.500000 0.381210
Si Si2 0.250000 0.000000 0.716850
Si Si3 0.036466 0.885991 0.364737
Si Si4 0.417230 0.185449 0.655457
Si Si5 0.884691 0.750000 0.250000
Si Si6 0.916567 0.380028 0.505313
Si Si7 0.309525 0.250000 0.250000
O O1 0.161976 0.520682 0.443723
O O2 0.244543 0.343558 0.318857
O O3 0.182988 0.899236 0.654691
O O4 0.317031 0.895041 0.777784
O O5 0.064893 0.793932 0.451588
O O6 0.123126 0.879355 0.297627
O O7 0.947449 0.787306 0.331879
O O8 0.002013 0.069131 0.377035
O O9 0.444688 0.250000 0.750000
O O10 0.397716 0.335897 0.593865
O O11 0.000000 0.500000 0.500000
#
# Coordination Sequence:
#
# PCOD8215689 Si02
#       7
#     4   4   8   8   4   8   4
#     4  10  24  43  67 102 134 178 220 284 337 403
#     4  10  20  35  57  92 130 164 222 256 321 409
#     4   9  21  41  63  88 131 170 221 277 336 397
#     4  11  24  39  66  97 130 183 223 268 345 405
#     4   9  18  32  60  87 122 168 208 271 322 389
#     4  11  26  43  65 101 137 171 228 285 338 396
#     4   9  20  42  68  95 128 170 230 273 340 395
#
# _framework density 21.515256000000001
#
# number of rings (size 3 to 8) (size 9 to 14) (size 15 to 20)
#    0.000    2.000    1.000    0.600   11.200    5.600 
#    0.000    4.000    0.000    0.000    0.000    0.000 
#    0.000    0.000    0.000    0.000    0.000    0.000 
#
# Total GULP energy -495552.526668 kJ/mol
# GULP energy per Si atom -12388.813167 kJ/mol
# Density = 2.146629 g / cm^3
# Si number density = 21.515256 Si / 1000 Ang^3
#
#
#
# Elastic Constant Matrix: (Units=GPa)
#
#
# Indices 1 2 3 4 5 6 
#
# 1 108.0470 64.2762 49.0543 0.0000 0.0000 0.0000
# 2 64.2762 105.4851 57.1223 0.0000 0.0000 0.0000
# 3 49.0543 57.1223 117.8300 0.0000 0.0000 0.0000
# 4 0.0000 0.0000 0.0000 46.3681 0.0000 0.0000
# 5 0.0000 0.0000 0.0000 0.0000 14.9838 0.0000
# 6 0.0000 0.0000 0.0000 0.0000 0.0000 47.7003
#
#
#
# Elastic Compliance Matrix: (Units=1/GPa)
#
#
# Indices 1 2 3 4 5 6 
#
# 1 0.015027 -0.007823 -0.002464 0.000000 0.000000 0.000000
# 2 -0.007823 0.016927 -0.004949 0.000000 0.000000 0.000000
# 3 -0.002464 -0.004949 0.011912 0.000000 0.000000 0.000000
# 4 0.000000 0.000000 0.000000 0.021567 0.000000 0.000000
# 5 0.000000 0.000000 0.000000 0.000000 0.066739 0.000000
# 6 0.000000 0.000000 0.000000 0.000000 0.000000 0.020964
#
#
# Mechanical properties :
#
#
# Convention : Reuss Voigt Hill
#
# Bulk Modulus (GPa) = 74.65614 74.69639 74.67626
# Shear Modulus (GPa) = 26.58562 32.53771 29.56167
#
# Velocity S-wave (km/s) = 3.51901 3.89306 3.71075
# Velocity P-wave (km/s) = 7.16141 7.41628 7.28996
#
# Compressibility (1/GPa) = 0.01339475
#
# Stress axis : x y z
#
# Youngs Moduli (GPa) = 66.54502 59.07832 83.95019
#
# Poissons Ratio (x) = 0.46214 0.20684
# Poissons Ratio (y) = 0.52055 0.41548
# Poissons Ratio (z) = 0.16396 0.29239
#
# Static dielectric constant tensor:
#      x y z
#    x 3.694360 0.000000 0.000000 
#    y 0.000000 3.903120 0.000000 
#    z 0.000000 0.000000 3.901160 
# 
# 
# High freq. dielectric constant tensor:
#      x y z
#    x 1.844980 0.000000 0.000000 
#    y 0.000000 1.849230 0.000000 
#    z 0.000000 0.000000 1.833220 
# 
# From -- ./inp_files/26996.got.cif
#   From: 2010.06.25/outbox.cif.g09.slc.cpg/sg52_14_cif.got.tgz:26996.got - 2010.06.26 19:32:48.
