data_PCOD8215478
_publ_section_title
;
Structure prediction by ZEFSAII (Michael W. Deem and Ramdas Pophale) SiO2 
 PCOD8215478
Probable space group: P N N A
;
_chemical_formula_sum "Si O2"
_cell_formula_units_Z 32
_cell_length_a 11.726033
_cell_length_b 15.266331
_cell_length_c 9.465017
_cell_angle_alpha 90.000000
_cell_angle_beta 90.000000
_cell_angle_gamma 90.000000
_cell_volume 1694.365831
_symmetry_space_group_name_H-M "P N N A"
_symmetry_group_IT_number 52
_symmetry_cell_setting 'orthorhombic'
loop_
_space_group_symop_operation_xyz
x,y,z
1/2-x,-y,z
x,1/2-y,1/2-z
1/2-x,1/2+y,1/2-z
-x,-y,-z
1/2+x,y,-z
-x,1/2+y,1/2+z
1/2+x,1/2-y,1/2+z
loop_
_atom_site_type_symbol
_atom_site_label
_atom_site_fract_x
_atom_site_fract_y
_atom_site_fract_z
Si Si1 0.750000 0.500000 0.126377
Si Si2 0.337693 0.250000 0.250000
Si Si3 0.337428 0.859750 0.411071
Si Si4 0.031633 0.762209 0.968951
Si Si5 0.942442 0.111432 0.273624
O O1 0.855219 0.469816 0.224896
O O2 0.712503 0.417869 0.034639
O O3 0.260944 0.168940 0.302221
O O4 0.419143 0.280633 0.376799
O O5 0.399432 0.771733 0.473883
O O6 0.431510 0.918143 0.326954
O O7 0.043098 0.853282 0.885162
O O8 0.102273 0.687752 0.881885
#
# Coordination Sequence:
#
# PCOD8215478 Si02
#       5
#     4   4   8   8   8
#     4  12  20  34  66  92 122 168 198 254 338 350
#     4  12  18  38  66  86 118 176 202 248 314 360
#     4  10  19  37  59  86 126 159 206 257 294 373
#     4   9  20  37  58  88 115 160 212 245 296 370
#     4   9  19  37  55  85 121 154 201 259 292 360
#
# _framework density 18.886122
#
# number of rings (size 3 to 8) (size 9 to 14) (size 15 to 20)
#    1.500    0.500    5.000    0.750    0.000    0.000 
#    4.500    1.250    0.000    4.500    0.000    0.000 
#    0.000    0.000    0.000    0.000    0.000    0.000 
#
# Total GULP energy -396426.460770 kJ/mol
# GULP energy per Si atom -12388.326899 kJ/mol
# Density = 1.884314 g / cm^3
# Si number density = 18.886122 Si / 1000 Ang^3
#
#
#
# Elastic Constant Matrix: (Units=GPa)
#
#
# Indices 1 2 3 4 5 6 
#
# 1 75.3343 19.5397 48.4213 0.0000 0.0000 0.0000
# 2 19.5397 51.5353 30.7840 0.0000 0.0000 0.0000
# 3 48.4213 30.7840 110.4141 0.0000 0.0000 0.0000
# 4 0.0000 0.0000 0.0000 25.7166 0.0000 0.0000
# 5 0.0000 0.0000 0.0000 0.0000 25.7377 0.0000
# 6 0.0000 0.0000 0.0000 0.0000 0.0000 29.5677
#
#
#
# Elastic Compliance Matrix: (Units=1/GPa)
#
#
# Indices 1 2 3 4 5 6 
#
# 1 0.018779 -0.002641 -0.007499 0.000000 0.000000 0.000000
# 2 -0.002641 0.023653 -0.005437 0.000000 0.000000 0.000000
# 3 -0.007499 -0.005437 0.013861 0.000000 0.000000 0.000000
# 4 0.000000 0.000000 0.000000 0.038885 0.000000 0.000000
# 5 0.000000 0.000000 0.000000 0.000000 0.038854 0.000000
# 6 0.000000 0.000000 0.000000 0.000000 0.000000 0.033821
#
#
# Mechanical properties :
#
#
# Convention : Reuss Voigt Hill
#
# Bulk Modulus (GPa) = 39.77635 48.30820 44.04228
# Shear Modulus (GPa) = 24.10965 25.44032 24.77499
#
# Velocity S-wave (km/s) = 3.57680 3.67418 3.62582
# Velocity P-wave (km/s) = 6.17777 6.60558 6.39526
#
# Compressibility (1/GPa) = 0.02514057
#
# Stress axis : x y z
#
# Youngs Moduli (GPa) = 53.25029 42.27833 72.14331
#
# Poissons Ratio (x) = 0.11164 0.54102
# Poissons Ratio (y) = 0.14061 0.39221
# Poissons Ratio (z) = 0.39934 0.22985
#
# Static dielectric constant tensor:
#      x y z
#    x 3.489750 0.000000 0.000000 
#    y 0.000000 3.065970 0.000000 
#    z 0.000000 0.000000 3.197440 
# 
# 
# High freq. dielectric constant tensor:
#      x y z
#    x 1.738690 0.000000 0.000000 
#    y 0.000000 1.696090 0.000000 
#    z 0.000000 0.000000 1.717000 
# 
# From -- ./inp_files/8465.got.cif
#   From: 2010.06.25/outbox.cif.g09.slc.cpg/sg52_5_cif.got.tgz:8465.got - 2010.06.26 19:32:48.
