data_PCOD8215562
_publ_section_title
;
Structure prediction by ZEFSAII (Michael W. Deem and Ramdas Pophale) SiO2 
 PCOD8215562
Probable space group: P N N A
;
_chemical_formula_sum "Si O2"
_cell_formula_units_Z 56
_cell_length_a 7.624443
_cell_length_b 21.038544
_cell_length_c 23.334411
_cell_angle_alpha 90.000000
_cell_angle_beta 90.000000
_cell_angle_gamma 90.000000
_cell_volume 3743.007055
_symmetry_space_group_name_H-M "P N N A"
_symmetry_group_IT_number 52
_symmetry_cell_setting 'orthorhombic'
loop_
_space_group_symop_operation_xyz
x,y,z
1/2-x,-y,z
x,1/2-y,1/2-z
1/2-x,1/2+y,1/2-z
-x,-y,-z
1/2+x,y,-z
-x,1/2+y,1/2+z
1/2+x,1/2-y,1/2+z
loop_
_atom_site_type_symbol
_atom_site_label
_atom_site_fract_x
_atom_site_fract_y
_atom_site_fract_z
Si Si1 0.951863 0.885639 0.141893
Si Si2 0.545574 0.500000 0.433874
Si Si3 0.750000 0.660245 0.796370
Si Si4 0.052376 0.572682 0.771069
Si Si5 0.951863 0.114361 0.141893
Si Si6 0.052376 0.072682 0.728931
Si Si7 0.750000 0.204373 0.833704
O O1 0.027099 0.936065 0.095654
O O2 0.750000 0.865535 0.130219
O O3 0.972597 0.918431 0.203393
O O4 0.074034 0.823370 0.136936
O O5 0.750000 0.500000 0.422015
O O6 0.500000 0.500000 0.500000
O O7 0.472901 0.563935 0.404346
O O8 0.577153 0.617802 0.806940
O O9 0.750000 0.719214 0.840676
O O10 0.750000 0.686612 0.732540
O O11 0.922848 0.617802 0.806940
O O12 0.027403 0.581569 0.703393
O O13 0.008814 0.500000 0.786227
O O14 0.250000 0.590480 0.789254
O O15 0.074034 0.176630 0.136936
#
# Coordination Sequence:
#
# PCOD8215562 Si02
#       7
#     8   8   8   8   8   8   8
#     4   9  17  29  41  54  74 102 135 168 209 250
#     4  10  20  30  42  62  80  98 138 187 221 246
#     4   9  17  26  35  60  76  96 137 174 191 243
#     4   9  15  25  41  56  76 105 133 163 202 239
#     4   9  17  29  41  54  74 102 135 168 209 250
#     4   9  15  25  41  56  76 105 133 163 202 239
#     4   9  18  27  40  53  76 103 132 165 214 242
#
# _framework density 14.961233
#
# number of rings (size 3 to 8) (size 9 to 14) (size 15 to 20)
#    0.000    2.857    1.429    0.429    2.000    1.143 
#    0.000    5.714    0.000    0.000    0.000    0.000 
#    0.000    0.000    0.000    0.000    0.000    5.714 
#
# Total GULP energy -694185.366975 kJ/mol
# GULP energy per Si atom -12396.167267 kJ/mol
# Density = 1.492718 g / cm^3
# Si number density = 14.961233 Si / 1000 Ang^3
#
#
#
# Elastic Constant Matrix: (Units=GPa)
#
#
# Indices 1 2 3 4 5 6 
#
# 1 108.0543 77.6429 22.2495 0.0000 0.0000 0.0000
# 2 77.6429 135.5395 36.2793 0.0000 0.0000 0.0000
# 3 22.2495 36.2793 29.6926 0.0000 0.0000 0.0000
# 4 0.0000 0.0000 0.0000 13.1269 0.0000 0.0000
# 5 0.0000 0.0000 0.0000 0.0000 11.9322 0.0000
# 6 0.0000 0.0000 0.0000 0.0000 0.0000 25.6394
#
#
#
# Elastic Compliance Matrix: (Units=1/GPa)
#
#
# Indices 1 2 3 4 5 6 
#
# 1 0.015756 -0.008716 -0.001157 0.000000 0.000000 0.000000
# 2 -0.008716 0.015785 -0.012756 0.000000 0.000000 0.000000
# 3 -0.001157 -0.012756 0.050130 0.000000 0.000000 0.000000
# 4 0.000000 0.000000 0.000000 0.076179 0.000000 0.000000
# 5 0.000000 0.000000 0.000000 0.000000 0.083807 0.000000
# 6 0.000000 0.000000 0.000000 0.000000 0.000000 0.039003
#
#
# Mechanical properties :
#
#
# Convention : Reuss Voigt Hill
#
# Bulk Modulus (GPa) = 27.46157 60.62554 44.04356
# Shear Modulus (GPa) = 14.79053 19.28068 17.03560
#
# Velocity S-wave (km/s) = 3.14760 3.59375 3.37805
# Velocity P-wave (km/s) = 5.62182 7.60459 6.68710
#
# Compressibility (1/GPa) = 0.03641452
#
# Stress axis : x y z
#
# Youngs Moduli (GPa) = 63.46941 63.35145 19.94801
#
# Poissons Ratio (x) = 0.55216 0.02308
# Poissons Ratio (y) = 0.55319 0.25445
# Poissons Ratio (z) = 0.07342 0.80808
#
# Static dielectric constant tensor:
#      x y z
#    x 3.124330 0.000000 0.000000 
#    y 0.000000 3.039200 0.000000 
#    z 0.000000 0.000000 2.338590 
# 
# 
# High freq. dielectric constant tensor:
#      x y z
#    x 1.589750 0.000000 0.000000 
#    y 0.000000 1.568580 0.000000 
#    z 0.000000 0.000000 1.497810 
# 
# From -- ./inp_files/36131.got.cif
#   From: 2010.06.25/outbox.cif.g09.slc.cpg/sg52_19_cif.got.tgz:36131.got - 2010.06.26 19:32:48.
