data_PCOD8215274
_publ_section_title
;
Structure prediction by ZEFSAII (Michael W. Deem and Ramdas Pophale) SiO2 
 PCOD8215274
Probable space group: P N N A
;
_chemical_formula_sum "Si O2"
_cell_formula_units_Z 48
_cell_length_a 11.760418
_cell_length_b 11.718069
_cell_length_c 19.386267
_cell_angle_alpha 90.000000
_cell_angle_beta 90.000000
_cell_angle_gamma 90.000000
_cell_volume 2671.609622
_symmetry_space_group_name_H-M "P N N A"
_symmetry_group_IT_number 52
_symmetry_cell_setting 'orthorhombic'
loop_
_space_group_symop_operation_xyz
x,y,z
1/2-x,-y,z
x,1/2-y,1/2-z
1/2-x,1/2+y,1/2-z
-x,-y,-z
1/2+x,y,-z
-x,1/2+y,1/2+z
1/2+x,1/2-y,1/2+z
loop_
_atom_site_type_symbol
_atom_site_label
_atom_site_fract_x
_atom_site_fract_y
_atom_site_fract_z
Si Si1 0.490026 0.147461 0.471365
Si Si2 0.388649 0.752236 0.860144
Si Si3 0.128720 0.439456 0.744479
Si Si4 0.004437 0.638315 0.796505
Si Si5 0.372452 0.941973 0.415927
Si Si6 0.690328 0.875197 0.414383
O O1 0.504013 0.246403 0.413534
O O2 0.605108 0.143047 0.519193
O O3 0.375927 0.158203 0.515779
O O4 0.477673 0.031327 0.425649
O O5 0.394919 0.655195 0.801947
O O6 0.378384 0.878629 0.829794
O O7 0.280969 0.725094 0.907521
O O8 0.250000 0.500000 0.755308
O O9 0.027256 0.532141 0.745356
O O10 0.992065 0.750000 0.750000
O O11 0.110925 0.639856 0.847841
O O12 0.889518 0.620225 0.841956
O O13 0.250000 0.000000 0.419454
O O14 0.750000 0.000000 0.418466
#
# Coordination Sequence:
#
# PCOD8215274 Si02
#       6
#     8   8   8   8   8   8
#     4  10  19  31  51  82 108 134 168 227 279 315
#     4  11  19  32  53  82 112 133 173 220 275 325
#     4  11  20  32  53  80 109 142 171 221 271 316
#     4  11  20  34  52  77 110 144 178 217 269 323
#     4  10  19  32  52  76 105 135 176 223 267 312
#     4  11  18  30  53  82 113 137 169 223 282 315
#
# _framework density 17.966695999999999
#
# number of rings (size 3 to 8) (size 9 to 14) (size 15 to 20)
#    0.000    1.333    5.000    4.500    0.000    0.667 
#    0.000    1.667    0.000    9.000    0.000    0.000 
#    0.000    0.000    0.000    0.000    0.000    0.000 
#
# Total GULP energy -594671.606198 kJ/mol
# GULP energy per Si atom -12388.991796 kJ/mol
# Density = 1.792580 g / cm^3
# Si number density = 17.966696 Si / 1000 Ang^3
#
#
#
# Elastic Constant Matrix: (Units=GPa)
#
#
# Indices 1 2 3 4 5 6 
#
# 1 74.3871 27.8779 50.3270 0.0000 0.0000 0.0000
# 2 27.8779 80.4052 57.5161 0.0000 0.0000 0.0000
# 3 50.3270 57.5161 118.8190 0.0000 0.0000 0.0000
# 4 0.0000 0.0000 0.0000 30.9560 0.0000 0.0000
# 5 0.0000 0.0000 0.0000 0.0000 14.2311 0.0000
# 6 0.0000 0.0000 0.0000 0.0000 0.0000 11.2664
#
#
#
# Elastic Compliance Matrix: (Units=1/GPa)
#
#
# Indices 1 2 3 4 5 6 
#
# 1 0.018927 -0.001266 -0.007404 0.000000 0.000000 0.000000
# 2 -0.001266 0.019109 -0.008714 0.000000 0.000000 0.000000
# 3 -0.007404 -0.008714 0.015770 0.000000 0.000000 0.000000
# 4 0.000000 0.000000 0.000000 0.032304 0.000000 0.000000
# 5 0.000000 0.000000 0.000000 0.000000 0.070269 0.000000
# 6 0.000000 0.000000 0.000000 0.000000 0.000000 0.088760
#
#
# Mechanical properties :
#
#
# Convention : Reuss Voigt Hill
#
# Bulk Modulus (GPa) = 52.52446 60.56146 56.54296
# Shear Modulus (GPa) = 17.46712 20.48339 18.97526
#
# Velocity S-wave (km/s) = 3.12139 3.38016 3.25335
# Velocity P-wave (km/s) = 6.50296 7.00106 6.75660
#
# Compressibility (1/GPa) = 0.01903875
#
# Stress axis : x y z
#
# Youngs Moduli (GPa) = 52.83537 52.33074 63.41106
#
# Poissons Ratio (x) = 0.06626 0.46948
# Poissons Ratio (y) = 0.06690 0.55255
# Poissons Ratio (z) = 0.39118 0.45600
#
# Static dielectric constant tensor:
#      x y z
#    x 3.246520 0.000000 0.000000 
#    y 0.000000 3.148300 0.000000 
#    z 0.000000 0.000000 3.596670 
# 
# 
# High freq. dielectric constant tensor:
#      x y z
#    x 1.684560 0.000000 0.000000 
#    y 0.000000 1.649060 0.000000 
#    z 0.000000 0.000000 1.706110 
# 
# From -- ./inp_files/36761.got.cif
#   From: 2010.06.25/outbox.cif.g09.slc.cpg/sg52_19_cif.got.tgz:36761.got - 2010.06.26 19:32:48.
