data_PCOD8215029
_publ_section_title
;
Structure prediction by ZEFSAII (Michael W. Deem and Ramdas Pophale) SiO2 
 PCOD8215029
Probable space group: P N N A
;
_chemical_formula_sum "Si O2"
_cell_formula_units_Z 48
_cell_length_a 8.227684
_cell_length_b 16.334761
_cell_length_c 20.483360
_cell_angle_alpha 90.000000
_cell_angle_beta 90.000000
_cell_angle_gamma 90.000000
_cell_volume 2752.907290
_symmetry_space_group_name_H-M "P N N A"
_symmetry_group_IT_number 52
_symmetry_cell_setting 'orthorhombic'
loop_
_space_group_symop_operation_xyz
x,y,z
1/2-x,-y,z
x,1/2-y,1/2-z
1/2-x,1/2+y,1/2-z
-x,-y,-z
1/2+x,y,-z
-x,1/2+y,1/2+z
1/2+x,1/2-y,1/2+z
loop_
_atom_site_type_symbol
_atom_site_label
_atom_site_fract_x
_atom_site_fract_y
_atom_site_fract_z
Si Si1 0.250000 0.000000 0.325658
Si Si2 0.082141 0.473962 0.299591
Si Si3 0.210904 0.164908 0.405400
Si Si4 0.031645 0.288127 0.317152
Si Si5 0.710005 0.824976 0.075146
Si Si6 0.502059 0.268928 0.018322
Si Si7 0.750000 0.000000 0.125950
O O1 0.406144 0.006822 0.276047
O O2 0.282960 0.923162 0.372008
O O3 0.250000 0.500000 0.337344
O O4 0.099784 0.376984 0.302472
O O5 0.913705 0.506392 0.330231
O O6 0.171524 0.234653 0.352093
O O7 0.387217 0.177824 0.436055
O O8 0.078364 0.170390 0.463770
O O9 0.974831 0.250000 0.250000
O O10 0.867678 0.292659 0.358462
O O11 0.869401 0.771523 0.066265
O O12 0.744567 0.921647 0.078814
O O13 0.589738 0.807852 0.014823
#
# Coordination Sequence:
#
# PCOD8215029 Si02
#       7
#     4   8   8   8   8   8   4
#     4  10  20  36  54  80 108 152 182 230 284 330
#     4   9  20  35  53  83 117 143 179 229 281 340
#     4  10  20  36  58  77 109 145 188 227 280 326
#     4  10  17  35  56  78 108 147 177 226 286 331
#     4   9  20  35  56  78 111 142 184 229 274 330
#     4   9  20  38  53  79 106 145 190 227 265 338
#     4  10  20  36  54  86 116 146 180 236 278 332
#
# _framework density 17.436111
#
# number of rings (size 3 to 8) (size 9 to 14) (size 15 to 20)
#    0.500    2.000    1.667    0.000    2.333    1.333 
#    6.000    0.000    0.000    0.000    0.000    0.000 
#    0.000    0.000    0.000    0.000    0.000    0.000 
#
# Total GULP energy -594775.050192 kJ/mol
# GULP energy per Si atom -12391.146879 kJ/mol
# Density = 1.739643 g / cm^3
# Si number density = 17.436111 Si / 1000 Ang^3
#
#
#
# Elastic Constant Matrix: (Units=GPa)
#
#
# Indices 1 2 3 4 5 6 
#
# 1 109.9926 37.1175 34.8114 0.0000 0.0000 0.0000
# 2 37.1175 98.9656 28.9349 0.0000 0.0000 0.0000
# 3 34.8114 28.9349 71.1546 0.0000 0.0000 0.0000
# 4 0.0000 0.0000 0.0000 18.5440 0.0000 0.0000
# 5 0.0000 0.0000 0.0000 0.0000 22.6866 0.0000
# 6 0.0000 0.0000 0.0000 0.0000 0.0000 18.7347
#
#
#
# Elastic Compliance Matrix: (Units=1/GPa)
#
#
# Indices 1 2 3 4 5 6 
#
# 1 0.011505 -0.003030 -0.004397 0.000000 0.000000 0.000000
# 2 -0.003030 0.012266 -0.003506 0.000000 0.000000 0.000000
# 3 -0.004397 -0.003506 0.017631 0.000000 0.000000 0.000000
# 4 0.000000 0.000000 0.000000 0.053926 0.000000 0.000000
# 5 0.000000 0.000000 0.000000 0.000000 0.044079 0.000000
# 6 0.000000 0.000000 0.000000 0.000000 0.000000 0.053377
#
#
# Mechanical properties :
#
#
# Convention : Reuss Voigt Hill
#
# Bulk Modulus (GPa) = 51.18371 53.53781 52.36076
# Shear Modulus (GPa) = 22.60805 23.94300 23.27553
#
# Velocity S-wave (km/s) = 3.60477 3.70967 3.65760
# Velocity P-wave (km/s) = 6.83700 7.00861 6.92334
#
# Compressibility (1/GPa) = 0.01953747
#
# Stress axis : x y z
#
# Youngs Moduli (GPa) = 86.91539 81.52781 56.71965
#
# Poissons Ratio (x) = 0.24700 0.24939
# Poissons Ratio (y) = 0.26332 0.19884
# Poissons Ratio (z) = 0.38216 0.28581
#
# Static dielectric constant tensor:
#      x y z
#    x 3.322440 0.000000 0.000000 
#    y 0.000000 3.132040 0.000000 
#    z 0.000000 0.000000 3.321830 
# 
# 
# High freq. dielectric constant tensor:
#      x y z
#    x 1.672960 0.000000 0.000000 
#    y 0.000000 1.670170 0.000000 
#    z 0.000000 0.000000 1.675600 
# 
# From -- ./inp_files/35923.got.cif
#   From: 2010.06.25/outbox.cif.g09.slc.cpg/sg52_18_cif.got.tgz:35923.got - 2010.06.26 19:32:48.
