data_PCOD8215362
_publ_section_title
;
Structure prediction by ZEFSAII (Michael W. Deem and Ramdas Pophale) SiO2 
 PCOD8215362
Probable space group: P N N A
;
_chemical_formula_sum "Si O2"
_cell_formula_units_Z 52
_cell_length_a 8.331995
_cell_length_b 22.087125
_cell_length_c 14.184934
_cell_angle_alpha 90.000000
_cell_angle_beta 90.000000
_cell_angle_gamma 90.000000
_cell_volume 2610.450781
_symmetry_space_group_name_H-M "P N N A"
_symmetry_group_IT_number 52
_symmetry_cell_setting 'orthorhombic'
loop_
_space_group_symop_operation_xyz
x,y,z
1/2-x,-y,z
x,1/2-y,1/2-z
1/2-x,1/2+y,1/2-z
-x,-y,-z
1/2+x,y,-z
-x,1/2+y,1/2+z
1/2+x,1/2-y,1/2+z
loop_
_atom_site_type_symbol
_atom_site_label
_atom_site_fract_x
_atom_site_fract_y
_atom_site_fract_z
Si Si1 0.939255 0.297371 0.097388
Si Si2 0.348352 0.719666 0.543499
Si Si3 0.684498 0.933252 0.735277
Si Si4 0.098770 0.465765 0.873927
Si Si5 0.355194 0.750000 0.250000
Si Si6 0.657184 0.667803 0.617102
Si Si7 0.086364 0.418286 0.068583
O O1 0.761859 0.267863 0.101163
O O2 0.024357 0.296492 0.199073
O O3 0.943294 0.368442 0.069452
O O4 0.040859 0.259638 0.022947
O O5 0.465530 0.680723 0.611500
O O6 0.238905 0.670847 0.486647
O O7 0.495298 0.930115 0.708009
O O8 0.698552 0.895287 0.831708
O O9 0.776668 0.902356 0.645963
O O10 0.750000 0.000000 0.759109
O O11 0.250000 0.500000 0.828316
O O12 0.971094 0.514827 0.908671
O O13 0.154560 0.422869 0.961189
O O14 0.238253 0.720915 0.324923
#
# Coordination Sequence:
#
# PCOD8215362 Si02
#       7
#     8   8   8   8   4   8   8
#     4  10  20  35  55  87 111 157 192 239 299 364
#     4   9  22  37  58  82 123 150 199 247 310 358
#     4  10  21  38  62  84 116 161 201 250 301 358
#     4  10  21  34  50  86 120 154 194 235 294 355
#     4  10  20  36  60  82 118 148 196 248 304 356
#     4  10  20  42  59  86 118 158 199 258 307 357
#     4  10  19  34  56  79 120 156 189 233 294 364
#
# _framework density 19.919930000000001
#
# number of rings (size 3 to 8) (size 9 to 14) (size 15 to 20)
#    0.000    2.154    1.538    2.308    4.308    1.846 
#    2.769    2.308    0.000    0.000    0.000    0.000 
#    0.000    0.000    0.000    0.000    0.000    0.000 
#
# Total GULP energy -644328.393345 kJ/mol
# GULP energy per Si atom -12390.930641 kJ/mol
# Density = 1.987459 g / cm^3
# Si number density = 19.919930 Si / 1000 Ang^3
#
#
#
# Elastic Constant Matrix: (Units=GPa)
#
#
# Indices 1 2 3 4 5 6 
#
# 1 107.5748 13.6488 30.8421 0.0000 0.0000 0.0000
# 2 13.6488 70.2269 25.3857 0.0000 0.0000 0.0000
# 3 30.8421 25.3857 59.6250 0.0000 0.0000 0.0000
# 4 0.0000 0.0000 0.0000 25.6767 0.0000 0.0000
# 5 0.0000 0.0000 0.0000 0.0000 26.0859 0.0000
# 6 0.0000 0.0000 0.0000 0.0000 0.0000 29.2215
#
#
#
# Elastic Compliance Matrix: (Units=1/GPa)
#
#
# Indices 1 2 3 4 5 6 
#
# 1 0.010915 -0.000095 -0.005606 0.000000 0.000000 0.000000
# 2 -0.000095 0.016831 -0.007117 0.000000 0.000000 0.000000
# 3 -0.005606 -0.007117 0.022701 0.000000 0.000000 0.000000
# 4 0.000000 0.000000 0.000000 0.038946 0.000000 0.000000
# 5 0.000000 0.000000 0.000000 0.000000 0.038335 0.000000
# 6 0.000000 0.000000 0.000000 0.000000 0.000000 0.034221
#
#
# Mechanical properties :
#
#
# Convention : Reuss Voigt Hill
#
# Bulk Modulus (GPa) = 40.30264 41.90889 41.10577
# Shear Modulus (GPa) = 25.52928 27.36682 26.44805
#
# Velocity S-wave (km/s) = 3.58382 3.71056 3.64774
# Velocity P-wave (km/s) = 6.11566 6.28029 6.19852
#
# Compressibility (1/GPa) = 0.02481227
#
# Stress axis : x y z
#
# Youngs Moduli (GPa) = 91.61662 59.41584 44.05105
#
# Poissons Ratio (x) = 0.00565 0.24693
# Poissons Ratio (y) = 0.00871 0.31349
# Poissons Ratio (z) = 0.51356 0.42283
#
# Static dielectric constant tensor:
#      x y z
#    x 3.843710 0.000000 0.000000 
#    y 0.000000 3.430640 0.000000 
#    z 0.000000 0.000000 3.692530 
# 
# 
# High freq. dielectric constant tensor:
#      x y z
#    x 1.784770 0.000000 0.000000 
#    y 0.000000 1.761030 0.000000 
#    z 0.000000 0.000000 1.750820 
# 
# From -- ./inp_files/24896.got.cif
#   From: 2010.06.25/outbox.cif.g09.slc.cpg/sg52_13_cif.got.tgz:24896.got - 2010.06.26 19:32:48.
