data_PCOD8215203
_publ_section_title
;
Structure prediction by ZEFSAII (Michael W. Deem and Ramdas Pophale) SiO2 
 PCOD8215203
Probable space group: P N N A
;
_chemical_formula_sum "Si O2"
_cell_formula_units_Z 64
_cell_length_a 15.661383
_cell_length_b 15.066963
_cell_length_c 12.124254
_cell_angle_alpha 90.000000
_cell_angle_beta 90.000000
_cell_angle_gamma 90.000000
_cell_volume 2860.953890
_symmetry_space_group_name_H-M "P N N A"
_symmetry_group_IT_number 52
_symmetry_cell_setting 'orthorhombic'
loop_
_space_group_symop_operation_xyz
x,y,z
1/2-x,-y,z
x,1/2-y,1/2-z
1/2-x,1/2+y,1/2-z
-x,-y,-z
1/2+x,y,-z
-x,1/2+y,1/2+z
1/2+x,1/2-y,1/2+z
loop_
_atom_site_type_symbol
_atom_site_label
_atom_site_fract_x
_atom_site_fract_y
_atom_site_fract_z
Si Si1 0.476005 0.146992 0.750001
Si Si2 0.735293 0.350331 0.483143
Si Si3 0.891729 0.356195 0.876232
Si Si4 0.291653 0.095362 0.750006
Si Si5 0.049734 0.145603 0.016872
Si Si6 0.608270 0.856190 0.876234
Si Si7 0.735292 0.149656 0.483147
Si Si8 0.950268 0.854405 0.516873
O O1 0.446910 0.250000 0.750000
O O2 0.393266 0.085072 0.750003
O O3 0.531592 0.123896 0.856294
O O4 0.531588 0.123891 0.643708
O O5 0.763812 0.350352 0.356929
O O6 0.642653 0.398138 0.492510
O O7 0.807679 0.394825 0.561229
O O8 0.724164 0.249994 0.524204
O O9 0.891709 0.250003 0.884361
O O10 0.891633 0.389000 0.749998
O O11 0.807678 0.394834 0.938765
O O12 0.976276 0.394972 0.937172
O O13 0.263807 0.149623 0.643066
O O14 0.250000 0.000000 0.750035
O O15 0.052726 0.250004 0.993493
O O16 0.976277 0.105035 0.937173
O O17 0.642651 0.101851 0.492516
#
# Coordination Sequence:
#
# PCOD8215203 Si02
#       8
#     8   8   8   8   8   8   8   8
#     4  10  18  36  60  83 111 144 182 231 281 331
#     4  10  20  35  57  83 110 143 182 231 284 331
#     4   9  17  29  48  80 115 138 167 221 279 330
#     4  12  24  38  56  79 110 152 197 236 271 326
#     4   9  18  30  53  85 111 139 178 223 276 333
#     4   9  17  29  48  80 115 138 167 221 279 330
#     4  10  20  35  57  83 110 143 182 231 284 331
#     4   9  18  30  53  85 111 139 178 223 276 333
#
# _framework density 22.370162000000001
#
# number of rings (size 3 to 8) (size 9 to 14) (size 15 to 20)
#    0.000    2.250    2.500    1.125    3.500    0.000 
#    0.000    1.250    0.000    0.750    0.000    0.000 
#    0.000    0.000    0.000    0.000    0.000    0.000 
#
# Total GULP energy -793460.796663 kJ/mol
# GULP energy per Si atom -12397.824948 kJ/mol
# Density = 2.231925 g / cm^3
# Si number density = 22.370162 Si / 1000 Ang^3
#
#
#
# Elastic Constant Matrix: (Units=GPa)
#
#
# Indices 1 2 3 4 5 6 
#
# 1 229.4224 -4.4416 110.4103 0.0000 0.0000 0.0000
# 2 -4.4416 7.9600 -8.0118 0.0000 0.0000 0.0000
# 3 110.4103 -8.0118 202.7290 0.0000 0.0000 0.0000
# 4 0.0000 0.0000 0.0000 0.5454 0.0000 0.0000
# 5 0.0000 0.0000 0.0000 0.0000 -44.4025 0.0000
# 6 0.0000 0.0000 0.0000 0.0000 0.0000 6.9002
#
#
#
# Elastic Compliance Matrix: (Units=1/GPa)
#
#
# Indices 1 2 3 4 5 6 
#
# 1 0.005907 0.000060 -0.003215 0.000000 0.000000 0.000000
# 2 0.000060 0.130832 0.005138 0.000000 0.000000 0.000000
# 3 -0.003215 0.005138 0.006887 0.000000 0.000000 0.000000
# 4 0.000000 0.000000 0.000000 1.833636 0.000000 0.000000
# 5 0.000000 0.000000 0.000000 0.000000 -0.022521 0.000000
# 6 0.000000 0.000000 0.000000 0.000000 0.000000 0.144924
#
#
# Mechanical properties :
#
#
# Convention : Reuss Voigt Hill
#
# Bulk Modulus (GPa) = 6.77541 70.66948 38.72244
# Shear Modulus (GPa) = 2.33111 15.41891 8.87501
#
# Velocity S-wave (km/s) = 1.02192 2.62823 1.99398
# Velocity P-wave (km/s) = 2.10423 6.39294 4.75907
#
# Compressibility (1/GPa) = 0.14759256
#
# Stress axis : x y z
#
# Youngs Moduli (GPa) = 169.28997 7.64336 145.21139
#
# Poissons Ratio (x) = -0.00046 0.46681
# Poissons Ratio (y) = -0.01024 -0.74603
# Poissons Ratio (z) = 0.54422 -0.03927
#
# Static dielectric constant tensor:
#      x y z
#    x 4.482610 0.000000 0.000000 
#    y 0.000000 3.269590 0.000000 
#    z 0.000000 0.000000 4.067090 
# 
# 
# High freq. dielectric constant tensor:
#      x y z
#    x 1.901410 0.000000 0.000000 
#    y 0.000000 1.822420 0.000000 
#    z 0.000000 0.000000 1.887730 
# 
# From -- ./inp_files/19858.got.cif
#   From: 2010.06.25/outbox.cif.g09.slc.cpg/sg52_10_cif.got.tgz:19858.got - 2010.06.26 19:32:48.
