data_PCOD8215378
_publ_section_title
;
Structure prediction by ZEFSAII (Michael W. Deem and Ramdas Pophale) SiO2 
 PCOD8215378
Probable space group: P N N A
;
_chemical_formula_sum "Si O2"
_cell_formula_units_Z 40
_cell_length_a 7.649019
_cell_length_b 14.034396
_cell_length_c 18.283932
_cell_angle_alpha 90.000000
_cell_angle_beta 90.000000
_cell_angle_gamma 90.000000
_cell_volume 1962.768429
_symmetry_space_group_name_H-M "P N N A"
_symmetry_group_IT_number 52
_symmetry_cell_setting 'orthorhombic'
loop_
_space_group_symop_operation_xyz
x,y,z
1/2-x,-y,z
x,1/2-y,1/2-z
1/2-x,1/2+y,1/2-z
-x,-y,-z
1/2+x,y,-z
-x,1/2+y,1/2+z
1/2+x,1/2-y,1/2+z
loop_
_atom_site_type_symbol
_atom_site_label
_atom_site_fract_x
_atom_site_fract_y
_atom_site_fract_z
Si Si1 0.878554 0.588469 0.947137
Si Si2 0.750000 0.000000 0.036936
Si Si3 0.047962 0.676122 0.090039
Si Si4 0.750000 0.500000 0.708629
Si Si5 0.052876 0.008383 0.681604
Si Si6 0.571501 0.892373 0.912738
O O1 0.750000 0.500000 0.962621
O O2 0.759351 0.672939 0.914104
O O3 0.028259 0.558560 0.889565
O O4 0.969020 0.622542 0.020268
O O5 0.595305 0.037195 0.088805
O O6 0.817799 0.087653 0.986423
O O7 0.994681 0.786053 0.091689
O O8 0.984112 0.619609 0.162189
O O9 0.583981 0.471446 0.757941
O O10 0.694479 0.588567 0.657273
O O11 0.250000 0.000000 0.711302
#
# Coordination Sequence:
#
# PCOD8215378 Si02
#       6
#     8   4   8   4   8   8
#     4  10  19  34  58  96 128 164 197 265 321 364
#     4   9  20  42  60  94 119 162 214 258 329 350
#     4  11  19  35  62  94 128 156 217 262 305 366
#     4  11  24  44  60  84 127 172 202 256 323 384
#     4  11  22  40  62  89 128 171 204 248 325 384
#     4  10  22  38  67  89 125 165 210 270 309 374
#
# _framework density 20.379379
#
# number of rings (size 3 to 8) (size 9 to 14) (size 15 to 20)
#    0.000    1.600    3.000    5.400    1.400    0.800 
#    0.000    0.000    4.400    0.000    0.000    0.000 
#    0.000    0.000    0.000    0.000    0.000    0.000 
#
# Total GULP energy -495921.192969 kJ/mol
# GULP energy per Si atom -12398.029824 kJ/mol
# Density = 2.033299 g / cm^3
# Si number density = 20.379379 Si / 1000 Ang^3
#
#
#
# Elastic Constant Matrix: (Units=GPa)
#
#
# Indices 1 2 3 4 5 6 
#
# 1 141.5837 23.9188 48.0043 0.0000 0.0000 0.0000
# 2 23.9188 73.7087 41.5471 0.0000 0.0000 0.0000
# 3 48.0043 41.5471 93.4483 0.0000 0.0000 0.0000
# 4 0.0000 0.0000 0.0000 4.6371 0.0000 0.0000
# 5 0.0000 0.0000 0.0000 0.0000 40.7067 0.0000
# 6 0.0000 0.0000 0.0000 0.0000 0.0000 18.6928
#
#
#
# Elastic Compliance Matrix: (Units=1/GPa)
#
#
# Indices 1 2 3 4 5 6 
#
# 1 0.008561 -0.000399 -0.004220 0.000000 0.000000 0.000000
# 2 -0.000399 0.018122 -0.007852 0.000000 0.000000 0.000000
# 3 -0.004220 -0.007852 0.016360 0.000000 0.000000 0.000000
# 4 0.000000 0.000000 0.000000 0.215651 0.000000 0.000000
# 5 0.000000 0.000000 0.000000 0.000000 0.024566 0.000000
# 6 0.000000 0.000000 0.000000 0.000000 0.000000 0.053497
#
#
# Mechanical properties :
#
#
# Convention : Reuss Voigt Hill
#
# Bulk Modulus (GPa) = 55.24768 59.52014 57.38391
# Shear Modulus (GPa) = 13.59676 25.82536 19.71106
#
# Velocity S-wave (km/s) = 2.58579 3.56368 3.11337
# Velocity P-wave (km/s) = 6.00696 6.79725 6.41428
#
# Compressibility (1/GPa) = 0.01810031
#
# Stress axis : x y z
#
# Youngs Moduli (GPa) = 116.80379 55.18017 61.12398
#
# Poissons Ratio (x) = 0.02203 0.25797
# Poissons Ratio (y) = 0.04664 0.47995
# Poissons Ratio (z) = 0.49296 0.43328
#
# Static dielectric constant tensor:
#      x y z
#    x 4.055280 0.000000 0.000000 
#    y 0.000000 3.571070 0.000000 
#    z 0.000000 0.000000 3.587540 
# 
# 
# High freq. dielectric constant tensor:
#      x y z
#    x 1.810600 0.000000 0.000000 
#    y 0.000000 1.771140 0.000000 
#    z 0.000000 0.000000 1.783460 
# 
# From -- ./inp_files/31112.got.cif
#   From: 2010.06.25/outbox.cif.g09.slc.cpg/sg52_16_cif.got.tgz:31112.got - 2010.06.26 19:32:48.
