data_PCOD8215520
_publ_section_title
;
Structure prediction by ZEFSAII (Michael W. Deem and Ramdas Pophale) SiO2 
 PCOD8215520
Probable space group: P N N A
;
_chemical_formula_sum "Si O2"
_cell_formula_units_Z 36
_cell_length_a 24.350589
_cell_length_b 7.497188
_cell_length_c 10.127281
_cell_angle_alpha 90.000000
_cell_angle_beta 90.000000
_cell_angle_gamma 90.000000
_cell_volume 1848.845976
_symmetry_space_group_name_H-M "P N N A"
_symmetry_group_IT_number 52
_symmetry_cell_setting 'orthorhombic'
loop_
_space_group_symop_operation_xyz
x,y,z
1/2-x,-y,z
x,1/2-y,1/2-z
1/2-x,1/2+y,1/2-z
-x,-y,-z
1/2+x,y,-z
-x,1/2+y,1/2+z
1/2+x,1/2-y,1/2+z
loop_
_atom_site_type_symbol
_atom_site_label
_atom_site_fract_x
_atom_site_fract_y
_atom_site_fract_z
Si Si1 0.354964 0.901305 0.927495
Si Si2 0.821084 0.250000 0.750000
Si Si3 0.098759 0.457519 0.841104
Si Si4 0.000718 0.250000 0.750000
Si Si5 0.250000 0.000000 0.070209
Si Si6 0.906297 0.258036 0.548100
O O1 0.383548 0.706130 0.937800
O O2 0.355864 0.970612 0.775474
O O3 0.291802 0.889972 0.976553
O O4 0.387864 0.040014 0.019070
O O5 0.782858 0.378976 0.669762
O O6 0.862347 0.158064 0.643913
O O7 0.040021 0.420946 0.771235
O O8 0.092081 0.643390 0.915215
O O9 0.965202 0.272091 0.617572
#
# Coordination Sequence:
#
# PCOD8215520 Si02
#       6
#     8   4   8   4   4   8
#     4   9  21  38  54  82 114 141 194 233 274 342
#     4   9  22  34  58  82 106 144 192 231 282 344
#     4  10  21  37  57  84 113 151 185 232 282 340
#     4   9  20  36  58  86 114 148 194 227 280 344
#     4  10  20  40  54  80 112 144 186 240 278 344
#     4  10  19  39  57  82 115 147 185 239 279 331
#
# _framework density 19.471605
#
# number of rings (size 3 to 8) (size 9 to 14) (size 15 to 20)
#    0.000    2.667    0.000    1.333    3.111    3.556 
#   16.000    4.444    0.000    0.000    0.000    0.000 
#    0.000    0.000    0.000    0.000    0.000    0.000 
#
# Total GULP energy -446105.094346 kJ/mol
# GULP energy per Si atom -12391.808176 kJ/mol
# Density = 1.942729 g / cm^3
# Si number density = 19.471605 Si / 1000 Ang^3
#
#
#
# Elastic Constant Matrix: (Units=GPa)
#
#
# Indices 1 2 3 4 5 6 
#
# 1 124.5247 30.6527 48.4157 0.0000 0.0000 0.0000
# 2 30.6527 51.5655 21.3557 0.0000 0.0000 0.0000
# 3 48.4157 21.3557 93.2258 0.0000 0.0000 0.0000
# 4 0.0000 0.0000 0.0000 29.8592 0.0000 0.0000
# 5 0.0000 0.0000 0.0000 0.0000 141.2395 0.0000
# 6 0.0000 0.0000 0.0000 0.0000 0.0000 14.2137
#
#
#
# Elastic Compliance Matrix: (Units=1/GPa)
#
#
# Indices 1 2 3 4 5 6 
#
# 1 0.010967 -0.004597 -0.004643 0.000000 0.000000 0.000000
# 2 -0.004597 0.023352 -0.002962 0.000000 0.000000 0.000000
# 3 -0.004643 -0.002962 0.013816 0.000000 0.000000 0.000000
# 4 0.000000 0.000000 0.000000 0.033491 0.000000 0.000000
# 5 0.000000 0.000000 0.000000 0.000000 0.007080 0.000000
# 6 0.000000 0.000000 0.000000 0.000000 0.000000 0.070355
#
#
# Mechanical properties :
#
#
# Convention : Reuss Voigt Hill
#
# Bulk Modulus (GPa) = 42.13620 52.24048 47.18834
# Shear Modulus (GPa) = 26.12675 48.32192 37.22433
#
# Velocity S-wave (km/s) = 3.66702 4.98703 4.37707
# Velocity P-wave (km/s) = 6.29413 7.74906 7.05918
#
# Compressibility (1/GPa) = 0.02373256
#
# Stress axis : x y z
#
# Youngs Moduli (GPa) = 91.18175 42.82290 72.37808
#
# Poissons Ratio (x) = 0.19684 0.33603
# Poissons Ratio (y) = 0.41912 0.21440
# Poissons Ratio (z) = 0.42333 0.12685
#
# Static dielectric constant tensor:
#      x y z
#    x 3.980030 0.000000 0.000000 
#    y 0.000000 2.984520 0.000000 
#    z 0.000000 0.000000 3.837730 
# 
# 
# High freq. dielectric constant tensor:
#      x y z
#    x 1.766600 0.000000 0.000000 
#    y 0.000000 1.733680 0.000000 
#    z 0.000000 0.000000 1.768810 
# 
# From -- ./inp_files/14766.got.cif
#   From: 2010.06.25/outbox.cif.g09.slc.cpg/sg52_8_cif.got.tgz:14766.got - 2010.06.26 19:32:48.
