data_PCOD8215976
_publ_section_title
;
Structure prediction by ZEFSAII (Michael W. Deem and Ramdas Pophale) SiO2 
 PCOD8215976
Probable space group: P N N A
;
_chemical_formula_sum "Si O2"
_cell_formula_units_Z 28
_cell_length_a 27.334256
_cell_length_b 5.512323
_cell_length_c 7.471821
_cell_angle_alpha 90.000000
_cell_angle_beta 90.000000
_cell_angle_gamma 90.000000
_cell_volume 1125.818482
_symmetry_space_group_name_H-M "P N N A"
_symmetry_group_IT_number 52
_symmetry_cell_setting 'orthorhombic'
loop_
_space_group_symop_operation_xyz
x,y,z
1/2-x,-y,z
x,1/2-y,1/2-z
1/2-x,1/2+y,1/2-z
-x,-y,-z
1/2+x,y,-z
-x,1/2+y,1/2+z
1/2+x,1/2-y,1/2+z
loop_
_atom_site_type_symbol
_atom_site_label
_atom_site_fract_x
_atom_site_fract_y
_atom_site_fract_z
Si Si1 0.907335 0.250000 0.750000
Si Si2 0.653634 0.380772 0.564117
Si Si3 0.061033 0.379433 0.973972
Si Si4 0.008517 0.750000 0.750000
Si Si5 0.750000 0.000000 0.148915
O O1 0.872290 0.365418 0.599770
O O2 0.941069 0.434850 0.857122
O O3 0.665363 0.250000 0.750000
O O4 0.615760 0.220704 0.444798
O O5 0.704045 0.420573 0.466331
O O6 0.022483 0.191046 0.066426
O O7 0.043396 0.511021 0.790342
O O8 0.764666 0.250000 0.250000
#
# Coordination Sequence:
#
# PCOD8215976 Si02
#       5
#     4   8   8   4   4
#     4  10  20  40  69  96 142 194 253 300 376 456
#     4  10  24  47  75 104 147 200 250 311 387 471
#     4  10  21  41  65 105 142 201 246 312 373 456
#     4  10  20  40  65 102 154 190 257 304 376 454
#     4  12  32  50  78 120 152 188 260 332 404 452
#
# _framework density 24.870795999999999
#
# number of rings (size 3 to 8) (size 9 to 14) (size 15 to 20)
#    0.000    1.714    4.286    0.000   10.000    3.429 
#    0.000    0.000    0.000    0.000    0.000    0.000 
#    0.000    0.000    0.000    0.000    0.000    0.000 
#
# Total GULP energy -346938.680431 kJ/mol
# GULP energy per Si atom -12390.667158 kJ/mol
# Density = 2.481419 g / cm^3
# Si number density = 24.870796 Si / 1000 Ang^3
#
#
#
# Elastic Constant Matrix: (Units=GPa)
#
#
# Indices 1 2 3 4 5 6 
#
# 1 197.5926 54.4718 79.1853 0.0000 0.0000 0.0000
# 2 54.4718 110.6400 48.7340 0.0000 0.0000 0.0000
# 3 79.1853 48.7340 120.8535 0.0000 0.0000 0.0000
# 4 0.0000 0.0000 0.0000 40.5191 0.0000 0.0000
# 5 0.0000 0.0000 0.0000 0.0000 8.5348 0.0000
# 6 0.0000 0.0000 0.0000 0.0000 0.0000 30.9264
#
#
#
# Elastic Compliance Matrix: (Units=1/GPa)
#
#
# Indices 1 2 3 4 5 6 
#
# 1 0.007136 -0.001768 -0.003963 0.000000 0.000000 0.000000
# 2 -0.001768 0.011428 -0.003450 0.000000 0.000000 0.000000
# 3 -0.003963 -0.003450 0.012262 0.000000 0.000000 0.000000
# 4 0.000000 0.000000 0.000000 0.024680 0.000000 0.000000
# 5 0.000000 0.000000 0.000000 0.000000 0.117168 0.000000
# 6 0.000000 0.000000 0.000000 0.000000 0.000000 0.032335
#
#
# Mechanical properties :
#
#
# Convention : Reuss Voigt Hill
#
# Bulk Modulus (GPa) = 80.22376 88.20758 84.21567
# Shear Modulus (GPa) = 21.97541 32.44237 27.20889
#
# Velocity S-wave (km/s) = 2.97574 3.61562 3.31117
# Velocity P-wave (km/s) = 6.64326 7.27829 6.96802
#
# Compressibility (1/GPa) = 0.01246514
#
# Stress axis : x y z
#
# Youngs Moduli (GPa) = 140.12505 87.50121 81.55021
#
# Poissons Ratio (x) = 0.15469 0.32319
# Poissons Ratio (y) = 0.24773 0.28136
# Poissons Ratio (z) = 0.55532 0.30189
#
# Static dielectric constant tensor:
#      x y z
#    x 4.363950 0.000000 0.000000 
#    y 0.000000 5.121250 0.000000 
#    z 0.000000 0.000000 4.479280 
# 
# 
# High freq. dielectric constant tensor:
#      x y z
#    x 1.993110 0.000000 0.000000 
#    y 0.000000 2.002600 0.000000 
#    z 0.000000 0.000000 1.986620 
# 
# From -- ./inp_files/14685.got.cif
#   From: 2010.06.25/outbox.cif.g09.slc.cpg/sg52_8_cif.got.tgz:14685.got - 2010.06.26 19:32:48.
