data_PCOD8215750
_publ_section_title
;
Structure prediction by ZEFSAII (Michael W. Deem and Ramdas Pophale) SiO2 
 PCOD8215750
Probable space group: P N N A
;
_chemical_formula_sum "Si O2"
_cell_formula_units_Z 28
_cell_length_a 11.046117
_cell_length_b 12.122813
_cell_length_c 9.885064
_cell_angle_alpha 90.000000
_cell_angle_beta 90.000000
_cell_angle_gamma 90.000000
_cell_volume 1323.709027
_symmetry_space_group_name_H-M "P N N A"
_symmetry_group_IT_number 52
_symmetry_cell_setting 'orthorhombic'
loop_
_space_group_symop_operation_xyz
x,y,z
1/2-x,-y,z
x,1/2-y,1/2-z
1/2-x,1/2+y,1/2-z
-x,-y,-z
1/2+x,y,-z
-x,1/2+y,1/2+z
1/2+x,1/2-y,1/2+z
loop_
_atom_site_type_symbol
_atom_site_label
_atom_site_fract_x
_atom_site_fract_y
_atom_site_fract_z
Si Si1 0.447485 0.834743 0.940244
Si Si2 0.981348 0.334068 0.141416
Si Si3 0.609019 0.495072 0.687424
Si Si4 0.249884 0.750000 0.750000
O O1 0.328774 0.824831 0.849073
O O2 0.557171 0.884273 0.850410
O O3 0.487055 0.712731 0.992241
O O4 0.416750 0.915338 0.062284
O O5 0.041274 0.250000 0.250000
O O6 0.835387 0.333911 0.163474
O O7 0.040095 0.453029 0.175628
O O8 0.750000 0.500000 0.720828
#
# Coordination Sequence:
#
# PCOD8215750 Si02
#       4
#     8   8   8   4
#     4  10  20  37  63  87 116 166 202 247 316 365
#     4   8  19  38  55  88 124 151 201 264 295 362
#     4  10  20  36  61  90 116 154 211 253 304 376
#     4  10  20  38  58  88 120 162 200 248 316 370
#
# _framework density 21.152687
#
# number of rings (size 3 to 8) (size 9 to 14) (size 15 to 20)
#    0.857    1.714    0.000    1.714    4.000    0.000 
#   12.857    1.429    0.000    0.000    0.000    0.000 
#    0.000    0.000    0.000    0.000    0.000    0.000 
#
# Total GULP energy -346942.601853 kJ/mol
# GULP energy per Si atom -12390.807209 kJ/mol
# Density = 2.110454 g / cm^3
# Si number density = 21.152687 Si / 1000 Ang^3
#
#
#
# Elastic Constant Matrix: (Units=GPa)
#
#
# Indices 1 2 3 4 5 6 
#
# 1 179.9301 51.6288 49.4425 0.0000 0.0000 0.0000
# 2 51.6288 76.3177 52.5887 0.0000 0.0000 0.0000
# 3 49.4425 52.5887 63.0493 0.0000 0.0000 0.0000
# 4 0.0000 0.0000 0.0000 22.3796 0.0000 0.0000
# 5 0.0000 0.0000 0.0000 0.0000 5.8062 0.0000
# 6 0.0000 0.0000 0.0000 0.0000 0.0000 35.5734
#
#
#
# Elastic Compliance Matrix: (Units=1/GPa)
#
#
# Indices 1 2 3 4 5 6 
#
# 1 0.007255 -0.002323 -0.003752 0.000000 0.000000 0.000000
# 2 -0.002323 0.031556 -0.024499 0.000000 0.000000 0.000000
# 3 -0.003752 -0.024499 0.039238 0.000000 0.000000 0.000000
# 4 0.000000 0.000000 0.000000 0.044684 0.000000 0.000000
# 5 0.000000 0.000000 0.000000 0.000000 0.172230 0.000000
# 6 0.000000 0.000000 0.000000 0.000000 0.000000 0.028111
#
#
# Mechanical properties :
#
#
# Convention : Reuss Voigt Hill
#
# Bulk Modulus (GPa) = 59.16869 69.62412 64.39641
# Shear Modulus (GPa) = 12.82525 23.79432 18.30979
#
# Velocity S-wave (km/s) = 2.46502 3.35757 2.94530
# Velocity P-wave (km/s) = 6.01121 6.92947 6.48661
#
# Compressibility (1/GPa) = 0.01690083
#
# Stress axis : x y z
#
# Youngs Moduli (GPa) = 137.83202 31.68939 25.48572
#
# Poissons Ratio (x) = 0.07360 0.09563
# Poissons Ratio (y) = 0.32013 0.62438
# Poissons Ratio (z) = 0.51717 0.77637
#
# Static dielectric constant tensor:
#      x y z
#    x 3.684170 0.000000 0.000000 
#    y 0.000000 3.694040 0.000000 
#    z 0.000000 0.000000 3.742530 
# 
# 
# High freq. dielectric constant tensor:
#      x y z
#    x 1.826780 0.000000 0.000000 
#    y 0.000000 1.803100 0.000000 
#    z 0.000000 0.000000 1.812690 
# 
# From -- ./inp_files/8059.got.cif
#   From: 2010.06.25/outbox.cif.g09.slc.cpg/sg52_5_cif.got.tgz:8059.got - 2010.06.26 19:32:48.
