data_PCOD8215856
_publ_section_title
;
Structure prediction by ZEFSAII (Michael W. Deem and Ramdas Pophale) SiO2 
 PCOD8215856
Probable space group: P N N A
;
_chemical_formula_sum "Si O2"
_cell_formula_units_Z 60
_cell_length_a 15.577241
_cell_length_b 24.952810
_cell_length_c 7.187260
_cell_angle_alpha 90.000000
_cell_angle_beta 90.000000
_cell_angle_gamma 90.000000
_cell_volume 2793.658746
_symmetry_space_group_name_H-M "P N N A"
_symmetry_group_IT_number 52
_symmetry_cell_setting 'orthorhombic'
loop_
_space_group_symop_operation_xyz
x,y,z
1/2-x,-y,z
x,1/2-y,1/2-z
1/2-x,1/2+y,1/2-z
-x,-y,-z
1/2+x,y,-z
-x,1/2+y,1/2+z
1/2+x,1/2-y,1/2+z
loop_
_atom_site_type_symbol
_atom_site_label
_atom_site_fract_x
_atom_site_fract_y
_atom_site_fract_z
Si Si1 0.625580 0.957874 0.570589
Si Si2 0.124771 0.106255 0.979792
Si Si3 0.716163 0.297597 0.380070
Si Si4 0.333619 0.750000 0.250000
Si Si5 0.137954 0.625569 0.772719
Si Si6 0.796027 0.053034 0.972533
Si Si7 0.425677 0.939641 0.610005
Si Si8 0.947347 0.851909 0.667063
O O1 0.668526 0.908627 0.455081
O O2 0.524028 0.952108 0.574584
O O3 0.639771 0.015576 0.471532
O O4 0.661842 0.961084 0.776790
O O5 0.132317 0.164442 0.883085
O O6 0.220963 0.096130 0.054527
O O7 0.091421 0.063235 0.831099
O O8 0.063413 0.108430 0.156084
O O9 0.688028 0.250000 0.250000
O O10 0.729180 0.273197 0.589061
O O11 0.798472 0.327403 0.291376
O O12 0.397225 0.796298 0.323711
O O13 0.133049 0.579879 0.609733
O O14 0.050179 0.655650 0.829315
O O15 0.750000 0.000000 0.056428
O O16 0.408883 0.882475 0.511912
#
# Coordination Sequence:
#
# PCOD8215856 Si02
#       8
#     8   8   8   4   8   8   8   8
#     4  10  22  37  58  89 121 160 206 251 309 377
#     4  10  21  36  58  83 116 156 196 249 305 369
#     4  10  22  38  59  85 117 153 198 253 318 368
#     4  10  22  40  64  88 120 158 214 258 318 386
#     4  10  23  39  60  88 122 159 205 261 313 376
#     4  11  22  35  55  86 123 162 201 248 306 370
#     4  10  20  38  61  86 120 161 203 255 308 369
#     4  10  21  39  63  87 118 160 208 258 311 377
#
# _framework density 21.477212000000002
#
# number of rings (size 3 to 8) (size 9 to 14) (size 15 to 20)
#    0.000    1.867    0.000    3.200    0.933    8.000 
#    0.000    5.333    5.867    0.000    0.000    0.000 
#    0.000    0.000    0.000    0.000    0.000    0.000 
#
# Total GULP energy -743498.005752 kJ/mol
# GULP energy per Si atom -12391.633429 kJ/mol
# Density = 2.142833 g / cm^3
# Si number density = 21.477212 Si / 1000 Ang^3
#
#
#
# Elastic Constant Matrix: (Units=GPa)
#
#
# Indices 1 2 3 4 5 6 
#
# 1 32.0143 15.7927 1.0661 0.0000 0.0000 0.0000
# 2 15.7927 81.3728 6.8595 0.0000 0.0000 0.0000
# 3 1.0661 6.8595 63.9332 0.0000 0.0000 0.0000
# 4 0.0000 0.0000 0.0000 21.4325 0.0000 0.0000
# 5 0.0000 0.0000 0.0000 0.0000 29.6391 0.0000
# 6 0.0000 0.0000 0.0000 0.0000 0.0000 14.5856
#
#
#
# Elastic Compliance Matrix: (Units=1/GPa)
#
#
# Indices 1 2 3 4 5 6 
#
# 1 0.034545 -0.006717 0.000145 0.000000 0.000000 0.000000
# 2 -0.006717 0.013707 -0.001359 0.000000 0.000000 0.000000
# 3 0.000145 -0.001359 0.015785 0.000000 0.000000 0.000000
# 4 0.000000 0.000000 0.000000 0.046658 0.000000 0.000000
# 5 0.000000 0.000000 0.000000 0.000000 0.033739 0.000000
# 6 0.000000 0.000000 0.000000 0.000000 0.000000 0.068561
#
#
# Mechanical properties :
#
#
# Convention : Reuss Voigt Hill
#
# Bulk Modulus (GPa) = 20.75760 24.97301 22.86530
# Shear Modulus (GPa) = 20.41532 23.37156 21.89344
#
# Velocity S-wave (km/s) = 3.08646 3.30237 3.19624
# Velocity P-wave (km/s) = 4.73155 5.11799 4.92856
#
# Compressibility (1/GPa) = 0.04817514
#
# Stress axis : x y z
#
# Youngs Moduli (GPa) = 28.94815 72.95444 63.35251
#
# Poissons Ratio (x) = 0.49000 -0.00916
# Poissons Ratio (y) = 0.19443 0.08608
# Poissons Ratio (z) = -0.00419 0.09912
#
# Static dielectric constant tensor:
#      x y z
#    x 3.612620 0.000000 0.000000 
#    y 0.000000 4.189630 0.000000 
#    z 0.000000 0.000000 3.971160 
# 
# 
# High freq. dielectric constant tensor:
#      x y z
#    x 1.822370 0.000000 0.000000 
#    y 0.000000 1.853120 0.000000 
#    z 0.000000 0.000000 1.850230 
# 
# From -- ./inp_files/3617.got.cif
#   From: 2010.06.25/outbox.cif.g09.slc.cpg/sg52_2_cif.got.tgz:3617.got - 2010.06.26 19:32:48.
