data_PCOD8215980
_publ_section_title
;
Structure prediction by ZEFSAII (Michael W. Deem and Ramdas Pophale) SiO2 
 PCOD8215980
Probable space group: P N N A
;
_chemical_formula_sum "Si O2"
_cell_formula_units_Z 64
_cell_length_a 15.080336
_cell_length_b 17.472965
_cell_length_c 11.656785
_cell_angle_alpha 90.000000
_cell_angle_beta 90.000000
_cell_angle_gamma 90.000000
_cell_volume 3071.541668
_symmetry_space_group_name_H-M "P N N A"
_symmetry_group_IT_number 52
_symmetry_cell_setting 'orthorhombic'
loop_
_space_group_symop_operation_xyz
x,y,z
1/2-x,-y,z
x,1/2-y,1/2-z
1/2-x,1/2+y,1/2-z
-x,-y,-z
1/2+x,y,-z
-x,1/2+y,1/2+z
1/2+x,1/2-y,1/2+z
loop_
_atom_site_type_symbol
_atom_site_label
_atom_site_fract_x
_atom_site_fract_y
_atom_site_fract_z
Si Si1 0.280816 0.173179 0.323825
Si Si2 0.784710 0.415772 0.599577
Si Si3 0.640670 0.324658 0.024402
Si Si4 0.048462 0.859316 0.976814
Si Si5 0.390384 0.161879 0.742759
Si Si6 0.856150 0.652627 0.436956
Si Si7 0.214881 0.085939 0.724557
Si Si8 0.436235 0.180391 0.498391
O O1 0.292428 0.250000 0.250000
O O2 0.272639 0.104126 0.233460
O O3 0.191761 0.177445 0.401980
O O4 0.369418 0.155469 0.397466
O O5 0.750000 0.500000 0.576810
O O6 0.887163 0.408769 0.558907
O O7 0.726144 0.360232 0.521150
O O8 0.647311 0.243291 0.089254
O O9 0.682145 0.392981 0.098285
O O10 0.537252 0.344589 0.018137
O O11 0.056731 0.883186 0.842507
O O12 0.076427 0.771043 0.990173
O O13 0.946816 0.873290 0.004267
O O14 0.415853 0.250000 0.750000
O O15 0.288012 0.146427 0.766649
O O16 0.410575 0.133869 0.613930
O O17 0.858487 0.600908 0.321921
O O18 0.250000 0.000000 0.724823
#
# Coordination Sequence:
#
# PCOD8215980 Si02
#       8
#     8   8   8   8   8   8   8   8
#     4  12  23  42  68  95 135 177 221 279 330 393
#     4  12  26  43  63  97 138 177 216 274 346 405
#     4  11  24  42  72  97 128 177 229 276 333 400
#     4  10  22  39  68  99 132 168 222 282 338 392
#     4  10  20  40  66  92 127 169 218 275 331 395
#     4  11  23  42  69 101 128 172 225 280 331 402
#     4  12  25  42  63  96 136 177 220 272 336 403
#     4  10  22  40  68 101 127 171 232 283 326 391
#
# _framework density 20.836442000000002
#
# number of rings (size 3 to 8) (size 9 to 14) (size 15 to 20)
#    0.000    1.000    5.000    1.500    3.500    1.500 
#    0.000    0.625    0.000    0.000    0.000    0.000 
#    0.000    0.000    0.000    0.000    0.000    0.000 
#
# Total GULP energy -793410.659992 kJ/mol
# GULP energy per Si atom -12397.041562 kJ/mol
# Density = 2.078902 g / cm^3
# Si number density = 20.836442 Si / 1000 Ang^3
#
#
#
# Elastic Constant Matrix: (Units=GPa)
#
#
# Indices 1 2 3 4 5 6 
#
# 1 112.8795 15.5938 40.0729 0.0000 0.0000 0.0000
# 2 15.5938 47.1895 29.5887 0.0000 0.0000 0.0000
# 3 40.0729 29.5887 141.6865 0.0000 0.0000 0.0000
# 4 0.0000 0.0000 0.0000 22.4510 0.0000 0.0000
# 5 0.0000 0.0000 0.0000 0.0000 30.5469 0.0000
# 6 0.0000 0.0000 0.0000 0.0000 0.0000 20.3568
#
#
#
# Elastic Compliance Matrix: (Units=1/GPa)
#
#
# Indices 1 2 3 4 5 6 
#
# 1 0.009973 -0.001757 -0.002454 0.000000 0.000000 0.000000
# 2 -0.001757 0.024694 -0.004660 0.000000 0.000000 0.000000
# 3 -0.002454 -0.004660 0.008725 0.000000 0.000000 0.000000
# 4 0.000000 0.000000 0.000000 0.044542 0.000000 0.000000
# 5 0.000000 0.000000 0.000000 0.000000 0.032737 0.000000
# 6 0.000000 0.000000 0.000000 0.000000 0.000000 0.049124
#
#
# Mechanical properties :
#
#
# Convention : Reuss Voigt Hill
#
# Bulk Modulus (GPa) = 38.98604 52.47404 45.73004
# Shear Modulus (GPa) = 25.49925 29.10427 27.30176
#
# Velocity S-wave (km/s) = 3.50205 3.74143 3.62372
# Velocity P-wave (km/s) = 5.92483 6.62592 6.28516
#
# Compressibility (1/GPa) = 0.02565020
#
# Stress axis : x y z
#
# Youngs Moduli (GPa) = 100.27278 40.49627 114.61400
#
# Poissons Ratio (x) = 0.07115 0.28122
# Poissons Ratio (y) = 0.17618 0.53409
# Poissons Ratio (z) = 0.24604 0.18871
#
# Static dielectric constant tensor:
#      x y z
#    x 3.835310 0.000000 0.000000 
#    y 0.000000 3.441500 0.000000 
#    z 0.000000 0.000000 4.116730 
# 
# 
# High freq. dielectric constant tensor:
#      x y z
#    x 1.823050 0.000000 0.000000 
#    y 0.000000 1.784150 0.000000 
#    z 0.000000 0.000000 1.831600 
# 
# From -- ./inp_files/19870.got.cif
#   From: 2010.06.25/outbox.cif.g09.slc.cpg/sg52_10_cif.got.tgz:19870.got - 2010.06.26 19:32:48.
