data_PCOD8215290
_publ_section_title
;
Structure prediction by ZEFSAII (Michael W. Deem and Ramdas Pophale) SiO2 
 PCOD8215290
Probable space group: P N N A
;
_chemical_formula_sum "Si O2"
_cell_formula_units_Z 64
_cell_length_a 22.169273
_cell_length_b 11.024089
_cell_length_c 14.039312
_cell_angle_alpha 90.000000
_cell_angle_beta 90.000000
_cell_angle_gamma 90.000000
_cell_volume 3431.152238
_symmetry_space_group_name_H-M "P N N A"
_symmetry_group_IT_number 52
_symmetry_cell_setting 'orthorhombic'
loop_
_space_group_symop_operation_xyz
x,y,z
1/2-x,-y,z
x,1/2-y,1/2-z
1/2-x,1/2+y,1/2-z
-x,-y,-z
1/2+x,y,-z
-x,1/2+y,1/2+z
1/2+x,1/2-y,1/2+z
loop_
_atom_site_type_symbol
_atom_site_label
_atom_site_fract_x
_atom_site_fract_y
_atom_site_fract_z
Si Si1 0.887804 0.722920 0.641751
Si Si2 0.755518 0.361680 0.317362
Si Si3 0.153988 0.110134 0.965823
Si Si4 0.505507 0.592265 0.319040
Si Si5 0.967128 0.571581 0.886333
Si Si6 0.540954 0.320704 0.348328
Si Si7 0.552573 0.669446 0.960422
Si Si8 0.623680 0.657383 0.423845
O O1 0.864781 0.750000 0.750000
O O2 0.837157 0.665822 0.572243
O O3 0.908424 0.847603 0.591836
O O4 0.943360 0.628626 0.630124
O O5 0.750000 0.500000 0.270639
O O6 0.732734 0.250000 0.250000
O O7 0.717022 0.369535 0.413565
O O8 0.822765 0.322092 0.348361
O O9 0.104223 0.179542 0.903031
O O10 0.135801 0.969346 0.976738
O O11 0.496418 0.626756 0.209337
O O12 0.517157 0.451285 0.322838
O O13 0.561140 0.662298 0.365983
O O14 0.939688 0.434422 0.878956
O O15 0.022052 0.587939 0.958321
O O16 0.549531 0.250000 0.250000
O O17 0.491367 0.270336 0.419890
O O18 0.614565 0.734139 0.997649
#
# Coordination Sequence:
#
# PCOD8215290 Si02
#       8
#     8   8   8   8   8   8   8   8
#     4  10  19  33  55  81 107 142 182 227 281 342
#     4  10  23  42  60  87 114 152 200 243 288 340
#     4  10  20  38  55  79 110 147 193 234 279 338
#     4  10  19  32  52  80 111 143 182 222 273 349
#     4  10  20  31  46  79 117 143 173 225 278 341
#     4  11  19  31  51  76 111 149 178 221 279 336
#     4  11  20  32  48  80 113 146 179 223 283 341
#     4  10  21  35  60  79 109 151 189 232 285 343
#
# _framework density 18.652626000000001
#
# number of rings (size 3 to 8) (size 9 to 14) (size 15 to 20)
#    0.000    1.750    3.750    1.125    1.750    2.000 
#    2.250    0.000    0.000    0.750    6.500    0.000 
#    0.000    0.000    0.000    0.000    0.000    0.000 
#
# Total GULP energy -792890.797013 kJ/mol
# GULP energy per Si atom -12388.918703 kJ/mol
# Density = 1.861017 g / cm^3
# Si number density = 18.652626 Si / 1000 Ang^3
#
#
#
# Elastic Constant Matrix: (Units=GPa)
#
#
# Indices 1 2 3 4 5 6 
#
# 1 36.8313 13.4718 28.6046 0.0000 0.0000 0.0000
# 2 13.4718 64.2480 29.9950 0.0000 0.0000 0.0000
# 3 28.6046 29.9950 67.4400 0.0000 0.0000 0.0000
# 4 0.0000 0.0000 0.0000 31.3234 0.0000 0.0000
# 5 0.0000 0.0000 0.0000 0.0000 19.6681 0.0000
# 6 0.0000 0.0000 0.0000 0.0000 0.0000 22.3611
#
#
#
# Elastic Compliance Matrix: (Units=1/GPa)
#
#
# Indices 1 2 3 4 5 6 
#
# 1 0.040506 -0.000596 -0.016915 0.000000 0.000000 0.000000
# 2 -0.000596 0.019652 -0.008488 0.000000 0.000000 0.000000
# 3 -0.016915 -0.008488 0.025778 0.000000 0.000000 0.000000
# 4 0.000000 0.000000 0.000000 0.031925 0.000000 0.000000
# 5 0.000000 0.000000 0.000000 0.000000 0.050844 0.000000
# 6 0.000000 0.000000 0.000000 0.000000 0.000000 0.044721
#
#
# Mechanical properties :
#
#
# Convention : Reuss Voigt Hill
#
# Bulk Modulus (GPa) = 29.46617 34.74023 32.10320
# Shear Modulus (GPa) = 18.06770 21.10036 19.58403
#
# Velocity S-wave (km/s) = 3.11568 3.36702 3.24378
# Velocity P-wave (km/s) = 5.36422 5.81215 5.59267
#
# Compressibility (1/GPa) = 0.03393722
#
# Stress axis : x y z
#
# Youngs Moduli (GPa) = 24.68765 50.88449 38.79321
#
# Poissons Ratio (x) = 0.03034 0.65620
# Poissons Ratio (y) = 0.01472 0.32927
# Poissons Ratio (z) = 0.41760 0.43190
#
# Static dielectric constant tensor:
#      x y z
#    x 3.206620 0.000000 0.000000 
#    y 0.000000 3.873210 0.000000 
#    z 0.000000 0.000000 3.535210 
# 
# 
# High freq. dielectric constant tensor:
#      x y z
#    x 1.681160 0.000000 0.000000 
#    y 0.000000 1.744390 0.000000 
#    z 0.000000 0.000000 1.721520 
# 
# From -- ./inp_files/28316.got.cif
#   From: 2010.06.25/outbox.cif.g09.slc.cpg/sg52_15_cif.got.tgz:28316.got - 2010.06.26 19:32:48.
