data_PCOD8215125
_publ_section_title
;
Structure prediction by ZEFSAII (Michael W. Deem and Ramdas Pophale) SiO2 
 PCOD8215125
Probable space group: P N N A
;
_chemical_formula_sum "Si O2"
_cell_formula_units_Z 44
_cell_length_a 11.664129
_cell_length_b 11.485124
_cell_length_c 17.702524
_cell_angle_alpha 90.000000
_cell_angle_beta 90.000000
_cell_angle_gamma 90.000000
_cell_volume 2371.500357
_symmetry_space_group_name_H-M "P N N A"
_symmetry_group_IT_number 52
_symmetry_cell_setting 'orthorhombic'
loop_
_space_group_symop_operation_xyz
x,y,z
1/2-x,-y,z
x,1/2-y,1/2-z
1/2-x,1/2+y,1/2-z
-x,-y,-z
1/2+x,y,-z
-x,1/2+y,1/2+z
1/2+x,1/2-y,1/2+z
loop_
_atom_site_type_symbol
_atom_site_label
_atom_site_fract_x
_atom_site_fract_y
_atom_site_fract_z
Si Si1 0.829733 0.613215 0.110972
Si Si2 0.839970 0.831817 0.818788
Si Si3 0.795036 0.824441 0.548910
Si Si4 0.409272 0.052457 0.394109
Si Si5 0.597512 0.926027 0.778786
Si Si6 0.596277 0.250000 0.250000
O O1 0.750000 0.500000 0.119771
O O2 0.823228 0.690732 0.187036
O O3 0.957373 0.570605 0.094464
O O4 0.793245 0.697271 0.041413
O O5 0.884308 0.750000 0.750000
O O6 0.856668 0.774905 0.901522
O O7 0.705192 0.854326 0.808513
O O8 0.913846 0.950829 0.822359
O O9 0.663143 0.837408 0.575433
O O10 0.868274 0.941217 0.559882
O O11 0.378423 0.037109 0.306893
O O12 0.484094 0.847897 0.789218
#
# Coordination Sequence:
#
# PCOD8215125 Si02
#       6
#     8   8   8   8   8   4
#     4  11  23  38  60  79 109 153 199 239 278 330
#     4  11  16  28  53  93 122 140 176 227 298 354
#     4  11  19  31  56  91 116 138 178 246 288 337
#     4  10  18  33  57  86 115 138 185 233 295 329
#     4  10  18  32  57  83 118 154 177 226 293 356
#     4  10  22  42  56  74 110 162 200 236 284 334
#
# _framework density 18.553656
#
# number of rings (size 3 to 8) (size 9 to 14) (size 15 to 20)
#    0.000    1.455    6.364    2.727    0.000    0.000 
#    0.000    4.545    4.000    0.000    0.000    0.000 
#    0.000    0.000    0.000    0.000    0.000    0.000 
#
# Total GULP energy -545431.889673 kJ/mol
# GULP energy per Si atom -12396.179311 kJ/mol
# Density = 1.851143 g / cm^3
# Si number density = 18.553656 Si / 1000 Ang^3
#
#
#
# Elastic Constant Matrix: (Units=GPa)
#
#
# Indices 1 2 3 4 5 6 
#
# 1 75.2342 26.8080 32.6014 0.0000 0.0000 0.0000
# 2 26.8080 103.3542 53.0686 0.0000 0.0000 0.0000
# 3 32.6014 53.0686 126.2974 0.0000 0.0000 0.0000
# 4 0.0000 0.0000 0.0000 28.8018 0.0000 0.0000
# 5 0.0000 0.0000 0.0000 0.0000 -0.4905 0.0000
# 6 0.0000 0.0000 0.0000 0.0000 0.0000 20.1152
#
#
#
# Elastic Compliance Matrix: (Units=1/GPa)
#
#
# Indices 1 2 3 4 5 6 
#
# 1 0.015456 -0.002500 -0.002939 0.000000 0.000000 0.000000
# 2 -0.002500 0.012742 -0.004709 0.000000 0.000000 0.000000
# 3 -0.002939 -0.004709 0.010655 0.000000 0.000000 0.000000
# 4 0.000000 0.000000 0.000000 0.034720 0.000000 0.000000
# 5 0.000000 0.000000 0.000000 0.000000 -2.038606 0.000000
# 6 0.000000 0.000000 0.000000 0.000000 0.000000 0.049714
#
#
# Mechanical properties :
#
#
# Convention : Reuss Voigt Hill
#
# Bulk Modulus (GPa) = 53.88680 58.87130 56.37905
# Shear Modulus (GPa) = -2.64713 22.51249 9.93268
#
# Velocity S-wave (km/s) = -1.19576 3.48713 2.31627
# Velocity P-wave (km/s) = 5.21540 6.92911 6.13241
#
# Compressibility (1/GPa) = 0.01855742
#
# Stress axis : x y z
#
# Youngs Moduli (GPa) = 64.69856 78.48353 93.85220
#
# Poissons Ratio (x) = 0.19619 0.27587
# Poissons Ratio (y) = 0.16173 0.44191
# Poissons Ratio (z) = 0.19017 0.36954
#
# Static dielectric constant tensor:
#      x y z
#    x 3.225030 0.000000 0.000000 
#    y 0.000000 3.463550 0.000000 
#    z 0.000000 0.000000 3.548340 
# 
# 
# High freq. dielectric constant tensor:
#      x y z
#    x 1.695200 0.000000 0.000000 
#    y 0.000000 1.708920 0.000000 
#    z 0.000000 0.000000 1.716170 
# 
# From -- ./inp_files/32162.got.cif
#   From: 2010.06.25/outbox.cif.g09.slc.cpg/sg52_17_cif.got.tgz:32162.got - 2010.06.26 19:32:48.
