data_PCOD8215366
_publ_section_title
;
Structure prediction by ZEFSAII (Michael W. Deem and Ramdas Pophale) SiO2 
 PCOD8215366
Probable space group: P N N A
;
_chemical_formula_sum "Si O2"
_cell_formula_units_Z 40
_cell_length_a 9.138744
_cell_length_b 19.553760
_cell_length_c 11.847388
_cell_angle_alpha 90.000000
_cell_angle_beta 90.000000
_cell_angle_gamma 90.000000
_cell_volume 2117.090405
_symmetry_space_group_name_H-M "P N N A"
_symmetry_group_IT_number 52
_symmetry_cell_setting 'orthorhombic'
loop_
_space_group_symop_operation_xyz
x,y,z
1/2-x,-y,z
x,1/2-y,1/2-z
1/2-x,1/2+y,1/2-z
-x,-y,-z
1/2+x,y,-z
-x,1/2+y,1/2+z
1/2+x,1/2-y,1/2+z
loop_
_atom_site_type_symbol
_atom_site_label
_atom_site_fract_x
_atom_site_fract_y
_atom_site_fract_z
Si Si1 0.674024 0.768335 0.584328
Si Si2 0.889097 0.138237 0.775973
Si Si3 0.001729 0.768690 0.877162
Si Si4 0.392695 0.535189 0.647541
Si Si5 0.609671 0.083976 0.900072
O O1 0.634504 0.839551 0.646139
O O2 0.595613 0.705415 0.647080
O O3 0.623573 0.767308 0.454852
O O4 0.847252 0.762755 0.589174
O O5 0.753648 0.093518 0.823535
O O6 0.041423 0.096816 0.778145
O O7 0.043845 0.750000 0.750000
O O8 0.996691 0.850275 0.894751
O O9 0.250000 0.500000 0.703969
O O10 0.520652 0.480111 0.644031
O O11 0.342473 0.567287 0.527918
#
# Coordination Sequence:
#
# PCOD8215366 Si02
#       5
#     8   8   8   8   8
#     4  10  21  38  61  86 119 163 197 243 307 361
#     4  10  19  38  55  83 126 156 187 240 310 364
#     4  11  21  40  61  89 123 158 202 248 303 361
#     4  11  21  31  56  91 122 151 200 252 296 356
#     4  10  19  34  56  84 122 160 190 241 307 359
#
# _framework density 18.893856
#
# number of rings (size 3 to 8) (size 9 to 14) (size 15 to 20)
#    0.000    1.600    6.000    3.000    2.800    0.000 
#    7.200    0.000    0.000    1.200    0.000    0.000 
#    0.000    0.000    0.000    0.000    0.000    0.000 
#
# Total GULP energy -495930.578903 kJ/mol
# GULP energy per Si atom -12398.264473 kJ/mol
# Density = 1.885085 g / cm^3
# Si number density = 18.893856 Si / 1000 Ang^3
#
#
#
# Elastic Constant Matrix: (Units=GPa)
#
#
# Indices 1 2 3 4 5 6 
#
# 1 46.8374 30.5135 47.9180 0.0000 0.0000 0.0000
# 2 30.5135 77.2489 38.3502 0.0000 0.0000 0.0000
# 3 47.9180 38.3502 118.4173 0.0000 0.0000 0.0000
# 4 0.0000 0.0000 0.0000 26.6167 0.0000 0.0000
# 5 0.0000 0.0000 0.0000 0.0000 24.1334 0.0000
# 6 0.0000 0.0000 0.0000 0.0000 0.0000 29.6076
#
#
#
# Elastic Compliance Matrix: (Units=1/GPa)
#
#
# Indices 1 2 3 4 5 6 
#
# 1 0.041703 -0.009646 -0.013752 0.000000 0.000000 0.000000
# 2 -0.009646 0.017656 -0.001815 0.000000 0.000000 0.000000
# 3 -0.013752 -0.001815 0.014597 0.000000 0.000000 0.000000
# 4 0.000000 0.000000 0.000000 0.037570 0.000000 0.000000
# 5 0.000000 0.000000 0.000000 0.000000 0.041436 0.000000
# 6 0.000000 0.000000 0.000000 0.000000 0.000000 0.033775
#
#
# Mechanical properties :
#
#
# Convention : Reuss Voigt Hill
#
# Bulk Modulus (GPa) = 42.49515 52.89632 47.69574
# Shear Modulus (GPa) = 20.40755 24.45300 22.43027
#
# Velocity S-wave (km/s) = 3.29008 3.60144 3.44928
# Velocity P-wave (km/s) = 6.08056 6.73433 6.41578
#
# Compressibility (1/GPa) = 0.02353210
#
# Stress axis : x y z
#
# Youngs Moduli (GPa) = 23.97884 56.63694 68.50694
#
# Poissons Ratio (x) = 0.54632 0.94208
# Poissons Ratio (y) = 0.23130 0.12433
# Poissons Ratio (z) = 0.32975 0.10279
#
# Static dielectric constant tensor:
#      x y z
#    x 3.359240 0.000000 0.000000 
#    y 0.000000 3.682200 0.000000 
#    z 0.000000 0.000000 3.300700 
# 
# 
# High freq. dielectric constant tensor:
#      x y z
#    x 1.734470 0.000000 0.000000 
#    y 0.000000 1.736550 0.000000 
#    z 0.000000 0.000000 1.697660 
# 
# From -- ./inp_files/16626.got.cif
#   From: 2010.06.25/outbox.cif.g09.slc.cpg/sg52_9_cif.got.tgz:16626.got - 2010.06.26 19:32:48.
