data_PCOD8215103
_publ_section_title
;
Structure prediction by ZEFSAII (Michael W. Deem and Ramdas Pophale) SiO2 
 PCOD8215103
Probable space group: P N N A
;
_chemical_formula_sum "Si O2"
_cell_formula_units_Z 60
_cell_length_a 14.697536
_cell_length_b 15.797801
_cell_length_c 13.394189
_cell_angle_alpha 90.000000
_cell_angle_beta 90.000000
_cell_angle_gamma 90.000000
_cell_volume 3109.979987
_symmetry_space_group_name_H-M "P N N A"
_symmetry_group_IT_number 52
_symmetry_cell_setting 'orthorhombic'
loop_
_space_group_symop_operation_xyz
x,y,z
1/2-x,-y,z
x,1/2-y,1/2-z
1/2-x,1/2+y,1/2-z
-x,-y,-z
1/2+x,y,-z
-x,1/2+y,1/2+z
1/2+x,1/2-y,1/2+z
loop_
_atom_site_type_symbol
_atom_site_label
_atom_site_fract_x
_atom_site_fract_y
_atom_site_fract_z
Si Si1 0.769635 0.907733 0.629670
Si Si2 0.250000 0.000000 0.047103
Si Si3 0.400446 0.277105 0.362914
Si Si4 0.965594 0.556838 0.869565
Si Si5 0.084262 0.888956 0.458251
Si Si6 0.288798 0.663009 0.337430
Si Si7 0.988561 0.828882 0.812392
Si Si8 0.068521 0.921800 0.996039
O O1 0.871529 0.905353 0.583720
O O2 0.694422 0.890922 0.544565
O O3 0.760646 0.841171 0.720275
O O4 0.750000 0.000000 0.676949
O O5 0.203086 0.070161 0.115927
O O6 0.329682 0.041630 0.980049
O O7 0.424100 0.250000 0.250000
O O8 0.447083 0.205213 0.430420
O O9 0.291137 0.280821 0.386273
O O10 0.439621 0.368388 0.399455
O O11 0.960201 0.454884 0.878611
O O12 0.975793 0.587078 0.755794
O O13 0.051669 0.591231 0.930548
O O14 0.389066 0.703699 0.350250
O O15 0.032370 0.750000 0.750000
O O16 0.050520 0.856778 0.904992
O O17 0.000000 0.000000 0.000000
#
# Coordination Sequence:
#
# PCOD8215103 Si02
#       8
#     8   4   8   8   8   8   8   8
#     4   9  16  28  53  79 109 138 187 237 299 350
#     4  10  20  38  62  90 120 154 208 252 312 366
#     4  11  22  33  57  89 123 148 194 258 318 357
#     4   9  21  34  58  80 116 159 201 243 295 371
#     4  10  19  36  52  85 117 153 193 246 307 358
#     4  10  18  31  56  92 115 149 188 262 313 361
#     4  11  22  37  59  89 126 161 209 250 306 369
#     4  11  24  40  63  92 124 168 206 254 313 379
#
# _framework density 19.292729000000001
#
# number of rings (size 3 to 8) (size 9 to 14) (size 15 to 20)
#    0.000    1.867    3.333    1.200    3.733    0.000 
#    0.000    0.000    7.333    0.800    0.000    0.000 
#    0.000    0.000    0.000    0.000    0.000    0.000 
#
# Total GULP energy -743490.716916 kJ/mol
# GULP energy per Si atom -12391.511949 kJ/mol
# Density = 1.924882 g / cm^3
# Si number density = 19.292729 Si / 1000 Ang^3
#
#
#
# Elastic Constant Matrix: (Units=GPa)
#
#
# Indices 1 2 3 4 5 6 
#
# 1 98.4039 30.6286 47.7483 0.0000 0.0000 0.0000
# 2 30.6286 106.8910 33.7781 0.0000 0.0000 0.0000
# 3 47.7483 33.7781 73.0087 0.0000 0.0000 0.0000
# 4 0.0000 0.0000 0.0000 35.4179 0.0000 0.0000
# 5 0.0000 0.0000 0.0000 0.0000 28.3221 0.0000
# 6 0.0000 0.0000 0.0000 0.0000 0.0000 26.0878
#
#
#
# Elastic Compliance Matrix: (Units=1/GPa)
#
#
# Indices 1 2 3 4 5 6 
#
# 1 0.015065 -0.001409 -0.009201 0.000000 0.000000 0.000000
# 2 -0.001409 0.011089 -0.004209 0.000000 0.000000 0.000000
# 3 -0.009201 -0.004209 0.021662 0.000000 0.000000 0.000000
# 4 0.000000 0.000000 0.000000 0.028234 0.000000 0.000000
# 5 0.000000 0.000000 0.000000 0.000000 0.035308 0.000000
# 6 0.000000 0.000000 0.000000 0.000000 0.000000 0.038332
#
#
# Mechanical properties :
#
#
# Convention : Reuss Voigt Hill
#
# Bulk Modulus (GPa) = 55.01071 55.84596 55.42833
# Shear Modulus (GPa) = 26.97046 29.04213 28.00629
#
# Velocity S-wave (km/s) = 3.74299 3.88408 3.81419
# Velocity P-wave (km/s) = 6.87427 7.00887 6.94189
#
# Compressibility (1/GPa) = 0.01817828
#
# Stress axis : x y z
#
# Youngs Moduli (GPa) = 66.37748 90.17829 46.16455
#
# Poissons Ratio (x) = 0.12709 0.42475
# Poissons Ratio (y) = 0.09355 0.19430
# Poissons Ratio (z) = 0.61073 0.37954
#
# Static dielectric constant tensor:
#      x y z
#    x 3.478180 0.000000 0.000000 
#    y 0.000000 3.840870 0.000000 
#    z 0.000000 0.000000 3.227030 
# 
# 
# High freq. dielectric constant tensor:
#      x y z
#    x 1.732080 0.000000 0.000000 
#    y 0.000000 1.780030 0.000000 
#    z 0.000000 0.000000 1.709390 
# 
# From -- ./inp_files/19811.got.cif
#   From: 2010.06.25/outbox.cif.g09.slc.cpg/sg52_10_cif.got.tgz:19811.got - 2010.06.26 19:32:48.
