data_PCOD8215895
_publ_section_title
;
Structure prediction by ZEFSAII (Michael W. Deem and Ramdas Pophale) SiO2 
 PCOD8215895
Probable space group: P N N A
;
_chemical_formula_sum "Si O2"
_cell_formula_units_Z 32
_cell_length_a 9.156212
_cell_length_b 15.840687
_cell_length_c 10.110869
_cell_angle_alpha 90.000000
_cell_angle_beta 90.000000
_cell_angle_gamma 90.000000
_cell_volume 1466.487400
_symmetry_space_group_name_H-M "P N N A"
_symmetry_group_IT_number 52
_symmetry_cell_setting 'orthorhombic'
loop_
_space_group_symop_operation_xyz
x,y,z
1/2-x,-y,z
x,1/2-y,1/2-z
1/2-x,1/2+y,1/2-z
-x,-y,-z
1/2+x,y,-z
-x,1/2+y,1/2+z
1/2+x,1/2-y,1/2+z
loop_
_atom_site_type_symbol
_atom_site_label
_atom_site_fract_x
_atom_site_fract_y
_atom_site_fract_z
Si Si1 0.021667 0.682862 0.861209
Si Si2 0.160963 0.258623 0.892206
Si Si3 0.365349 0.926925 0.924810
Si Si4 0.915346 0.524942 0.711379
O O1 0.971171 0.750000 0.750000
O O2 0.974922 0.587920 0.823315
O O3 0.195746 0.683080 0.881509
O O4 0.948645 0.704788 0.000652
O O5 0.079909 0.250000 0.750000
O O6 0.214065 0.163186 0.921506
O O7 0.250000 0.000000 0.904508
O O8 0.486572 0.939562 0.806992
O O9 0.436761 0.929850 0.069969
O O10 0.750000 0.500000 0.746062
#
# Coordination Sequence:
#
# PCOD8215895 Si02
#       4
#     8   8   8   8
#     4  11  23  44  64  98 135 173 226 280 331 397
#     4  11  25  40  65  96 133 174 221 276 333 396
#     4  10  20  38  65  99 129 171 223 274 335 399
#     4  10  22  39  68  96 132 174 222 276 335 402
#
# _framework density 21.820848999999999
#
# number of rings (size 3 to 8) (size 9 to 14) (size 15 to 20)
#    0.000    1.500    2.500    3.000    7.000    3.000 
#    0.000    6.250    0.000    0.000    0.000    0.000 
#    0.000    0.000    0.000    0.000    0.000    0.000 
#
# Total GULP energy -396626.749768 kJ/mol
# GULP energy per Si atom -12394.585930 kJ/mol
# Density = 2.177118 g / cm^3
# Si number density = 21.820849 Si / 1000 Ang^3
#
#
#
# Elastic Constant Matrix: (Units=GPa)
#
#
# Indices 1 2 3 4 5 6 
#
# 1 89.7755 9.9943 34.0548 0.0000 0.0000 0.0000
# 2 9.9943 70.3169 16.6492 0.0000 0.0000 0.0000
# 3 34.0548 16.6492 136.2072 0.0000 0.0000 0.0000
# 4 0.0000 0.0000 0.0000 23.6026 0.0000 0.0000
# 5 0.0000 0.0000 0.0000 0.0000 29.2543 0.0000
# 6 0.0000 0.0000 0.0000 0.0000 0.0000 35.8466
#
#
#
# Elastic Compliance Matrix: (Units=1/GPa)
#
#
# Indices 1 2 3 4 5 6 
#
# 1 0.012382 -0.001057 -0.002966 0.000000 0.000000 0.000000
# 2 -0.001057 0.014736 -0.001537 0.000000 0.000000 0.000000
# 3 -0.002966 -0.001537 0.008271 0.000000 0.000000 0.000000
# 4 0.000000 0.000000 0.000000 0.042368 0.000000 0.000000
# 5 0.000000 0.000000 0.000000 0.000000 0.034183 0.000000
# 6 0.000000 0.000000 0.000000 0.000000 0.000000 0.027897
#
#
# Mechanical properties :
#
#
# Convention : Reuss Voigt Hill
#
# Bulk Modulus (GPa) = 41.20791 46.41069 43.80930
# Shear Modulus (GPa) = 31.43722 33.44745 32.44234
#
# Velocity S-wave (km/s) = 3.79977 3.91937 3.86003
# Velocity P-wave (km/s) = 6.17872 6.46507 6.32352
#
# Compressibility (1/GPa) = 0.02426718
#
# Stress axis : x y z
#
# Youngs Moduli (GPa) = 80.76296 67.86327 120.90012
#
# Poissons Ratio (x) = 0.07176 0.35865
# Poissons Ratio (y) = 0.08541 0.18580
# Poissons Ratio (z) = 0.23958 0.10429
#
# Static dielectric constant tensor:
#      x y z
#    x 3.870060 0.000000 0.000000 
#    y 0.000000 3.996720 0.000000 
#    z 0.000000 0.000000 4.038980 
# 
# 
# High freq. dielectric constant tensor:
#      x y z
#    x 1.853880 0.000000 0.000000 
#    y 0.000000 1.854770 0.000000 
#    z 0.000000 0.000000 1.850340 
# 
# From -- ./inp_files/16491.got.cif
#   From: 2010.06.25/outbox.cif.g09.slc.cpg/sg52_9_cif.got.tgz:16491.got - 2010.06.26 19:32:48.
