data_PCOD8215344
_publ_section_title
;
Structure prediction by ZEFSAII (Michael W. Deem and Ramdas Pophale) SiO2 
 PCOD8215344
Probable space group: P N N A
;
_chemical_formula_sum "Si O2"
_cell_formula_units_Z 56
_cell_length_a 12.235686
_cell_length_b 17.404540
_cell_length_c 13.401124
_cell_angle_alpha 90.000000
_cell_angle_beta 90.000000
_cell_angle_gamma 90.000000
_cell_volume 2853.856281
_symmetry_space_group_name_H-M "P N N A"
_symmetry_group_IT_number 52
_symmetry_cell_setting 'orthorhombic'
loop_
_space_group_symop_operation_xyz
x,y,z
1/2-x,-y,z
x,1/2-y,1/2-z
1/2-x,1/2+y,1/2-z
-x,-y,-z
1/2+x,y,-z
-x,1/2+y,1/2+z
1/2+x,1/2-y,1/2+z
loop_
_atom_site_type_symbol
_atom_site_label
_atom_site_fract_x
_atom_site_fract_y
_atom_site_fract_z
Si Si1 0.795603 0.266902 0.861601
Si Si2 0.051674 0.896528 0.419246
Si Si3 0.649007 0.189271 0.329666
Si Si4 0.708052 0.579347 0.296341
Si Si5 0.520758 0.553114 0.140437
Si Si6 0.048019 0.287263 0.151248
Si Si7 0.342467 0.282513 0.564436
O O1 0.837842 0.250000 0.750000
O O2 0.666453 0.255151 0.871163
O O3 0.837848 0.351885 0.890136
O O4 0.835174 0.205459 0.944786
O O5 0.945100 0.841348 0.404298
O O6 0.066182 0.929475 0.529978
O O7 0.039668 0.971511 0.349254
O O8 0.599129 0.250000 0.250000
O O9 0.695013 0.119173 0.264807
O O10 0.745572 0.228286 0.394101
O O11 0.750000 0.500000 0.347274
O O12 0.618154 0.554645 0.217726
O O13 0.658363 0.635140 0.381407
O O14 0.437166 0.621506 0.166152
O O15 0.996847 0.250000 0.250000
O O16 0.957215 0.263894 0.070142
#
# Coordination Sequence:
#
# PCOD8215344 Si02
#       7
#     8   8   8   8   8   8   8
#     4  11  25  41  63  90 121 164 212 262 313 380
#     4  11  22  36  54  92 132 161 195 260 332 373
#     4  10  19  33  60  92 121 158 208 265 307 360
#     4  11  20  37  62  96 126 156 213 267 313 370
#     4  11  21  34  59  91 126 162 199 255 321 382
#     4  11  20  39  64  88 122 165 211 250 309 386
#     4  11  21  39  66  90 118 165 214 258 311 376
#
# _framework density 19.62257
#
# number of rings (size 3 to 8) (size 9 to 14) (size 15 to 20)
#    0.000    1.143    5.714    1.714    0.000    0.571 
#    0.000    0.000    6.286    1.714    0.000    0.000 
#    0.000    0.000    0.000    0.000    0.000    0.000 
#
# Total GULP energy -694065.377578 kJ/mol
# GULP energy per Si atom -12394.024600 kJ/mol
# Density = 1.957791 g / cm^3
# Si number density = 19.622570 Si / 1000 Ang^3
#
#
#
# Elastic Constant Matrix: (Units=GPa)
#
#
# Indices 1 2 3 4 5 6 
#
# 1 64.7897 17.6543 36.4100 0.0000 0.0000 0.0000
# 2 17.6543 116.0698 47.0160 0.0000 0.0000 0.0000
# 3 36.4100 47.0160 111.3670 0.0000 0.0000 0.0000
# 4 0.0000 0.0000 0.0000 27.3864 0.0000 0.0000
# 5 0.0000 0.0000 0.0000 0.0000 18.8689 0.0000
# 6 0.0000 0.0000 0.0000 0.0000 0.0000 30.9043
#
#
#
# Elastic Compliance Matrix: (Units=1/GPa)
#
#
# Indices 1 2 3 4 5 6 
#
# 1 0.018928 -0.000449 -0.005999 0.000000 0.000000 0.000000
# 2 -0.000449 0.010403 -0.004245 0.000000 0.000000 0.000000
# 3 -0.005999 -0.004245 0.012733 0.000000 0.000000 0.000000
# 4 0.000000 0.000000 0.000000 0.036514 0.000000 0.000000
# 5 0.000000 0.000000 0.000000 0.000000 0.052997 0.000000
# 6 0.000000 0.000000 0.000000 0.000000 0.000000 0.032358
#
#
# Mechanical properties :
#
#
# Convention : Reuss Voigt Hill
#
# Bulk Modulus (GPa) = 48.36012 54.93188 51.64600
# Shear Modulus (GPa) = 26.01287 28.17500 27.09393
#
# Velocity S-wave (km/s) = 3.64491 3.79337 3.71988
# Velocity P-wave (km/s) = 6.51249 6.87322 6.69529
#
# Compressibility (1/GPa) = 0.02067820
#
# Stress axis : x y z
#
# Youngs Moduli (GPa) = 52.83171 96.12241 78.53785
#
# Poissons Ratio (x) = 0.04317 0.47112
# Poissons Ratio (y) = 0.02373 0.33341
# Poissons Ratio (z) = 0.31692 0.40806
#
# Static dielectric constant tensor:
#      x y z
#    x 3.418740 0.000000 0.000000 
#    y 0.000000 4.174960 0.000000 
#    z 0.000000 0.000000 3.701940 
# 
# 
# High freq. dielectric constant tensor:
#      x y z
#    x 1.758360 0.000000 0.000000 
#    y 0.000000 1.763150 0.000000 
#    z 0.000000 0.000000 1.760200 
# 
# From -- ./inp_files/26163.got.cif
#   From: 2010.06.25/outbox.cif.g09.slc.cpg/sg52_14_cif.got.tgz:26163.got - 2010.06.26 19:32:48.
