data_PCOD8215518
_publ_section_title
;
Structure prediction by ZEFSAII (Michael W. Deem and Ramdas Pophale) SiO2 
 PCOD8215518
Probable space group: P N N A
;
_chemical_formula_sum "Si O2"
_cell_formula_units_Z 32
_cell_length_a 8.565658
_cell_length_b 7.991019
_cell_length_c 21.666274
_cell_angle_alpha 90.000000
_cell_angle_beta 90.000000
_cell_angle_gamma 90.000000
_cell_volume 1483.020399
_symmetry_space_group_name_H-M "P N N A"
_symmetry_group_IT_number 52
_symmetry_cell_setting 'orthorhombic'
loop_
_space_group_symop_operation_xyz
x,y,z
1/2-x,-y,z
x,1/2-y,1/2-z
1/2-x,1/2+y,1/2-z
-x,-y,-z
1/2+x,y,-z
-x,1/2+y,1/2+z
1/2+x,1/2-y,1/2+z
loop_
_atom_site_type_symbol
_atom_site_label
_atom_site_fract_x
_atom_site_fract_y
_atom_site_fract_z
Si Si1 0.937244 0.826326 0.529772
Si Si2 0.900162 0.249346 0.580882
Si Si3 0.566497 0.250000 0.750000
Si Si4 0.927530 0.051664 0.356905
Si Si5 0.250000 0.000000 0.164943
O O1 0.756187 0.818208 0.547150
O O2 0.979469 0.698114 0.474255
O O3 0.035570 0.801657 0.593174
O O4 0.000000 0.000000 0.500000
O O5 0.878374 0.416534 0.620467
O O6 0.961265 0.105720 0.627484
O O7 0.460187 0.121631 0.711413
O O8 0.675757 0.145158 0.794857
O O9 0.750000 0.000000 0.361262
#
# Coordination Sequence:
#
# PCOD8215518 Si02
#       5
#     8   8   4   8   4
#     4  10  19  38  69  98 128 171 218 270 337 396
#     4  11  23  42  69 104 132 180 224 279 340 401
#     4  12  26  44  68  96 136 184 230 280 330 400
#     4  11  23  43  69  98 133 180 227 275 340 405
#     4  12  26  44  70  98 138 180 232 280 332 406
#
# _framework density 21.577587999999999
#
# number of rings (size 3 to 8) (size 9 to 14) (size 15 to 20)
#    0.000    1.000    2.500    7.500    0.000    3.000 
#    0.000    0.000    0.000    0.000    0.000    0.000 
#    0.000    0.000    0.000    0.000    0.000    0.000 
#
# Total GULP energy -396543.980986 kJ/mol
# GULP energy per Si atom -12391.999406 kJ/mol
# Density = 2.152848 g / cm^3
# Si number density = 21.577588 Si / 1000 Ang^3
#
#
#
# Elastic Constant Matrix: (Units=GPa)
#
#
# Indices 1 2 3 4 5 6 
#
# 1 141.4531 39.3875 50.2652 0.0000 0.0000 0.0000
# 2 39.3875 84.8093 48.9754 0.0000 0.0000 0.0000
# 3 50.2652 48.9754 133.7226 0.0000 0.0000 0.0000
# 4 0.0000 0.0000 0.0000 49.5749 0.0000 0.0000
# 5 0.0000 0.0000 0.0000 0.0000 -21.3581 0.0000
# 6 0.0000 0.0000 0.0000 0.0000 0.0000 15.9731
#
#
#
# Elastic Compliance Matrix: (Units=1/GPa)
#
#
# Indices 1 2 3 4 5 6 
#
# 1 0.008622 -0.002705 -0.002250 0.000000 0.000000 0.000000
# 2 -0.002705 0.015802 -0.004771 0.000000 0.000000 0.000000
# 3 -0.002250 -0.004771 0.010071 0.000000 0.000000 0.000000
# 4 0.000000 0.000000 0.000000 0.020171 0.000000 0.000000
# 5 0.000000 0.000000 0.000000 0.000000 -0.046821 0.000000
# 6 0.000000 0.000000 0.000000 0.000000 0.000000 0.062605
#
#
# Mechanical properties :
#
#
# Convention : Reuss Voigt Hill
#
# Bulk Modulus (GPa) = 66.47217 70.80459 68.63838
# Shear Modulus (GPa) = 52.67641 23.59510 38.13576
#
# Velocity S-wave (km/s) = 4.94627 3.31040 4.20858
# Velocity P-wave (km/s) = 7.96830 6.89180 7.44952
#
# Compressibility (1/GPa) = 0.01504389
#
# Stress axis : x y z
#
# Youngs Moduli (GPa) = 115.97794 63.28151 99.29120
#
# Poissons Ratio (x) = 0.17117 0.22345
# Poissons Ratio (y) = 0.31370 0.47370
# Poissons Ratio (z) = 0.26100 0.30191
#
# Static dielectric constant tensor:
#      x y z
#    x 4.029120 0.000000 0.000000 
#    y 0.000000 3.858380 0.000000 
#    z 0.000000 0.000000 4.871360 
# 
# 
# High freq. dielectric constant tensor:
#      x y z
#    x 1.843580 0.000000 0.000000 
#    y 0.000000 1.824240 0.000000 
#    z 0.000000 0.000000 1.874580 
# 
# From -- ./inp_files/35495.got.cif
#   From: 2010.06.25/outbox.cif.g09.slc.cpg/sg52_18_cif.got.tgz:35495.got - 2010.06.26 19:32:48.
