data_PCOD8215135
_publ_section_title
;
Structure prediction by ZEFSAII (Michael W. Deem and Ramdas Pophale) SiO2 
 PCOD8215135
Probable space group: P N N A
;
_chemical_formula_sum "Si O2"
_cell_formula_units_Z 60
_cell_length_a 9.005760
_cell_length_b 27.601349
_cell_length_c 11.182886
_cell_angle_alpha 90.000000
_cell_angle_beta 90.000000
_cell_angle_gamma 90.000000
_cell_volume 2779.742551
_symmetry_space_group_name_H-M "P N N A"
_symmetry_group_IT_number 52
_symmetry_cell_setting 'orthorhombic'
loop_
_space_group_symop_operation_xyz
x,y,z
1/2-x,-y,z
x,1/2-y,1/2-z
1/2-x,1/2+y,1/2-z
-x,-y,-z
1/2+x,y,-z
-x,1/2+y,1/2+z
1/2+x,1/2-y,1/2+z
loop_
_atom_site_type_symbol
_atom_site_label
_atom_site_fract_x
_atom_site_fract_y
_atom_site_fract_z
Si Si1 0.634085 0.814751 0.929050
Si Si2 0.625641 0.437585 0.071272
Si Si3 0.683347 0.952612 0.216288
Si Si4 0.668312 0.143147 0.122586
Si Si5 0.195369 0.250000 0.250000
Si Si6 0.191180 0.328310 0.879724
Si Si7 0.017215 0.722130 0.954608
Si Si8 0.906632 0.512867 0.821564
O O1 0.510504 0.854847 0.892185
O O2 0.698383 0.789327 0.811592
O O3 0.768299 0.840363 0.996560
O O4 0.574136 0.776335 0.025827
O O5 0.775233 0.452619 0.141793
O O6 0.621202 0.379445 0.078781
O O7 0.487636 0.462796 0.140185
O O8 0.633726 0.453793 0.934975
O O9 0.757615 0.908692 0.146946
O O10 0.503600 0.956390 0.224063
O O11 0.750000 0.000000 0.152001
O O12 0.708149 0.176687 0.236501
O O13 0.093589 0.279419 0.157495
O O14 0.352092 0.316962 0.936054
O O15 0.073056 0.289208 0.924782
O O16 0.750000 0.500000 0.758842
#
# Coordination Sequence:
#
# PCOD8215135 Si02
#       8
#     8   8   8   8   4   8   8   8
#     4  12  24  47  70  96 129 176 232 282 347 392
#     4   9  19  34  56  91 139 182 222 269 336 403
#     4   9  20  41  61  91 135 174 215 282 348 393
#     4  11  25  45  70  95 131 177 229 283 333 415
#     4  12  24  44  72  98 136 176 230 288 336 412
#     4  11  25  39  64 100 140 179 220 275 338 412
#     4  12  24  43  65  99 136 177 220 280 341 406
#     4  10  18  32  61  94 133 182 225 273 332 405
#
# _framework density 21.584734000000001
#
# number of rings (size 3 to 8) (size 9 to 14) (size 15 to 20)
#    0.000    1.333    2.667    3.600    5.600    1.067 
#    0.000    4.667    0.000    0.000    0.000    0.000 
#    0.000    0.000    0.000    0.000    0.000    0.000 
#
# Total GULP energy -743681.571761 kJ/mol
# GULP energy per Si atom -12394.692863 kJ/mol
# Density = 2.153561 g / cm^3
# Si number density = 21.584734 Si / 1000 Ang^3
#
#
#
# Elastic Constant Matrix: (Units=GPa)
#
#
# Indices 1 2 3 4 5 6 
#
# 1 134.6857 34.2007 27.6183 0.0000 0.0000 0.0000
# 2 34.2007 82.3178 24.3831 0.0000 0.0000 0.0000
# 3 27.6183 24.3831 74.8486 0.0000 0.0000 0.0000
# 4 0.0000 0.0000 0.0000 18.6278 0.0000 0.0000
# 5 0.0000 0.0000 0.0000 0.0000 36.0333 0.0000
# 6 0.0000 0.0000 0.0000 0.0000 0.0000 36.7460
#
#
#
# Elastic Compliance Matrix: (Units=1/GPa)
#
#
# Indices 1 2 3 4 5 6 
#
# 1 0.008624 -0.002922 -0.002230 0.000000 0.000000 0.000000
# 2 -0.002922 0.014436 -0.003624 0.000000 0.000000 0.000000
# 3 -0.002230 -0.003624 0.015364 0.000000 0.000000 0.000000
# 4 0.000000 0.000000 0.000000 0.053683 0.000000 0.000000
# 5 0.000000 0.000000 0.000000 0.000000 0.027752 0.000000
# 6 0.000000 0.000000 0.000000 0.000000 0.000000 0.027214
#
#
# Mechanical properties :
#
#
# Convention : Reuss Voigt Hill
#
# Bulk Modulus (GPa) = 47.91598 51.58404 49.75001
# Shear Modulus (GPa) = 29.14034 31.99143 30.56589
#
# Velocity S-wave (km/s) = 3.67828 3.85402 3.76718
# Velocity P-wave (km/s) = 6.34719 6.61475 6.48235
#
# Compressibility (1/GPa) = 0.02086987
#
# Stress axis : x y z
#
# Youngs Moduli (GPa) = 115.95396 69.27227 65.08772
#
# Poissons Ratio (x) = 0.20245 0.14516
# Poissons Ratio (y) = 0.33887 0.23590
# Poissons Ratio (z) = 0.25860 0.25106
#
# Static dielectric constant tensor:
#      x y z
#    x 4.114330 0.000000 0.000000 
#    y 0.000000 4.089720 0.000000 
#    z 0.000000 0.000000 3.683820 
# 
# 
# High freq. dielectric constant tensor:
#      x y z
#    x 1.862390 0.000000 0.000000 
#    y 0.000000 1.839710 0.000000 
#    z 0.000000 0.000000 1.824120 
# 
# From -- ./inp_files/17129.got.cif
#   From: 2010.06.25/outbox.cif.g09.slc.cpg/sg52_9_cif.got.tgz:17129.got - 2010.06.26 19:32:48.
