data_PCOD8215401
_publ_section_title
;
Structure prediction by ZEFSAII (Michael W. Deem and Ramdas Pophale) SiO2 
 PCOD8215401
Probable space group: P N N A
;
_chemical_formula_sum "Si O2"
_cell_formula_units_Z 56
_cell_length_a 4.945030
_cell_length_b 23.853565
_cell_length_c 23.873366
_cell_angle_alpha 90.000000
_cell_angle_beta 90.000000
_cell_angle_gamma 90.000000
_cell_volume 2816.020953
_symmetry_space_group_name_H-M "P N N A"
_symmetry_group_IT_number 52
_symmetry_cell_setting 'orthorhombic'
loop_
_space_group_symop_operation_xyz
x,y,z
1/2-x,-y,z
x,1/2-y,1/2-z
1/2-x,1/2+y,1/2-z
-x,-y,-z
1/2+x,y,-z
-x,1/2+y,1/2+z
1/2+x,1/2-y,1/2+z
loop_
_atom_site_type_symbol
_atom_site_label
_atom_site_fract_x
_atom_site_fract_y
_atom_site_fract_z
Si Si1 0.513062 0.036106 0.123669
Si Si2 0.251914 0.825184 0.355290
Si Si3 0.670555 0.080708 0.241135
Si Si4 0.347198 0.256396 0.036351
Si Si5 0.242446 0.696228 0.783964
Si Si6 0.669068 0.871651 0.963055
Si Si7 0.337692 0.941357 0.312516
O O1 0.670344 0.057710 0.178549
O O2 0.410901 0.088155 0.087463
O O3 0.750000 0.000000 0.092099
O O4 0.250000 0.000000 0.139223
O O5 0.252964 0.799263 0.416701
O O6 0.455220 0.792434 0.313816
O O7 0.345928 0.890934 0.358058
O O8 0.950138 0.819190 0.332810
O O9 0.774213 0.145001 0.240191
O O10 0.368568 0.076973 0.264193
O O11 0.877798 0.047014 0.281389
O O12 0.337540 0.192436 0.058769
O O13 0.653618 0.267001 0.016978
O O14 0.337617 0.750000 0.750000
O O15 0.471529 0.883364 0.015557
O O16 0.250000 0.000000 0.341771
#
# Coordination Sequence:
#
# PCOD8215401 Si02
#       7
#     8   8   8   8   8   8   8
#     4  12  24  37  56  82 108 147 192 235 283 327
#     4  10  21  36  58  86 111 148 189 223 281 335
#     4  10  21  35  53  81 112 147 186 219 268 333
#     4  10  21  40  62  83 110 145 190 240 284 338
#     4  10  21  36  54  85 118 148 178 227 284 334
#     4  10  23  41  57  79 104 143 191 238 295 334
#     4  10  19  35  57  79 116 150 181 218 260 335
#
# _framework density 19.886215
#
# number of rings (size 3 to 8) (size 9 to 14) (size 15 to 20)
#    0.000    1.714    0.000    4.714    2.000    1.714 
#    2.571    0.000    0.000    0.857    0.000    0.000 
#    0.000    0.000    0.000    0.000    0.000    0.000 
#
# Total GULP energy -694374.748029 kJ/mol
# GULP energy per Si atom -12399.549072 kJ/mol
# Density = 1.984095 g / cm^3
# Si number density = 19.886215 Si / 1000 Ang^3
#
#
#
# Elastic Constant Matrix: (Units=GPa)
#
#
# Indices 1 2 3 4 5 6 
#
# 1 92.0479 32.2246 17.6322 0.0000 0.0000 0.0000
# 2 32.2246 124.6269 66.4484 0.0000 0.0000 0.0000
# 3 17.6322 66.4484 77.4940 0.0000 0.0000 0.0000
# 4 0.0000 0.0000 0.0000 15.8975 0.0000 0.0000
# 5 0.0000 0.0000 0.0000 0.0000 19.2576 0.0000
# 6 0.0000 0.0000 0.0000 0.0000 0.0000 29.0626
#
#
#
# Elastic Compliance Matrix: (Units=1/GPa)
#
#
# Indices 1 2 3 4 5 6 
#
# 1 0.011946 -0.003021 -0.000128 0.000000 0.000000 0.000000
# 2 -0.003021 0.015546 -0.012643 0.000000 0.000000 0.000000
# 3 -0.000128 -0.012643 0.023774 0.000000 0.000000 0.000000
# 4 0.000000 0.000000 0.000000 0.062903 0.000000 0.000000
# 5 0.000000 0.000000 0.000000 0.000000 0.051928 0.000000
# 6 0.000000 0.000000 0.000000 0.000000 0.000000 0.034408
#
#
# Mechanical properties :
#
#
# Convention : Reuss Voigt Hill
#
# Bulk Modulus (GPa) = 50.80490 58.53102 54.66796
# Shear Modulus (GPa) = 20.95133 24.70112 22.82623
#
# Velocity S-wave (km/s) = 3.24938 3.52820 3.39166
# Velocity P-wave (km/s) = 6.29930 6.78929 6.54888
#
# Compressibility (1/GPa) = 0.01968314
#
# Stress axis : x y z
#
# Youngs Moduli (GPa) = 83.71083 64.32605 42.06268
#
# Poissons Ratio (x) = 0.19430 0.00538
# Poissons Ratio (y) = 0.25286 0.53179
# Poissons Ratio (z) = 0.01071 0.81326
#
# Static dielectric constant tensor:
#      x y z
#    x 3.799560 0.000000 0.000000 
#    y 0.000000 3.891170 0.000000 
#    z 0.000000 0.000000 3.120800 
# 
# 
# High freq. dielectric constant tensor:
#      x y z
#    x 1.801990 0.000000 0.000000 
#    y 0.000000 1.785800 0.000000 
#    z 0.000000 0.000000 1.729010 
# 
# From -- ./inp_files/35250.got.cif
#   From: 2010.06.25/outbox.cif.g09.slc.cpg/sg52_18_cif.got.tgz:35250.got - 2010.06.26 19:32:48.
