data_PCOD8215421
_publ_section_title
;
Structure prediction by ZEFSAII (Michael W. Deem and Ramdas Pophale) SiO2 
 PCOD8215421
Probable space group: P N N A
;
_chemical_formula_sum "Si O2"
_cell_formula_units_Z 40
_cell_length_a 20.234999
_cell_length_b 8.894921
_cell_length_c 11.235037
_cell_angle_alpha 90.000000
_cell_angle_beta 90.000000
_cell_angle_gamma 90.000000
_cell_volume 2022.179901
_symmetry_space_group_name_H-M "P N N A"
_symmetry_group_IT_number 52
_symmetry_cell_setting 'orthorhombic'
loop_
_space_group_symop_operation_xyz
x,y,z
1/2-x,-y,z
x,1/2-y,1/2-z
1/2-x,1/2+y,1/2-z
-x,-y,-z
1/2+x,y,-z
-x,1/2+y,1/2+z
1/2+x,1/2-y,1/2+z
loop_
_atom_site_type_symbol
_atom_site_label
_atom_site_fract_x
_atom_site_fract_y
_atom_site_fract_z
Si Si1 0.327835 0.006181 0.104959
Si Si2 0.936368 0.506896 0.919465
Si Si3 0.395575 0.250000 0.250000
Si Si4 0.321150 0.923911 0.600738
Si Si5 0.680182 0.075409 0.139249
Si Si6 0.103395 0.250000 0.250000
O O1 0.348434 0.162246 0.160907
O O2 0.250000 0.000000 0.090958
O O3 0.349752 0.867152 0.184233
O O4 0.359056 0.001613 0.970775
O O5 0.938821 0.364049 0.829964
O O6 0.942119 0.659971 0.843019
O O7 0.869932 0.512436 0.999391
O O8 0.000000 0.500000 0.000000
O O9 0.354690 0.949896 0.732272
O O10 0.309897 0.746063 0.595122
O O11 0.250000 0.000000 0.581099
O O12 0.750000 0.000000 0.160486
#
# Coordination Sequence:
#
# PCOD8215421 Si02
#       6
#     8   8   4   8   8   4
#     4  10  19  35  61  94 129 162 197 257 302 361
#     4  11  25  46  63  90 123 164 205 256 309 372
#     4  10  25  40  60  90 123 158 218 242 306 378
#     4  10  21  38  64  92 126 163 206 258 304 358
#     4   9  19  35  58  96 127 158 209 252 305 356
#     4  10  21  42  60  88 123 160 212 240 314 372
#
# _framework density 19.780633000000002
#
# number of rings (size 3 to 8) (size 9 to 14) (size 15 to 20)
#    0.000    2.000    2.000    0.600    5.600    4.800 
#    3.600    2.000    0.000    0.000    0.000    0.000 
#    0.000    0.000    0.000    0.000    0.000    0.000 
#
# Total GULP energy -495624.448866 kJ/mol
# GULP energy per Si atom -12390.611222 kJ/mol
# Density = 1.973561 g / cm^3
# Si number density = 19.780633 Si / 1000 Ang^3
#
#
#
# Elastic Constant Matrix: (Units=GPa)
#
#
# Indices 1 2 3 4 5 6 
#
# 1 77.2639 33.3230 46.0834 0.0000 0.0000 0.0000
# 2 33.3230 115.7678 61.0334 0.0000 0.0000 0.0000
# 3 46.0834 61.0334 155.5179 0.0000 0.0000 0.0000
# 4 0.0000 0.0000 0.0000 33.7015 0.0000 0.0000
# 5 0.0000 0.0000 0.0000 0.0000 34.6737 0.0000
# 6 0.0000 0.0000 0.0000 0.0000 0.0000 12.2058
#
#
#
# Elastic Compliance Matrix: (Units=1/GPa)
#
#
# Indices 1 2 3 4 5 6 
#
# 1 0.016372 -0.002717 -0.003785 0.000000 0.000000 0.000000
# 2 -0.002717 0.011342 -0.003646 0.000000 0.000000 0.000000
# 3 -0.003785 -0.003646 0.008983 0.000000 0.000000 0.000000
# 4 0.000000 0.000000 0.000000 0.029672 0.000000 0.000000
# 5 0.000000 0.000000 0.000000 0.000000 0.028840 0.000000
# 6 0.000000 0.000000 0.000000 0.000000 0.000000 0.081928
#
#
# Mechanical properties :
#
#
# Convention : Reuss Voigt Hill
#
# Bulk Modulus (GPa) = 60.97410 69.93657 65.45534
# Shear Modulus (GPa) = 24.64246 29.99017 27.31632
#
# Velocity S-wave (km/s) = 3.53340 3.89799 3.72016
# Velocity P-wave (km/s) = 6.89483 7.46270 7.18438
#
# Compressibility (1/GPa) = 0.01640041
#
# Stress axis : x y z
#
# Youngs Moduli (GPa) = 61.07956 88.16494 111.32511
#
# Poissons Ratio (x) = 0.23955 0.42138
# Poissons Ratio (y) = 0.16596 0.40592
# Poissons Ratio (z) = 0.23119 0.32147
#
# Static dielectric constant tensor:
#      x y z
#    x 3.062080 0.000000 0.000000 
#    y 0.000000 4.182900 0.000000 
#    z 0.000000 0.000000 4.433810 
# 
# 
# High freq. dielectric constant tensor:
#      x y z
#    x 1.719670 0.000000 0.000000 
#    y 0.000000 1.784360 0.000000 
#    z 0.000000 0.000000 1.809180 
# 
# From -- ./inp_files/21486.got.cif
#   From: 2010.06.25/outbox.cif.g09.slc.cpg/sg52_11_cif.got.tgz:21486.got - 2010.06.26 19:32:48.
