data_PCOD8215333
_publ_section_title
;
Structure prediction by ZEFSAII (Michael W. Deem and Ramdas Pophale) SiO2 
 PCOD8215333
Probable space group: P N N A
;
_chemical_formula_sum "Si O2"
_cell_formula_units_Z 32
_cell_length_a 20.040432
_cell_length_b 4.995563
_cell_length_c 10.836934
_cell_angle_alpha 90.000000
_cell_angle_beta 90.000000
_cell_angle_gamma 90.000000
_cell_volume 1084.920581
_symmetry_space_group_name_H-M "P N N A"
_symmetry_group_IT_number 52
_symmetry_cell_setting 'orthorhombic'
loop_
_space_group_symop_operation_xyz
x,y,z
1/2-x,-y,z
x,1/2-y,1/2-z
1/2-x,1/2+y,1/2-z
-x,-y,-z
1/2+x,y,-z
-x,1/2+y,1/2+z
1/2+x,1/2-y,1/2+z
loop_
_atom_site_type_symbol
_atom_site_label
_atom_site_fract_x
_atom_site_fract_y
_atom_site_fract_z
Si Si1 0.972981 0.283509 0.901676
Si Si2 0.823391 0.556029 0.107262
Si Si3 0.845363 0.007671 0.678573
Si Si4 0.094394 0.555745 0.620590
O O1 0.926147 0.452044 0.808606
O O2 0.027758 0.096219 0.828787
O O3 0.922747 0.080703 0.974710
O O4 0.000000 0.500000 0.000000
O O5 0.750000 0.500000 0.161922
O O6 0.821719 0.501836 0.962352
O O7 0.841657 0.862793 0.139885
O O8 0.882620 0.360590 0.166764
O O9 0.808609 0.250000 0.750000
O O10 0.822086 0.750000 0.750000
#
# Coordination Sequence:
#
# PCOD8215333 Si02
#       4
#     8   8   8   8
#     4  10  19  35  59  75 102 144 186 237 289 315
#     4  11  22  36  52  76 113 155 191 222 256 324
#     4  11  23  34  51  80 113 148 186 221 274 331
#     4  10  19  33  56  78  96 142 193 233 276 310
#
# _framework density 29.495248
#
# number of rings (size 3 to 8) (size 9 to 14) (size 15 to 20)
#    0.000    1.500    5.000    3.750    3.500    1.000 
#    0.000    0.000    0.000    0.000    0.000    0.000 
#    0.000    6.000    2.000    0.000    0.000    0.000 
#
# Total GULP energy -396441.345901 kJ/mol
# GULP energy per Si atom -12388.792059 kJ/mol
# Density = 2.942812 g / cm^3
# Si number density = 29.495248 Si / 1000 Ang^3
#
#
#
# Elastic Constant Matrix: (Units=GPa)
#
#
# Indices 1 2 3 4 5 6 
#
# 1 188.6321 57.9267 -28.4906 0.0000 0.0000 0.0000
# 2 57.9267 210.8117 21.2959 0.0000 0.0000 0.0000
# 3 -28.4906 21.2959 43.8462 0.0000 0.0000 0.0000
# 4 0.0000 0.0000 0.0000 59.1156 0.0000 0.0000
# 5 0.0000 0.0000 0.0000 0.0000 14.8299 0.0000
# 6 0.0000 0.0000 0.0000 0.0000 0.0000 -7.7773
#
#
#
# Elastic Compliance Matrix: (Units=1/GPa)
#
#
# Indices 1 2 3 4 5 6 
#
# 1 0.006924 -0.002479 0.005703 0.000000 0.000000 0.000000
# 2 -0.002479 0.005876 -0.004464 0.000000 0.000000 0.000000
# 3 0.005703 -0.004464 0.028681 0.000000 0.000000 0.000000
# 4 0.000000 0.000000 0.000000 0.016916 0.000000 0.000000
# 5 0.000000 0.000000 0.000000 0.000000 0.067431 0.000000
# 6 0.000000 0.000000 0.000000 0.000000 0.000000 -0.128579
#
#
# Mechanical properties :
#
#
# Convention : Reuss Voigt Hill
#
# Bulk Modulus (GPa) = 25.64092 60.52823 43.08458
# Shear Modulus (GPa) = 392.79489 39.40417 216.09953
#
# Velocity S-wave (km/s) = 11.55255 3.65903 8.56884
# Velocity P-wave (km/s) = 13.66238 6.19816 10.60844
#
# Compressibility (1/GPa) = 0.03900016
#
# Stress axis : x y z
#
# Youngs Moduli (GPa) = 144.42893 170.19475 34.86638
#
# Poissons Ratio (x) = 0.42185 -0.19884
# Poissons Ratio (y) = 0.35798 0.15566
# Poissons Ratio (z) = -0.82366 0.75981
#
# Static dielectric constant tensor:
#      x y z
#    x 5.599100 0.000000 0.000000 
#    y 0.000000 6.265340 0.000000 
#    z 0.000000 0.000000 4.429160 
# 
# 
# High freq. dielectric constant tensor:
#      x y z
#    x 2.191240 0.000000 0.000000 
#    y 0.000000 2.215830 0.000000 
#    z 0.000000 0.000000 2.239380 
# 
# From -- ./inp_files/28427.got.cif
#   From: 2010.06.25/outbox.cif.g09.slc.cpg/sg52_15_cif.got.tgz:28427.got - 2010.06.26 19:32:48.
