data_PCOD8215663
_publ_section_title
;
Structure prediction by ZEFSAII (Michael W. Deem and Ramdas Pophale) SiO2 
 PCOD8215663
Probable space group: P N N A
;
_chemical_formula_sum "Si O2"
_cell_formula_units_Z 48
_cell_length_a 25.706477
_cell_length_b 15.744899
_cell_length_c 5.213259
_cell_angle_alpha 90.000000
_cell_angle_beta 90.000000
_cell_angle_gamma 90.000000
_cell_volume 2110.045123
_symmetry_space_group_name_H-M "P N N A"
_symmetry_group_IT_number 52
_symmetry_cell_setting 'orthorhombic'
loop_
_space_group_symop_operation_xyz
x,y,z
1/2-x,-y,z
x,1/2-y,1/2-z
1/2-x,1/2+y,1/2-z
-x,-y,-z
1/2+x,y,-z
-x,1/2+y,1/2+z
1/2+x,1/2-y,1/2+z
loop_
_atom_site_type_symbol
_atom_site_label
_atom_site_fract_x
_atom_site_fract_y
_atom_site_fract_z
Si Si1 0.174681 0.653003 0.339901
Si Si2 0.905264 0.971474 0.378700
Si Si3 0.388520 0.720784 0.997871
Si Si4 0.567084 0.944259 0.879730
Si Si5 0.001602 0.706296 0.498114
Si Si6 0.796718 0.436369 0.156881
O O1 0.171621 0.750000 0.250000
O O2 0.116667 0.617495 0.372188
O O3 0.201736 0.634598 0.615913
O O4 0.209036 0.607729 0.119739
O O5 0.904783 0.875971 0.482107
O O6 0.940164 0.019140 0.593424
O O7 0.847478 0.006055 0.361538
O O8 0.928644 0.981360 0.093903
O O9 0.355022 0.750000 0.750000
O O10 0.439436 0.782261 0.001233
O O11 0.356270 0.750000 0.250000
O O12 0.516370 0.892523 0.973632
O O13 0.027064 0.750000 0.250000
O O14 0.026829 0.750000 0.750000
O O15 0.750000 0.500000 0.212897
#
# Coordination Sequence:
#
# PCOD8215663 Si02
#       6
#     8   8   8   8   8   8
#     4  10  20  35  59  87 116 147 185 232 283 336
#     4  10  21  38  59  81 109 151 191 228 285 345
#     4  10  21  39  56  77 111 148 187 232 278 333
#     4  10  20  35  58  84 110 145 187 233 284 333
#     4  10  20  35  53  78 110 144 181 229 279 324
#     4  10  21  38  59  85 118 149 185 236 284 333
#
# _framework density 22.748328999999998
#
# number of rings (size 3 to 8) (size 9 to 14) (size 15 to 20)
#    0.000    2.000    0.000    3.500    0.000    2.667 
#    0.000   22.500    0.000    0.000    0.000    0.000 
#    0.000    0.000    0.000    0.000    0.000    0.000 
#
# Total GULP energy -594757.803397 kJ/mol
# GULP energy per Si atom -12390.787571 kJ/mol
# Density = 2.269655 g / cm^3
# Si number density = 22.748329 Si / 1000 Ang^3
#
#
#
# Elastic Constant Matrix: (Units=GPa)
#
#
# Indices 1 2 3 4 5 6 
#
# 1 26.5022 13.6914 25.7419 0.0000 0.0000 0.0000
# 2 13.6914 98.6821 41.0895 0.0000 0.0000 0.0000
# 3 25.7419 41.0895 202.0742 0.0000 0.0000 0.0000
# 4 0.0000 0.0000 0.0000 46.2910 0.0000 0.0000
# 5 0.0000 0.0000 0.0000 0.0000 5.7060 0.0000
# 6 0.0000 0.0000 0.0000 0.0000 0.0000 23.4862
#
#
#
# Elastic Compliance Matrix: (Units=1/GPa)
#
#
# Indices 1 2 3 4 5 6 
#
# 1 0.044581 -0.004174 -0.004830 0.000000 0.000000 0.000000
# 2 -0.004174 0.011462 -0.001799 0.000000 0.000000 0.000000
# 3 -0.004830 -0.001799 0.005930 0.000000 0.000000 0.000000
# 4 0.000000 0.000000 0.000000 0.021602 0.000000 0.000000
# 5 0.000000 0.000000 0.000000 0.000000 0.175255 0.000000
# 6 0.000000 0.000000 0.000000 0.000000 0.000000 0.042578
#
#
# Mechanical properties :
#
#
# Convention : Reuss Voigt Hill
#
# Bulk Modulus (GPa) = 24.77340 54.25600 39.51470
# Shear Modulus (GPa) = 14.86020 31.54568 23.20294
#
# Velocity S-wave (km/s) = 2.55864 3.72792 3.19718
# Velocity P-wave (km/s) = 4.43201 6.51399 5.57112
#
# Compressibility (1/GPa) = 0.04036587
#
# Stress axis : x y z
#
# Youngs Moduli (GPa) = 22.43119 87.24723 168.64004
#
# Poissons Ratio (x) = 0.36417 0.81459
# Poissons Ratio (y) = 0.09363 0.30337
# Poissons Ratio (z) = 0.10835 0.15695
#
# Static dielectric constant tensor:
#      x y z
#    x 3.625510 0.000000 0.000000 
#    y 0.000000 3.999700 0.000000 
#    z 0.000000 0.000000 5.820450 
# 
# 
# High freq. dielectric constant tensor:
#      x y z
#    x 1.849620 0.000000 0.000000 
#    y 0.000000 1.901760 0.000000 
#    z 0.000000 0.000000 1.933390 
# 
# From -- ./inp_files/6378.got.cif
#   From: 2010.06.25/outbox.cif.g09.slc.cpg/sg52_4_cif.got.tgz:6378.got - 2010.06.26 19:32:48.
