data_PCOD8215404
_publ_section_title
;
Structure prediction by ZEFSAII (Michael W. Deem and Ramdas Pophale) SiO2 
 PCOD8215404
Probable space group: P N N A
;
_chemical_formula_sum "Si O2"
_cell_formula_units_Z 60
_cell_length_a 5.521204
_cell_length_b 16.547309
_cell_length_c 30.427188
_cell_angle_alpha 90.000000
_cell_angle_beta 90.000000
_cell_angle_gamma 90.000000
_cell_volume 2779.860411
_symmetry_space_group_name_H-M "P N N A"
_symmetry_group_IT_number 52
_symmetry_cell_setting 'orthorhombic'
loop_
_space_group_symop_operation_xyz
x,y,z
1/2-x,-y,z
x,1/2-y,1/2-z
1/2-x,1/2+y,1/2-z
-x,-y,-z
1/2+x,y,-z
-x,1/2+y,1/2+z
1/2+x,1/2-y,1/2+z
loop_
_atom_site_type_symbol
_atom_site_label
_atom_site_fract_x
_atom_site_fract_y
_atom_site_fract_z
Si Si1 0.433962 0.628280 0.605073
Si Si2 0.744318 0.593954 0.811381
Si Si3 0.755157 0.094379 0.261600
Si Si4 0.778023 0.770734 0.623163
Si Si5 0.623475 0.410219 0.491908
Si Si6 0.447836 0.358786 0.673945
Si Si7 0.880583 0.738556 0.976068
Si Si8 0.250000 0.000000 0.148728
O O1 0.542567 0.714739 0.618474
O O2 0.373146 0.633365 0.554455
O O3 0.190027 0.612269 0.630895
O O4 0.592504 0.549945 0.614309
O O5 0.750000 0.500000 0.823527
O O6 0.503712 0.617547 0.783194
O O7 0.714146 0.642059 0.857020
O O8 0.002746 0.616578 0.789221
O O9 0.776038 0.147057 0.216691
O O10 0.750000 0.000000 0.249949
O O11 0.898044 0.787044 0.575355
O O12 0.940342 0.727502 0.661016
O O13 0.375473 0.459953 0.502018
O O14 0.632591 0.336047 0.526300
O O15 0.633191 0.433780 0.681845
O O16 0.627619 0.707146 0.999230
#
# Coordination Sequence:
#
# PCOD8215404 Si02
#       8
#     8   8   8   8   8   8   8   4
#     4  11  22  38  61  89 126 163 216 269 323 373
#     4  10  25  46  67  95 130 174 210 261 334 400
#     4  10  23  44  69  88 128 172 214 255 321 389
#     4  11  24  39  66  97 129 165 219 277 323 382
#     4  10  19  35  57  82 117 161 210 255 313 381
#     4  11  24  40  65  93 125 175 219 271 314 378
#     4  10  19  35  60  91 123 167 210 257 326 391
#     4  10  24  38  58  92 122 170 218 262 322 374
#
# _framework density 21.583818000000001
#
# number of rings (size 3 to 8) (size 9 to 14) (size 15 to 20)
#    0.000    1.600    2.667    2.800   10.267    0.533 
#    0.000    0.667    0.000    0.800    0.000    0.000 
#    0.000    0.000    0.000    0.000    0.000    0.000 
#
# Total GULP energy -743501.399591 kJ/mol
# GULP energy per Si atom -12391.689993 kJ/mol
# Density = 2.153469 g / cm^3
# Si number density = 21.583818 Si / 1000 Ang^3
#
#
#
# Elastic Constant Matrix: (Units=GPa)
#
#
# Indices 1 2 3 4 5 6 
#
# 1 152.2949 34.9987 52.8488 0.0000 0.0000 0.0000
# 2 34.9987 71.1940 55.8497 0.0000 0.0000 0.0000
# 3 52.8488 55.8497 130.5916 0.0000 0.0000 0.0000
# 4 0.0000 0.0000 0.0000 81.9330 0.0000 0.0000
# 5 0.0000 0.0000 0.0000 0.0000 41.9521 0.0000
# 6 0.0000 0.0000 0.0000 0.0000 0.0000 10.7083
#
#
#
# Elastic Compliance Matrix: (Units=1/GPa)
#
#
# Indices 1 2 3 4 5 6 
#
# 1 0.007833 -0.002053 -0.002292 0.000000 0.000000 0.000000
# 2 -0.002053 0.021676 -0.008439 0.000000 0.000000 0.000000
# 3 -0.002292 -0.008439 0.012194 0.000000 0.000000 0.000000
# 4 0.000000 0.000000 0.000000 0.012205 0.000000 0.000000
# 5 0.000000 0.000000 0.000000 0.000000 0.023837 0.000000
# 6 0.000000 0.000000 0.000000 0.000000 0.000000 0.093386
#
#
# Mechanical properties :
#
#
# Convention : Reuss Voigt Hill
#
# Bulk Modulus (GPa) = 61.97718 71.27500 66.62609
# Shear Modulus (GPa) = 24.74301 40.94421 32.84361
#
# Velocity S-wave (km/s) = 3.38948 4.36017 3.90510
# Velocity P-wave (km/s) = 6.64041 7.64475 7.16021
#
# Compressibility (1/GPa) = 0.01613497
#
# Stress axis : x y z
#
# Youngs Moduli (GPa) = 127.65901 46.13489 82.00578
#
# Poissons Ratio (x) = 0.09470 0.18797
# Poissons Ratio (y) = 0.26204 0.69207
# Poissons Ratio (z) = 0.29262 0.38934
#
# Static dielectric constant tensor:
#      x y z
#    x 4.653300 0.000000 0.000000 
#    y 0.000000 3.422260 0.000000 
#    z 0.000000 0.000000 3.746910 
# 
# 
# High freq. dielectric constant tensor:
#      x y z
#    x 1.878150 0.000000 0.000000 
#    y 0.000000 1.812590 0.000000 
#    z 0.000000 0.000000 1.842890 
# 
# From -- ./inp_files/41821.got.cif
#   From: 2010.06.25/outbox.cif.g09.slc.cpg/sg52_21_cif.got.tgz:41821.got - 2010.06.26 19:32:48.
