data_PCOD8215349
_publ_section_title
;
Structure prediction by ZEFSAII (Michael W. Deem and Ramdas Pophale) SiO2 
 PCOD8215349
Probable space group: P N N A
;
_chemical_formula_sum "Si O2"
_cell_formula_units_Z 64
_cell_length_a 25.180441
_cell_length_b 9.760143
_cell_length_c 15.273726
_cell_angle_alpha 90.000000
_cell_angle_beta 90.000000
_cell_angle_gamma 90.000000
_cell_volume 3753.742764
_symmetry_space_group_name_H-M "P N N A"
_symmetry_group_IT_number 52
_symmetry_cell_setting 'orthorhombic'
loop_
_space_group_symop_operation_xyz
x,y,z
1/2-x,-y,z
x,1/2-y,1/2-z
1/2-x,1/2+y,1/2-z
-x,-y,-z
1/2+x,y,-z
-x,1/2+y,1/2+z
1/2+x,1/2-y,1/2+z
loop_
_atom_site_type_symbol
_atom_site_label
_atom_site_fract_x
_atom_site_fract_y
_atom_site_fract_z
Si Si1 0.950044 0.293454 0.551325
Si Si2 0.298612 0.097044 0.647552
Si Si3 0.007946 0.643220 0.823171
Si Si4 0.591560 0.478045 0.430042
Si Si5 0.506214 0.109066 0.206842
Si Si6 0.198654 0.914220 0.847901
Si Si7 0.558962 0.280525 0.978240
Si Si8 0.098477 0.565015 0.960553
O O1 0.942448 0.405466 0.476676
O O2 0.953584 0.365293 0.646446
O O3 0.905406 0.175001 0.540949
O O4 0.007458 0.223506 0.539880
O O5 0.316631 0.063084 0.746508
O O6 0.285289 0.256918 0.635776
O O7 0.344199 0.060039 0.580582
O O8 0.250000 0.000000 0.621124
O O9 0.027900 0.750000 0.750000
O O10 0.056272 0.612529 0.888030
O O11 0.988959 0.501633 0.779272
O O12 0.958907 0.712361 0.876292
O O13 0.558567 0.442725 0.343500
O O14 0.649615 0.534802 0.406604
O O15 0.596034 0.349915 0.497747
O O16 0.524249 0.250000 0.250000
O O17 0.250000 0.000000 0.875405
O O18 0.590357 0.416268 0.001078
#
# Coordination Sequence:
#
# PCOD8215349 Si02
#       8
#     8   8   8   8   8   8   8   8
#     4  10  19  34  49  70 102 139 177 210 246 300
#     4  10  22  37  53  75 102 134 173 217 252 289
#     4  11  20  31  50  75 104 142 175 210 246 304
#     4  11  20  35  52  72 102 146 176 203 250 308
#     4  11  20  31  48  76 106 137 175 212 248 300
#     4  10  22  37  53  75 102 133 175 217 249 291
#     4  10  21  32  48  74 106 136 173 212 252 298
#     4  11  20  34  52  72 104 145 174 205 255 305
#
# _framework density 17.049648999999999
#
# number of rings (size 3 to 8) (size 9 to 14) (size 15 to 20)
#    0.000    1.500    1.250    8.250    3.500    0.000 
#    2.250    0.000    0.000    0.000    0.000    0.000 
#    0.000   15.000    0.000    0.000    0.000    0.000 
#
# Total GULP energy -793443.777956 kJ/mol
# GULP energy per Si atom -12397.559031 kJ/mol
# Density = 1.701084 g / cm^3
# Si number density = 17.049649 Si / 1000 Ang^3
#
#
#
# Elastic Constant Matrix: (Units=GPa)
#
#
# Indices 1 2 3 4 5 6 
#
# 1 86.7455 41.2153 36.5118 0.0000 0.0000 0.0000
# 2 41.2153 117.0661 30.0534 0.0000 0.0000 0.0000
# 3 36.5118 30.0534 54.9433 0.0000 0.0000 0.0000
# 4 0.0000 0.0000 0.0000 35.7432 0.0000 0.0000
# 5 0.0000 0.0000 0.0000 0.0000 23.5207 0.0000
# 6 0.0000 0.0000 0.0000 0.0000 0.0000 24.8656
#
#
#
# Elastic Compliance Matrix: (Units=1/GPa)
#
#
# Indices 1 2 3 4 5 6 
#
# 1 0.017242 -0.003640 -0.009467 0.000000 0.000000 0.000000
# 2 -0.003640 0.010706 -0.003437 0.000000 0.000000 0.000000
# 3 -0.009467 -0.003437 0.026372 0.000000 0.000000 0.000000
# 4 0.000000 0.000000 0.000000 0.027977 0.000000 0.000000
# 5 0.000000 0.000000 0.000000 0.000000 0.042516 0.000000
# 6 0.000000 0.000000 0.000000 0.000000 0.000000 0.040216
#
#
# Mechanical properties :
#
#
# Convention : Reuss Voigt Hill
#
# Bulk Modulus (GPa) = 47.09939 52.70176 49.90057
# Shear Modulus (GPa) = 24.36705 26.89086 25.62896
#
# Velocity S-wave (km/s) = 3.78455 3.97572 3.88131
# Velocity P-wave (km/s) = 6.83973 7.21477 7.02976
#
# Compressibility (1/GPa) = 0.02123170
#
# Stress axis : x y z
#
# Youngs Moduli (GPa) = 57.99731 93.40439 37.91925
#
# Poissons Ratio (x) = 0.34000 0.35898
# Poissons Ratio (y) = 0.21111 0.13034
# Poissons Ratio (z) = 0.54906 0.32105
#
# Static dielectric constant tensor:
#      x y z
#    x 2.935000 0.000000 0.000000 
#    y 0.000000 3.561000 0.000000 
#    z 0.000000 0.000000 3.411040 
# 
# 
# High freq. dielectric constant tensor:
#      x y z
#    x 1.614080 0.000000 0.000000 
#    y 0.000000 1.688950 0.000000 
#    z 0.000000 0.000000 1.646750 
# 
# From -- ./inp_files/29227.got.cif
#   From: 2010.06.25/outbox.cif.g09.slc.cpg/sg52_15_cif.got.tgz:29227.got - 2010.06.26 19:32:48.
