data_PCOD8215453
_publ_section_title
;
Structure prediction by ZEFSAII (Michael W. Deem and Ramdas Pophale) SiO2 
 PCOD8215453
Probable space group: P N N A
;
_chemical_formula_sum "Si O2"
_cell_formula_units_Z 40
_cell_length_a 16.330190
_cell_length_b 8.835915
_cell_length_c 10.874707
_cell_angle_alpha 90.000000
_cell_angle_beta 90.000000
_cell_angle_gamma 90.000000
_cell_volume 1569.135080
_symmetry_space_group_name_H-M "P N N A"
_symmetry_group_IT_number 52
_symmetry_cell_setting 'orthorhombic'
loop_
_space_group_symop_operation_xyz
x,y,z
1/2-x,-y,z
x,1/2-y,1/2-z
1/2-x,1/2+y,1/2-z
-x,-y,-z
1/2+x,y,-z
-x,1/2+y,1/2+z
1/2+x,1/2-y,1/2+z
loop_
_atom_site_type_symbol
_atom_site_label
_atom_site_fract_x
_atom_site_fract_y
_atom_site_fract_z
Si Si1 0.941175 0.459183 0.263271
Si Si2 0.477928 0.838431 0.558164
Si Si3 0.610629 0.161406 0.856196
Si Si4 0.371749 0.124195 0.013890
Si Si5 0.288957 0.338890 0.862267
O O1 0.948876 0.624020 0.197695
O O2 0.896567 0.475883 0.394246
O O3 0.885289 0.356347 0.171978
O O4 0.027280 0.379416 0.283053
O O5 0.405169 0.764184 0.477167
O O6 0.552714 0.720511 0.566620
O O7 0.500000 0.000000 0.500000
O O8 0.662498 0.250000 0.750000
O O9 0.655305 0.003339 0.888798
O O10 0.292969 0.231517 0.983465
O O11 0.250000 0.500000 0.891998
O O12 0.243416 0.250000 0.750000
#
# Coordination Sequence:
#
# PCOD8215453 Si02
#       5
#     8   8   8   8   8
#     4  10  19  36  59  89 139 157 205 263 325 392
#     4  11  18  32  57  91 126 165 201 254 334 377
#     4  11  21  35  52  88 138 171 203 257 333 391
#     4  10  22  36  56  88 135 168 205 268 322 386
#     4  10  21  42  59  85 127 173 217 268 326 403
#
# _framework density 25.491752000000002
#
# number of rings (size 3 to 8) (size 9 to 14) (size 15 to 20)
#    0.000    1.600    4.000    4.200    0.000    3.200 
#   10.800    0.000    0.000    0.000    0.000    0.000 
#   60.000   16.800    0.000    0.000    0.000    0.000 
#
# Total GULP energy -495583.934635 kJ/mol
# GULP energy per Si atom -12389.598366 kJ/mol
# Density = 2.543373 g / cm^3
# Si number density = 25.491752 Si / 1000 Ang^3
#
#
#
# Elastic Constant Matrix: (Units=GPa)
#
#
# Indices 1 2 3 4 5 6 
#
# 1 23.9870 27.1720 10.4465 0.0000 0.0000 0.0000
# 2 27.1720 220.0072 91.8163 0.0000 0.0000 0.0000
# 3 10.4465 91.8163 90.0636 0.0000 0.0000 0.0000
# 4 0.0000 0.0000 0.0000 77.4740 0.0000 0.0000
# 5 0.0000 0.0000 0.0000 0.0000 4.0520 0.0000
# 6 0.0000 0.0000 0.0000 0.0000 0.0000 21.5493
#
#
#
# Elastic Compliance Matrix: (Units=1/GPa)
#
#
# Indices 1 2 3 4 5 6 
#
# 1 0.048507 -0.006340 0.000837 0.000000 0.000000 0.000000
# 2 -0.006340 0.008740 -0.008175 0.000000 0.000000 0.000000
# 3 0.000837 -0.008175 0.019340 0.000000 0.000000 0.000000
# 4 0.000000 0.000000 0.000000 0.012908 0.000000 0.000000
# 5 0.000000 0.000000 0.000000 0.000000 0.246789 0.000000
# 6 0.000000 0.000000 0.000000 0.000000 0.000000 0.046405
#
#
# Mechanical properties :
#
#
# Convention : Reuss Voigt Hill
#
# Bulk Modulus (GPa) = 20.31222 65.88085 43.09653
# Shear Modulus (GPa) = 11.72461 34.25661 22.99061
#
# Velocity S-wave (km/s) = 2.14694 3.66981 3.00640
# Velocity P-wave (km/s) = 3.75916 6.62244 5.38461
#
# Compressibility (1/GPa) = 0.04923144
#
# Stress axis : x y z
#
# Youngs Moduli (GPa) = 20.61568 114.41816 51.70696
#
# Poissons Ratio (x) = 0.72545 -0.04330
# Poissons Ratio (y) = 0.13071 0.42268
# Poissons Ratio (z) = -0.01726 0.93532
#
# Static dielectric constant tensor:
#      x y z
#    x 3.927120 0.000000 0.000000 
#    y 0.000000 5.047400 0.000000 
#    z 0.000000 0.000000 5.250290 
# 
# 
# High freq. dielectric constant tensor:
#      x y z
#    x 1.950150 0.000000 0.000000 
#    y 0.000000 2.051440 0.000000 
#    z 0.000000 0.000000 2.012230 
# 
# From -- ./inp_files/20272.got.cif
#   From: 2010.06.25/outbox.cif.g09.slc.cpg/sg52_11_cif.got.tgz:20272.got - 2010.06.26 19:32:48.
