data_PCOD8215921
_publ_section_title
;
Structure prediction by ZEFSAII (Michael W. Deem and Ramdas Pophale) SiO2 
 PCOD8215921
Probable space group: P N N A
;
_chemical_formula_sum "Si O2"
_cell_formula_units_Z 36
_cell_length_a 27.635931
_cell_length_b 10.144744
_cell_length_c 5.182246
_cell_angle_alpha 90.000000
_cell_angle_beta 90.000000
_cell_angle_gamma 90.000000
_cell_volume 1452.891613
_symmetry_space_group_name_H-M "P N N A"
_symmetry_group_IT_number 52
_symmetry_cell_setting 'orthorhombic'
loop_
_space_group_symop_operation_xyz
x,y,z
1/2-x,-y,z
x,1/2-y,1/2-z
1/2-x,1/2+y,1/2-z
-x,-y,-z
1/2+x,y,-z
-x,1/2+y,1/2+z
1/2+x,1/2-y,1/2+z
loop_
_atom_site_type_symbol
_atom_site_label
_atom_site_fract_x
_atom_site_fract_y
_atom_site_fract_z
Si Si1 0.656102 0.750000 0.250000
Si Si2 0.250000 0.500000 0.510362
Si Si3 0.010509 0.250000 0.250000
Si Si4 0.782751 0.250000 0.750000
Si Si5 0.052377 0.750000 0.250000
Si Si6 0.090942 0.040077 0.310494
Si Si7 0.643431 0.025148 0.187287
O O1 0.686933 0.793186 0.500241
O O2 0.623076 0.874185 0.175569
O O3 0.249928 0.626422 0.326582
O O4 0.298009 0.514996 0.686419
O O5 0.040742 0.381933 0.185782
O O6 0.979541 0.284330 0.501162
O O7 0.084123 0.881047 0.314112
O O8 0.122843 0.090404 0.554271
O O9 0.121445 0.093114 0.065193
#
# Coordination Sequence:
#
# PCOD8215921 Si02
#       7
#     4   4   4   4   4   8   8
#     4  10  20  39  62  89 124 173 232 276 304 371
#     4  10  24  44  68  96 138 190 228 270 324 384
#     4  12  26  46  70 103 136 165 210 274 356 420
#     4  10  22  38  62  90 122 173 236 275 314 372
#     4  12  24  47  76  96 128 175 220 271 340 411
#     4  12  25  43  69 102 135 171 221 278 329 397
#     4  11  23  41  66  97 137 179 227 272 322 382
#
# _framework density 24.778174
#
# number of rings (size 3 to 8) (size 9 to 14) (size 15 to 20)
#    0.000    0.889    0.000    8.000    0.000    9.778 
#    0.000    6.667    0.000    1.333    0.000    0.000 
#    0.000    0.000    0.000    0.000    0.000    0.000 
#
# Total GULP energy -446228.455793 kJ/mol
# GULP energy per Si atom -12395.234883 kJ/mol
# Density = 2.472178 g / cm^3
# Si number density = 24.778174 Si / 1000 Ang^3
#
#
#
# Elastic Constant Matrix: (Units=GPa)
#
#
# Indices 1 2 3 4 5 6 
#
# 1 117.9298 7.8516 77.3466 0.0000 0.0000 0.0000
# 2 7.8516 86.5875 16.0053 0.0000 0.0000 0.0000
# 3 77.3466 16.0053 221.7626 0.0000 0.0000 0.0000
# 4 0.0000 0.0000 0.0000 23.9040 0.0000 0.0000
# 5 0.0000 0.0000 0.0000 0.0000 53.6646 0.0000
# 6 0.0000 0.0000 0.0000 0.0000 0.0000 242.5688
#
#
#
# Elastic Compliance Matrix: (Units=1/GPa)
#
#
# Indices 1 2 3 4 5 6 
#
# 1 0.011002 -0.000292 -0.003816 0.000000 0.000000 0.000000
# 2 -0.000292 0.011713 -0.000743 0.000000 0.000000 0.000000
# 3 -0.003816 -0.000743 0.005894 0.000000 0.000000 0.000000
# 4 0.000000 0.000000 0.000000 0.041834 0.000000 0.000000
# 5 0.000000 0.000000 0.000000 0.000000 0.018634 0.000000
# 6 0.000000 0.000000 0.000000 0.000000 0.000000 0.004123
#
#
# Mechanical properties :
#
#
# Convention : Reuss Voigt Hill
#
# Bulk Modulus (GPa) = 52.89551 69.85410 61.37481
# Shear Modulus (GPa) = 45.78535 85.69923 65.74229
#
# Velocity S-wave (km/s) = 4.30328 5.88742 5.15654
# Velocity P-wave (km/s) = 6.78859 8.62952 7.76381
#
# Compressibility (1/GPa) = 0.01890520
#
# Stress axis : x y z
#
# Youngs Moduli (GPa) = 90.89246 85.37577 169.66401
#
# Poissons Ratio (x) = 0.02495 0.64747
# Poissons Ratio (y) = 0.02656 0.12613
# Poissons Ratio (z) = 0.34686 0.06347
#
# Static dielectric constant tensor:
#      x y z
#    x 4.222890 0.000000 0.000000 
#    y 0.000000 4.478760 0.000000 
#    z 0.000000 0.000000 4.589850 
# 
# 
# High freq. dielectric constant tensor:
#      x y z
#    x 1.975290 0.000000 0.000000 
#    y 0.000000 1.983540 0.000000 
#    z 0.000000 0.000000 2.014430 
# 
# From -- ./inp_files/4972.got.cif
#   From: 2010.06.25/outbox.cif.g09.slc.cpg/sg52_3_cif.got.tgz:4972.got - 2010.06.26 19:32:48.
