data_PCOD8215862
_publ_section_title
;
Structure prediction by ZEFSAII (Michael W. Deem and Ramdas Pophale) SiO2 
 PCOD8215862
Probable space group: P N N A
;
_chemical_formula_sum "Si O2"
_cell_formula_units_Z 48
_cell_length_a 27.390438
_cell_length_b 14.198897
_cell_length_c 6.197141
_cell_angle_alpha 90.000000
_cell_angle_beta 90.000000
_cell_angle_gamma 90.000000
_cell_volume 2410.154944
_symmetry_space_group_name_H-M "P N N A"
_symmetry_group_IT_number 52
_symmetry_cell_setting 'orthorhombic'
loop_
_space_group_symop_operation_xyz
x,y,z
1/2-x,-y,z
x,1/2-y,1/2-z
1/2-x,1/2+y,1/2-z
-x,-y,-z
1/2+x,y,-z
-x,1/2+y,1/2+z
1/2+x,1/2-y,1/2+z
loop_
_atom_site_type_symbol
_atom_site_label
_atom_site_fract_x
_atom_site_fract_y
_atom_site_fract_z
Si Si1 0.811115 0.343250 0.132804
Si Si2 0.771578 0.904371 0.056014
Si Si3 0.101126 0.340349 0.134397
Si Si4 0.763653 0.250000 0.750000
Si Si5 0.958362 0.924794 0.022830
Si Si6 0.458170 0.750000 0.750000
Si Si7 0.135732 0.468500 0.795480
O O1 0.831423 0.250000 0.250000
O O2 0.760811 0.379682 0.236237
O O3 0.852034 0.423240 0.152091
O O4 0.799383 0.317335 0.886635
O O5 0.827070 0.919722 0.128796
O O6 0.750000 0.000000 0.948463
O O7 0.770948 0.817141 0.891898
O O8 0.126736 0.250000 0.250000
O O9 0.064371 0.395884 0.292956
O O10 0.074319 0.298314 0.929864
O O11 0.138724 0.414947 0.028267
O O12 0.986713 0.834539 0.130607
O O13 0.916982 0.964966 0.182975
O O14 0.000000 0.000000 0.000000
#
# Coordination Sequence:
#
# PCOD8215862 Si02
#       7
#     8   8   8   4   8   4   8
#     4   9  20  39  56  82 121 156 198 247 288 352
#     4   9  20  38  57  84 121 156 195 243 293 351
#     4   9  19  38  58  83 115 151 190 242 294 354
#     4  10  20  38  62  83 114 162 202 239 294 352
#     4  10  21  39  61  85 115 154 195 244 303 355
#     4   8  18  38  56  81 114 146 188 241 288 354
#     4  10  21  38  60  87 121 155 198 247 301 360
#
# _framework density 19.915732999999999
#
# number of rings (size 3 to 8) (size 9 to 14) (size 15 to 20)
#    0.000    2.667    0.000    0.000    0.000   10.000 
#   36.000    4.167    0.000    2.000    0.000    0.000 
#    0.000    0.000    0.000    0.000    0.000    0.000 
#
# Total GULP energy -594764.029667 kJ/mol
# GULP energy per Si atom -12390.917285 kJ/mol
# Density = 1.987040 g / cm^3
# Si number density = 19.915733 Si / 1000 Ang^3
#
#
#
# Elastic Constant Matrix: (Units=GPa)
#
#
# Indices 1 2 3 4 5 6 
#
# 1 88.3034 68.7859 37.3073 0.0000 0.0000 0.0000
# 2 68.7859 174.3423 65.1720 0.0000 0.0000 0.0000
# 3 37.3073 65.1720 102.7160 0.0000 0.0000 0.0000
# 4 0.0000 0.0000 0.0000 38.0712 0.0000 0.0000
# 5 0.0000 0.0000 0.0000 0.0000 13.6026 0.0000
# 6 0.0000 0.0000 0.0000 0.0000 0.0000 28.6684
#
#
#
# Elastic Compliance Matrix: (Units=1/GPa)
#
#
# Indices 1 2 3 4 5 6 
#
# 1 0.016821 -0.005706 -0.002489 0.000000 0.000000 0.000000
# 2 -0.005706 0.009455 -0.003927 0.000000 0.000000 0.000000
# 3 -0.002489 -0.003927 0.013131 0.000000 0.000000 0.000000
# 4 0.000000 0.000000 0.000000 0.026267 0.000000 0.000000
# 5 0.000000 0.000000 0.000000 0.000000 0.073516 0.000000
# 6 0.000000 0.000000 0.000000 0.000000 0.000000 0.034882
#
#
# Mechanical properties :
#
#
# Convention : Reuss Voigt Hill
#
# Bulk Modulus (GPa) = 65.94783 78.65468 72.30126
# Shear Modulus (GPa) = 24.58582 29.00819 26.79701
#
# Velocity S-wave (km/s) = 3.51735 3.82061 3.67211
# Velocity P-wave (km/s) = 7.04847 7.68390 7.37303
#
# Compressibility (1/GPa) = 0.01516350
#
# Stress axis : x y z
#
# Youngs Moduli (GPa) = 59.44874 105.76386 76.15592
#
# Poissons Ratio (x) = 0.60352 0.18955
# Poissons Ratio (y) = 0.33923 0.29903
# Poissons Ratio (z) = 0.14797 0.41528
#
# Static dielectric constant tensor:
#      x y z
#    x 3.076260 0.000000 0.000000 
#    y 0.000000 4.314430 0.000000 
#    z 0.000000 0.000000 4.114470 
# 
# 
# High freq. dielectric constant tensor:
#      x y z
#    x 1.725680 0.000000 0.000000 
#    y 0.000000 1.803830 0.000000 
#    z 0.000000 0.000000 1.791580 
# 
# From -- ./inp_files/5832.got.cif
#   From: 2010.06.25/outbox.cif.g09.slc.cpg/sg52_3_cif.got.tgz:5832.got - 2010.06.26 19:32:48.
