data_PCOD8215334
_publ_section_title
;
Structure prediction by ZEFSAII (Michael W. Deem and Ramdas Pophale) SiO2 
 PCOD8215334
Probable space group: P N N A
;
_chemical_formula_sum "Si O2"
_cell_formula_units_Z 40
_cell_length_a 4.985376
_cell_length_b 17.510359
_cell_length_c 22.118110
_cell_angle_alpha 90.000000
_cell_angle_beta 90.000000
_cell_angle_gamma 90.000000
_cell_volume 1930.816415
_symmetry_space_group_name_H-M "P N N A"
_symmetry_group_IT_number 52
_symmetry_cell_setting 'orthorhombic'
loop_
_space_group_symop_operation_xyz
x,y,z
1/2-x,-y,z
x,1/2-y,1/2-z
1/2-x,1/2+y,1/2-z
-x,-y,-z
1/2+x,y,-z
-x,1/2+y,1/2+z
1/2+x,1/2-y,1/2+z
loop_
_atom_site_type_symbol
_atom_site_label
_atom_site_fract_x
_atom_site_fract_y
_atom_site_fract_z
Si Si1 0.207083 0.326071 0.461514
Si Si2 0.998820 0.050513 0.351521
Si Si3 0.706659 0.149280 0.538616
Si Si4 0.267427 0.090111 0.768577
Si Si5 0.739106 0.908900 0.839181
O O1 0.408763 0.346049 0.516365
O O2 0.206658 0.237569 0.442703
O O3 0.307444 0.375582 0.405348
O O4 0.869213 0.106190 0.299995
O O5 0.130552 0.100239 0.403595
O O6 0.750000 0.000000 0.376664
O O7 0.250000 0.000000 0.324754
O O8 0.503950 0.128929 0.484081
O O9 0.481143 0.124376 0.815297
O O10 0.981057 0.122137 0.790533
O O11 0.250000 0.000000 0.774031
O O12 0.750000 0.000000 0.843999
#
# Coordination Sequence:
#
# PCOD8215334 Si02
#       5
#     8   8   8   8   8
#     4  10  21  37  55  77 110 147 179 220 275 324
#     4  11  21  35  58  83 109 142 184 229 274 330
#     4  10  22  38  55  78 112 148 180 223 277 324
#     4   9  18  33  52  78 107 137 171 219 276 315
#     4  10  19  33  56  80 106 139 179 221 264 321
#
# _framework density 20.716626000000002
#
# number of rings (size 3 to 8) (size 9 to 14) (size 15 to 20)
#    0.000    2.000    0.000    5.400    0.000    3.200 
#    0.000    1.000    0.000    7.200    0.000    0.000 
#    0.000    0.000    0.000    0.000    0.000    0.000 
#
# Total GULP energy -495694.167244 kJ/mol
# GULP energy per Si atom -12392.354181 kJ/mol
# Density = 2.066947 g / cm^3
# Si number density = 20.716626 Si / 1000 Ang^3
#
#
#
# Elastic Constant Matrix: (Units=GPa)
#
#
# Indices 1 2 3 4 5 6 
#
# 1 92.4539 22.4707 14.6334 0.0000 0.0000 0.0000
# 2 22.4707 35.8984 37.3071 0.0000 0.0000 0.0000
# 3 14.6334 37.3071 106.7570 0.0000 0.0000 0.0000
# 4 0.0000 0.0000 0.0000 -27.0931 0.0000 0.0000
# 5 0.0000 0.0000 0.0000 0.0000 27.7502 0.0000
# 6 0.0000 0.0000 0.0000 0.0000 0.0000 20.7519
#
#
#
# Elastic Compliance Matrix: (Units=1/GPa)
#
#
# Indices 1 2 3 4 5 6 
#
# 1 0.012942 -0.009826 0.001660 0.000000 0.000000 0.000000
# 2 -0.009826 0.051202 -0.016546 0.000000 0.000000 0.000000
# 3 0.001660 -0.016546 0.014922 0.000000 0.000000 0.000000
# 4 0.000000 0.000000 0.000000 -0.036910 0.000000 0.000000
# 5 0.000000 0.000000 0.000000 0.000000 0.036036 0.000000
# 6 0.000000 0.000000 0.000000 0.000000 0.000000 0.048188
#
#
# Mechanical properties :
#
#
# Convention : Reuss Voigt Hill
#
# Bulk Modulus (GPa) = 33.73667 42.65907 38.19787
# Shear Modulus (GPa) = 26.92729 14.99500 20.96115
#
# Velocity S-wave (km/s) = 3.60917 2.69330 3.18434
# Velocity P-wave (km/s) = 5.80417 5.50529 5.65670
#
# Compressibility (1/GPa) = 0.02964133
#
# Stress axis : x y z
#
# Youngs Moduli (GPa) = 77.27012 19.53032 67.01602
#
# Poissons Ratio (x) = 0.19190 -0.11123
# Poissons Ratio (y) = 0.75923 1.10887
# Poissons Ratio (z) = -0.12825 0.32315
#
# Static dielectric constant tensor:
#      x y z
#    x 4.360140 0.000000 0.000000 
#    y 0.000000 3.339190 0.000000 
#    z 0.000000 0.000000 3.758020 
# 
# 
# High freq. dielectric constant tensor:
#      x y z
#    x 1.840490 0.000000 0.000000 
#    y 0.000000 1.761630 0.000000 
#    z 0.000000 0.000000 1.811690 
# 
# From -- ./inp_files/30136.got.cif
#   From: 2010.06.25/outbox.cif.g09.slc.cpg/sg52_16_cif.got.tgz:30136.got - 2010.06.26 19:32:48.
