data_PCOD8215785
_publ_section_title
;
Structure prediction by ZEFSAII (Michael W. Deem and Ramdas Pophale) SiO2 
 PCOD8215785
Probable space group: P N N A
;
_chemical_formula_sum "Si O2"
_cell_formula_units_Z 28
_cell_length_a 16.430449
_cell_length_b 13.051761
_cell_length_c 6.902614
_cell_angle_alpha 90.000000
_cell_angle_beta 90.000000
_cell_angle_gamma 90.000000
_cell_volume 1480.239988
_symmetry_space_group_name_H-M "P N N A"
_symmetry_group_IT_number 52
_symmetry_cell_setting 'orthorhombic'
loop_
_space_group_symop_operation_xyz
x,y,z
1/2-x,-y,z
x,1/2-y,1/2-z
1/2-x,1/2+y,1/2-z
-x,-y,-z
1/2+x,y,-z
-x,1/2+y,1/2+z
1/2+x,1/2-y,1/2+z
loop_
_atom_site_type_symbol
_atom_site_label
_atom_site_fract_x
_atom_site_fract_y
_atom_site_fract_z
Si Si1 0.527816 0.947598 0.698349
Si Si2 0.219943 0.838789 0.907910
Si Si3 0.624387 0.035098 0.041185
Si Si4 0.880077 0.250000 0.750000
O O1 0.450786 0.927493 0.833318
O O2 0.564339 0.836553 0.649556
O O3 0.500000 0.000000 0.500000
O O4 0.594757 0.013255 0.819901
O O5 0.221702 0.750000 0.750000
O O6 0.310921 0.873169 0.962968
O O7 0.164461 0.936708 0.849934
O O8 0.179981 0.795198 0.096300
#
# Coordination Sequence:
#
# PCOD8215785 Si02
#       4
#     8   8   8   4
#     4  10  20  38  59  82 117 153 189 245 293 343
#     4  10  20  37  58  82 117 154 187 242 287 342
#     4   9  21  37  55  86 117 145 197 240 283 348
#     4  10  22  36  58  88 114 150 204 228 292 360
#
# _framework density 18.915849999999999
#
# number of rings (size 3 to 8) (size 9 to 14) (size 15 to 20)
#    0.000    2.286    0.000    1.714    2.000    2.286 
#    0.000    5.714    0.000    0.000    0.000    0.000 
#    0.000    0.000    0.000    0.000    0.000    0.000 
#
# Total GULP energy -347077.519127 kJ/mol
# GULP energy per Si atom -12395.625683 kJ/mol
# Density = 1.887280 g / cm^3
# Si number density = 18.915850 Si / 1000 Ang^3
#
#
#
# Elastic Constant Matrix: (Units=GPa)
#
#
# Indices 1 2 3 4 5 6 
#
# 1 111.9874 53.4038 30.3006 0.0000 0.0000 0.0000
# 2 53.4038 112.5225 48.6923 0.0000 0.0000 0.0000
# 3 30.3006 48.6923 78.3570 0.0000 0.0000 0.0000
# 4 0.0000 0.0000 0.0000 31.4914 0.0000 0.0000
# 5 0.0000 0.0000 0.0000 0.0000 18.5267 0.0000
# 6 0.0000 0.0000 0.0000 0.0000 0.0000 105.5179
#
#
#
# Elastic Compliance Matrix: (Units=1/GPa)
#
#
# Indices 1 2 3 4 5 6 
#
# 1 0.011663 -0.004902 -0.001464 0.000000 0.000000 0.000000
# 2 -0.004902 0.014216 -0.006939 0.000000 0.000000 0.000000
# 3 -0.001464 -0.006939 0.017640 0.000000 0.000000 0.000000
# 4 0.000000 0.000000 0.000000 0.031755 0.000000 0.000000
# 5 0.000000 0.000000 0.000000 0.000000 0.053976 0.000000
# 6 0.000000 0.000000 0.000000 0.000000 0.000000 0.009477
#
#
# Mechanical properties :
#
#
# Convention : Reuss Voigt Hill
#
# Bulk Modulus (GPa) = 59.13543 63.07337 61.10440
# Shear Modulus (GPa) = 29.24437 42.47189 35.85813
#
# Velocity S-wave (km/s) = 3.93622 4.74361 4.35865
# Velocity P-wave (km/s) = 7.21032 7.96360 7.59630
#
# Compressibility (1/GPa) = 0.01691033
#
# Stress axis : x y z
#
# Youngs Moduli (GPa) = 85.73897 70.34254 56.68939
#
# Poissons Ratio (x) = 0.34481 0.08300
# Poissons Ratio (y) = 0.42029 0.39334
# Poissons Ratio (z) = 0.12553 0.48808
#
# Static dielectric constant tensor:
#      x y z
#    x 3.671970 0.000000 0.000000 
#    y 0.000000 6.856930 0.000000 
#    z 0.000000 0.000000 3.307640 
# 
# 
# High freq. dielectric constant tensor:
#      x y z
#    x 1.755490 0.000000 0.000000 
#    y 0.000000 1.738880 0.000000 
#    z 0.000000 0.000000 1.722900 
# 
# From -- ./inp_files/2921.got.cif
#   From: 2010.06.25/outbox.cif.g09.slc.cpg/sg52_2_cif.got.tgz:2921.got - 2010.06.26 19:32:48.
