data_PCOD8215086
_publ_section_title
;
Structure prediction by ZEFSAII (Michael W. Deem and Ramdas Pophale) SiO2 
 PCOD8215086
Probable space group: P N N A
;
_chemical_formula_sum "Si O2"
_cell_formula_units_Z 44
_cell_length_a 5.489039
_cell_length_b 20.095258
_cell_length_c 23.921650
_cell_angle_alpha 90.000000
_cell_angle_beta 90.000000
_cell_angle_gamma 90.000000
_cell_volume 2638.645426
_symmetry_space_group_name_H-M "P N N A"
_symmetry_group_IT_number 52
_symmetry_cell_setting 'orthorhombic'
loop_
_space_group_symop_operation_xyz
x,y,z
1/2-x,-y,z
x,1/2-y,1/2-z
1/2-x,1/2+y,1/2-z
-x,-y,-z
1/2+x,y,-z
-x,1/2+y,1/2+z
1/2+x,1/2-y,1/2+z
loop_
_atom_site_type_symbol
_atom_site_label
_atom_site_fract_x
_atom_site_fract_y
_atom_site_fract_z
Si Si1 0.917381 0.699327 0.197732
Si Si2 0.439365 0.114317 0.858560
Si Si3 0.750000 0.500000 0.667458
Si Si4 0.133158 0.433137 0.742498
Si Si5 0.414624 0.748929 0.182631
Si Si6 0.755630 0.578422 0.469330
O O1 0.916386 0.750000 0.250000
O O2 0.933575 0.621112 0.211454
O O3 0.665880 0.712117 0.163482
O O4 0.164774 0.713041 0.162305
O O5 0.601540 0.048923 0.873319
O O6 0.320479 0.102000 0.798811
O O7 0.595578 0.180551 0.849127
O O8 0.249820 0.117707 0.909829
O O9 0.602012 0.548604 0.707421
O O10 0.250000 0.500000 0.769641
O O11 0.411456 0.750000 0.250000
O O12 0.750000 0.500000 0.459223
O O13 0.510260 0.600813 0.502519
#
# Coordination Sequence:
#
# PCOD8215086 Si02
#       6
#     8   8   4   8   8   8
#     4  10  18  31  45  65  92 120 153 197 232 289
#     4  11  21  33  49  70  90 128 168 213 255 291
#     4  10  20  28  46  66  92 114 164 210 244 280
#     4  10  20  30  45  70  92 126 162 207 241 285
#     4  10  19  31  49  66  91 119 155 202 236 299
#     4  10  23  37  50  67  94 127 169 219 266 296
#
# _framework density 16.675224
#
# number of rings (size 3 to 8) (size 9 to 14) (size 15 to 20)
#    0.000    1.818    3.636    3.818    8.909    0.000 
#    0.000    0.000    0.000    0.000    0.000    0.000 
#    0.000    0.000    0.000    0.000    0.000   18.182 
#
# Total GULP energy -545147.682198 kJ/mol
# GULP energy per Si atom -12389.720050 kJ/mol
# Density = 1.663727 g / cm^3
# Si number density = 16.675224 Si / 1000 Ang^3
#
#
#
# Elastic Constant Matrix: (Units=GPa)
#
#
# Indices 1 2 3 4 5 6 
#
# 1 138.1392 43.1433 15.5151 0.0000 0.0000 0.0000
# 2 43.1433 99.8447 31.0521 0.0000 0.0000 0.0000
# 3 15.5151 31.0521 30.3796 0.0000 0.0000 0.0000
# 4 0.0000 0.0000 0.0000 21.0883 0.0000 0.0000
# 5 0.0000 0.0000 0.0000 0.0000 15.2148 0.0000
# 6 0.0000 0.0000 0.0000 0.0000 0.0000 10.9482
#
#
#
# Elastic Compliance Matrix: (Units=1/GPa)
#
#
# Indices 1 2 3 4 5 6 
#
# 1 0.008383 -0.003359 -0.000848 0.000000 0.000000 0.000000
# 2 -0.003359 0.016029 -0.014668 0.000000 0.000000 0.000000
# 3 -0.000848 -0.014668 0.048343 0.000000 0.000000 0.000000
# 4 0.000000 0.000000 0.000000 0.047420 0.000000 0.000000
# 5 0.000000 0.000000 0.000000 0.000000 0.065726 0.000000
# 6 0.000000 0.000000 0.000000 0.000000 0.000000 0.091339
#
#
# Mechanical properties :
#
#
# Convention : Reuss Voigt Hill
#
# Bulk Modulus (GPa) = 28.56782 49.75385 39.16083
# Shear Modulus (GPa) = 15.30651 21.36045 18.33348
#
# Velocity S-wave (km/s) = 3.03301 3.58295 3.31938
# Velocity P-wave (km/s) = 5.42536 6.85700 6.18276
#
# Compressibility (1/GPa) = 0.03500443
#
# Stress axis : x y z
#
# Youngs Moduli (GPa) = 119.28451 62.38810 20.68549
#
# Poissons Ratio (x) = 0.20954 0.01755
# Poissons Ratio (y) = 0.40063 0.30342
# Poissons Ratio (z) = 0.10121 0.91512
#
# Static dielectric constant tensor:
#      x y z
#    x 4.026380 0.000000 0.000000 
#    y 0.000000 16.128120 0.000000 
#    z 0.000000 0.000000 2.625490 
# 
# 
# High freq. dielectric constant tensor:
#      x y z
#    x 1.675420 0.000000 0.000000 
#    y 0.000000 1.627680 0.000000 
#    z 0.000000 0.000000 1.562240 
# 
# From -- ./inp_files/35115.got.cif
#   From: 2010.06.25/outbox.cif.g09.slc.cpg/sg52_18_cif.got.tgz:35115.got - 2010.06.26 19:32:48.
