data_PCOD8215415
_publ_section_title
;
Structure prediction by ZEFSAII (Michael W. Deem and Ramdas Pophale) SiO2 
 PCOD8215415
Probable space group: P N N A
;
_chemical_formula_sum "Si O2"
_cell_formula_units_Z 48
_cell_length_a 10.269361
_cell_length_b 19.051088
_cell_length_c 13.075552
_cell_angle_alpha 90.000000
_cell_angle_beta 90.000000
_cell_angle_gamma 90.000000
_cell_volume 2558.133684
_symmetry_space_group_name_H-M "P N N A"
_symmetry_group_IT_number 52
_symmetry_cell_setting 'orthorhombic'
loop_
_space_group_symop_operation_xyz
x,y,z
1/2-x,-y,z
x,1/2-y,1/2-z
1/2-x,1/2+y,1/2-z
-x,-y,-z
1/2+x,y,-z
-x,1/2+y,1/2+z
1/2+x,1/2-y,1/2+z
loop_
_atom_site_type_symbol
_atom_site_label
_atom_site_fract_x
_atom_site_fract_y
_atom_site_fract_z
Si Si1 0.021105 0.052637 0.359271
Si Si2 0.520765 0.386073 0.473431
Si Si3 0.399934 0.506798 0.356905
Si Si4 0.301170 0.340715 0.835276
Si Si5 0.645536 0.442208 0.053780
Si Si6 0.714569 0.680922 0.397103
O O1 0.919800 0.114968 0.381250
O O2 0.041692 0.047249 0.239379
O O3 0.143749 0.073879 0.431290
O O4 0.987949 0.975093 0.403193
O O5 0.465384 0.430316 0.376470
O O6 0.583817 0.443303 0.546695
O O7 0.639279 0.334094 0.440780
O O8 0.399284 0.345933 0.526690
O O9 0.250000 0.500000 0.332863
O O10 0.169132 0.370573 0.884740
O O11 0.296785 0.354522 0.713766
O O12 0.311788 0.262125 0.875593
O O13 0.750000 0.500000 0.085346
#
# Coordination Sequence:
#
# PCOD8215415 Si02
#       6
#     8   8   8   8   8   8
#     4  10  19  35  60  86 120 152 208 252 313 353
#     4  11  23  39  61  91 123 162 203 252 314 369
#     4  11  21  36  61  93 123 155 200 266 311 361
#     4  10  22  38  61  83 119 166 205 249 299 372
#     4   9  19  35  55  87 112 157 201 256 300 357
#     4  11  23  41  61  89 124 164 209 244 307 377
#
# _framework density 18.763677999999999
#
# number of rings (size 3 to 8) (size 9 to 14) (size 15 to 20)
#    0.000    1.667    3.333    1.500    2.333    0.000 
#    0.000    0.000    0.000    4.000    0.000    0.000 
#    0.000    0.000    0.000    0.000    0.000    0.000 
#
# Total GULP energy -594676.401074 kJ/mol
# GULP energy per Si atom -12389.091689 kJ/mol
# Density = 1.872097 g / cm^3
# Si number density = 18.763678 Si / 1000 Ang^3
#
#
#
# Elastic Constant Matrix: (Units=GPa)
#
#
# Indices 1 2 3 4 5 6 
#
# 1 86.8835 38.2781 21.9992 0.0000 0.0000 0.0000
# 2 38.2781 75.3738 41.8718 0.0000 0.0000 0.0000
# 3 21.9992 41.8718 84.4879 0.0000 0.0000 0.0000
# 4 0.0000 0.0000 0.0000 23.6200 0.0000 0.0000
# 5 0.0000 0.0000 0.0000 0.0000 31.1722 0.0000
# 6 0.0000 0.0000 0.0000 0.0000 0.0000 22.5044
#
#
#
# Elastic Compliance Matrix: (Units=1/GPa)
#
#
# Indices 1 2 3 4 5 6 
#
# 1 0.014829 -0.007432 -0.000178 0.000000 0.000000 0.000000
# 2 -0.007432 0.022032 -0.008984 0.000000 0.000000 0.000000
# 3 -0.000178 -0.008984 0.016335 0.000000 0.000000 0.000000
# 4 0.000000 0.000000 0.000000 0.042337 0.000000 0.000000
# 5 0.000000 0.000000 0.000000 0.000000 0.032080 0.000000
# 6 0.000000 0.000000 0.000000 0.000000 0.000000 0.044436
#
#
# Mechanical properties :
#
#
# Convention : Reuss Voigt Hill
#
# Bulk Modulus (GPa) = 49.97926 50.11593 50.04759
# Shear Modulus (GPa) = 23.59541 25.09907 24.34724
#
# Velocity S-wave (km/s) = 3.54998 3.66135 3.60609
# Velocity P-wave (km/s) = 6.59524 6.68139 6.63845
#
# Compressibility (1/GPa) = 0.02000830
#
# Stress axis : x y z
#
# Youngs Moduli (GPa) = 67.43537 45.38807 61.21919
#
# Poissons Ratio (x) = 0.33732 0.01090
# Poissons Ratio (y) = 0.50118 0.54999
# Poissons Ratio (z) = 0.01200 0.40776
#
# Static dielectric constant tensor:
#      x y z
#    x 3.491180 0.000000 0.000000 
#    y 0.000000 3.414620 0.000000 
#    z 0.000000 0.000000 3.576940 
# 
# 
# High freq. dielectric constant tensor:
#      x y z
#    x 1.726640 0.000000 0.000000 
#    y 0.000000 1.721230 0.000000 
#    z 0.000000 0.000000 1.737780 
# 
# From -- ./inp_files/18195.got.cif
#   From: 2010.06.25/outbox.cif.g09.slc.cpg/sg52_10_cif.got.tgz:18195.got - 2010.06.26 19:32:48.
