data_PCOD8215373
_publ_section_title
;
Structure prediction by ZEFSAII (Michael W. Deem and Ramdas Pophale) SiO2 
 PCOD8215373
Probable space group: P N N A
;
_chemical_formula_sum "Si O2"
_cell_formula_units_Z 64
_cell_length_a 17.560674
_cell_length_b 14.248764
_cell_length_c 14.044041
_cell_angle_alpha 90.000000
_cell_angle_beta 90.000000
_cell_angle_gamma 90.000000
_cell_volume 3514.070440
_symmetry_space_group_name_H-M "P N N A"
_symmetry_group_IT_number 52
_symmetry_cell_setting 'orthorhombic'
loop_
_space_group_symop_operation_xyz
x,y,z
1/2-x,-y,z
x,1/2-y,1/2-z
1/2-x,1/2+y,1/2-z
-x,-y,-z
1/2+x,y,-z
-x,1/2+y,1/2+z
1/2+x,1/2-y,1/2+z
loop_
_atom_site_type_symbol
_atom_site_label
_atom_site_fract_x
_atom_site_fract_y
_atom_site_fract_z
Si Si1 0.441904 0.567628 0.371379
Si Si2 0.903762 0.359349 0.140646
Si Si3 0.800305 0.240349 0.853953
Si Si4 0.103642 0.640539 0.643367
Si Si5 0.173261 0.560470 0.469343
Si Si6 0.823370 0.432462 0.962068
Si Si7 0.570200 0.438801 0.849492
Si Si8 0.872507 0.751308 0.853807
O O1 0.532806 0.570305 0.374769
O O2 0.403784 0.494593 0.443065
O O3 0.412644 0.548041 0.263075
O O4 0.415360 0.668809 0.412843
O O5 0.870226 0.366727 0.247189
O O6 0.915702 0.248940 0.115791
O O7 0.981796 0.417947 0.131485
O O8 0.843610 0.409740 0.071369
O O9 0.839082 0.250000 0.750000
O O10 0.836536 0.152078 0.905180
O O11 0.805590 0.334878 0.912722
O O12 0.712715 0.214222 0.841376
O O13 0.170914 0.597345 0.578316
O O14 0.250000 0.500000 0.451763
O O15 0.750000 0.500000 0.956362
O O16 0.897790 0.472644 0.907489
O O17 0.618031 0.352355 0.896187
O O18 0.914218 0.750000 0.750000
#
# Coordination Sequence:
#
# PCOD8215373 Si02
#       8
#     8   8   8   8   8   8   8   8
#     4  10  19  34  58  85 109 141 182 225 273 326
#     4  10  21  39  59  78 107 147 191 231 265 315
#     4  11  22  35  51  83 125 147 170 220 279 337
#     4  10  21  39  59  78 107 147 191 231 265 315
#     4  12  23  35  56  85 114 145 182 226 277 328
#     4  12  23  35  56  85 114 145 182 226 277 328
#     4  10  19  34  58  85 109 141 182 225 273 326
#     4   9  16  29  52  81 109 139 177 216 262 325
#
# _framework density 18.212496999999999
#
# number of rings (size 3 to 8) (size 9 to 14) (size 15 to 20)
#    0.000    1.500    5.000    1.500    0.000    1.500 
#    0.000    0.000    0.000    0.000    0.000    0.000 
#    0.000    0.000    0.000    0.000    0.000    0.000 
#
# Total GULP energy -793098.008873 kJ/mol
# GULP energy per Si atom -12392.156389 kJ/mol
# Density = 1.817104 g / cm^3
# Si number density = 18.212497 Si / 1000 Ang^3
#
#
#
# Elastic Constant Matrix: (Units=GPa)
#
#
# Indices 1 2 3 4 5 6 
#
# 1 42.6987 26.1547 27.7133 0.0000 0.0000 0.0000
# 2 26.1547 96.7643 41.8842 0.0000 0.0000 0.0000
# 3 27.7133 41.8842 98.3380 0.0000 0.0000 0.0000
# 4 0.0000 0.0000 0.0000 29.0826 0.0000 0.0000
# 5 0.0000 0.0000 0.0000 0.0000 27.6203 0.0000
# 6 0.0000 0.0000 0.0000 0.0000 0.0000 19.2831
#
#
#
# Elastic Compliance Matrix: (Units=1/GPa)
#
#
# Indices 1 2 3 4 5 6 
#
# 1 0.030980 -0.005633 -0.006331 0.000000 0.000000 0.000000
# 2 -0.005633 0.013695 -0.004245 0.000000 0.000000 0.000000
# 3 -0.006331 -0.004245 0.013761 0.000000 0.000000 0.000000
# 4 0.000000 0.000000 0.000000 0.034385 0.000000 0.000000
# 5 0.000000 0.000000 0.000000 0.000000 0.036205 0.000000
# 6 0.000000 0.000000 0.000000 0.000000 0.000000 0.051859
#
#
# Mechanical properties :
#
#
# Convention : Reuss Voigt Hill
#
# Bulk Modulus (GPa) = 38.43751 47.70060 43.06906
# Shear Modulus (GPa) = 22.52493 24.66712 23.59602
#
# Velocity S-wave (km/s) = 3.52061 3.68422 3.60334
# Velocity P-wave (km/s) = 6.13817 6.65928 6.40402
#
# Compressibility (1/GPa) = 0.02601625
#
# Stress axis : x y z
#
# Youngs Moduli (GPa) = 32.27913 73.02189 72.66669
#
# Poissons Ratio (x) = 0.41134 0.46008
# Poissons Ratio (y) = 0.18183 0.30849
# Poissons Ratio (z) = 0.20437 0.31000
#
# Static dielectric constant tensor:
#      x y z
#    x 3.146260 0.000000 0.000000 
#    y 0.000000 3.503060 0.000000 
#    z 0.000000 0.000000 3.341150 
# 
# 
# High freq. dielectric constant tensor:
#      x y z
#    x 1.689270 0.000000 0.000000 
#    y 0.000000 1.714450 0.000000 
#    z 0.000000 0.000000 1.692340 
# 
# From -- ./inp_files/28321.got.cif
#   From: 2010.06.25/outbox.cif.g09.slc.cpg/sg52_15_cif.got.tgz:28321.got - 2010.06.26 19:32:48.
