data_PCOD8215670
_publ_section_title
;
Structure prediction by ZEFSAII (Michael W. Deem and Ramdas Pophale) SiO2 
 PCOD8215670
Probable space group: P N N A
;
_chemical_formula_sum "Si O2"
_cell_formula_units_Z 44
_cell_length_a 11.830692
_cell_length_b 8.649372
_cell_length_c 23.207318
_cell_angle_alpha 90.000000
_cell_angle_beta 90.000000
_cell_angle_gamma 90.000000
_cell_volume 2374.759739
_symmetry_space_group_name_H-M "P N N A"
_symmetry_group_IT_number 52
_symmetry_cell_setting 'orthorhombic'
loop_
_space_group_symop_operation_xyz
x,y,z
1/2-x,-y,z
x,1/2-y,1/2-z
1/2-x,1/2+y,1/2-z
-x,-y,-z
1/2+x,y,-z
-x,1/2+y,1/2+z
1/2+x,1/2-y,1/2+z
loop_
_atom_site_type_symbol
_atom_site_label
_atom_site_fract_x
_atom_site_fract_y
_atom_site_fract_z
Si Si1 0.320107 0.659521 0.808066
Si Si2 0.328764 0.853482 0.923072
Si Si3 0.420888 0.207915 0.311726
Si Si4 0.706198 0.272516 0.546909
Si Si5 0.582062 0.570106 0.588343
Si Si6 0.750000 0.500000 0.878905
O O1 0.250000 0.500000 0.811701
O O2 0.281337 0.750000 0.750000
O O3 0.296776 0.761024 0.865273
O O4 0.454540 0.631142 0.806248
O O5 0.453861 0.919424 0.931099
O O6 0.250000 0.000000 0.928022
O O7 0.315369 0.746062 0.979295
O O8 0.371161 0.250000 0.250000
O O9 0.417509 0.370766 0.345647
O O10 0.341879 0.080757 0.339477
O O11 0.627726 0.397445 0.579704
O O12 0.838668 0.315658 0.551566
O O13 0.680442 0.115175 0.580142
#
# Coordination Sequence:
#
# PCOD8215670 Si02
#       6
#     8   8   8   8   8   4
#     4  10  22  41  59  82 115 147 185 237 277 327
#     4  11  21  34  59  84 107 150 190 224 278 341
#     4   9  20  39  58  80 112 146 186 231 280 326
#     4  10  20  35  54  78 117 145 183 226 283 332
#     4   9  19  37  53  79 112 146 180 230 275 328
#     4  10  22  36  54  86 112 144 184 238 278 332
#
# _framework density 18.528191
#
# number of rings (size 3 to 8) (size 9 to 14) (size 15 to 20)
#    0.000    2.182    1.818    1.091    1.273    4.364 
#    0.000    3.636    0.000    0.000    0.000    0.000 
#    0.000    0.000    0.000    0.000    0.000    0.000 
#
# Total GULP energy -545333.373365 kJ/mol
# GULP energy per Si atom -12393.940304 kJ/mol
# Density = 1.848602 g / cm^3
# Si number density = 18.528191 Si / 1000 Ang^3
#
#
#
# Elastic Constant Matrix: (Units=GPa)
#
#
# Indices 1 2 3 4 5 6 
#
# 1 100.8872 44.1043 57.6538 0.0000 0.0000 0.0000
# 2 44.1043 107.7330 72.1418 0.0000 0.0000 0.0000
# 3 57.6538 72.1418 167.6849 0.0000 0.0000 0.0000
# 4 0.0000 0.0000 0.0000 24.6749 0.0000 0.0000
# 5 0.0000 0.0000 0.0000 0.0000 26.8370 0.0000
# 6 0.0000 0.0000 0.0000 0.0000 0.0000 24.0829
#
#
#
# Elastic Compliance Matrix: (Units=1/GPa)
#
#
# Indices 1 2 3 4 5 6 
#
# 1 0.013122 -0.003302 -0.003091 0.000000 0.000000 0.000000
# 2 -0.003302 0.013869 -0.004832 0.000000 0.000000 0.000000
# 3 -0.003091 -0.004832 0.009105 0.000000 0.000000 0.000000
# 4 0.000000 0.000000 0.000000 0.040527 0.000000 0.000000
# 5 0.000000 0.000000 0.000000 0.000000 0.037262 0.000000
# 6 0.000000 0.000000 0.000000 0.000000 0.000000 0.041523
#
#
# Mechanical properties :
#
#
# Convention : Reuss Voigt Hill
#
# Bulk Modulus (GPa) = 73.27608 80.45611 76.86609
# Shear Modulus (GPa) = 27.41119 28.61263 28.01191
#
# Velocity S-wave (km/s) = 3.85051 3.93399 3.89247
# Velocity P-wave (km/s) = 7.70733 8.00955 7.85989
#
# Compressibility (1/GPa) = 0.01364702
#
# Stress axis : x y z
#
# Youngs Moduli (GPa) = 76.20764 72.10077 109.82980
#
# Poissons Ratio (x) = 0.23809 0.33948
# Poissons Ratio (y) = 0.25165 0.53066
# Poissons Ratio (z) = 0.23556 0.34836
#
# Static dielectric constant tensor:
#      x y z
#    x 3.500380 0.000000 0.000000 
#    y 0.000000 3.330670 0.000000 
#    z 0.000000 0.000000 3.790790 
# 
# 
# High freq. dielectric constant tensor:
#      x y z
#    x 1.723030 0.000000 0.000000 
#    y 0.000000 1.705510 0.000000 
#    z 0.000000 0.000000 1.736630 
# 
# From -- ./inp_files/40069.got.cif
#   From: 2010.06.25/outbox.cif.g09.slc.cpg/sg52_21_cif.got.tgz:40069.got - 2010.06.26 19:32:48.
