data_PCOD8215570
_publ_section_title
;
Structure prediction by ZEFSAII (Michael W. Deem and Ramdas Pophale) SiO2 
 PCOD8215570
Probable space group: P N N A
;
_chemical_formula_sum "Si O2"
_cell_formula_units_Z 56
_cell_length_a 18.009684
_cell_length_b 13.368444
_cell_length_c 12.900640
_cell_angle_alpha 90.000000
_cell_angle_beta 90.000000
_cell_angle_gamma 90.000000
_cell_volume 3105.976818
_symmetry_space_group_name_H-M "P N N A"
_symmetry_group_IT_number 52
_symmetry_cell_setting 'orthorhombic'
loop_
_space_group_symop_operation_xyz
x,y,z
1/2-x,-y,z
x,1/2-y,1/2-z
1/2-x,1/2+y,1/2-z
-x,-y,-z
1/2+x,y,-z
-x,1/2+y,1/2+z
1/2+x,1/2-y,1/2+z
loop_
_atom_site_type_symbol
_atom_site_label
_atom_site_fract_x
_atom_site_fract_y
_atom_site_fract_z
Si Si1 0.452252 0.826986 0.334348
Si Si2 0.630299 0.324330 0.047069
Si Si3 0.718516 0.769386 0.369596
Si Si4 0.928206 0.197575 0.064339
Si Si5 0.167954 0.979180 0.669520
Si Si6 0.528419 0.524026 0.304633
Si Si7 0.003179 0.702553 0.354798
O O1 0.418496 0.750000 0.250000
O O2 0.393076 0.835417 0.427272
O O3 0.532223 0.787808 0.373631
O O4 0.469622 0.934751 0.281536
O O5 0.708121 0.265248 0.059095
O O6 0.639160 0.435938 0.090928
O O7 0.571347 0.260636 0.112591
O O8 0.741060 0.750000 0.250000
O O9 0.658672 0.687515 0.406605
O O10 0.675113 0.873703 0.389180
O O11 0.972050 0.096287 0.095183
O O12 0.934560 0.216152 0.942023
O O13 0.112209 0.973418 0.764189
O O14 0.250000 0.000000 0.715648
O O15 0.508731 0.414075 0.338948
O O16 0.034993 0.750000 0.250000
#
# Coordination Sequence:
#
# PCOD8215570 Si02
#       7
#     8   8   8   8   8   8   8
#     4   9  19  37  58  76 103 144 186 215 263 323
#     4  10  22  35  54  82 110 140 178 228 271 324
#     4  11  19  35  57  80 108 139 177 224 276 324
#     4  10  20  35  54  80 106 142 181 221 267 327
#     4  10  20  31  53  83 112 135 174 219 279 318
#     4  11  19  34  54  79 110 146 175 226 270 324
#     4  11  22  34  51  81 114 142 181 225 273 314
#
# _framework density 18.029755000000002
#
# number of rings (size 3 to 8) (size 9 to 14) (size 15 to 20)
#    0.000    1.714    4.286    1.286    2.000    1.714 
#    0.000    0.714    0.000    0.000    0.000    0.000 
#    0.000    0.000    0.000    0.000    0.000    0.000 
#
# Total GULP energy -694189.763093 kJ/mol
# GULP energy per Si atom -12396.245770 kJ/mol
# Density = 1.798872 g / cm^3
# Si number density = 18.029755 Si / 1000 Ang^3
#
#
#
# Elastic Constant Matrix: (Units=GPa)
#
#
# Indices 1 2 3 4 5 6 
#
# 1 81.2629 11.7861 45.7108 0.0000 0.0000 0.0000
# 2 11.7861 84.2186 30.6706 0.0000 0.0000 0.0000
# 3 45.7108 30.6706 118.7705 0.0000 0.0000 0.0000
# 4 0.0000 0.0000 0.0000 22.7038 0.0000 0.0000
# 5 0.0000 0.0000 0.0000 0.0000 20.1180 0.0000
# 6 0.0000 0.0000 0.0000 0.0000 0.0000 19.3505
#
#
#
# Elastic Compliance Matrix: (Units=1/GPa)
#
#
# Indices 1 2 3 4 5 6 
#
# 1 0.015706 0.000004 -0.006046 0.000000 0.000000 0.000000
# 2 0.000004 0.013106 -0.003386 0.000000 0.000000 0.000000
# 3 -0.006046 -0.003386 0.011621 0.000000 0.000000 0.000000
# 4 0.000000 0.000000 0.000000 0.044045 0.000000 0.000000
# 5 0.000000 0.000000 0.000000 0.000000 0.049707 0.000000
# 6 0.000000 0.000000 0.000000 0.000000 0.000000 0.051678
#
#
# Mechanical properties :
#
#
# Convention : Reuss Voigt Hill
#
# Bulk Modulus (GPa) = 46.34501 51.17635 48.76068
# Shear Modulus (GPa) = 23.59473 25.50677 24.55075
#
# Velocity S-wave (km/s) = 3.62146 3.76534 3.69410
# Velocity P-wave (km/s) = 6.57626 6.88111 6.73041
#
# Compressibility (1/GPa) = 0.02157729
#
# Stress axis : x y z
#
# Youngs Moduli (GPa) = 63.67032 76.29842 86.05305
#
# Poissons Ratio (x) = -0.00028 0.52025
# Poissons Ratio (y) = -0.00024 0.29137
# Poissons Ratio (z) = 0.38493 0.25834
#
# Static dielectric constant tensor:
#      x y z
#    x 3.196130 0.000000 0.000000 
#    y 0.000000 3.547270 0.000000 
#    z 0.000000 0.000000 3.310350 
# 
# 
# High freq. dielectric constant tensor:
#      x y z
#    x 1.679750 0.000000 0.000000 
#    y 0.000000 1.708100 0.000000 
#    z 0.000000 0.000000 1.687300 
# 
# From -- ./inp_files/21710.got.cif
#   From: 2010.06.25/outbox.cif.g09.slc.cpg/sg52_11_cif.got.tgz:21710.got - 2010.06.26 19:32:48.
