data_PCOD8215777
_publ_section_title
;
Structure prediction by ZEFSAII (Michael W. Deem and Ramdas Pophale) SiO2 
 PCOD8215777
Probable space group: P N N A
;
_chemical_formula_sum "Si O2"
_cell_formula_units_Z 48
_cell_length_a 17.020617
_cell_length_b 9.288652
_cell_length_c 15.856382
_cell_angle_alpha 90.000000
_cell_angle_beta 90.000000
_cell_angle_gamma 90.000000
_cell_volume 2506.871607
_symmetry_space_group_name_H-M "P N N A"
_symmetry_group_IT_number 52
_symmetry_cell_setting 'orthorhombic'
loop_
_space_group_symop_operation_xyz
x,y,z
1/2-x,-y,z
x,1/2-y,1/2-z
1/2-x,1/2+y,1/2-z
-x,-y,-z
1/2+x,y,-z
-x,1/2+y,1/2+z
1/2+x,1/2-y,1/2+z
loop_
_atom_site_type_symbol
_atom_site_label
_atom_site_fract_x
_atom_site_fract_y
_atom_site_fract_z
Si Si1 0.158624 0.523184 0.555339
Si Si2 0.841540 0.984386 0.627869
Si Si3 0.572779 0.587266 0.723175
Si Si4 0.431672 0.782396 0.048901
Si Si5 0.918841 0.265442 0.555725
Si Si6 0.550130 0.616458 0.307339
O O1 0.250000 0.500000 0.564516
O O2 0.121869 0.400440 0.496792
O O3 0.138899 0.680710 0.517894
O O4 0.122512 0.533565 0.649275
O O5 0.856681 0.999752 0.729305
O O6 0.888160 0.116147 0.589045
O O7 0.750000 0.000000 0.609260
O O8 0.873873 0.840308 0.584643
O O9 0.563741 0.750000 0.750000
O O10 0.584461 0.600980 0.622455
O O11 0.493034 0.503463 0.749907
O O12 0.481570 0.840593 0.127166
O O13 0.493407 0.731949 0.977666
O O14 0.578956 0.750000 0.250000
#
# Coordination Sequence:
#
# PCOD8215777 Si02
#       6
#     8   8   8   8   8   8
#     4  11  22  37  61  88 116 152 193 256 296 334
#     4  11  23  36  54  92 124 151 189 245 305 344
#     4  10  20  37  57  83 115 156 190 235 289 353
#     4  11  20  37  65  83 114 158 198 238 286 357
#     4  10  20  39  58  85 118 157 199 230 290 363
#     4  11  20  40  61  83 113 153 207 230 283 361
#
# _framework density 19.147369999999999
#
# number of rings (size 3 to 8) (size 9 to 14) (size 15 to 20)
#    0.000    1.333    5.000    2.500    0.000    0.667 
#    9.000    0.833    0.000    4.000    0.000    0.000 
#    0.000    0.000    0.000    0.000    0.000    0.000 
#
# Total GULP energy -594693.609482 kJ/mol
# GULP energy per Si atom -12389.450198 kJ/mol
# Density = 1.910379 g / cm^3
# Si number density = 19.147370 Si / 1000 Ang^3
#
#
#
# Elastic Constant Matrix: (Units=GPa)
#
#
# Indices 1 2 3 4 5 6 
#
# 1 146.3418 40.8054 48.2236 0.0000 0.0000 0.0000
# 2 40.8054 79.6162 36.3922 0.0000 0.0000 0.0000
# 3 48.2236 36.3922 75.1229 0.0000 0.0000 0.0000
# 4 0.0000 0.0000 0.0000 29.8147 0.0000 0.0000
# 5 0.0000 0.0000 0.0000 0.0000 56.6194 0.0000
# 6 0.0000 0.0000 0.0000 0.0000 0.0000 24.1762
#
#
#
# Elastic Compliance Matrix: (Units=1/GPa)
#
#
# Indices 1 2 3 4 5 6 
#
# 1 0.009052 -0.002547 -0.004577 0.000000 0.000000 0.000000
# 2 -0.002547 0.016849 -0.006527 0.000000 0.000000 0.000000
# 3 -0.004577 -0.006527 0.019411 0.000000 0.000000 0.000000
# 4 0.000000 0.000000 0.000000 0.033541 0.000000 0.000000
# 5 0.000000 0.000000 0.000000 0.000000 0.017662 0.000000
# 6 0.000000 0.000000 0.000000 0.000000 0.000000 0.041363
#
#
# Mechanical properties :
#
#
# Convention : Reuss Voigt Hill
#
# Bulk Modulus (GPa) = 55.52394 61.32481 58.42437
# Shear Modulus (GPa) = 29.20844 33.83271 31.52058
#
# Velocity S-wave (km/s) = 3.90994 4.20809 4.06175
# Velocity P-wave (km/s) = 7.03169 7.46378 7.25096
#
# Compressibility (1/GPa) = 0.01801025
#
# Stress axis : x y z
#
# Youngs Moduli (GPa) = 110.47652 59.34931 51.51628
#
# Poissons Ratio (x) = 0.15118 0.23577
# Poissons Ratio (y) = 0.28142 0.33626
# Poissons Ratio (z) = 0.50560 0.38739
#
# Static dielectric constant tensor:
#      x y z
#    x 3.394420 0.000000 0.000000 
#    y 0.000000 3.615260 0.000000 
#    z 0.000000 0.000000 4.101030 
# 
# 
# High freq. dielectric constant tensor:
#      x y z
#    x 1.727770 0.000000 0.000000 
#    y 0.000000 1.755650 0.000000 
#    z 0.000000 0.000000 1.747050 
# 
# From -- ./inp_files/33027.got.cif
#   From: 2010.06.25/outbox.cif.g09.slc.cpg/sg52_17_cif.got.tgz:33027.got - 2010.06.26 19:32:48.
