data_PCOD8215443
_publ_section_title
;
Structure prediction by ZEFSAII (Michael W. Deem and Ramdas Pophale) SiO2 
 PCOD8215443
Probable space group: P N N A
;
_chemical_formula_sum "Si O2"
_cell_formula_units_Z 64
_cell_length_a 9.498852
_cell_length_b 10.991767
_cell_length_c 30.038902
_cell_angle_alpha 90.000000
_cell_angle_beta 90.000000
_cell_angle_gamma 90.000000
_cell_volume 3136.336764
_symmetry_space_group_name_H-M "P N N A"
_symmetry_group_IT_number 52
_symmetry_cell_setting 'orthorhombic'
loop_
_space_group_symop_operation_xyz
x,y,z
1/2-x,-y,z
x,1/2-y,1/2-z
1/2-x,1/2+y,1/2-z
-x,-y,-z
1/2+x,y,-z
-x,1/2+y,1/2+z
1/2+x,1/2-y,1/2+z
loop_
_atom_site_type_symbol
_atom_site_label
_atom_site_fract_x
_atom_site_fract_y
_atom_site_fract_z
Si Si1 0.043357 0.793914 0.860256
Si Si2 0.599304 0.224141 0.032904
Si Si3 0.588843 0.042236 0.106827
Si Si4 0.591888 0.474904 0.081078
Si Si5 0.886803 0.563738 0.223913
Si Si6 0.165892 0.318845 0.686476
Si Si7 0.406261 0.945934 0.337231
Si Si8 0.594843 0.785090 0.457715
O O1 0.166174 0.805990 0.823025
O O2 0.106256 0.737793 0.905131
O O3 0.919574 0.703043 0.842090
O O4 0.990618 0.928637 0.876753
O O5 0.551748 0.101078 0.059062
O O6 0.559000 0.341707 0.062092
O O7 0.763315 0.232113 0.021055
O O8 0.527347 0.218327 0.984674
O O9 0.577249 0.148763 0.142894
O O10 0.750000 0.000000 0.106180
O O11 0.750000 0.500000 0.099038
O O12 0.486191 0.492292 0.121831
O O13 0.570860 0.569274 0.039660
O O14 0.750000 0.500000 0.203053
O O15 0.865335 0.576315 0.277022
O O16 0.902085 0.695055 0.202440
O O17 0.022873 0.484460 0.209890
O O18 0.250000 0.000000 0.337433
#
# Coordination Sequence:
#
# PCOD8215443 Si02
#       8
#     8   8   8   8   8   8   8   8
#     4  10  20  40  58  88 124 163 208 264 318 372
#     4  11  20  35  56  88 119 160 215 266 325 380
#     4  10  19  36  58  85 119 163 204 260 316 365
#     4   9  20  37  61  86 121 166 215 273 322 377
#     4  11  20  35  66 100 115 154 220 262 304 383
#     4  10  20  36  66  91 118 151 214 270 305 362
#     4  11  23  37  63  96 133 164 201 260 335 398
#     4  10  21  34  57  87 119 161 210 274 317 375
#
# _framework density 20.405971999999998
#
# number of rings (size 3 to 8) (size 9 to 14) (size 15 to 20)
#    0.000    1.750    3.750    2.625    1.750    2.500 
#    0.000    0.625   11.000    5.250    0.000    0.000 
#    0.000    0.000    0.000    0.000    0.000    0.000 
#
# Total GULP energy -792858.298450 kJ/mol
# GULP energy per Si atom -12388.410913 kJ/mol
# Density = 2.035953 g / cm^3
# Si number density = 20.405972 Si / 1000 Ang^3
#
#
#
# Elastic Constant Matrix: (Units=GPa)
#
#
# Indices 1 2 3 4 5 6 
#
# 1 98.3970 23.2573 46.4186 0.0000 0.0000 0.0000
# 2 23.2573 97.9191 27.1323 0.0000 0.0000 0.0000
# 3 46.4186 27.1323 92.9549 0.0000 0.0000 0.0000
# 4 0.0000 0.0000 0.0000 25.0290 0.0000 0.0000
# 5 0.0000 0.0000 0.0000 0.0000 21.2940 0.0000
# 6 0.0000 0.0000 0.0000 0.0000 0.0000 18.8692
#
#
#
# Elastic Compliance Matrix: (Units=1/GPa)
#
#
# Indices 1 2 3 4 5 6 
#
# 1 0.013483 -0.001454 -0.006308 0.000000 0.000000 0.000000
# 2 -0.001454 0.011268 -0.002563 0.000000 0.000000 0.000000
# 3 -0.006308 -0.002563 0.014656 0.000000 0.000000 0.000000
# 4 0.000000 0.000000 0.000000 0.039954 0.000000 0.000000
# 5 0.000000 0.000000 0.000000 0.000000 0.046961 0.000000
# 6 0.000000 0.000000 0.000000 0.000000 0.000000 0.052996
#
#
# Mechanical properties :
#
#
# Convention : Reuss Voigt Hill
#
# Bulk Modulus (GPa) = 53.31626 53.65415 53.48520
# Shear Modulus (GPa) = 24.24585 25.86931 25.05758
#
# Velocity S-wave (km/s) = 3.45073 3.56439 3.50802
# Velocity P-wave (km/s) = 6.48546 6.57953 6.53267
#
# Compressibility (1/GPa) = 0.01875600
#
# Stress axis : x y z
#
# Youngs Moduli (GPa) = 74.16987 88.74645 68.23116
#
# Poissons Ratio (x) = 0.12907 0.43042
# Poissons Ratio (y) = 0.10787 0.17486
# Poissons Ratio (z) = 0.46788 0.22743
#
# Static dielectric constant tensor:
#      x y z
#    x 3.283040 0.000000 0.000000 
#    y 0.000000 4.359370 0.000000 
#    z 0.000000 0.000000 3.728520 
# 
# 
# High freq. dielectric constant tensor:
#      x y z
#    x 1.739830 0.000000 0.000000 
#    y 0.000000 1.819460 0.000000 
#    z 0.000000 0.000000 1.796410 
# 
# From -- ./inp_files/44598.got.cif
#   From: 2010.06.25/outbox.cif.g09.slc.cpg/sg52_23_cif.got.tgz:44598.got - 2010.06.26 19:32:48.
