data_PCOD8215216
_publ_section_title
;
Structure prediction by ZEFSAII (Michael W. Deem and Ramdas Pophale) SiO2 
 PCOD8215216
Probable space group: P N N A
;
_chemical_formula_sum "Si O2"
_cell_formula_units_Z 40
_cell_length_a 11.202023
_cell_length_b 8.470246
_cell_length_c 18.257679
_cell_angle_alpha 90.000000
_cell_angle_beta 90.000000
_cell_angle_gamma 90.000000
_cell_volume 1732.359615
_symmetry_space_group_name_H-M "P N N A"
_symmetry_group_IT_number 52
_symmetry_cell_setting 'orthorhombic'
loop_
_space_group_symop_operation_xyz
x,y,z
1/2-x,-y,z
x,1/2-y,1/2-z
1/2-x,1/2+y,1/2-z
-x,-y,-z
1/2+x,y,-z
-x,1/2+y,1/2+z
1/2+x,1/2-y,1/2+z
loop_
_atom_site_type_symbol
_atom_site_label
_atom_site_fract_x
_atom_site_fract_y
_atom_site_fract_z
Si Si1 0.127732 0.078760 0.713120
Si Si2 0.551831 0.782007 0.606681
Si Si3 0.908791 0.746820 0.533199
Si Si4 0.250000 0.500000 0.080665
Si Si5 0.750000 0.500000 0.453420
Si Si6 0.473296 0.451510 0.647692
O O1 0.150402 0.250000 0.750000
O O2 0.047841 0.102765 0.641306
O O3 0.250000 0.000000 0.686042
O O4 0.065303 0.949097 0.767172
O O5 0.522444 0.749840 0.520947
O O6 0.551089 0.610981 0.642976
O O7 0.682311 0.858307 0.623605
O O8 0.800724 0.637688 0.504687
O O9 0.947321 0.691936 0.615505
O O10 0.857429 0.923652 0.534484
O O11 0.645107 0.555890 0.400837
#
# Coordination Sequence:
#
# PCOD8215216 Si02
#       6
#     8   8   8   4   4   8
#     4  10  22  41  65  94 128 166 216 275 334 396
#     4  10  23  40  61  91 131 167 214 272 328 394
#     4  11  22  37  64  91 129 169 218 269 329 386
#     4  12  24  40  54  90 132 168 214 270 330 376
#     4  10  18  36  64  90 120 162 218 270 316 396
#     4  10  20  40  63  94 121 170 223 264 324 399
#
# _framework density 23.089894000000001
#
# number of rings (size 3 to 8) (size 9 to 14) (size 15 to 20)
#    0.000    1.600    1.000    5.400    1.400    1.600 
#    0.000    7.000    0.000    0.000    0.000    0.000 
#    0.000    0.000    0.000    0.000    0.000    0.000 
#
# Total GULP energy -495639.340094 kJ/mol
# GULP energy per Si atom -12390.983502 kJ/mol
# Density = 2.303734 g / cm^3
# Si number density = 23.089894 Si / 1000 Ang^3
#
#
#
# Elastic Constant Matrix: (Units=GPa)
#
#
# Indices 1 2 3 4 5 6 
#
# 1 93.8469 34.5422 6.2341 0.0000 0.0000 0.0000
# 2 34.5422 66.9627 15.4083 0.0000 0.0000 0.0000
# 3 6.2341 15.4083 76.2069 0.0000 0.0000 0.0000
# 4 0.0000 0.0000 0.0000 -24.0366 0.0000 0.0000
# 5 0.0000 0.0000 0.0000 0.0000 18.6317 0.0000
# 6 0.0000 0.0000 0.0000 0.0000 0.0000 44.3243
#
#
#
# Elastic Compliance Matrix: (Units=1/GPa)
#
#
# Indices 1 2 3 4 5 6 
#
# 1 0.013160 -0.006860 0.000310 0.000000 0.000000 0.000000
# 2 -0.006860 0.019238 -0.003329 0.000000 0.000000 0.000000
# 3 0.000310 -0.003329 0.013770 0.000000 0.000000 0.000000
# 4 0.000000 0.000000 0.000000 -0.041603 0.000000 0.000000
# 5 0.000000 0.000000 0.000000 0.000000 0.053672 0.000000
# 6 0.000000 0.000000 0.000000 0.000000 0.000000 0.022561
#
#
# Mechanical properties :
#
#
# Convention : Reuss Voigt Hill
#
# Bulk Modulus (GPa) = 37.86179 38.82066 38.34122
# Shear Modulus (GPa) = 45.72147 19.83934 32.78040
#
# Velocity S-wave (km/s) = 4.45472 2.93443 3.77196
# Velocity P-wave (km/s) = 6.54924 5.32264 5.96754
#
# Compressibility (1/GPa) = 0.02641185
#
# Stress axis : x y z
#
# Youngs Moduli (GPa) = 75.98816 51.97983 72.62280
#
# Poissons Ratio (x) = 0.35658 -0.02255
# Poissons Ratio (y) = 0.52127 0.24173
# Poissons Ratio (z) = -0.02359 0.17302
#
# Static dielectric constant tensor:
#      x y z
#    x 4.207750 0.000000 0.000000 
#    y 0.000000 4.249110 0.000000 
#    z 0.000000 0.000000 4.055380 
# 
# 
# High freq. dielectric constant tensor:
#      x y z
#    x 1.914540 0.000000 0.000000 
#    y 0.000000 1.915420 0.000000 
#    z 0.000000 0.000000 1.881780 
# 
# From -- ./inp_files/32039.got.cif
#   From: 2010.06.25/outbox.cif.g09.slc.cpg/sg52_17_cif.got.tgz:32039.got - 2010.06.26 19:32:48.
