data_PCOD8215706
_publ_section_title
;
Structure prediction by ZEFSAII (Michael W. Deem and Ramdas Pophale) SiO2 
 PCOD8215706
Probable space group: P N N A
;
_chemical_formula_sum "Si O2"
_cell_formula_units_Z 48
_cell_length_a 8.884318
_cell_length_b 9.691470
_cell_length_c 29.609256
_cell_angle_alpha 90.000000
_cell_angle_beta 90.000000
_cell_angle_gamma 90.000000
_cell_volume 2549.419162
_symmetry_space_group_name_H-M "P N N A"
_symmetry_group_IT_number 52
_symmetry_cell_setting 'orthorhombic'
loop_
_space_group_symop_operation_xyz
x,y,z
1/2-x,-y,z
x,1/2-y,1/2-z
1/2-x,1/2+y,1/2-z
-x,-y,-z
1/2+x,y,-z
-x,1/2+y,1/2+z
1/2+x,1/2-y,1/2+z
loop_
_atom_site_type_symbol
_atom_site_label
_atom_site_fract_x
_atom_site_fract_y
_atom_site_fract_z
Si Si1 0.457715 0.620260 0.450894
Si Si2 0.573912 0.979465 0.319477
Si Si3 0.387829 0.182437 0.035751
Si Si4 0.106182 0.091221 0.236972
Si Si5 0.647713 0.631820 0.883088
Si Si6 0.929294 0.709377 0.646169
O O1 0.483446 0.455855 0.453520
O O2 0.288299 0.658096 0.462884
O O3 0.563386 0.713138 0.483926
O O4 0.499552 0.655664 0.399939
O O5 0.526860 0.976756 0.266698
O O6 0.536900 0.832158 0.339846
O O7 0.750000 0.000000 0.323511
O O8 0.484060 0.095701 0.347775
O O9 0.427007 0.304896 0.071176
O O10 0.139538 0.250000 0.250000
O O11 0.064834 0.087986 0.183821
O O12 0.250000 0.000000 0.248320
O O13 0.750000 0.500000 0.896312
O O14 0.755043 0.744886 0.859500
#
# Coordination Sequence:
#
# PCOD8215706 Si02
#       6
#     8   8   8   8   8   8
#     4   9  18  33  53  78 105 136 177 219 270 314
#     4  10  20  36  54  76 114 144 169 223 283 322
#     4   9  18  32  54  76 107 139 169 225 267 320
#     4  10  20  36  59  83 106 143 189 233 270 325
#     4   9  18  35  56  81 104 140 185 224 265 326
#     4   9  19  35  57  77 106 140 187 223 257 324
#
# _framework density 18.827819000000002
#
# number of rings (size 3 to 8) (size 9 to 14) (size 15 to 20)
#    0.000    2.667    0.000    2.500    4.667    1.333 
#    0.000   15.833    7.333    0.000    0.000    0.000 
#    0.000    0.000    0.000    0.000    0.000    0.000 
#
# Total GULP energy -594930.078080 kJ/mol
# GULP energy per Si atom -12394.376627 kJ/mol
# Density = 1.878497 g / cm^3
# Si number density = 18.827819 Si / 1000 Ang^3
#
#
#
# Elastic Constant Matrix: (Units=GPa)
#
#
# Indices 1 2 3 4 5 6 
#
# 1 81.9278 25.5870 54.4475 0.0000 0.0000 0.0000
# 2 25.5870 49.3230 44.2280 0.0000 0.0000 0.0000
# 3 54.4475 44.2280 183.9283 0.0000 0.0000 0.0000
# 4 0.0000 0.0000 0.0000 33.9608 0.0000 0.0000
# 5 0.0000 0.0000 0.0000 0.0000 26.7460 0.0000
# 6 0.0000 0.0000 0.0000 0.0000 0.0000 16.1604
#
#
#
# Elastic Compliance Matrix: (Units=1/GPa)
#
#
# Indices 1 2 3 4 5 6 
#
# 1 0.016188 -0.005228 -0.003535 0.000000 0.000000 0.000000
# 2 -0.005228 0.027536 -0.005074 0.000000 0.000000 0.000000
# 3 -0.003535 -0.005074 0.007703 0.000000 0.000000 0.000000
# 4 0.000000 0.000000 0.000000 0.029446 0.000000 0.000000
# 5 0.000000 0.000000 0.000000 0.000000 0.037389 0.000000
# 6 0.000000 0.000000 0.000000 0.000000 0.000000 0.061880
#
#
# Mechanical properties :
#
#
# Convention : Reuss Voigt Hill
#
# Bulk Modulus (GPa) = 42.09788 62.63378 52.36583
# Shear Modulus (GPa) = 23.17680 28.10123 25.63901
#
# Velocity S-wave (km/s) = 3.51235 3.86753 3.69421
# Velocity P-wave (km/s) = 6.23352 7.29949 6.78746
#
# Compressibility (1/GPa) = 0.02375416
#
# Stress axis : x y z
#
# Youngs Moduli (GPa) = 61.77479 36.31570 129.81295
#
# Poissons Ratio (x) = 0.18986 0.45887
# Poissons Ratio (y) = 0.32295 0.65865
# Poissons Ratio (z) = 0.21837 0.18426
#
# Static dielectric constant tensor:
#      x y z
#    x 3.183680 0.000000 0.000000 
#    y 0.000000 3.498620 0.000000 
#    z 0.000000 0.000000 3.952770 
# 
# 
# High freq. dielectric constant tensor:
#      x y z
#    x 1.704210 0.000000 0.000000 
#    y 0.000000 1.717990 0.000000 
#    z 0.000000 0.000000 1.748920 
# 
# From -- ./inp_files/44334.got.cif
#   From: 2010.06.25/outbox.cif.g09.slc.cpg/sg52_23_cif.got.tgz:44334.got - 2010.06.26 19:32:48.
