data_PCOD8215427
_publ_section_title
;
Structure prediction by ZEFSAII (Michael W. Deem and Ramdas Pophale) SiO2 
 PCOD8215427
Probable space group: P N N A
;
_chemical_formula_sum "Si O2"
_cell_formula_units_Z 52
_cell_length_a 22.857690
_cell_length_b 13.521483
_cell_length_c 8.774690
_cell_angle_alpha 90.000000
_cell_angle_beta 90.000000
_cell_angle_gamma 90.000000
_cell_volume 2711.992269
_symmetry_space_group_name_H-M "P N N A"
_symmetry_group_IT_number 52
_symmetry_cell_setting 'orthorhombic'
loop_
_space_group_symop_operation_xyz
x,y,z
1/2-x,-y,z
x,1/2-y,1/2-z
1/2-x,1/2+y,1/2-z
-x,-y,-z
1/2+x,y,-z
-x,1/2+y,1/2+z
1/2+x,1/2-y,1/2+z
loop_
_atom_site_type_symbol
_atom_site_label
_atom_site_fract_x
_atom_site_fract_y
_atom_site_fract_z
Si Si1 0.920693 0.083513 0.454301
Si Si2 0.848165 0.792034 0.407091
Si Si3 0.183998 0.469922 0.081636
Si Si4 0.468821 0.880260 0.659564
Si Si5 0.018449 0.387550 0.492608
Si Si6 0.449502 0.250000 0.750000
Si Si7 0.368552 0.841072 0.157828
O O1 0.907665 0.173434 0.339027
O O2 0.971209 0.123626 0.566260
O O3 0.861658 0.059088 0.549176
O O4 0.943272 0.991335 0.353942
O O5 0.824709 0.750000 0.250000
O O6 0.817672 0.896708 0.437300
O O7 0.919432 0.806514 0.411164
O O8 0.827163 0.712563 0.533221
O O9 0.250000 0.500000 0.105259
O O10 0.166568 0.415264 0.236426
O O11 0.482164 0.846793 0.833430
O O12 0.083800 0.402506 0.432526
O O13 0.000000 0.500000 0.500000
O O14 0.985876 0.314368 0.374687
O O15 0.398182 0.750000 0.250000
#
# Coordination Sequence:
#
# PCOD8215427 Si02
#       7
#     8   8   8   8   8   4   8
#     4  10  22  39  58  89 124 167 194 253 303 370
#     4  10  19  35  65  93 115 149 206 255 305 369
#     4  10  23  43  62  79 119 169 212 260 304 349
#     4  10  20  36  59  92 133 151 193 245 317 374
#     4  12  21  33  59  94 130 163 188 241 308 388
#     4  12  24  34  58  94 132 158 194 244 316 382
#     4  10  20  36  63  89 114 156 206 246 292 368
#
# _framework density 19.174095000000001
#
# number of rings (size 3 to 8) (size 9 to 14) (size 15 to 20)
#    0.000    1.538    3.846    1.846    4.308    0.000 
#    1.385    0.769   20.308    0.000    0.000    0.000 
#    0.000    0.000    0.000    0.000    0.000    0.000 
#
# Total GULP energy -644268.534312 kJ/mol
# GULP energy per Si atom -12389.779506 kJ/mol
# Density = 1.913045 g / cm^3
# Si number density = 19.174095 Si / 1000 Ang^3
#
#
#
# Elastic Constant Matrix: (Units=GPa)
#
#
# Indices 1 2 3 4 5 6 
#
# 1 77.2145 38.3491 34.3175 0.0000 0.0000 0.0000
# 2 38.3491 94.4450 54.5216 0.0000 0.0000 0.0000
# 3 34.3175 54.5216 139.7540 0.0000 0.0000 0.0000
# 4 0.0000 0.0000 0.0000 45.8727 0.0000 0.0000
# 5 0.0000 0.0000 0.0000 0.0000 16.6812 0.0000
# 6 0.0000 0.0000 0.0000 0.0000 0.0000 16.0572
#
#
#
# Elastic Compliance Matrix: (Units=1/GPa)
#
#
# Indices 1 2 3 4 5 6 
#
# 1 0.016591 -0.005659 -0.001866 0.000000 0.000000 0.000000
# 2 -0.005659 0.015596 -0.004695 0.000000 0.000000 0.000000
# 3 -0.001866 -0.004695 0.009445 0.000000 0.000000 0.000000
# 4 0.000000 0.000000 0.000000 0.021799 0.000000 0.000000
# 5 0.000000 0.000000 0.000000 0.000000 0.059948 0.000000
# 6 0.000000 0.000000 0.000000 0.000000 0.000000 0.062277
#
#
# Mechanical properties :
#
#
# Convention : Reuss Voigt Hill
#
# Bulk Modulus (GPa) = 58.16697 62.86554 60.51626
# Shear Modulus (GPa) = 23.16650 28.00391 25.58521
#
# Velocity S-wave (km/s) = 3.47972 3.82580 3.65686
# Velocity P-wave (km/s) = 6.82251 7.23696 7.03279
#
# Compressibility (1/GPa) = 0.01719189
#
# Stress axis : x y z
#
# Youngs Moduli (GPa) = 60.27306 64.11713 105.87318
#
# Poissons Ratio (x) = 0.36287 0.19758
# Poissons Ratio (y) = 0.34111 0.49706
# Poissons Ratio (z) = 0.11248 0.30102
#
# Static dielectric constant tensor:
#      x y z
#    x 3.028250 0.000000 0.000000 
#    y 0.000000 2.936970 0.000000 
#    z 0.000000 0.000000 4.919920 
# 
# 
# High freq. dielectric constant tensor:
#      x y z
#    x 1.689530 0.000000 0.000000 
#    y 0.000000 1.761270 0.000000 
#    z 0.000000 0.000000 1.764530 
# 
# From -- ./inp_files/13375.got.cif
#   From: 2010.06.25/outbox.cif.g09.slc.cpg/sg52_7_cif.got.tgz:13375.got - 2010.06.26 19:32:48.
