data_PCOD8215871
_publ_section_title
;
Structure prediction by ZEFSAII (Michael W. Deem and Ramdas Pophale) SiO2 
 PCOD8215871
Probable space group: P N N A
;
_chemical_formula_sum "Si O2"
_cell_formula_units_Z 40
_cell_length_a 7.908715
_cell_length_b 24.413858
_cell_length_c 8.858951
_cell_angle_alpha 90.000000
_cell_angle_beta 90.000000
_cell_angle_gamma 90.000000
_cell_volume 1710.506147
_symmetry_space_group_name_H-M "P N N A"
_symmetry_group_IT_number 52
_symmetry_cell_setting 'orthorhombic'
loop_
_space_group_symop_operation_xyz
x,y,z
1/2-x,-y,z
x,1/2-y,1/2-z
1/2-x,1/2+y,1/2-z
-x,-y,-z
1/2+x,y,-z
-x,1/2+y,1/2+z
1/2+x,1/2-y,1/2+z
loop_
_atom_site_type_symbol
_atom_site_label
_atom_site_fract_x
_atom_site_fract_y
_atom_site_fract_z
Si Si1 0.381947 0.316588 0.616393
Si Si2 0.358212 0.836598 0.355476
Si Si3 0.527984 0.778659 0.607951
Si Si4 0.594306 0.393136 0.421942
Si Si5 0.775786 0.061381 0.802328
O O1 0.488610 0.307012 0.767631
O O2 0.384832 0.262856 0.511958
O O3 0.460238 0.367781 0.533709
O O4 0.193963 0.340738 0.651210
O O5 0.403280 0.823330 0.530321
O O6 0.182074 0.808989 0.308622
O O7 0.331750 0.900454 0.314643
O O8 0.428693 0.750000 0.750000
O O9 0.707508 0.433703 0.525062
O O10 0.478984 0.425319 0.298552
O O11 0.750000 0.000000 0.743336
#
# Coordination Sequence:
#
# PCOD8215871 Si02
#       5
#     8   8   8   8   8
#     4  10  20  38  62  94 127 158 200 258 318 380
#     4  11  26  41  61  94 125 164 217 260 318 388
#     4  12  23  39  61  89 126 166 203 256 322 391
#     4   9  18  33  63  99 128 161 208 258 316 384
#     4  10  20  39  63  94 133 173 218 272 319 371
#
# _framework density 23.384889999999999
#
# number of rings (size 3 to 8) (size 9 to 14) (size 15 to 20)
#    0.000    1.600    0.000    7.200    0.000    4.800 
#    0.000    1.000    0.000    0.000    0.000    1.400 
#    0.000    0.000    0.000    0.000    0.000    0.000 
#
# Total GULP energy -495527.573712 kJ/mol
# GULP energy per Si atom -12388.189343 kJ/mol
# Density = 2.333166 g / cm^3
# Si number density = 23.384890 Si / 1000 Ang^3
#
#
#
# Elastic Constant Matrix: (Units=GPa)
#
#
# Indices 1 2 3 4 5 6 
#
# 1 81.5655 32.5993 34.4862 0.0000 0.0000 0.0000
# 2 32.5993 147.4750 58.6348 0.0000 0.0000 0.0000
# 3 34.4862 58.6348 100.3372 0.0000 0.0000 0.0000
# 4 0.0000 0.0000 0.0000 26.9313 0.0000 0.0000
# 5 0.0000 0.0000 0.0000 0.0000 31.3160 0.0000
# 6 0.0000 0.0000 0.0000 0.0000 0.0000 33.1956
#
#
#
# Elastic Compliance Matrix: (Units=1/GPa)
#
#
# Indices 1 2 3 4 5 6 
#
# 1 0.014632 -0.001609 -0.004089 0.000000 0.000000 0.000000
# 2 -0.001609 0.009010 -0.004712 0.000000 0.000000 0.000000
# 3 -0.004089 -0.004712 0.014126 0.000000 0.000000 0.000000
# 4 0.000000 0.000000 0.000000 0.037132 0.000000 0.000000
# 5 0.000000 0.000000 0.000000 0.000000 0.031933 0.000000
# 6 0.000000 0.000000 0.000000 0.000000 0.000000 0.030124
#
#
# Mechanical properties :
#
#
# Convention : Reuss Voigt Hill
#
# Bulk Modulus (GPa) = 59.00564 64.53536 61.77050
# Shear Modulus (GPa) = 30.59507 31.86573 31.23040
#
# Velocity S-wave (km/s) = 3.62100 3.69543 3.65841
# Velocity P-wave (km/s) = 6.53983 6.77239 6.65712
#
# Compressibility (1/GPa) = 0.01694753
#
# Stress axis : x y z
#
# Youngs Moduli (GPa) = 68.34414 110.98791 70.79361
#
# Poissons Ratio (x) = 0.17854 0.28947
# Poissons Ratio (y) = 0.10994 0.33360
# Poissons Ratio (z) = 0.27946 0.52301
#
# Static dielectric constant tensor:
#      x y z
#    x 4.879310 0.000000 0.000000 
#    y 0.000000 3.938020 0.000000 
#    z 0.000000 0.000000 4.347270 
# 
# 
# High freq. dielectric constant tensor:
#      x y z
#    x 1.938850 0.000000 0.000000 
#    y 0.000000 1.907450 0.000000 
#    z 0.000000 0.000000 1.897100 
# 
# From -- ./inp_files/7410.got.cif
#   From: 2010.06.25/outbox.cif.g09.slc.cpg/sg52_4_cif.got.tgz:7410.got - 2010.06.26 19:32:48.
