data_PCOD8215997
_publ_section_title
;
Structure prediction by ZEFSAII (Michael W. Deem and Ramdas Pophale) SiO2 
 PCOD8215997
Probable space group: P N N A
;
_chemical_formula_sum "Si O2"
_cell_formula_units_Z 28
_cell_length_a 14.739210
_cell_length_b 8.903960
_cell_length_c 10.302195
_cell_angle_alpha 90.000000
_cell_angle_beta 90.000000
_cell_angle_gamma 90.000000
_cell_volume 1352.032630
_symmetry_space_group_name_H-M "P N N A"
_symmetry_group_IT_number 52
_symmetry_cell_setting 'orthorhombic'
loop_
_space_group_symop_operation_xyz
x,y,z
1/2-x,-y,z
x,1/2-y,1/2-z
1/2-x,1/2+y,1/2-z
-x,-y,-z
1/2+x,y,-z
-x,1/2+y,1/2+z
1/2+x,1/2-y,1/2+z
loop_
_atom_site_type_symbol
_atom_site_label
_atom_site_fract_x
_atom_site_fract_y
_atom_site_fract_z
Si Si1 0.564230 0.189621 0.394198
Si Si2 0.374688 0.103087 0.481467
Si Si3 0.227797 0.340026 0.487334
Si Si4 0.250000 0.000000 0.263072
O O1 0.575000 0.250000 0.250000
O O2 0.460783 0.203866 0.441505
O O3 0.624796 0.296216 0.484248
O O4 0.597673 0.016575 0.407573
O O5 0.296596 0.211646 0.538479
O O6 0.338579 0.015271 0.353930
O O7 0.250000 0.500000 0.555817
O O8 0.238894 0.354581 0.330890
#
# Coordination Sequence:
#
# PCOD8215997 Si02
#       4
#     8   8   8   4
#     4  11  24  41  65  97 134 178 224 281 342 396
#     4  11  22  43  68  91 137 180 221 284 329 401
#     4  10  23  38  68  93 132 173 230 274 330 409
#     4  10  20  40  70  94 126 182 230 270 330 410
#
# _framework density 20.709558000000001
#
# number of rings (size 3 to 8) (size 9 to 14) (size 15 to 20)
#    0.857    0.571    2.857    2.571    0.000    3.429 
#    0.000    0.000    0.000    0.000    0.000    0.000 
#    0.000    0.000    0.000    0.000    0.000    0.000 
#
# Total GULP energy -347071.168067 kJ/mol
# GULP energy per Si atom -12395.398860 kJ/mol
# Density = 2.066242 g / cm^3
# Si number density = 20.709558 Si / 1000 Ang^3
#
#
#
# Elastic Constant Matrix: (Units=GPa)
#
#
# Indices 1 2 3 4 5 6 
#
# 1 157.1565 38.2128 39.8361 0.0000 0.0000 0.0000
# 2 38.2128 81.7165 34.6315 0.0000 0.0000 0.0000
# 3 39.8361 34.6315 90.1156 0.0000 0.0000 0.0000
# 4 0.0000 0.0000 0.0000 40.6458 0.0000 0.0000
# 5 0.0000 0.0000 0.0000 0.0000 21.9344 0.0000
# 6 0.0000 0.0000 0.0000 0.0000 0.0000 41.1616
#
#
#
# Elastic Compliance Matrix: (Units=1/GPa)
#
#
# Indices 1 2 3 4 5 6 
#
# 1 0.007583 -0.002539 -0.002376 0.000000 0.000000 0.000000
# 2 -0.002539 0.015468 -0.004822 0.000000 0.000000 0.000000
# 3 -0.002376 -0.004822 0.014000 0.000000 0.000000 0.000000
# 4 0.000000 0.000000 0.000000 0.024603 0.000000 0.000000
# 5 0.000000 0.000000 0.000000 0.000000 0.045591 0.000000
# 6 0.000000 0.000000 0.000000 0.000000 0.000000 0.024295
#
#
# Mechanical properties :
#
#
# Convention : Reuss Voigt Hill
#
# Bulk Modulus (GPa) = 56.89287 61.59439 59.24363
# Shear Modulus (GPa) = 31.87292 35.16890 33.52091
#
# Velocity S-wave (km/s) = 3.92732 4.12539 4.02757
# Velocity P-wave (km/s) = 6.93517 7.24557 7.09207
#
# Compressibility (1/GPa) = 0.01757689
#
# Stress axis : x y z
#
# Youngs Moduli (GPa) = 131.87827 64.64840 71.42602
#
# Poissons Ratio (x) = 0.16413 0.16973
# Poissons Ratio (y) = 0.33481 0.34443
# Poissons Ratio (z) = 0.31339 0.31175
#
# Static dielectric constant tensor:
#      x y z
#    x 3.979390 0.000000 0.000000 
#    y 0.000000 3.865010 0.000000 
#    z 0.000000 0.000000 3.420270 
# 
# 
# High freq. dielectric constant tensor:
#      x y z
#    x 1.818540 0.000000 0.000000 
#    y 0.000000 1.821450 0.000000 
#    z 0.000000 0.000000 1.780770 
# 
# From -- ./inp_files/20131.got.cif
#   From: 2010.06.25/outbox.cif.g09.slc.cpg/sg52_11_cif.got.tgz:20131.got - 2010.06.26 19:32:48.
