data_PCOD8215255
_publ_section_title
;
Structure prediction by ZEFSAII (Michael W. Deem and Ramdas Pophale) SiO2 
 PCOD8215255
Probable space group: P N N A
;
_chemical_formula_sum "Si O2"
_cell_formula_units_Z 44
_cell_length_a 19.462662
_cell_length_b 5.031777
_cell_length_c 27.361421
_cell_angle_alpha 90.000000
_cell_angle_beta 90.000000
_cell_angle_gamma 90.000000
_cell_volume 2679.552525
_symmetry_space_group_name_H-M "P N N A"
_symmetry_group_IT_number 52
_symmetry_cell_setting 'orthorhombic'
loop_
_space_group_symop_operation_xyz
x,y,z
1/2-x,-y,z
x,1/2-y,1/2-z
1/2-x,1/2+y,1/2-z
-x,-y,-z
1/2+x,y,-z
-x,1/2+y,1/2+z
1/2+x,1/2-y,1/2+z
loop_
_atom_site_type_symbol
_atom_site_label
_atom_site_fract_x
_atom_site_fract_y
_atom_site_fract_z
Si Si1 0.317294 0.880146 0.465197
Si Si2 0.169993 0.500547 0.782220
Si Si3 0.119595 0.901479 0.613176
Si Si4 0.403912 0.401204 0.463164
Si Si5 0.947620 0.585403 0.429883
Si Si6 0.750000 0.500000 0.057826
O O1 0.347134 0.609451 0.441675
O O2 0.292625 0.805512 0.520956
O O3 0.250000 0.000000 0.436618
O O4 0.376146 0.103277 0.465780
O O5 0.250000 0.500000 0.796649
O O6 0.149210 0.250000 0.750000
O O7 0.124769 0.504164 0.831065
O O8 0.150121 0.750000 0.750000
O O9 0.080829 0.124609 0.582140
O O10 0.077913 0.626702 0.610218
O O11 0.195996 0.844012 0.591826
O O12 0.469771 0.402871 0.428028
O O13 0.422776 0.499573 0.516920
#
# Coordination Sequence:
#
# PCOD8215255 Si02
#       6
#     8   8   8   8   8   4
#     4  10  19  30  46  63  93 120 163 191 233 257
#     4  10  21  36  49  68  90 116 151 203 255 285
#     4  12  21  34  49  69  88 123 162 205 238 274
#     4  11  19  32  43  66  95 120 154 200 225 275
#     4  11  21  31  47  65  91 123 156 190 244 270
#     4  10  20  30  46  70  88 118 168 208 224 274
#
# _framework density 16.420652
#
# number of rings (size 3 to 8) (size 9 to 14) (size 15 to 20)
#    0.545    0.727    4.545    2.727    0.000    5.091 
#    0.000    0.000    0.000    0.000    0.000    0.000 
#    0.000    0.000    0.000    0.000    0.000  229.091 
#
# Total GULP energy -545379.259810 kJ/mol
# GULP energy per Si atom -12394.983178 kJ/mol
# Density = 1.638328 g / cm^3
# Si number density = 16.420652 Si / 1000 Ang^3
#
#
#
# Elastic Constant Matrix: (Units=GPa)
#
#
# Indices 1 2 3 4 5 6 
#
# 1 93.1908 28.5084 33.9723 0.0000 0.0000 0.0000
# 2 28.5084 89.5364 16.6081 0.0000 0.0000 0.0000
# 3 33.9723 16.6081 44.4548 0.0000 0.0000 0.0000
# 4 0.0000 0.0000 0.0000 53.3321 0.0000 0.0000
# 5 0.0000 0.0000 0.0000 0.0000 14.8240 0.0000
# 6 0.0000 0.0000 0.0000 0.0000 0.0000 23.8107
#
#
#
# Elastic Compliance Matrix: (Units=1/GPa)
#
#
# Indices 1 2 3 4 5 6 
#
# 1 0.015570 -0.002955 -0.010794 0.000000 0.000000 0.000000
# 2 -0.002955 0.012561 -0.002434 0.000000 0.000000 0.000000
# 3 -0.010794 -0.002434 0.031653 0.000000 0.000000 0.000000
# 4 0.000000 0.000000 0.000000 0.018750 0.000000 0.000000
# 5 0.000000 0.000000 0.000000 0.000000 0.067458 0.000000
# 6 0.000000 0.000000 0.000000 0.000000 0.000000 0.041998
#
#
# Mechanical properties :
#
#
# Convention : Reuss Voigt Hill
#
# Bulk Modulus (GPa) = 36.47472 42.81774 39.64623
# Shear Modulus (GPa) = 21.78673 28.26623 25.02648
#
# Velocity S-wave (km/s) = 3.64646 4.15346 3.90819
# Velocity P-wave (km/s) = 6.32375 7.00955 6.67546
#
# Compressibility (1/GPa) = 0.02741625
#
# Stress axis : x y z
#
# Youngs Moduli (GPa) = 64.22722 79.61068 31.59233
#
# Poissons Ratio (x) = 0.23526 0.34102
# Poissons Ratio (y) = 0.18980 0.07691
# Poissons Ratio (z) = 0.69329 0.19381
#
# Static dielectric constant tensor:
#      x y z
#    x 3.293880 0.000000 0.000000 
#    y 0.000000 3.160800 0.000000 
#    z 0.000000 0.000000 2.691060 
# 
# 
# High freq. dielectric constant tensor:
#      x y z
#    x 1.631800 0.000000 0.000000 
#    y 0.000000 1.644290 0.000000 
#    z 0.000000 0.000000 1.572170 
# 
# From -- ./inp_files/40774.got.cif
#   From: 2010.06.25/outbox.cif.g09.slc.cpg/sg52_21_cif.got.tgz:40774.got - 2010.06.26 19:32:48.
