data_PCOD8215971
_publ_section_title
;
Structure prediction by ZEFSAII (Michael W. Deem and Ramdas Pophale) SiO2 
 PCOD8215971
Probable space group: P N N A
;
_chemical_formula_sum "Si O2"
_cell_formula_units_Z 60
_cell_length_a 17.690767
_cell_length_b 11.646631
_cell_length_c 14.450820
_cell_angle_alpha 90.000000
_cell_angle_beta 90.000000
_cell_angle_gamma 90.000000
_cell_volume 2977.415672
_symmetry_space_group_name_H-M "P N N A"
_symmetry_group_IT_number 52
_symmetry_cell_setting 'orthorhombic'
loop_
_space_group_symop_operation_xyz
x,y,z
1/2-x,-y,z
x,1/2-y,1/2-z
1/2-x,1/2+y,1/2-z
-x,-y,-z
1/2+x,y,-z
-x,1/2+y,1/2+z
1/2+x,1/2-y,1/2+z
loop_
_atom_site_type_symbol
_atom_site_label
_atom_site_fract_x
_atom_site_fract_y
_atom_site_fract_z
Si Si1 0.818599 0.817688 0.552125
Si Si2 0.750000 0.500000 0.841340
Si Si3 0.424626 0.263167 0.983821
Si Si4 0.786420 0.115431 0.977750
Si Si5 0.627919 0.966398 0.800571
Si Si6 0.946129 0.700216 0.654347
Si Si7 0.989452 0.163406 0.682319
Si Si8 0.424224 0.988379 0.558959
O O1 0.782055 0.704670 0.508749
O O2 0.874328 0.779461 0.633396
O O3 0.863432 0.898278 0.479952
O O4 0.747310 0.887252 0.594079
O O5 0.674751 0.481594 0.783729
O O6 0.360193 0.166297 0.972023
O O7 0.452784 0.280864 0.089580
O O8 0.494497 0.214058 0.927350
O O9 0.391734 0.381934 0.938653
O O10 0.750000 0.000000 0.022170
O O11 0.812634 0.089763 0.872297
O O12 0.577472 0.066767 0.845125
O O13 0.575850 0.871967 0.753829
O O14 0.980349 0.750000 0.750000
O O15 0.035782 0.250000 0.750000
O O16 0.047189 0.059797 0.657988
O O17 0.500000 0.000000 0.500000
#
# Coordination Sequence:
#
# PCOD8215971 Si02
#       8
#     8   4   8   8   8   8   8   8
#     4  12  22  38  63  92 134 174 217 269 336 403
#     4  12  22  34  58  96 138 174 206 264 334 414
#     4  11  24  44  67  92 138 183 229 279 330 405
#     4  12  25  41  58  97 140 176 214 271 347 423
#     4  12  23  36  58  97 143 169 206 262 343 411
#     4  12  23  41  66  98 132 177 228 279 332 397
#     4  11  21  38  64  95 133 173 225 274 328 389
#     4  10  20  40  63  91 127 175 230 272 317 395
#
# _framework density 20.151703999999999
#
# number of rings (size 3 to 8) (size 9 to 14) (size 15 to 20)
#    0.000    0.533    7.333    4.000    0.000    0.533 
#    2.400    0.000    0.000    0.800    0.000    0.000 
#    0.000    0.000    0.000    0.000    0.000    0.000 
#
# Total GULP energy -743463.364316 kJ/mol
# GULP energy per Si atom -12391.056072 kJ/mol
# Density = 2.010584 g / cm^3
# Si number density = 20.151704 Si / 1000 Ang^3
#
#
#
# Elastic Constant Matrix: (Units=GPa)
#
#
# Indices 1 2 3 4 5 6 
#
# 1 86.0340 63.8604 36.2208 0.0000 0.0000 0.0000
# 2 63.8604 144.0446 46.2277 0.0000 0.0000 0.0000
# 3 36.2208 46.2277 62.0956 0.0000 0.0000 0.0000
# 4 0.0000 0.0000 0.0000 38.6408 0.0000 0.0000
# 5 0.0000 0.0000 0.0000 0.0000 162.0398 0.0000
# 6 0.0000 0.0000 0.0000 0.0000 0.0000 50.7442
#
#
#
# Elastic Compliance Matrix: (Units=1/GPa)
#
#
# Indices 1 2 3 4 5 6 
#
# 1 0.019052 -0.006412 -0.006340 0.000000 0.000000 0.000000
# 2 -0.006412 0.011279 -0.004657 0.000000 0.000000 0.000000
# 3 -0.006340 -0.004657 0.023269 0.000000 0.000000 0.000000
# 4 0.000000 0.000000 0.000000 0.025879 0.000000 0.000000
# 5 0.000000 0.000000 0.000000 0.000000 0.006171 0.000000
# 6 0.000000 0.000000 0.000000 0.000000 0.000000 0.019707
#
#
# Mechanical properties :
#
#
# Convention : Reuss Voigt Hill
#
# Bulk Modulus (GPa) = 53.23888 64.97690 59.10789
# Shear Modulus (GPa) = 34.14470 60.00931 47.07700
#
# Velocity S-wave (km/s) = 4.12075 5.46291 4.83860
# Velocity P-wave (km/s) = 7.00837 8.49147 7.78532
#
# Compressibility (1/GPa) = 0.01878326
#
# Stress axis : x y z
#
# Youngs Moduli (GPa) = 52.48907 88.65690 42.97532
#
# Poissons Ratio (x) = 0.56844 0.27245
# Poissons Ratio (y) = 0.33655 0.20014
# Poissons Ratio (z) = 0.33276 0.41288
#
# Static dielectric constant tensor:
#      x y z
#    x 3.656260 0.000000 0.000000 
#    y 0.000000 3.542260 0.000000 
#    z 0.000000 0.000000 3.505670 
# 
# 
# High freq. dielectric constant tensor:
#      x y z
#    x 1.773390 0.000000 0.000000 
#    y 0.000000 1.812340 0.000000 
#    z 0.000000 0.000000 1.750530 
# 
# From -- ./inp_files/28266.got.cif
#   From: 2010.06.25/outbox.cif.g09.slc.cpg/sg52_15_cif.got.tgz:28266.got - 2010.06.26 19:32:48.
