data_PCOD8215590
_publ_section_title
;
Structure prediction by ZEFSAII (Michael W. Deem and Ramdas Pophale) SiO2 
 PCOD8215590
Probable space group: P N N A
;
_chemical_formula_sum "Si O2"
_cell_formula_units_Z 48
_cell_length_a 29.793856
_cell_length_b 15.926095
_cell_length_c 4.914449
_cell_angle_alpha 90.000000
_cell_angle_beta 90.000000
_cell_angle_gamma 90.000000
_cell_volume 2331.904975
_symmetry_space_group_name_H-M "P N N A"
_symmetry_group_IT_number 52
_symmetry_cell_setting 'orthorhombic'
loop_
_space_group_symop_operation_xyz
x,y,z
1/2-x,-y,z
x,1/2-y,1/2-z
1/2-x,1/2+y,1/2-z
-x,-y,-z
1/2+x,y,-z
-x,1/2+y,1/2+z
1/2+x,1/2-y,1/2+z
loop_
_atom_site_type_symbol
_atom_site_label
_atom_site_fract_x
_atom_site_fract_y
_atom_site_fract_z
Si Si1 0.629932 0.020241 0.122811
Si Si2 0.038528 0.547410 0.670413
Si Si3 0.441592 0.155504 0.322817
Si Si4 0.301652 0.848600 0.742602
Si Si5 0.149724 0.918750 0.389946
Si Si6 0.754897 0.348568 0.740237
O O1 0.650565 0.111751 0.176962
O O2 0.577950 0.020707 0.224845
O O3 0.657586 0.954444 0.308372
O O4 0.633545 0.994113 0.807887
O O5 0.057921 0.617086 0.474406
O O6 0.000000 0.500000 0.500000
O O7 0.028077 0.599616 0.955941
O O8 0.458434 0.250000 0.250000
O O9 0.389286 0.152646 0.414592
O O10 0.310111 0.750000 0.750000
O O11 0.282671 0.879854 0.454075
O O12 0.263010 0.878309 0.950040
O O13 0.196127 0.883856 0.284668
O O14 0.759564 0.250000 0.750000
#
# Coordination Sequence:
#
# PCOD8215590 Si02
#       6
#     8   8   8   8   8   8
#     4  10  21  35  53  77 103 139 180 221 276 325
#     4  10  21  38  59  83 112 144 180 228 283 339
#     4  10  20  36  59  85 114 144 178 224 279 336
#     4  10  21  35  50  71 104 144 183 222 262 310
#     4  10  20  33  53  80 108 139 177 221 269 326
#     4  10  20  33  50  74 107 144 179 218 263 310
#
# _framework density 20.584028
#
# number of rings (size 3 to 8) (size 9 to 14) (size 15 to 20)
#    0.000    2.000    0.000    3.500    0.000    4.000 
#    0.000    5.833    0.000    8.000    0.000    0.000 
#    0.000    0.000    0.000    0.000    0.000    0.000 
#
# Total GULP energy -594632.177311 kJ/mol
# GULP energy per Si atom -12388.170361 kJ/mol
# Density = 2.053718 g / cm^3
# Si number density = 20.584028 Si / 1000 Ang^3
#
#
#
# Elastic Constant Matrix: (Units=GPa)
#
#
# Indices 1 2 3 4 5 6 
#
# 1 94.2168 41.4882 16.4385 0.0000 0.0000 0.0000
# 2 41.4882 45.3090 33.6835 0.0000 0.0000 0.0000
# 3 16.4385 33.6835 81.7143 0.0000 0.0000 0.0000
# 4 0.0000 0.0000 0.0000 25.6081 0.0000 0.0000
# 5 0.0000 0.0000 0.0000 0.0000 25.3020 0.0000
# 6 0.0000 0.0000 0.0000 0.0000 0.0000 15.0039
#
#
#
# Elastic Compliance Matrix: (Units=1/GPa)
#
#
# Indices 1 2 3 4 5 6 
#
# 1 0.019024 -0.021014 0.004835 0.000000 0.000000 0.000000
# 2 -0.021014 0.055035 -0.018459 0.000000 0.000000 0.000000
# 3 0.004835 -0.018459 0.018874 0.000000 0.000000 0.000000
# 4 0.000000 0.000000 0.000000 0.039050 0.000000 0.000000
# 5 0.000000 0.000000 0.000000 0.000000 0.039523 0.000000
# 6 0.000000 0.000000 0.000000 0.000000 0.000000 0.066649
#
#
# Mechanical properties :
#
#
# Convention : Reuss Voigt Hill
#
# Bulk Modulus (GPa) = 42.26945 44.94008 43.60476
# Shear Modulus (GPa) = 15.85713 21.82480 18.84096
#
# Velocity S-wave (km/s) = 2.77855 3.25972 3.02871
# Velocity P-wave (km/s) = 5.55639 6.00397 5.78451
#
# Compressibility (1/GPa) = 0.02365775
#
# Stress axis : x y z
#
# Youngs Moduli (GPa) = 52.56604 18.17020 52.98323
#
# Poissons Ratio (x) = 0.38183 -0.25618
# Poissons Ratio (y) = 1.10463 0.97800
# Poissons Ratio (z) = -0.25417 0.33540
#
# Static dielectric constant tensor:
#      x y z
#    x 3.725990 0.000000 0.000000 
#    y 0.000000 3.627200 0.000000 
#    z 0.000000 0.000000 4.222630 
# 
# 
# High freq. dielectric constant tensor:
#      x y z
#    x 1.786200 0.000000 0.000000 
#    y 0.000000 1.783750 0.000000 
#    z 0.000000 0.000000 1.830370 
# 
# From -- ./inp_files/5799.got.cif
#   From: 2010.06.25/outbox.cif.g09.slc.cpg/sg52_3_cif.got.tgz:5799.got - 2010.06.26 19:32:48.
