data_PCOD8215359
_publ_section_title
;
Structure prediction by ZEFSAII (Michael W. Deem and Ramdas Pophale) SiO2 
 PCOD8215359
Probable space group: P N N A
;
_chemical_formula_sum "Si O2"
_cell_formula_units_Z 48
_cell_length_a 10.774148
_cell_length_b 14.216906
_cell_length_c 17.913208
_cell_angle_alpha 90.000000
_cell_angle_beta 90.000000
_cell_angle_gamma 90.000000
_cell_volume 2743.856519
_symmetry_space_group_name_H-M "P N N A"
_symmetry_group_IT_number 52
_symmetry_cell_setting 'orthorhombic'
loop_
_space_group_symop_operation_xyz
x,y,z
1/2-x,-y,z
x,1/2-y,1/2-z
1/2-x,1/2+y,1/2-z
-x,-y,-z
1/2+x,y,-z
-x,1/2+y,1/2+z
1/2+x,1/2-y,1/2+z
loop_
_atom_site_type_symbol
_atom_site_label
_atom_site_fract_x
_atom_site_fract_y
_atom_site_fract_z
Si Si1 0.247662 0.608076 0.552757
Si Si2 0.063171 0.626739 0.942931
Si Si3 0.507554 0.812486 0.977860
Si Si4 0.271078 0.267770 0.830562
Si Si5 0.990527 0.289934 0.827284
Si Si6 0.880201 0.463827 0.905761
O O1 0.250000 0.500000 0.576375
O O2 0.377534 0.632372 0.511047
O O3 0.127635 0.626981 0.501043
O O4 0.234796 0.668373 0.627572
O O5 0.157688 0.654278 0.878111
O O6 0.969883 0.552828 0.907802
O O7 0.990803 0.718712 0.972331
O O8 0.137301 0.581447 0.012200
O O9 0.530939 0.786841 0.891706
O O10 0.335490 0.250000 0.750000
O O11 0.135791 0.311309 0.817440
O O12 0.934003 0.250000 0.750000
O O13 0.926829 0.388454 0.846095
O O14 0.750000 0.500000 0.875698
#
# Coordination Sequence:
#
# PCOD8215359 Si02
#       6
#     8   8   8   8   8   8
#     4  10  19  34  55  81 102 139 183 222 261 325
#     4   9  20  33  55  82 108 137 179 229 270 315
#     4   9  19  33  57  75 108 139 176 224 272 310
#     4   9  19  37  54  78 109 141 173 221 280 313
#     4   9  19  36  53  75 109 145 175 216 276 327
#     4  10  21  32  55  84 108 139 186 221 266 333
#
# _framework density 17.493627
#
# number of rings (size 3 to 8) (size 9 to 14) (size 15 to 20)
#    0.000    2.667    0.000    0.500   14.000    0.000 
#    9.000    1.667    0.000    0.000    0.000    0.000 
#    0.000    0.000    0.000    0.000    0.000    0.000 
#
# Total GULP energy -595161.561766 kJ/mol
# GULP energy per Si atom -12399.199203 kJ/mol
# Density = 1.745381 g / cm^3
# Si number density = 17.493627 Si / 1000 Ang^3
#
#
#
# Elastic Constant Matrix: (Units=GPa)
#
#
# Indices 1 2 3 4 5 6 
#
# 1 109.3744 62.0013 53.1613 0.0000 0.0000 0.0000
# 2 62.0013 126.4264 51.1027 0.0000 0.0000 0.0000
# 3 53.1613 51.1027 114.8805 0.0000 0.0000 0.0000
# 4 0.0000 0.0000 0.0000 16.3269 0.0000 0.0000
# 5 0.0000 0.0000 0.0000 0.0000 22.1077 0.0000
# 6 0.0000 0.0000 0.0000 0.0000 0.0000 27.3389
#
#
#
# Elastic Compliance Matrix: (Units=1/GPa)
#
#
# Indices 1 2 3 4 5 6 
#
# 1 0.014167 -0.005240 -0.004225 0.000000 0.000000 0.000000
# 2 -0.005240 0.011582 -0.002727 0.000000 0.000000 0.000000
# 3 -0.004225 -0.002727 0.011873 0.000000 0.000000 0.000000
# 4 0.000000 0.000000 0.000000 0.061249 0.000000 0.000000
# 5 0.000000 0.000000 0.000000 0.000000 0.045233 0.000000
# 6 0.000000 0.000000 0.000000 0.000000 0.000000 0.036578
#
#
# Mechanical properties :
#
#
# Convention : Reuss Voigt Hill
#
# Bulk Modulus (GPa) = 75.54219 75.91242 75.72730
# Shear Modulus (GPa) = 23.86895 25.44912 24.65904
#
# Velocity S-wave (km/s) = 3.69784 3.81828 3.75854
# Velocity P-wave (km/s) = 7.84273 7.93269 7.88784
#
# Compressibility (1/GPa) = 0.01323764
#
# Stress axis : x y z
#
# Youngs Moduli (GPa) = 70.58810 86.34243 84.22536
#
# Poissons Ratio (x) = 0.45242 0.35584
# Poissons Ratio (y) = 0.36987 0.22970
# Poissons Ratio (z) = 0.29822 0.23548
#
# Static dielectric constant tensor:
#      x y z
#    x 3.259800 0.000000 0.000000 
#    y 0.000000 3.249880 0.000000 
#    z 0.000000 0.000000 3.237150 
# 
# 
# High freq. dielectric constant tensor:
#      x y z
#    x 1.672430 0.000000 0.000000 
#    y 0.000000 1.679640 0.000000 
#    z 0.000000 0.000000 1.663430 
# 
# From -- ./inp_files/26052.got.cif
#   From: 2010.06.25/outbox.cif.g09.slc.cpg/sg52_14_cif.got.tgz:26052.got - 2010.06.26 19:32:48.
