data_PCOD8215374
_publ_section_title
;
Structure prediction by ZEFSAII (Michael W. Deem and Ramdas Pophale) SiO2 
 PCOD8215374
Probable space group: P N N A
;
_chemical_formula_sum "Si O2"
_cell_formula_units_Z 48
_cell_length_a 12.551935
_cell_length_b 18.796559
_cell_length_c 11.298933
_cell_angle_alpha 90.000000
_cell_angle_beta 90.000000
_cell_angle_gamma 90.000000
_cell_volume 2665.793270
_symmetry_space_group_name_H-M "P N N A"
_symmetry_group_IT_number 52
_symmetry_cell_setting 'orthorhombic'
loop_
_space_group_symop_operation_xyz
x,y,z
1/2-x,-y,z
x,1/2-y,1/2-z
1/2-x,1/2+y,1/2-z
-x,-y,-z
1/2+x,y,-z
-x,1/2+y,1/2+z
1/2+x,1/2-y,1/2+z
loop_
_atom_site_type_symbol
_atom_site_label
_atom_site_fract_x
_atom_site_fract_y
_atom_site_fract_z
Si Si1 0.644822 0.951800 0.085916
Si Si2 0.540546 0.554205 0.660630
Si Si3 0.815746 0.167039 0.276962
Si Si4 0.982792 0.115925 0.467575
Si Si5 0.925167 0.673076 0.195138
Si Si6 0.130533 0.004078 0.385753
O O1 0.662493 0.880363 0.161055
O O2 0.750000 0.000000 0.076577
O O3 0.552688 0.997238 0.145778
O O4 0.605357 0.926744 0.957241
O O5 0.488335 0.624739 0.712615
O O6 0.625519 0.520547 0.750107
O O7 0.826946 0.250000 0.250000
O O8 0.899435 0.151679 0.380086
O O9 0.696900 0.147800 0.320298
O O10 0.021315 0.172998 0.565230
O O11 0.084626 0.084457 0.396642
O O12 0.933368 0.048800 0.531767
O O13 0.930648 0.750000 0.250000
O O14 0.250000 0.000000 0.431486
#
# Coordination Sequence:
#
# PCOD8215374 Si02
#       6
#     8   8   8   8   8   8
#     4  11  21  37  61  84 118 152 198 246 286 356
#     4  10  21  36  57  87 112 156 191 239 296 340
#     4  11  23  39  60  87 117 156 196 239 298 357
#     4  10  21  36  59  85 110 155 189 241 295 346
#     4  10  22  39  59  83 120 154 199 242 293 354
#     4  10  19  34  58  85 114 140 192 246 285 345
#
# _framework density 18.005897999999998
#
# number of rings (size 3 to 8) (size 9 to 14) (size 15 to 20)
#    0.000    1.667    3.333    1.500    2.333    0.667 
#    0.000    0.000    0.000    2.000    0.000    0.000 
#    0.000    0.000    0.000    0.000    0.000    0.000 
#
# Total GULP energy -595135.419875 kJ/mol
# GULP energy per Si atom -12398.654581 kJ/mol
# Density = 1.796492 g / cm^3
# Si number density = 18.005898 Si / 1000 Ang^3
#
#
#
# Elastic Constant Matrix: (Units=GPa)
#
#
# Indices 1 2 3 4 5 6 
#
# 1 98.8474 35.2501 58.4487 0.0000 0.0000 0.0000
# 2 35.2501 75.9826 53.5142 0.0000 0.0000 0.0000
# 3 58.4487 53.5142 116.5430 0.0000 0.0000 0.0000
# 4 0.0000 0.0000 0.0000 35.6588 0.0000 0.0000
# 5 0.0000 0.0000 0.0000 0.0000 51.9898 0.0000
# 6 0.0000 0.0000 0.0000 0.0000 0.0000 28.4392
#
#
#
# Elastic Compliance Matrix: (Units=1/GPa)
#
#
# Indices 1 2 3 4 5 6 
#
# 1 0.014672 -0.002401 -0.006256 0.000000 0.000000 0.000000
# 2 -0.002401 0.019844 -0.007908 0.000000 0.000000 0.000000
# 3 -0.006256 -0.007908 0.015349 0.000000 0.000000 0.000000
# 4 0.000000 0.000000 0.000000 0.028044 0.000000 0.000000
# 5 0.000000 0.000000 0.000000 0.000000 0.019235 0.000000
# 6 0.000000 0.000000 0.000000 0.000000 0.000000 0.035163
#
#
# Mechanical properties :
#
#
# Convention : Reuss Voigt Hill
#
# Bulk Modulus (GPa) = 59.75127 65.08877 62.42002
# Shear Modulus (GPa) = 29.23736 32.82824 31.03280
#
# Velocity S-wave (km/s) = 4.03397 4.27452 4.15599
# Velocity P-wave (km/s) = 7.41306 7.78390 7.60074
#
# Compressibility (1/GPa) = 0.01673605
#
# Stress axis : x y z
#
# Youngs Moduli (GPa) = 68.15792 50.39243 65.14982
#
# Poissons Ratio (x) = 0.12097 0.40757
# Poissons Ratio (y) = 0.16362 0.51521
# Poissons Ratio (z) = 0.42639 0.39851
#
# Static dielectric constant tensor:
#      x y z
#    x 3.650520 0.000000 0.000000 
#    y 0.000000 3.225810 0.000000 
#    z 0.000000 0.000000 3.477790 
# 
# 
# High freq. dielectric constant tensor:
#      x y z
#    x 1.709620 0.000000 0.000000 
#    y 0.000000 1.689120 0.000000 
#    z 0.000000 0.000000 1.706390 
# 
# From -- ./inp_files/18215.got.cif
#   From: 2010.06.25/outbox.cif.g09.slc.cpg/sg52_10_cif.got.tgz:18215.got - 2010.06.26 19:32:48.
