data_PCOD8215613
_publ_section_title
;
Structure prediction by ZEFSAII (Michael W. Deem and Ramdas Pophale) SiO2 
 PCOD8215613
Probable space group: P N N A
;
_chemical_formula_sum "Si O2"
_cell_formula_units_Z 44
_cell_length_a 19.542330
_cell_length_b 12.401503
_cell_length_c 8.067608
_cell_angle_alpha 90.000000
_cell_angle_beta 90.000000
_cell_angle_gamma 90.000000
_cell_volume 1955.219200
_symmetry_space_group_name_H-M "P N N A"
_symmetry_group_IT_number 52
_symmetry_cell_setting 'orthorhombic'
loop_
_space_group_symop_operation_xyz
x,y,z
1/2-x,-y,z
x,1/2-y,1/2-z
1/2-x,1/2+y,1/2-z
-x,-y,-z
1/2+x,y,-z
-x,1/2+y,1/2+z
1/2+x,1/2-y,1/2+z
loop_
_atom_site_type_symbol
_atom_site_label
_atom_site_fract_x
_atom_site_fract_y
_atom_site_fract_z
Si Si1 0.647082 0.669070 0.115549
Si Si2 0.626583 0.127287 0.290656
Si Si3 0.038237 0.784647 0.067526
Si Si4 0.250000 0.500000 0.849027
Si Si5 0.573683 0.160740 0.635853
Si Si6 0.967034 0.040195 0.178670
O O1 0.680487 0.750000 0.250000
O O2 0.707162 0.589792 0.045953
O O3 0.588947 0.602026 0.211057
O O4 0.614182 0.735804 0.963070
O O5 0.636457 0.250000 0.250000
O O6 0.694280 0.061990 0.234066
O O7 0.620779 0.112425 0.490873
O O8 0.558271 0.084892 0.193298
O O9 0.014731 0.750000 0.250000
O O10 0.036302 0.914438 0.014731
O O11 0.988270 0.730221 0.937636
O O12 0.613581 0.250000 0.750000
O O13 0.541716 0.060047 0.738734
#
# Coordination Sequence:
#
# PCOD8215613 Si02
#       6
#     8   8   8   4   8   8
#     4   8  15  30  51  72  97 135 179 218 265 325
#     4  11  21  35  56  83 111 146 193 240 281 333
#     4   9  16  31  56  84 111 139 176 224 278 340
#     4  10  20  34  52  72 100 146 190 228 274 326
#     4   9  18  35  56  81 113 144 175 221 283 350
#     4   8  17  33  55  81 111 144 175 216 279 343
#
# _framework density 22.503872000000001
#
# number of rings (size 3 to 8) (size 9 to 14) (size 15 to 20)
#    0.000    2.909    0.000    3.818    0.000    0.000 
#    0.000   14.545    0.000   10.909    0.000    1.273 
#    0.000    0.000    0.000    0.000    0.000    0.000 
#
# Total GULP energy -545101.495849 kJ/mol
# GULP energy per Si atom -12388.670360 kJ/mol
# Density = 2.245265 g / cm^3
# Si number density = 22.503872 Si / 1000 Ang^3
#
#
#
# Elastic Constant Matrix: (Units=GPa)
#
#
# Indices 1 2 3 4 5 6 
#
# 1 61.1398 29.7207 20.2403 0.0000 0.0000 0.0000
# 2 29.7207 124.2886 27.4120 0.0000 0.0000 0.0000
# 3 20.2403 27.4120 104.9245 0.0000 0.0000 0.0000
# 4 0.0000 0.0000 0.0000 23.2995 0.0000 0.0000
# 5 0.0000 0.0000 0.0000 0.0000 56.0611 0.0000
# 6 0.0000 0.0000 0.0000 0.0000 0.0000 -4.8413
#
#
#
# Elastic Compliance Matrix: (Units=1/GPa)
#
#
# Indices 1 2 3 4 5 6 
#
# 1 0.019180 -0.004001 -0.002655 0.000000 0.000000 0.000000
# 2 -0.004001 0.009372 -0.001677 0.000000 0.000000 0.000000
# 3 -0.002655 -0.001677 0.010481 0.000000 0.000000 0.000000
# 4 0.000000 0.000000 0.000000 0.042919 0.000000 0.000000
# 5 0.000000 0.000000 0.000000 0.000000 0.017838 0.000000
# 6 0.000000 0.000000 0.000000 0.000000 0.000000 -0.206555
#
#
# Mechanical properties :
#
#
# Convention : Reuss Voigt Hill
#
# Bulk Modulus (GPa) = 44.70616 49.45545 47.08080
# Shear Modulus (GPa) = -60.49979 29.10251 -15.69864
#
# Velocity S-wave (km/s) = -5.19062 3.60004 -2.64407
# Velocity P-wave (km/s) = 4.00178 6.26933 3.41250
#
# Compressibility (1/GPa) = 0.02236828
#
# Stress axis : x y z
#
# Youngs Moduli (GPa) = 52.13862 106.69706 95.41257
#
# Poissons Ratio (x) = 0.42688 0.25328
# Poissons Ratio (y) = 0.20860 0.15999
# Poissons Ratio (z) = 0.13841 0.17891
#
# Static dielectric constant tensor:
#      x y z
#    x 4.073950 0.000000 0.000000 
#    y 0.000000 4.728370 0.000000 
#    z 0.000000 0.000000 3.942330 
# 
# 
# High freq. dielectric constant tensor:
#      x y z
#    x 1.858240 0.000000 0.000000 
#    y 0.000000 1.922210 0.000000 
#    z 0.000000 0.000000 1.851500 
# 
# From -- ./inp_files/14180.got.cif
#   From: 2010.06.25/outbox.cif.g09.slc.cpg/sg52_8_cif.got.tgz:14180.got - 2010.06.26 19:32:48.
