data_PCOD8215477
_publ_section_title
;
Structure prediction by ZEFSAII (Michael W. Deem and Ramdas Pophale) SiO2 
 PCOD8215477
Probable space group: P N N A
;
_chemical_formula_sum "Si O2"
_cell_formula_units_Z 40
_cell_length_a 12.492945
_cell_length_b 16.086316
_cell_length_c 7.215088
_cell_angle_alpha 90.000000
_cell_angle_beta 90.000000
_cell_angle_gamma 90.000000
_cell_volume 1449.983486
_symmetry_space_group_name_H-M "P N N A"
_symmetry_group_IT_number 52
_symmetry_cell_setting 'orthorhombic'
loop_
_space_group_symop_operation_xyz
x,y,z
1/2-x,-y,z
x,1/2-y,1/2-z
1/2-x,1/2+y,1/2-z
-x,-y,-z
1/2+x,y,-z
-x,1/2+y,1/2+z
1/2+x,1/2-y,1/2+z
loop_
_atom_site_type_symbol
_atom_site_label
_atom_site_fract_x
_atom_site_fract_y
_atom_site_fract_z
Si Si1 0.215531 0.309463 0.585888
Si Si2 0.917121 0.566960 0.224343
Si Si3 0.374609 0.340904 0.182119
Si Si4 0.084559 0.870962 0.735652
Si Si5 0.353804 0.839239 0.353700
O O1 0.177079 0.250000 0.750000
O O2 0.149466 0.395026 0.605281
O O3 0.343308 0.331124 0.599175
O O4 0.178913 0.257923 0.403177
O O5 0.904482 0.469361 0.230801
O O6 0.041686 0.590119 0.249145
O O7 0.873243 0.602012 0.030025
O O8 0.410468 0.250000 0.250000
O O9 0.255331 0.370750 0.253123
O O10 0.367940 0.335689 0.957497
O O11 0.962059 0.842471 0.768717
#
# Coordination Sequence:
#
# PCOD8215477 Si02
#       5
#     8   8   8   8   8
#     4  10  19  37  58  88 124 160 203 258 316 371
#     4  10  20  35  61  92 112 152 204 269 309 358
#     4  11  21  35  55  86 126 158 190 262 321 362
#     4  11  21  36  63  92 116 154 213 260 310 370
#     4  10  21  36  57  91 124 158 204 259 306 382
#
# _framework density 27.586523
#
# number of rings (size 3 to 8) (size 9 to 14) (size 15 to 20)
#    0.000    1.600    4.000    6.000    0.000    3.200 
#    0.000    0.000    0.000    1.200   20.800    4.200 
#    0.000    0.000    0.000    0.000    0.000    0.000 
#
# Total GULP energy -495990.113682 kJ/mol
# GULP energy per Si atom -12399.752842 kJ/mol
# Density = 2.752374 g / cm^3
# Si number density = 27.586523 Si / 1000 Ang^3
#
#
#
# Elastic Constant Matrix: (Units=GPa)
#
#
# Indices 1 2 3 4 5 6 
#
# 1 237.9375 73.4097 61.8457 0.0000 0.0000 0.0000
# 2 73.4097 215.7386 62.8020 0.0000 0.0000 0.0000
# 3 61.8457 62.8020 84.6511 0.0000 0.0000 0.0000
# 4 0.0000 0.0000 0.0000 35.2226 0.0000 0.0000
# 5 0.0000 0.0000 0.0000 0.0000 46.6589 0.0000
# 6 0.0000 0.0000 0.0000 0.0000 0.0000 33.5982
#
#
#
# Elastic Compliance Matrix: (Units=1/GPa)
#
#
# Indices 1 2 3 4 5 6 
#
# 1 0.005311 -0.000864 -0.003239 0.000000 0.000000 0.000000
# 2 -0.000864 0.006053 -0.003859 0.000000 0.000000 0.000000
# 3 -0.003239 -0.003859 0.017043 0.000000 0.000000 0.000000
# 4 0.000000 0.000000 0.000000 0.028391 0.000000 0.000000
# 5 0.000000 0.000000 0.000000 0.000000 0.021432 0.000000
# 6 0.000000 0.000000 0.000000 0.000000 0.000000 0.029763
#
#
# Mechanical properties :
#
#
# Convention : Reuss Voigt Hill
#
# Bulk Modulus (GPa) = 80.11720 103.82689 91.97205
# Shear Modulus (GPa) = 39.03842 45.78060 42.40951
#
# Velocity S-wave (km/s) = 3.76590 4.07815 3.92513
# Velocity P-wave (km/s) = 6.92925 7.73910 7.34534
#
# Compressibility (1/GPa) = 0.01248171
#
# Stress axis : x y z
#
# Youngs Moduli (GPa) = 188.27364 165.21527 58.67623
#
# Poissons Ratio (x) = 0.14281 0.19007
# Poissons Ratio (y) = 0.16274 0.22643
# Poissons Ratio (z) = 0.60986 0.63756
#
# Static dielectric constant tensor:
#      x y z
#    x 5.565890 0.000000 0.000000 
#    y 0.000000 5.005380 0.000000 
#    z 0.000000 0.000000 5.485740 
# 
# 
# High freq. dielectric constant tensor:
#      x y z
#    x 2.138420 0.000000 0.000000 
#    y 0.000000 2.111760 0.000000 
#    z 0.000000 0.000000 2.122630 
# 
# From -- ./inp_files/17997.got.cif
#   From: 2010.06.25/outbox.cif.g09.slc.cpg/sg52_9_cif.got.tgz:17997.got - 2010.06.26 19:32:48.
