data_PCOD8215596
_publ_section_title
;
Structure prediction by ZEFSAII (Michael W. Deem and Ramdas Pophale) SiO2 
 PCOD8215596
Probable space group: P N N A
;
_chemical_formula_sum "Si O2"
_cell_formula_units_Z 40
_cell_length_a 17.827132
_cell_length_b 4.916024
_cell_length_c 22.763006
_cell_angle_alpha 90.000000
_cell_angle_beta 90.000000
_cell_angle_gamma 90.000000
_cell_volume 1994.918177
_symmetry_space_group_name_H-M "P N N A"
_symmetry_group_IT_number 52
_symmetry_cell_setting 'orthorhombic'
loop_
_space_group_symop_operation_xyz
x,y,z
1/2-x,-y,z
x,1/2-y,1/2-z
1/2-x,1/2+y,1/2-z
-x,-y,-z
1/2+x,y,-z
-x,1/2+y,1/2+z
1/2+x,1/2-y,1/2+z
loop_
_atom_site_type_symbol
_atom_site_label
_atom_site_fract_x
_atom_site_fract_y
_atom_site_fract_z
Si Si1 0.614511 0.564663 0.306823
Si Si2 0.834637 0.555576 0.127203
Si Si3 0.969563 0.912160 0.869185
Si Si4 0.480497 0.899161 0.564173
Si Si5 0.835649 0.998431 0.790567
O O1 0.634602 0.750000 0.250000
O O2 0.657538 0.271134 0.316797
O O3 0.525508 0.509579 0.314598
O O4 0.638997 0.751580 0.360037
O O5 0.750000 0.500000 0.106200
O O6 0.890359 0.642170 0.074256
O O7 0.982147 0.600729 0.887987
O O8 0.983648 0.103499 0.925573
O O9 0.885411 0.972733 0.848726
O O10 0.500000 0.000000 0.500000
O O11 0.856288 0.250000 0.750000
O O12 0.750000 0.000000 0.812420
O O13 0.855085 0.750000 0.750000
#
# Coordination Sequence:
#
# PCOD8215596 Si02
#       5
#     8   8   8   8   8
#     4  10  20  33  53  78 106 142 177 211 257 317
#     4  10  21  36  53  77 108 140 176 219 266 315
#     4  10  20  35  56  80 107 140 183 224 262 322
#     4  10  21  38  58  78 104 142 184 229 274 312
#     4  10  20  34  54  81 114 146 173 213 270 324
#
# _framework density 20.050948000000002
#
# number of rings (size 3 to 8) (size 9 to 14) (size 15 to 20)
#    0.000    2.000    0.000    3.600    0.000    4.800 
#    0.000    2.000    0.000    1.200    0.000    0.000 
#    0.000    0.000    0.000    0.000    0.000    0.000 
#
# Total GULP energy -495539.919438 kJ/mol
# GULP energy per Si atom -12388.497986 kJ/mol
# Density = 2.000531 g / cm^3
# Si number density = 20.050948 Si / 1000 Ang^3
#
#
#
# Elastic Constant Matrix: (Units=GPa)
#
#
# Indices 1 2 3 4 5 6 
#
# 1 127.0688 25.4259 50.1202 0.0000 0.0000 0.0000
# 2 25.4259 109.3841 8.1226 0.0000 0.0000 0.0000
# 3 50.1202 8.1226 66.6559 0.0000 0.0000 0.0000
# 4 0.0000 0.0000 0.0000 30.1721 0.0000 0.0000
# 5 0.0000 0.0000 0.0000 0.0000 17.9068 0.0000
# 6 0.0000 0.0000 0.0000 0.0000 0.0000 26.5484
#
#
#
# Elastic Compliance Matrix: (Units=1/GPa)
#
#
# Indices 1 2 3 4 5 6 
#
# 1 0.011636 -0.002074 -0.008497 0.000000 0.000000 0.000000
# 2 -0.002074 0.009595 0.000390 0.000000 0.000000 0.000000
# 3 -0.008497 0.000390 0.021344 0.000000 0.000000 0.000000
# 4 0.000000 0.000000 0.000000 0.033143 0.000000 0.000000
# 5 0.000000 0.000000 0.000000 0.000000 0.055845 0.000000
# 6 0.000000 0.000000 0.000000 0.000000 0.000000 0.037667
#
#
# Mechanical properties :
#
#
# Convention : Reuss Voigt Hill
#
# Bulk Modulus (GPa) = 45.01640 52.27179 48.64409
# Shear Modulus (GPa) = 25.38125 29.55479 27.46802
#
# Velocity S-wave (km/s) = 3.56172 3.84342 3.70525
# Velocity P-wave (km/s) = 6.27808 6.76919 6.52825
#
# Compressibility (1/GPa) = 0.02221413
#
# Stress axis : x y z
#
# Youngs Moduli (GPa) = 85.93925 104.21900 46.85201
#
# Poissons Ratio (x) = 0.21613 0.39809
# Poissons Ratio (y) = 0.17822 -0.01828
# Poissons Ratio (z) = 0.73021 -0.04066
#
# Static dielectric constant tensor:
#      x y z
#    x 3.773310 0.000000 0.000000 
#    y 0.000000 4.020200 0.000000 
#    z 0.000000 0.000000 3.163050 
# 
# 
# High freq. dielectric constant tensor:
#      x y z
#    x 1.779220 0.000000 0.000000 
#    y 0.000000 1.812610 0.000000 
#    z 0.000000 0.000000 1.735880 
# 
# From -- ./inp_files/33456.got.cif
#   From: 2010.06.25/outbox.cif.g09.slc.cpg/sg52_17_cif.got.tgz:33456.got - 2010.06.26 19:32:48.
