data_PCOD8215914
_publ_section_title
;
Structure prediction by ZEFSAII (Michael W. Deem and Ramdas Pophale) SiO2 
 PCOD8215914
Probable space group: P N N A
;
_chemical_formula_sum "Si O2"
_cell_formula_units_Z 28
_cell_length_a 8.536182
_cell_length_b 12.468920
_cell_length_c 13.320883
_cell_angle_alpha 90.000000
_cell_angle_beta 90.000000
_cell_angle_gamma 90.000000
_cell_volume 1417.834430
_symmetry_space_group_name_H-M "P N N A"
_symmetry_group_IT_number 52
_symmetry_cell_setting 'orthorhombic'
loop_
_space_group_symop_operation_xyz
x,y,z
1/2-x,-y,z
x,1/2-y,1/2-z
1/2-x,1/2+y,1/2-z
-x,-y,-z
1/2+x,y,-z
-x,1/2+y,1/2+z
1/2+x,1/2-y,1/2+z
loop_
_atom_site_type_symbol
_atom_site_label
_atom_site_fract_x
_atom_site_fract_y
_atom_site_fract_z
Si Si1 0.249234 0.621537 0.401003
Si Si2 0.750034 0.119565 0.314710
Si Si3 0.605648 0.821861 0.107094
Si Si4 0.034778 0.750000 0.250000
O O1 0.250000 0.500000 0.360015
O O2 0.419938 0.672639 0.399532
O O3 0.182897 0.619006 0.513324
O O4 0.139749 0.693733 0.332678
O O5 0.833465 0.118481 0.206363
O O6 0.845625 0.196443 0.390329
O O7 0.572609 0.161737 0.305122
O O8 0.750000 0.000000 0.359696
#
# Coordination Sequence:
#
# PCOD8215914 Si02
#       4
#     8   8   8   4
#     4  12  22  38  59  84 114 148 185 234 279 326
#     4  10  20  39  59  83 116 149 181 232 281 326
#     4  10  21  36  58  86 112 146 192 226 272 340
#     4  10  22  36  56  86 112 144 192 228 274 340
#
# _framework density 19.748425999999998
#
# number of rings (size 3 to 8) (size 9 to 14) (size 15 to 20)
#    0.000    1.714    0.000    8.571    0.000    0.000 
#    0.000    7.143    0.000    0.000    0.000    0.000 
#    0.000    0.000    0.000    0.000    0.000    0.000 
#
# Total GULP energy -347300.471799 kJ/mol
# GULP energy per Si atom -12403.588279 kJ/mol
# Density = 1.970348 g / cm^3
# Si number density = 19.748426 Si / 1000 Ang^3
#
#
#
# Elastic Constant Matrix: (Units=GPa)
#
#
# Indices 1 2 3 4 5 6 
#
# 1 176.6514 48.1401 36.3931 0.0000 0.0000 0.0000
# 2 48.1401 134.5366 8.1740 0.0000 0.0000 0.0000
# 3 36.3931 8.1740 60.5156 0.0000 0.0000 0.0000
# 4 0.0000 0.0000 0.0000 17.1132 0.0000 0.0000
# 5 0.0000 0.0000 0.0000 0.0000 35.4140 0.0000
# 6 0.0000 0.0000 0.0000 0.0000 0.0000 18.3216
#
#
#
# Elastic Compliance Matrix: (Units=1/GPa)
#
#
# Indices 1 2 3 4 5 6 
#
# 1 0.007104 -0.002301 -0.003961 0.000000 0.000000 0.000000
# 2 -0.002301 0.008240 0.000271 0.000000 0.000000 0.000000
# 3 -0.003961 0.000271 0.018870 0.000000 0.000000 0.000000
# 4 0.000000 0.000000 0.000000 0.058434 0.000000 0.000000
# 5 0.000000 0.000000 0.000000 0.000000 0.028237 0.000000
# 6 0.000000 0.000000 0.000000 0.000000 0.000000 0.054581
#
#
# Mechanical properties :
#
#
# Convention : Reuss Voigt Hill
#
# Bulk Modulus (GPa) = 44.98245 61.90199 53.44222
# Shear Modulus (GPa) = 25.65934 32.76950 29.21442
#
# Velocity S-wave (km/s) = 3.60851 4.07793 3.85038
# Velocity P-wave (km/s) = 6.33947 7.32025 6.84744
#
# Compressibility (1/GPa) = 0.02223089
#
# Stress axis : x y z
#
# Youngs Moduli (GPa) = 140.76291 121.36035 52.99292
#
# Poissons Ratio (x) = 0.27929 0.20993
# Poissons Ratio (y) = 0.32394 -0.01436
# Poissons Ratio (z) = 0.55763 -0.03289
#
# Static dielectric constant tensor:
#      x y z
#    x 3.753400 0.000000 0.000000 
#    y 0.000000 3.648190 0.000000 
#    z 0.000000 0.000000 3.466510 
# 
# 
# High freq. dielectric constant tensor:
#      x y z
#    x 1.788650 0.000000 0.000000 
#    y 0.000000 1.774230 0.000000 
#    z 0.000000 0.000000 1.752870 
# 
# From -- ./inp_files/24009.got.cif
#   From: 2010.06.25/outbox.cif.g09.slc.cpg/sg52_13_cif.got.tgz:24009.got - 2010.06.26 19:32:48.
