data_PCOD8215805
_publ_section_title
;
Structure prediction by ZEFSAII (Michael W. Deem and Ramdas Pophale) SiO2 
 PCOD8215805
Probable space group: P N N A
;
_chemical_formula_sum "Si O2"
_cell_formula_units_Z 40
_cell_length_a 9.011187
_cell_length_b 7.739071
_cell_length_c 27.599756
_cell_angle_alpha 90.000000
_cell_angle_beta 90.000000
_cell_angle_gamma 90.000000
_cell_volume 1924.757745
_symmetry_space_group_name_H-M "P N N A"
_symmetry_group_IT_number 52
_symmetry_cell_setting 'orthorhombic'
loop_
_space_group_symop_operation_xyz
x,y,z
1/2-x,-y,z
x,1/2-y,1/2-z
1/2-x,1/2+y,1/2-z
-x,-y,-z
1/2+x,y,-z
-x,1/2+y,1/2+z
1/2+x,1/2-y,1/2+z
loop_
_atom_site_type_symbol
_atom_site_label
_atom_site_fract_x
_atom_site_fract_y
_atom_site_fract_z
Si Si1 0.411684 0.053884 0.229058
Si Si2 0.345459 0.669087 0.886318
Si Si3 0.419126 0.964887 0.333186
Si Si4 0.588124 0.057587 0.046521
Si Si5 0.570845 0.620976 0.356523
O O1 0.416195 0.250000 0.250000
O O2 0.441917 0.935957 0.275969
O O3 0.250000 0.000000 0.207678
O O4 0.536408 0.006309 0.189005
O O5 0.250000 0.500000 0.896914
O O6 0.482697 0.626904 0.851232
O O7 0.406031 0.738389 0.938486
O O8 0.246033 0.820958 0.859923
O O9 0.250000 0.000000 0.347313
O O10 0.469423 0.789343 0.357437
O O11 0.750000 0.000000 0.032928
O O12 0.520550 0.969266 0.094199
O O13 0.500000 0.000000 0.000000
#
# Coordination Sequence:
#
# PCOD8215805 Si02
#       5
#     8   8   8   8   8
#     4  11  21  35  58  88 121 159 204 252 294 350
#     4   9  20  41  62  84 120 155 194 247 303 361
#     4  10  20  37  61  91 122 157 200 246 294 354
#     4  10  22  40  60  85 115 151 196 249 303 359
#     4  10  21  39  59  84 120 158 196 248 304 358
#
# _framework density 20.781836999999999
#
# number of rings (size 3 to 8) (size 9 to 14) (size 15 to 20)
#    0.000    2.000    0.000    4.200    0.000    2.400 
#    0.000   33.000    0.000    0.000    0.000    0.000 
#    0.000    0.000    0.000    0.000    0.000    0.000 
#
# Total GULP energy -495658.455055 kJ/mol
# GULP energy per Si atom -12391.461376 kJ/mol
# Density = 2.073454 g / cm^3
# Si number density = 20.781837 Si / 1000 Ang^3
#
#
#
# Elastic Constant Matrix: (Units=GPa)
#
#
# Indices 1 2 3 4 5 6 
#
# 1 114.0127 47.3761 82.4165 0.0000 0.0000 0.0000
# 2 47.3761 103.9112 49.3192 0.0000 0.0000 0.0000
# 3 82.4165 49.3192 134.1256 0.0000 0.0000 0.0000
# 4 0.0000 0.0000 0.0000 20.6638 0.0000 0.0000
# 5 0.0000 0.0000 0.0000 0.0000 23.4755 0.0000
# 6 0.0000 0.0000 0.0000 0.0000 0.0000 22.3543
#
#
#
# Elastic Compliance Matrix: (Units=1/GPa)
#
#
# Indices 1 2 3 4 5 6 
#
# 1 0.016674 -0.003318 -0.009026 0.000000 0.000000 0.000000
# 2 -0.003318 0.012319 -0.002491 0.000000 0.000000 0.000000
# 3 -0.009026 -0.002491 0.013918 0.000000 0.000000 0.000000
# 4 0.000000 0.000000 0.000000 0.048394 0.000000 0.000000
# 5 0.000000 0.000000 0.000000 0.000000 0.042598 0.000000
# 6 0.000000 0.000000 0.000000 0.000000 0.000000 0.044734
#
#
# Mechanical properties :
#
#
# Convention : Reuss Voigt Hill
#
# Bulk Modulus (GPa) = 75.52253 78.91925 77.22089
# Shear Modulus (GPa) = 23.50519 24.82792 24.16656
#
# Velocity S-wave (km/s) = 3.36675 3.46018 3.41379
# Velocity P-wave (km/s) = 7.17864 7.34992 7.26479
#
# Compressibility (1/GPa) = 0.01324108
#
# Stress axis : x y z
#
# Youngs Moduli (GPa) = 59.97270 81.17750 71.85183
#
# Poissons Ratio (x) = 0.26938 0.64851
# Poissons Ratio (y) = 0.19902 0.17895
# Poissons Ratio (z) = 0.54129 0.20218
#
# Static dielectric constant tensor:
#      x y z
#    x 3.877270 0.000000 0.000000 
#    y 0.000000 4.095950 0.000000 
#    z 0.000000 0.000000 3.694230 
# 
# 
# High freq. dielectric constant tensor:
#      x y z
#    x 1.814010 0.000000 0.000000 
#    y 0.000000 1.838040 0.000000 
#    z 0.000000 0.000000 1.791620 
# 
# From -- ./inp_files/39161.got.cif
#   From: 2010.06.25/outbox.cif.g09.slc.cpg/sg52_20_cif.got.tgz:39161.got - 2010.06.26 19:32:48.
