data_PCOD8215101
_publ_section_title
;
Structure prediction by ZEFSAII (Michael W. Deem and Ramdas Pophale) SiO2 
 PCOD8215101
Probable space group: P N N A
;
_chemical_formula_sum "Si O2"
_cell_formula_units_Z 44
_cell_length_a 10.281774
_cell_length_b 14.935365
_cell_length_c 15.951850
_cell_angle_alpha 90.000000
_cell_angle_beta 90.000000
_cell_angle_gamma 90.000000
_cell_volume 2449.598748
_symmetry_space_group_name_H-M "P N N A"
_symmetry_group_IT_number 52
_symmetry_cell_setting 'orthorhombic'
loop_
_space_group_symop_operation_xyz
x,y,z
1/2-x,-y,z
x,1/2-y,1/2-z
1/2-x,1/2+y,1/2-z
-x,-y,-z
1/2+x,y,-z
-x,1/2+y,1/2+z
1/2+x,1/2-y,1/2+z
loop_
_atom_site_type_symbol
_atom_site_label
_atom_site_fract_x
_atom_site_fract_y
_atom_site_fract_z
Si Si1 0.910143 0.605041 0.530207
Si Si2 0.750000 0.000000 0.262333
Si Si3 0.475503 0.529488 0.635573
Si Si4 0.544509 0.770277 0.838360
Si Si5 0.755483 0.695783 0.170011
Si Si6 0.662491 0.779587 0.003218
O O1 0.890900 0.541439 0.449309
O O2 0.795838 0.676010 0.527790
O O3 0.912291 0.544694 0.615182
O O4 0.051551 0.650631 0.526802
O O5 0.880551 0.004376 0.207906
O O6 0.750783 0.910880 0.318506
O O7 0.543034 0.622438 0.658260
O O8 0.615472 0.750000 0.750000
O O9 0.401268 0.729813 0.839631
O O10 0.617950 0.727070 0.918509
O O11 0.694138 0.750000 0.250000
O O12 0.680321 0.715754 0.083432
#
# Coordination Sequence:
#
# PCOD8215101 Si02
#       6
#     8   4   8   8   8   8
#     4  10  20  31  58  89 122 149 188 255 324 356
#     4  12  20  34  64  86 120 158 222 254 288 366
#     4  10  18  31  55  89 116 147 197 252 307 359
#     4  10  20  38  58  78 124 163 197 244 319 359
#     4  11  20  38  60  90 119 163 208 248 304 367
#     4  11  20  38  58  88 123 157 196 249 305 373
#
# _framework density 17.962126000000001
#
# number of rings (size 3 to 8) (size 9 to 14) (size 15 to 20)
#    0.000    1.455    7.273    2.182    0.000    5.818 
#    0.000    3.636    0.000    0.000    0.000    0.000 
#    0.000    0.000    0.000    0.000    0.000    0.000 
#
# Total GULP energy -545133.575361 kJ/mol
# GULP energy per Si atom -12389.399440 kJ/mol
# Density = 1.792124 g / cm^3
# Si number density = 17.962126 Si / 1000 Ang^3
#
#
#
# Elastic Constant Matrix: (Units=GPa)
#
#
# Indices 1 2 3 4 5 6 
#
# 1 48.4452 22.0130 39.1239 0.0000 0.0000 0.0000
# 2 22.0130 99.5224 56.7266 0.0000 0.0000 0.0000
# 3 39.1239 56.7266 164.3669 0.0000 0.0000 0.0000
# 4 0.0000 0.0000 0.0000 40.8574 0.0000 0.0000
# 5 0.0000 0.0000 0.0000 0.0000 26.0684 0.0000
# 6 0.0000 0.0000 0.0000 0.0000 0.0000 13.8096
#
#
#
# Elastic Compliance Matrix: (Units=1/GPa)
#
#
# Indices 1 2 3 4 5 6 
#
# 1 0.026160 -0.002785 -0.005266 0.000000 0.000000 0.000000
# 2 -0.002785 0.012805 -0.003756 0.000000 0.000000 0.000000
# 3 -0.005266 -0.003756 0.008634 0.000000 0.000000 0.000000
# 4 0.000000 0.000000 0.000000 0.024475 0.000000 0.000000
# 5 0.000000 0.000000 0.000000 0.000000 0.038361 0.000000
# 6 0.000000 0.000000 0.000000 0.000000 0.000000 0.072413
#
#
# Mechanical properties :
#
#
# Convention : Reuss Voigt Hill
#
# Bulk Modulus (GPa) = 41.69312 60.89571 51.29441
# Shear Modulus (GPa) = 23.31473 29.11182 26.21327
#
# Velocity S-wave (km/s) = 3.60668 4.03020 3.82431
# Velocity P-wave (km/s) = 6.37230 7.45872 6.93682
#
# Compressibility (1/GPa) = 0.02398477
#
# Stress axis : x y z
#
# Youngs Moduli (GPa) = 38.22664 78.09402 115.82449
#
# Poissons Ratio (x) = 0.21748 0.60989
# Poissons Ratio (y) = 0.10645 0.43509
# Poissons Ratio (z) = 0.20129 0.29336
#
# Static dielectric constant tensor:
#      x y z
#    x 3.243540 0.000000 0.000000 
#    y 0.000000 3.299340 0.000000 
#    z 0.000000 0.000000 3.918390 
# 
# 
# High freq. dielectric constant tensor:
#      x y z
#    x 1.678450 0.000000 0.000000 
#    y 0.000000 1.678800 0.000000 
#    z 0.000000 0.000000 1.698700 
# 
# From -- ./inp_files/31177.got.cif
#   From: 2010.06.25/outbox.cif.g09.slc.cpg/sg52_16_cif.got.tgz:31177.got - 2010.06.26 19:32:48.
