data_PCOD8215909
_publ_section_title
;
Structure prediction by ZEFSAII (Michael W. Deem and Ramdas Pophale) SiO2 
 PCOD8215909
Probable space group: P N N A
;
_chemical_formula_sum "Si O2"
_cell_formula_units_Z 44
_cell_length_a 8.604646
_cell_length_b 26.116268
_cell_length_c 9.212352
_cell_angle_alpha 90.000000
_cell_angle_beta 90.000000
_cell_angle_gamma 90.000000
_cell_volume 2070.211174
_symmetry_space_group_name_H-M "P N N A"
_symmetry_group_IT_number 52
_symmetry_cell_setting 'orthorhombic'
loop_
_space_group_symop_operation_xyz
x,y,z
1/2-x,-y,z
x,1/2-y,1/2-z
1/2-x,1/2+y,1/2-z
-x,-y,-z
1/2+x,y,-z
-x,1/2+y,1/2+z
1/2+x,1/2-y,1/2+z
loop_
_atom_site_type_symbol
_atom_site_label
_atom_site_fract_x
_atom_site_fract_y
_atom_site_fract_z
Si Si1 0.750000 0.000000 0.517808
Si Si2 0.247085 0.288314 0.933040
Si Si3 0.997961 0.427436 0.925411
Si Si4 0.434591 0.657761 0.697678
Si Si5 0.730751 0.177634 0.930326
Si Si6 0.947056 0.657260 0.856090
O O1 0.831284 0.045965 0.608895
O O2 0.620495 0.026465 0.418815
O O3 0.424495 0.298108 0.884186
O O4 0.133504 0.295557 0.794297
O O5 0.210080 0.235424 0.012800
O O6 0.208910 0.331520 0.052500
O O7 0.039658 0.391495 0.793492
O O8 0.991945 0.397724 0.082858
O O9 0.595325 0.673657 0.624450
O O10 0.308984 0.643455 0.572287
O O11 0.602443 0.160097 0.811686
#
# Coordination Sequence:
#
# PCOD8215909 Si02
#       6
#     4   8   8   8   8   8
#     4  10  20  38  70  92 114 144 202 250 310 378
#     4  11  23  39  57  87 124 168 210 243 280 345
#     4  10  21  40  65  94 115 152 195 255 308 364
#     4  11  24  41  61  88 127 160 208 251 299 356
#     4  12  24  39  61  88 124 170 203 245 294 350
#     4  11  22  39  63  88 125 159 205 250 296 351
#
# _framework density 21.253871
#
# number of rings (size 3 to 8) (size 9 to 14) (size 15 to 20)
#    0.000    1.091    0.000    8.727    0.000    4.364 
#    0.000    1.818    0.000   18.545    0.000    0.000 
#    0.000    0.000    0.000    0.000    0.000    0.000 
#
# Total GULP energy -545237.354138 kJ/mol
# GULP energy per Si atom -12391.758049 kJ/mol
# Density = 2.120550 g / cm^3
# Si number density = 21.253871 Si / 1000 Ang^3
#
#
#
# Elastic Constant Matrix: (Units=GPa)
#
#
# Indices 1 2 3 4 5 6 
#
# 1 100.8260 30.0899 36.1208 0.0000 0.0000 0.0000
# 2 30.0899 81.5976 47.6274 0.0000 0.0000 0.0000
# 3 36.1208 47.6274 135.1188 0.0000 0.0000 0.0000
# 4 0.0000 0.0000 0.0000 12.5162 0.0000 0.0000
# 5 0.0000 0.0000 0.0000 0.0000 32.2785 0.0000
# 6 0.0000 0.0000 0.0000 0.0000 0.0000 32.4481
#
#
#
# Elastic Compliance Matrix: (Units=1/GPa)
#
#
# Indices 1 2 3 4 5 6 
#
# 1 0.011558 -0.003096 -0.001999 0.000000 0.000000 0.000000
# 2 -0.003096 0.016259 -0.004903 0.000000 0.000000 0.000000
# 3 -0.001999 -0.004903 0.009664 0.000000 0.000000 0.000000
# 4 0.000000 0.000000 0.000000 0.079896 0.000000 0.000000
# 5 0.000000 0.000000 0.000000 0.000000 0.030980 0.000000
# 6 0.000000 0.000000 0.000000 0.000000 0.000000 0.030818
#
#
# Mechanical properties :
#
#
# Convention : Reuss Voigt Hill
#
# Bulk Modulus (GPa) = 57.19157 60.57984 58.88570
# Shear Modulus (GPa) = 24.39034 29.02884 26.70959
#
# Velocity S-wave (km/s) = 3.39126 3.69970 3.54883
# Velocity P-wave (km/s) = 6.50395 6.84217 6.67520
#
# Compressibility (1/GPa) = 0.01748509
#
# Stress axis : x y z
#
# Youngs Moduli (GPa) = 86.52101 61.50487 103.48127
#
# Poissons Ratio (x) = 0.19039 0.20682
# Poissons Ratio (y) = 0.26783 0.50742
# Poissons Ratio (z) = 0.17292 0.30159
#
# Static dielectric constant tensor:
#      x y z
#    x 4.231520 0.000000 0.000000 
#    y 0.000000 3.822330 0.000000 
#    z 0.000000 0.000000 4.118630 
# 
# 
# High freq. dielectric constant tensor:
#      x y z
#    x 1.858970 0.000000 0.000000 
#    y 0.000000 1.815780 0.000000 
#    z 0.000000 0.000000 1.824910 
# 
# From -- ./inp_files/7647.got.cif
#   From: 2010.06.25/outbox.cif.g09.slc.cpg/sg52_4_cif.got.tgz:7647.got - 2010.06.26 19:32:48.
