data_PCOD8215226
_publ_section_title
;
Structure prediction by ZEFSAII (Michael W. Deem and Ramdas Pophale) SiO2 
 PCOD8215226
Probable space group: P N N A
;
_chemical_formula_sum "Si O2"
_cell_formula_units_Z 56
_cell_length_a 18.961906
_cell_length_b 19.804869
_cell_length_c 7.664383
_cell_angle_alpha 90.000000
_cell_angle_beta 90.000000
_cell_angle_gamma 90.000000
_cell_volume 2878.267556
_symmetry_space_group_name_H-M "P N N A"
_symmetry_group_IT_number 52
_symmetry_cell_setting 'orthorhombic'
loop_
_space_group_symop_operation_xyz
x,y,z
1/2-x,-y,z
x,1/2-y,1/2-z
1/2-x,1/2+y,1/2-z
-x,-y,-z
1/2+x,y,-z
-x,1/2+y,1/2+z
1/2+x,1/2-y,1/2+z
loop_
_atom_site_type_symbol
_atom_site_label
_atom_site_fract_x
_atom_site_fract_y
_atom_site_fract_z
Si Si1 0.238143 0.179380 0.190383
Si Si2 0.595956 0.972672 0.111857
Si Si3 0.532027 0.394708 0.528209
Si Si4 0.815468 0.045801 0.796059
Si Si5 0.116128 0.273126 0.560375
Si Si6 0.584551 0.000212 0.491003
Si Si7 0.389499 0.637513 0.115706
O O1 0.273383 0.250000 0.250000
O O2 0.298816 0.124374 0.164139
O O3 0.192698 0.148513 0.347456
O O4 0.184534 0.192095 0.028557
O O5 0.551417 0.905595 0.057825
O O6 0.614271 0.964429 0.316578
O O7 0.663326 0.980377 0.987770
O O8 0.553273 0.041914 0.090030
O O9 0.551654 0.326326 0.425163
O O10 0.568949 0.390779 0.717027
O O11 0.879378 0.037147 0.657362
O O12 0.750000 0.000000 0.732549
O O13 0.140965 0.250000 0.750000
O O14 0.083218 0.210127 0.452205
O O15 0.500000 0.000000 0.500000
O O16 0.606433 0.078733 0.473404
#
# Coordination Sequence:
#
# PCOD8215226 Si02
#       7
#     8   8   8   8   8   8   8
#     4   9  20  40  62  83 125 170 205 264 325 365
#     4  11  22  36  62  89 124 165 204 257 319 388
#     4  10  18  38  57  90 126 153 198 263 325 366
#     4  12  23  42  62  89 132 168 214 268 324 385
#     4  10  20  35  63  95 119 162 221 265 310 394
#     4  12  22  39  65  98 125 165 217 264 326 382
#     4  10  18  37  64  86 121 165 202 265 317 376
#
# _framework density 19.456147000000001
#
# number of rings (size 3 to 8) (size 9 to 14) (size 15 to 20)
#    0.000    1.429    4.286    3.857    0.000    0.571 
#    5.143    2.143    0.000    0.000    0.000    0.000 
#    0.000    0.000    0.000    0.000    0.000    0.000 
#
# Total GULP energy -693891.117612 kJ/mol
# GULP energy per Si atom -12390.912815 kJ/mol
# Density = 1.941186 g / cm^3
# Si number density = 19.456147 Si / 1000 Ang^3
#
#
#
# Elastic Constant Matrix: (Units=GPa)
#
#
# Indices 1 2 3 4 5 6 
#
# 1 68.7671 37.3454 38.3280 0.0000 0.0000 0.0000
# 2 37.3454 123.8693 37.0644 0.0000 0.0000 0.0000
# 3 38.3280 37.0644 113.9394 0.0000 0.0000 0.0000
# 4 0.0000 0.0000 0.0000 33.9039 0.0000 0.0000
# 5 0.0000 0.0000 0.0000 0.0000 20.3445 0.0000
# 6 0.0000 0.0000 0.0000 0.0000 0.0000 32.7864
#
#
#
# Elastic Compliance Matrix: (Units=1/GPa)
#
#
# Indices 1 2 3 4 5 6 
#
# 1 0.019865 -0.004420 -0.005245 0.000000 0.000000 0.000000
# 2 -0.004420 0.009927 -0.001742 0.000000 0.000000 0.000000
# 3 -0.005245 -0.001742 0.011108 0.000000 0.000000 0.000000
# 4 0.000000 0.000000 0.000000 0.029495 0.000000 0.000000
# 5 0.000000 0.000000 0.000000 0.000000 0.049153 0.000000
# 6 0.000000 0.000000 0.000000 0.000000 0.000000 0.030500
#
#
# Mechanical properties :
#
#
# Convention : Reuss Voigt Hill
#
# Bulk Modulus (GPa) = 55.29162 59.11684 57.20423
# Shear Modulus (GPa) = 27.94990 30.32949 29.13970
#
# Velocity S-wave (km/s) = 3.79431 3.95253 3.87423
# Velocity P-wave (km/s) = 6.90478 7.16105 7.03408
#
# Compressibility (1/GPa) = 0.01808592
#
# Stress axis : x y z
#
# Youngs Moduli (GPa) = 50.33896 100.73582 90.02784
#
# Poissons Ratio (x) = 0.44524 0.47217
# Poissons Ratio (y) = 0.22249 0.15687
# Poissons Ratio (z) = 0.26401 0.17553
#
# Static dielectric constant tensor:
#      x y z
#    x 3.306360 0.000000 0.000000 
#    y 0.000000 3.970940 0.000000 
#    z 0.000000 0.000000 3.579210 
# 
# 
# High freq. dielectric constant tensor:
#      x y z
#    x 1.724580 0.000000 0.000000 
#    y 0.000000 1.766370 0.000000 
#    z 0.000000 0.000000 1.758260 
# 
# From -- ./inp_files/12540.got.cif
#   From: 2010.06.25/outbox.cif.g09.slc.cpg/sg52_7_cif.got.tgz:12540.got - 2010.06.26 19:32:48.
