data_PCOD8215599
_publ_section_title
;
Structure prediction by ZEFSAII (Michael W. Deem and Ramdas Pophale) SiO2 
 PCOD8215599
Probable space group: P N N A
;
_chemical_formula_sum "Si O2"
_cell_formula_units_Z 56
_cell_length_a 21.567112
_cell_length_b 8.503372
_cell_length_c 16.019165
_cell_angle_alpha 90.000000
_cell_angle_beta 90.000000
_cell_angle_gamma 90.000000
_cell_volume 2937.805551
_symmetry_space_group_name_H-M "P N N A"
_symmetry_group_IT_number 52
_symmetry_cell_setting 'orthorhombic'
loop_
_space_group_symop_operation_xyz
x,y,z
1/2-x,-y,z
x,1/2-y,1/2-z
1/2-x,1/2+y,1/2-z
-x,-y,-z
1/2+x,y,-z
-x,1/2+y,1/2+z
1/2+x,1/2-y,1/2+z
loop_
_atom_site_type_symbol
_atom_site_label
_atom_site_fract_x
_atom_site_fract_y
_atom_site_fract_z
Si Si1 0.057530 0.009927 0.630732
Si Si2 0.750000 0.000000 0.443307
Si Si3 0.604238 0.500499 0.453862
Si Si4 0.493968 0.750000 0.750000
Si Si5 0.945208 0.788763 0.653782
Si Si6 0.336002 0.227493 0.655738
Si Si7 0.972655 0.447013 0.605445
Si Si8 0.135257 0.327579 0.007900
O O1 0.103852 0.879060 0.663340
O O2 0.989641 0.932964 0.630089
O O3 0.054262 0.143226 0.700270
O O4 0.080243 0.083751 0.543404
O O5 0.779397 0.139372 0.388641
O O6 0.698528 0.077079 0.501557
O O7 0.643815 0.612354 0.392528
O O8 0.578380 0.599591 0.534741
O O9 0.544088 0.411414 0.416368
O O10 0.647447 0.352597 0.478597
O O11 0.540709 0.651448 0.689634
O O12 0.932233 0.750000 0.750000
O O13 0.974053 0.633563 0.614457
O O14 0.881398 0.827906 0.606117
O O15 0.312458 0.250000 0.750000
#
# Coordination Sequence:
#
# PCOD8215599 Si02
#       8
#     8   4   8   4   8   8   8   8
#     4  11  21  33  56  91 127 155 186 237 301 360
#     4  10  26  44  54  84 110 156 210 246 280 344
#     4  10  20  37  59  82 118 157 185 234 294 354
#     4  12  20  30  50  88 126 156 186 230 272 358
#     4  11  20  36  60  90 122 153 192 240 302 362
#     4  11  23  40  61  84 116 157 198 244 290 344
#     4  10  20  33  53  91 124 149 185 224 295 364
#     4  10  23  39  60  83 119 159 199 243 296 345
#
# _framework density 19.061845999999999
#
# number of rings (size 3 to 8) (size 9 to 14) (size 15 to 20)
#    0.000    1.429    4.286    1.714    0.000    4.000 
#    2.571    0.000    0.000    3.429    0.000    0.000 
#    0.000    0.000    0.000    0.000    0.000    0.000 
#
# Total GULP energy -693982.661137 kJ/mol
# GULP energy per Si atom -12392.547520 kJ/mol
# Density = 1.901846 g / cm^3
# Si number density = 19.061846 Si / 1000 Ang^3
#
#
#
# Elastic Constant Matrix: (Units=GPa)
#
#
# Indices 1 2 3 4 5 6 
#
# 1 85.9283 48.9721 57.3328 0.0000 0.0000 0.0000
# 2 48.9721 96.0425 41.9658 0.0000 0.0000 0.0000
# 3 57.3328 41.9658 122.5415 0.0000 0.0000 0.0000
# 4 0.0000 0.0000 0.0000 35.5350 0.0000 0.0000
# 5 0.0000 0.0000 0.0000 0.0000 12.4546 0.0000
# 6 0.0000 0.0000 0.0000 0.0000 0.0000 18.2690
#
#
#
# Elastic Compliance Matrix: (Units=1/GPa)
#
#
# Indices 1 2 3 4 5 6 
#
# 1 0.020591 -0.007397 -0.007101 0.000000 0.000000 0.000000
# 2 -0.007397 0.014901 -0.001643 0.000000 0.000000 0.000000
# 3 -0.007101 -0.001643 0.012045 0.000000 0.000000 0.000000
# 4 0.000000 0.000000 0.000000 0.028141 0.000000 0.000000
# 5 0.000000 0.000000 0.000000 0.000000 0.080291 0.000000
# 6 0.000000 0.000000 0.000000 0.000000 0.000000 0.054738
#
#
# Mechanical properties :
#
#
# Convention : Reuss Voigt Hill
#
# Bulk Modulus (GPa) = 65.54081 66.78375 66.16228
# Shear Modulus (GPa) = 20.15538 23.66783 21.91160
#
# Velocity S-wave (km/s) = 3.25525 3.52750 3.39411
# Velocity P-wave (km/s) = 6.97042 7.19044 7.08128
#
# Compressibility (1/GPa) = 0.01525767
#
# Stress axis : x y z
#
# Youngs Moduli (GPa) = 48.56553 67.10829 83.02115
#
# Poissons Ratio (x) = 0.49637 0.58950
# Poissons Ratio (y) = 0.35922 0.13636
# Poissons Ratio (z) = 0.34485 0.11023
#
# Static dielectric constant tensor:
#      x y z
#    x 3.126480 0.000000 0.000000 
#    y 0.000000 3.695490 0.000000 
#    z 0.000000 0.000000 3.711670 
# 
# 
# High freq. dielectric constant tensor:
#      x y z
#    x 1.697910 0.000000 0.000000 
#    y 0.000000 1.761460 0.000000 
#    z 0.000000 0.000000 1.744520 
# 
# From -- ./inp_files/28831.got.cif
#   From: 2010.06.25/outbox.cif.g09.slc.cpg/sg52_15_cif.got.tgz:28831.got - 2010.06.26 19:32:48.
