data_PCOD8215843
_publ_section_title
;
Structure prediction by ZEFSAII (Michael W. Deem and Ramdas Pophale) SiO2 
 PCOD8215843
Probable space group: P N N A
;
_chemical_formula_sum "Si O2"
_cell_formula_units_Z 60
_cell_length_a 18.113524
_cell_length_b 25.813024
_cell_length_c 6.130491
_cell_angle_alpha 90.000000
_cell_angle_beta 90.000000
_cell_angle_gamma 90.000000
_cell_volume 2866.401981
_symmetry_space_group_name_H-M "P N N A"
_symmetry_group_IT_number 52
_symmetry_cell_setting 'orthorhombic'
loop_
_space_group_symop_operation_xyz
x,y,z
1/2-x,-y,z
x,1/2-y,1/2-z
1/2-x,1/2+y,1/2-z
-x,-y,-z
1/2+x,y,-z
-x,1/2+y,1/2+z
1/2+x,1/2-y,1/2+z
loop_
_atom_site_type_symbol
_atom_site_label
_atom_site_fract_x
_atom_site_fract_y
_atom_site_fract_z
Si Si1 0.367267 0.598914 0.330516
Si Si2 0.452443 0.051363 0.478550
Si Si3 0.116179 0.893895 0.883194
Si Si4 0.988766 0.868535 0.160350
Si Si5 0.195085 0.250000 0.250000
Si Si6 0.258382 0.835292 0.928566
Si Si7 0.375131 0.670559 0.947777
Si Si8 0.834261 0.484884 0.679950
O O1 0.430536 0.626389 0.467022
O O2 0.287994 0.617205 0.423996
O O3 0.378246 0.537975 0.363181
O O4 0.372570 0.615368 0.075934
O O5 0.439185 0.087580 0.690814
O O6 0.502012 0.079731 0.299920
O O7 0.500000 0.000000 0.500000
O O8 0.369049 0.040251 0.396745
O O9 0.180316 0.852988 0.823897
O O10 0.068666 0.858897 0.053809
O O11 0.152831 0.946153 0.979073
O O12 0.954476 0.824636 0.322724
O O13 0.246029 0.284324 0.413585
O O14 0.135913 0.215740 0.379974
O O15 0.309340 0.824329 0.723442
O O16 0.750000 0.500000 0.723809
#
# Coordination Sequence:
#
# PCOD8215843 Si02
#       8
#     8   8   8   8   4   8   8   8
#     4  10  20  38  59  87 124 158 208 257 301 362
#     4  11  23  37  56  87 128 177 214 251 302 365
#     4  11  23  38  59  89 133 169 211 259 309 369
#     4  10  21  38  60  86 121 165 202 251 306 369
#     4  10  22  42  68  92 118 146 204 268 322 392
#     4  10  22  39  63  91 119 159 202 263 323 377
#     4  10  21  38  68  93 115 155 205 256 318 376
#     4  11  22  35  55  89 125 169 213 252 294 358
#
# _framework density 20.932164
#
# number of rings (size 3 to 8) (size 9 to 14) (size 15 to 20)
#    0.000    1.600    1.333    3.600    1.867    4.800 
#    0.000    0.000   11.733    0.000    0.000    0.000 
#    0.000    0.000    0.000    0.000    0.000    0.000 
#
# Total GULP energy -743345.583286 kJ/mol
# GULP energy per Si atom -12389.093055 kJ/mol
# Density = 2.088452 g / cm^3
# Si number density = 20.932164 Si / 1000 Ang^3
#
#
#
# Elastic Constant Matrix: (Units=GPa)
#
#
# Indices 1 2 3 4 5 6 
#
# 1 95.6201 24.8987 38.5576 0.0000 0.0000 0.0000
# 2 24.8987 76.4471 29.0830 0.0000 0.0000 0.0000
# 3 38.5576 29.0830 103.5273 0.0000 0.0000 0.0000
# 4 0.0000 0.0000 0.0000 33.3570 0.0000 0.0000
# 5 0.0000 0.0000 0.0000 0.0000 25.2705 0.0000
# 6 0.0000 0.0000 0.0000 0.0000 0.0000 19.8426
#
#
#
# Elastic Compliance Matrix: (Units=1/GPa)
#
#
# Indices 1 2 3 4 5 6 
#
# 1 0.012761 -0.002629 -0.004014 0.000000 0.000000 0.000000
# 2 -0.002629 0.015188 -0.003287 0.000000 0.000000 0.000000
# 3 -0.004014 -0.003287 0.012078 0.000000 0.000000 0.000000
# 4 0.000000 0.000000 0.000000 0.029979 0.000000 0.000000
# 5 0.000000 0.000000 0.000000 0.000000 0.039572 0.000000
# 6 0.000000 0.000000 0.000000 0.000000 0.000000 0.050397
#
#
# Mechanical properties :
#
#
# Convention : Reuss Voigt Hill
#
# Bulk Modulus (GPa) = 49.58972 51.18588 50.38780
# Shear Modulus (GPa) = 26.80137 27.89771 27.34954
#
# Velocity S-wave (km/s) = 3.58214 3.65467 3.61859
# Velocity P-wave (km/s) = 6.39148 6.50501 6.44850
#
# Compressibility (1/GPa) = 0.02016547
#
# Stress axis : x y z
#
# Youngs Moduli (GPa) = 78.36155 65.84189 82.79633
#
# Poissons Ratio (x) = 0.17311 0.33236
# Poissons Ratio (y) = 0.20603 0.27218
# Poissons Ratio (z) = 0.31456 0.21645
#
# Static dielectric constant tensor:
#      x y z
#    x 3.804550 0.000000 0.000000 
#    y 0.000000 3.735110 0.000000 
#    z 0.000000 0.000000 4.011370 
# 
# 
# High freq. dielectric constant tensor:
#      x y z
#    x 1.817870 0.000000 0.000000 
#    y 0.000000 1.799310 0.000000 
#    z 0.000000 0.000000 1.829930 
# 
# From -- ./inp_files/3596.got.cif
#   From: 2010.06.25/outbox.cif.g09.slc.cpg/sg52_2_cif.got.tgz:3596.got - 2010.06.26 19:32:48.
