data_PCOD8215512
_publ_section_title
;
Structure prediction by ZEFSAII (Michael W. Deem and Ramdas Pophale) SiO2 
 PCOD8215512
Probable space group: P N N A
;
_chemical_formula_sum "Si O2"
_cell_formula_units_Z 48
_cell_length_a 17.365329
_cell_length_b 12.168556
_cell_length_c 11.546511
_cell_angle_alpha 90.000000
_cell_angle_beta 90.000000
_cell_angle_gamma 90.000000
_cell_volume 2439.904536
_symmetry_space_group_name_H-M "P N N A"
_symmetry_group_IT_number 52
_symmetry_cell_setting 'orthorhombic'
loop_
_space_group_symop_operation_xyz
x,y,z
1/2-x,-y,z
x,1/2-y,1/2-z
1/2-x,1/2+y,1/2-z
-x,-y,-z
1/2+x,y,-z
-x,1/2+y,1/2+z
1/2+x,1/2-y,1/2+z
loop_
_atom_site_type_symbol
_atom_site_label
_atom_site_fract_x
_atom_site_fract_y
_atom_site_fract_z
Si Si1 0.902692 0.380010 0.266232
Si Si2 0.427707 0.889291 0.149689
Si Si3 0.833373 0.049447 0.005227
Si Si4 0.364983 0.668011 0.114833
Si Si5 0.691672 0.769359 0.619098
Si Si6 0.337531 0.471917 0.965233
O O1 0.891269 0.250000 0.250000
O O2 0.843791 0.433932 0.357596
O O3 0.886785 0.435634 0.143794
O O4 0.986439 0.416103 0.310166
O O5 0.428582 0.763886 0.100648
O O6 0.371366 0.893559 0.261294
O O7 0.399010 0.972638 0.051256
O O8 0.750000 0.000000 0.978792
O O9 0.842864 0.169554 0.952650
O O10 0.283334 0.728473 0.107751
O O11 0.377790 0.581901 0.012445
O O12 0.664227 0.750000 0.750000
O O13 0.658184 0.882231 0.567600
O O14 0.250000 0.500000 0.929852
#
# Coordination Sequence:
#
# PCOD8215512 Si02
#       6
#     8   8   8   8   8   8
#     4  12  24  43  60  88 128 175 203 248 317 392
#     4  11  22  41  63  92 124 162 204 255 323 370
#     4  12  23  39  65  92 123 161 213 266 309 368
#     4  10  19  38  63  89 125 160 202 259 314 359
#     4  11  19  35  63  96 122 153 214 266 310 354
#     4  10  23  40  63  95 123 165 215 258 309 376
#
# _framework density 19.672901
#
# number of rings (size 3 to 8) (size 9 to 14) (size 15 to 20)
#    0.000    1.000    6.667    2.000    0.000    2.000 
#    0.000    0.833    0.000    0.000    0.000    0.000 
#    0.000    0.000    0.000    0.000    0.000    0.000 
#
# Total GULP energy -595252.278888 kJ/mol
# GULP energy per Si atom -12401.089144 kJ/mol
# Density = 1.962812 g / cm^3
# Si number density = 19.672901 Si / 1000 Ang^3
#
#
#
# Elastic Constant Matrix: (Units=GPa)
#
#
# Indices 1 2 3 4 5 6 
#
# 1 69.4412 42.2746 40.5954 0.0000 0.0000 0.0000
# 2 42.2746 100.5351 57.8142 0.0000 0.0000 0.0000
# 3 40.5954 57.8142 127.8607 0.0000 0.0000 0.0000
# 4 0.0000 0.0000 0.0000 40.5079 0.0000 0.0000
# 5 0.0000 0.0000 0.0000 0.0000 22.7723 0.0000
# 6 0.0000 0.0000 0.0000 0.0000 0.0000 20.1962
#
#
#
# Elastic Compliance Matrix: (Units=1/GPa)
#
#
# Indices 1 2 3 4 5 6 
#
# 1 0.020466 -0.006580 -0.003523 0.000000 0.000000 0.000000
# 2 -0.006580 0.015558 -0.004945 0.000000 0.000000 0.000000
# 3 -0.003523 -0.004945 0.011176 0.000000 0.000000 0.000000
# 4 0.000000 0.000000 0.000000 0.024687 0.000000 0.000000
# 5 0.000000 0.000000 0.000000 0.000000 0.043913 0.000000
# 6 0.000000 0.000000 0.000000 0.000000 0.000000 0.049514
#
#
# Mechanical properties :
#
#
# Convention : Reuss Voigt Hill
#
# Bulk Modulus (GPa) = 58.46993 64.35617 61.41305
# Shear Modulus (GPa) = 24.86203 27.17214 26.01708
#
# Velocity S-wave (km/s) = 3.55881 3.72048 3.64054
# Velocity P-wave (km/s) = 6.83172 7.15822 6.99687
#
# Compressibility (1/GPa) = 0.01710281
#
# Stress axis : x y z
#
# Youngs Moduli (GPa) = 48.86196 64.27706 89.48078
#
# Poissons Ratio (x) = 0.42295 0.31520
# Poissons Ratio (y) = 0.32152 0.44252
# Poissons Ratio (z) = 0.17212 0.31788
#
# Static dielectric constant tensor:
#      x y z
#    x 3.370320 0.000000 0.000000 
#    y 0.000000 3.722200 0.000000 
#    z 0.000000 0.000000 3.628660 
# 
# 
# High freq. dielectric constant tensor:
#      x y z
#    x 1.750860 0.000000 0.000000 
#    y 0.000000 1.777270 0.000000 
#    z 0.000000 0.000000 1.767800 
# 
# From -- ./inp_files/20616.got.cif
#   From: 2010.06.25/outbox.cif.g09.slc.cpg/sg52_11_cif.got.tgz:20616.got - 2010.06.26 19:32:48.
