data_PCOD8215131
_publ_section_title
;
Structure prediction by ZEFSAII (Michael W. Deem and Ramdas Pophale) SiO2 
 PCOD8215131
Probable space group: P N N A
;
_chemical_formula_sum "Si O2"
_cell_formula_units_Z 40
_cell_length_a 8.650688
_cell_length_b 11.291827
_cell_length_c 20.068149
_cell_angle_alpha 90.000000
_cell_angle_beta 90.000000
_cell_angle_gamma 90.000000
_cell_volume 1960.298382
_symmetry_space_group_name_H-M "P N N A"
_symmetry_group_IT_number 52
_symmetry_cell_setting 'orthorhombic'
loop_
_space_group_symop_operation_xyz
x,y,z
1/2-x,-y,z
x,1/2-y,1/2-z
1/2-x,1/2+y,1/2-z
-x,-y,-z
1/2+x,y,-z
-x,1/2+y,1/2+z
1/2+x,1/2-y,1/2+z
loop_
_atom_site_type_symbol
_atom_site_label
_atom_site_fract_x
_atom_site_fract_y
_atom_site_fract_z
Si Si1 0.465961 0.699016 0.887187
Si Si2 0.293911 0.634885 0.142928
Si Si3 0.501529 0.750000 0.250000
Si Si4 0.038017 0.794109 0.537343
Si Si5 0.206178 0.635871 0.640240
Si Si6 0.250000 0.500000 0.924466
O O1 0.631800 0.703680 0.852205
O O2 0.366289 0.795949 0.848795
O O3 0.376373 0.571889 0.880254
O O4 0.484549 0.739373 0.963906
O O5 0.250000 0.500000 0.139998
O O6 0.396945 0.662779 0.206778
O O7 0.383728 0.670179 0.076264
O O8 0.602210 0.661745 0.295244
O O9 0.120588 0.683272 0.573552
O O10 0.155650 0.905599 0.531315
O O11 0.250000 0.500000 0.632235
#
# Coordination Sequence:
#
# PCOD8215131 Si02
#       6
#     8   8   4   8   8   4
#     4  11  22  35  64  97 126 160 200 249 327 375
#     4  11  22  38  62  92 125 157 200 263 314 366
#     4  10  26  44  58  86 118 162 228 256 302 362
#     4  10  21  37  61 100 129 158 200 251 319 384
#     4  10  24  45  63  82 124 171 212 260 301 370
#     4  10  18  32  58  92 136 162 182 248 308 382
#
# _framework density 20.405055000000001
#
# number of rings (size 3 to 8) (size 9 to 14) (size 15 to 20)
#    0.000    1.600    2.000    3.000    2.800    4.800 
#    3.600    3.000    0.000    0.000    0.000    0.000 
#    0.000    0.000    0.000    0.000    0.000    0.000 
#
# Total GULP energy -495968.300220 kJ/mol
# GULP energy per Si atom -12399.207505 kJ/mol
# Density = 2.035861 g / cm^3
# Si number density = 20.405055 Si / 1000 Ang^3
#
#
#
# Elastic Constant Matrix: (Units=GPa)
#
#
# Indices 1 2 3 4 5 6 
#
# 1 165.9103 58.4578 50.7452 0.0000 0.0000 0.0000
# 2 58.4578 131.6493 35.7109 0.0000 0.0000 0.0000
# 3 50.7452 35.7109 77.1521 0.0000 0.0000 0.0000
# 4 0.0000 0.0000 0.0000 -237.9744 0.0000 0.0000
# 5 0.0000 0.0000 0.0000 0.0000 32.6887 0.0000
# 6 0.0000 0.0000 0.0000 0.0000 0.0000 29.8936
#
#
#
# Elastic Compliance Matrix: (Units=1/GPa)
#
#
# Indices 1 2 3 4 5 6 
#
# 1 0.008203 -0.002492 -0.004242 0.000000 0.000000 0.000000
# 2 -0.002492 0.009443 -0.002732 0.000000 0.000000 0.000000
# 3 -0.004242 -0.002732 0.017016 0.000000 0.000000 0.000000
# 4 0.000000 0.000000 0.000000 -0.004202 0.000000 0.000000
# 5 0.000000 0.000000 0.000000 0.000000 0.030592 0.000000
# 6 0.000000 0.000000 0.000000 0.000000 0.000000 0.033452
#
#
# Mechanical properties :
#
#
# Convention : Reuss Voigt Hill
#
# Bulk Modulus (GPa) = 63.56970 73.83772 68.70371
# Shear Modulus (GPa) = 42.13058 -19.75856 11.18601
#
# Velocity S-wave (km/s) = 4.54884 -3.11515 2.34390
# Velocity P-wave (km/s) = 7.66882 4.82966 6.40845
#
# Compressibility (1/GPa) = 0.01573076
#
# Stress axis : x y z
#
# Youngs Moduli (GPa) = 121.91100 105.89309 58.76815
#
# Poissons Ratio (x) = 0.26386 0.24928
# Poissons Ratio (y) = 0.30377 0.16056
# Poissons Ratio (z) = 0.51713 0.28932
#
# Static dielectric constant tensor:
#      x y z
#    x 5.527240 0.000000 0.000000 
#    y 0.000000 3.569850 0.000000 
#    z 0.000000 0.000000 3.553190 
# 
# 
# High freq. dielectric constant tensor:
#      x y z
#    x 1.832100 0.000000 0.000000 
#    y 0.000000 1.776600 0.000000 
#    z 0.000000 0.000000 1.780570 
# 
# From -- ./inp_files/35809.got.cif
#   From: 2010.06.25/outbox.cif.g09.slc.cpg/sg52_18_cif.got.tgz:35809.got - 2010.06.26 19:32:48.
