data_PCOD8215845
_publ_section_title
;
Structure prediction by ZEFSAII (Michael W. Deem and Ramdas Pophale) SiO2 
 PCOD8215845
Probable space group: P N N A
;
_chemical_formula_sum "Si O2"
_cell_formula_units_Z 64
_cell_length_a 14.755929
_cell_length_b 23.109046
_cell_length_c 9.629777
_cell_angle_alpha 90.000000
_cell_angle_beta 90.000000
_cell_angle_gamma 90.000000
_cell_volume 3283.710065
_symmetry_space_group_name_H-M "P N N A"
_symmetry_group_IT_number 52
_symmetry_cell_setting 'orthorhombic'
loop_
_space_group_symop_operation_xyz
x,y,z
1/2-x,-y,z
x,1/2-y,1/2-z
1/2-x,1/2+y,1/2-z
-x,-y,-z
1/2+x,y,-z
-x,1/2+y,1/2+z
1/2+x,1/2-y,1/2+z
loop_
_atom_site_type_symbol
_atom_site_label
_atom_site_fract_x
_atom_site_fract_y
_atom_site_fract_z
Si Si1 0.420864 0.583863 0.229036
Si Si2 0.509476 0.128706 0.008399
Si Si3 0.224927 0.611332 0.255779
Si Si4 0.132554 0.712574 0.112257
Si Si5 0.030972 0.365747 0.940293
Si Si6 0.952804 0.453916 0.734415
Si Si7 0.690494 0.677390 0.476540
Si Si8 0.646044 0.183687 0.215218
O O1 0.437297 0.620219 0.367133
O O2 0.313758 0.577295 0.208383
O O3 0.468858 0.521829 0.244243
O O4 0.457226 0.620478 0.100889
O O5 0.410266 0.151556 0.966294
O O6 0.503521 0.068721 0.095666
O O7 0.564748 0.173920 0.103673
O O8 0.195447 0.656718 0.136950
O O9 0.152533 0.561101 0.282504
O O10 0.242049 0.648215 0.394818
O O11 0.117038 0.750000 0.250000
O O12 0.034152 0.690069 0.066056
O O13 0.180131 0.753078 0.996783
O O14 0.124191 0.351349 0.857226
O O15 0.988909 0.422611 0.871283
O O16 0.754713 0.664696 0.343520
O O17 0.649161 0.250000 0.250000
#
# Coordination Sequence:
#
# PCOD8215845 Si02
#       8
#     8   8   8   8   8   8   8   8
#     4  12  21  36  60  92 117 147 200 252 285 339
#     4  10  22  40  62  89 115 152 206 247 288 351
#     4   9  19  36  60  87 112 148 199 243 283 351
#     4   9  18  38  59  81 116 161 194 235 293 356
#     4  10  22  37  59  86 123 153 193 236 302 357
#     4   9  20  40  63  81 115 163 191 235 303 354
#     4  10  20  38  60  84 117 153 197 243 291 346
#     4  11  22  39  61  83 118 164 193 235 303 362
#
# _framework density 19.490148000000001
#
# number of rings (size 3 to 8) (size 9 to 14) (size 15 to 20)
#    0.000    2.000    1.250    4.500    1.750    1.000 
#    2.250    1.875    0.000    0.000    0.000    0.000 
#    0.000    0.000    0.000    0.000    0.000    0.000 
#
# Total GULP energy -793395.900260 kJ/mol
# GULP energy per Si atom -12396.810942 kJ/mol
# Density = 1.944579 g / cm^3
# Si number density = 19.490148 Si / 1000 Ang^3
#
#
#
# Elastic Constant Matrix: (Units=GPa)
#
#
# Indices 1 2 3 4 5 6 
#
# 1 79.3404 10.2825 24.2003 0.0000 0.0000 0.0000
# 2 10.2825 67.8208 20.0586 0.0000 0.0000 0.0000
# 3 24.2003 20.0586 92.4378 0.0000 0.0000 0.0000
# 4 0.0000 0.0000 0.0000 21.3814 0.0000 0.0000
# 5 0.0000 0.0000 0.0000 0.0000 18.9631 0.0000
# 6 0.0000 0.0000 0.0000 0.0000 0.0000 19.3480
#
#
#
# Elastic Compliance Matrix: (Units=1/GPa)
#
#
# Indices 1 2 3 4 5 6 
#
# 1 0.013773 -0.001092 -0.003369 0.000000 0.000000 0.000000
# 2 -0.001092 0.015842 -0.003152 0.000000 0.000000 0.000000
# 3 -0.003369 -0.003152 0.012384 0.000000 0.000000 0.000000
# 4 0.000000 0.000000 0.000000 0.046770 0.000000 0.000000
# 5 0.000000 0.000000 0.000000 0.000000 0.052734 0.000000
# 6 0.000000 0.000000 0.000000 0.000000 0.000000 0.051685
#
#
# Mechanical properties :
#
#
# Convention : Reuss Voigt Hill
#
# Bulk Modulus (GPa) = 37.34921 38.74243 38.04582
# Shear Modulus (GPa) = 23.00564 24.27567 23.64066
#
# Velocity S-wave (km/s) = 3.43938 3.53304 3.48653
# Velocity P-wave (km/s) = 5.91415 6.04684 5.98087
#
# Compressibility (1/GPa) = 0.02677433
#
# Stress axis : x y z
#
# Youngs Moduli (GPa) = 72.60587 63.12147 80.74924
#
# Poissons Ratio (x) = 0.06891 0.27203
# Poissons Ratio (y) = 0.07927 0.25452
# Poissons Ratio (z) = 0.24460 0.19895
#
# Static dielectric constant tensor:
#      x y z
#    x 3.589970 0.000000 0.000000 
#    y 0.000000 3.435590 0.000000 
#    z 0.000000 0.000000 3.470450 
# 
# 
# High freq. dielectric constant tensor:
#      x y z
#    x 1.758190 0.000000 0.000000 
#    y 0.000000 1.753130 0.000000 
#    z 0.000000 0.000000 1.748010 
# 
# From -- ./inp_files/11000.got.cif
#   From: 2010.06.25/outbox.cif.g09.slc.cpg/sg52_6_cif.got.tgz:11000.got - 2010.06.26 19:32:48.
