data_PCOD8215801
_publ_section_title
;
Structure prediction by ZEFSAII (Michael W. Deem and Ramdas Pophale) SiO2 
 PCOD8215801
Probable space group: P N N A
;
_chemical_formula_sum "Si O2"
_cell_formula_units_Z 48
_cell_length_a 19.438781
_cell_length_b 12.069691
_cell_length_c 10.259143
_cell_angle_alpha 90.000000
_cell_angle_beta 90.000000
_cell_angle_gamma 90.000000
_cell_volume 2407.000952
_symmetry_space_group_name_H-M "P N N A"
_symmetry_group_IT_number 52
_symmetry_cell_setting 'orthorhombic'
loop_
_space_group_symop_operation_xyz
x,y,z
1/2-x,-y,z
x,1/2-y,1/2-z
1/2-x,1/2+y,1/2-z
-x,-y,-z
1/2+x,y,-z
-x,1/2+y,1/2+z
1/2+x,1/2-y,1/2+z
loop_
_atom_site_type_symbol
_atom_site_label
_atom_site_fract_x
_atom_site_fract_y
_atom_site_fract_z
Si Si1 0.173907 0.463775 0.514538
Si Si2 0.632738 0.750000 0.250000
Si Si3 0.520798 0.750000 0.750000
Si Si4 0.550973 0.416719 0.073087
Si Si5 0.064603 0.841137 0.988173
Si Si6 0.678151 0.515156 0.202968
Si Si7 0.578576 0.209511 0.897908
O O1 0.250000 0.500000 0.462385
O O2 0.115036 0.556151 0.500952
O O3 0.178687 0.435849 0.668660
O O4 0.148597 0.357397 0.431559
O O5 0.587051 0.750495 0.119096
O O6 0.678977 0.641393 0.251623
O O7 0.477556 0.641320 0.794849
O O8 0.567786 0.716436 0.628663
O O9 0.615212 0.492164 0.109713
O O10 0.500000 0.500000 0.000000
O O11 0.576988 0.321581 0.979046
O O12 0.986007 0.869108 0.942109
O O13 0.750000 0.500000 0.125677
O O14 0.577181 0.250000 0.750000
#
# Coordination Sequence:
#
# PCOD8215801 Si02
#       7
#     8   4   4   8   8   8   8
#     4  10  23  40  62  93 125 170 217 263 323 398
#     4  10  20  37  60  95 122 160 210 264 314 383
#     4  10  22  37  60  91 122 168 202 276 316 371
#     4  11  24  39  61  97 129 155 221 272 325 383
#     4  10  20  38  65  89 125 161 222 261 324 378
#     4  10  21  38  63  89 123 163 205 262 317 382
#     4  11  23  40  64  92 126 176 213 266 326 390
#
# _framework density 19.941827
#
# number of rings (size 3 to 8) (size 9 to 14) (size 15 to 20)
#    0.000    1.667    0.833    4.500    4.667    4.667 
#    1.500    0.833    0.000    0.000    0.000    0.000 
#    0.000    0.000    0.000    0.000    0.000    0.000 
#
# Total GULP energy -594822.850521 kJ/mol
# GULP energy per Si atom -12392.142719 kJ/mol
# Density = 1.989644 g / cm^3
# Si number density = 19.941827 Si / 1000 Ang^3
#
#
#
# Elastic Constant Matrix: (Units=GPa)
#
#
# Indices 1 2 3 4 5 6 
#
# 1 153.1315 69.3031 52.9653 0.0000 0.0000 0.0000
# 2 69.3031 107.5336 47.5564 0.0000 0.0000 0.0000
# 3 52.9653 47.5564 132.3669 0.0000 0.0000 0.0000
# 4 0.0000 0.0000 0.0000 30.0734 0.0000 0.0000
# 5 0.0000 0.0000 0.0000 0.0000 19.8154 0.0000
# 6 0.0000 0.0000 0.0000 0.0000 0.0000 28.8588
#
#
#
# Elastic Compliance Matrix: (Units=1/GPa)
#
#
# Indices 1 2 3 4 5 6 
#
# 1 0.009616 -0.005345 -0.001927 0.000000 0.000000 0.000000
# 2 -0.005345 0.014027 -0.002901 0.000000 0.000000 0.000000
# 3 -0.001927 -0.002901 0.009368 0.000000 0.000000 0.000000
# 4 0.000000 0.000000 0.000000 0.033252 0.000000 0.000000
# 5 0.000000 0.000000 0.000000 0.000000 0.050466 0.000000
# 6 0.000000 0.000000 0.000000 0.000000 0.000000 0.034651
#
#
# Mechanical properties :
#
#
# Convention : Reuss Voigt Hill
#
# Bulk Modulus (GPa) = 78.95910 81.40906 80.18408
# Shear Modulus (GPa) = 28.41745 30.63001 29.52373
#
# Velocity S-wave (km/s) = 3.77904 3.92339 3.85189
# Velocity P-wave (km/s) = 7.66304 7.83811 7.75107
#
# Compressibility (1/GPa) = 0.01266478
#
# Stress axis : x y z
#
# Youngs Moduli (GPa) = 103.99406 71.29124 106.74386
#
# Poissons Ratio (x) = 0.38104 0.20574
# Poissons Ratio (y) = 0.55583 0.30965
# Poissons Ratio (z) = 0.20044 0.20681
#
# Static dielectric constant tensor:
#      x y z
#    x 3.724270 0.000000 0.000000 
#    y 0.000000 3.511150 0.000000 
#    z 0.000000 0.000000 4.121820 
# 
# 
# High freq. dielectric constant tensor:
#      x y z
#    x 1.775650 0.000000 0.000000 
#    y 0.000000 1.778730 0.000000 
#    z 0.000000 0.000000 1.775200 
# 
# From -- ./inp_files/20653.got.cif
#   From: 2010.06.25/outbox.cif.g09.slc.cpg/sg52_11_cif.got.tgz:20653.got - 2010.06.26 19:32:48.
