data_PCOD8215600
_publ_section_title
;
Structure prediction by ZEFSAII (Michael W. Deem and Ramdas Pophale) SiO2 
 PCOD8215600
Probable space group: P N N A
;
_chemical_formula_sum "Si O2"
_cell_formula_units_Z 64
_cell_length_a 31.024270
_cell_length_b 8.491847
_cell_length_c 12.990656
_cell_angle_alpha 90.000000
_cell_angle_beta 90.000000
_cell_angle_gamma 90.000000
_cell_volume 3422.431896
_symmetry_space_group_name_H-M "P N N A"
_symmetry_group_IT_number 52
_symmetry_cell_setting 'orthorhombic'
loop_
_space_group_symop_operation_xyz
x,y,z
1/2-x,-y,z
x,1/2-y,1/2-z
1/2-x,1/2+y,1/2-z
-x,-y,-z
1/2+x,y,-z
-x,1/2+y,1/2+z
1/2+x,1/2-y,1/2+z
loop_
_atom_site_type_symbol
_atom_site_label
_atom_site_fract_x
_atom_site_fract_y
_atom_site_fract_z
Si Si1 0.381178 0.903604 0.617564
Si Si2 0.376960 0.931281 0.951666
Si Si3 0.795854 0.059835 0.363272
Si Si4 0.794300 0.430119 0.373506
Si Si5 0.468944 0.855518 0.511132
Si Si6 0.928433 0.427527 0.287589
Si Si7 0.490295 0.380219 0.326507
Si Si8 0.427246 0.839362 0.146683
O O1 0.375280 0.716594 0.627042
O O2 0.423625 0.929968 0.547722
O O3 0.336383 0.981303 0.575555
O O4 0.390263 0.988500 0.725394
O O5 0.330422 0.009702 0.952392
O O6 0.412724 0.055703 0.906970
O O7 0.388166 0.868396 0.066174
O O8 0.796011 0.244188 0.378683
O O9 0.800740 0.010409 0.243460
O O10 0.750000 0.000000 0.407211
O O11 0.750000 0.500000 0.417287
O O12 0.488438 0.709989 0.576716
O O13 0.462542 0.780548 0.398916
O O14 0.500000 0.000000 0.500000
O O15 0.933713 0.250000 0.250000
O O16 0.973251 0.516775 0.269364
O O17 0.472223 0.250000 0.250000
O O18 0.449296 0.490081 0.345189
O O19 0.410411 0.750000 0.250000
#
# Coordination Sequence:
#
# PCOD8215600 Si02
#       8
#     8   8   8   8   8   8   8   8
#     4  11  21  36  55  80 122 155 195 240 292 354
#     4  11  22  38  58  83 118 158 199 242 296 365
#     4  10  20  33  54  88 125 161 189 226 292 371
#     4  10  20  34  54  87 122 159 191 231 290 362
#     4  11  24  38  58  85 113 155 207 250 301 356
#     4  12  22  33  55  85 117 155 194 238 292 359
#     4  12  22  40  57  83 116 150 197 248 305 358
#     4  11  25  42  58  81 115 158 204 257 304 343
#
# _framework density 18.700153
#
# number of rings (size 3 to 8) (size 9 to 14) (size 15 to 20)
#    0.000    1.000    5.000    3.375    1.750    2.000 
#    0.000    0.000    0.000    0.000    0.000    7.875 
#    0.000    0.000    0.000    0.000    0.000    0.000 
#
# Total GULP energy -793176.030720 kJ/mol
# GULP energy per Si atom -12393.375480 kJ/mol
# Density = 1.865759 g / cm^3
# Si number density = 18.700153 Si / 1000 Ang^3
#
#
#
# Elastic Constant Matrix: (Units=GPa)
#
#
# Indices 1 2 3 4 5 6 
#
# 1 119.7133 62.7015 21.5672 0.0000 0.0000 0.0000
# 2 62.7015 121.5201 44.3960 0.0000 0.0000 0.0000
# 3 21.5672 44.3960 73.2563 0.0000 0.0000 0.0000
# 4 0.0000 0.0000 0.0000 11.7225 0.0000 0.0000
# 5 0.0000 0.0000 0.0000 0.0000 5.4753 0.0000
# 6 0.0000 0.0000 0.0000 0.0000 0.0000 33.8605
#
#
#
# Elastic Compliance Matrix: (Units=1/GPa)
#
#
# Indices 1 2 3 4 5 6 
#
# 1 0.011451 -0.006007 0.000269 0.000000 0.000000 0.000000
# 2 -0.006007 0.013720 -0.006546 0.000000 0.000000 0.000000
# 3 0.000269 -0.006546 0.017539 0.000000 0.000000 0.000000
# 4 0.000000 0.000000 0.000000 0.085306 0.000000 0.000000
# 5 0.000000 0.000000 0.000000 0.000000 0.182640 0.000000
# 6 0.000000 0.000000 0.000000 0.000000 0.000000 0.029533
#
#
# Mechanical properties :
#
#
# Convention : Reuss Voigt Hill
#
# Bulk Modulus (GPa) = 55.12173 63.53546 59.32860
# Shear Modulus (GPa) = 13.48421 22.59999 18.04210
#
# Velocity S-wave (km/s) = 2.68820 3.48019 3.10951
# Velocity P-wave (km/s) = 6.25906 7.08510 6.68485
#
# Compressibility (1/GPa) = 0.01814166
#
# Stress axis : x y z
#
# Youngs Moduli (GPa) = 87.32930 72.88597 57.01620
#
# Poissons Ratio (x) = 0.43780 -0.01534
# Poissons Ratio (y) = 0.52456 0.37325
# Poissons Ratio (z) = -0.02349 0.47714
#
# Static dielectric constant tensor:
#      x y z
#    x 4.004680 0.000000 0.000000 
#    y 0.000000 3.449440 0.000000 
#    z 0.000000 0.000000 3.203940 
# 
# 
# High freq. dielectric constant tensor:
#      x y z
#    x 1.721970 0.000000 0.000000 
#    y 0.000000 1.746100 0.000000 
#    z 0.000000 0.000000 1.680020 
# 
# From -- ./inp_files/23200.got.cif
#   From: 2010.06.25/outbox.cif.g09.slc.cpg/sg52_12_cif.got.tgz:23200.got - 2010.06.26 19:32:48.
