data_PCOD8215228
_publ_section_title
;
Structure prediction by ZEFSAII (Michael W. Deem and Ramdas Pophale) SiO2 
 PCOD8215228
Probable space group: P N N A
;
_chemical_formula_sum "Si O2"
_cell_formula_units_Z 36
_cell_length_a 8.419967
_cell_length_b 8.412085
_cell_length_c 21.287128
_cell_angle_alpha 90.000000
_cell_angle_beta 90.000000
_cell_angle_gamma 90.000000
_cell_volume 1507.756167
_symmetry_space_group_name_H-M "P N N A"
_symmetry_group_IT_number 52
_symmetry_cell_setting 'orthorhombic'
loop_
_space_group_symop_operation_xyz
x,y,z
1/2-x,-y,z
x,1/2-y,1/2-z
1/2-x,1/2+y,1/2-z
-x,-y,-z
1/2+x,y,-z
-x,1/2+y,1/2+z
1/2+x,1/2-y,1/2+z
loop_
_atom_site_type_symbol
_atom_site_label
_atom_site_fract_x
_atom_site_fract_y
_atom_site_fract_z
Si Si1 0.480325 0.820057 0.521495
Si Si2 0.473117 0.261120 0.614526
Si Si3 0.250000 0.000000 0.815647
Si Si4 0.693864 0.676826 0.864258
Si Si5 0.468879 0.750000 0.750000
Si Si6 0.250000 0.000000 0.592807
O O1 0.489825 0.711064 0.459848
O O2 0.605910 0.759028 0.573167
O O3 0.500000 0.000000 0.500000
O O4 0.306028 0.840037 0.554164
O O5 0.363724 0.400612 0.639249
O O6 0.644170 0.275505 0.648885
O O7 0.395368 0.084041 0.630625
O O8 0.356223 0.892298 0.770951
O O9 0.750000 0.500000 0.878838
O O10 0.578258 0.688125 0.805690
#
# Coordination Sequence:
#
# PCOD8215228 Si02
#       6
#     8   8   4   8   4   4
#     4  10  19  38  71 116 144 187 240 300 370 439
#     4  11  24  43  75 112 149 184 249 303 381 433
#     4  12  32  53  74 106 144 211 246 322 360 446
#     4  12  25  45  78 112 148 198 244 311 362 449
#     4  12  34  52  74 102 150 198 262 296 376 438
#     4  10  18  37  70 110 150 187 232 286 366 456
#
# _framework density 23.876542000000001
#
# number of rings (size 3 to 8) (size 9 to 14) (size 15 to 20)
#    0.000    0.889    4.444    4.000    7.778    0.889 
#    0.000   10.000    0.000    0.000    0.000    0.000 
#    0.000    0.000    0.000    0.000    0.000    0.000 
#
# Total GULP energy -446063.140682 kJ/mol
# GULP energy per Si atom -12390.642797 kJ/mol
# Density = 2.382220 g / cm^3
# Si number density = 23.876542 Si / 1000 Ang^3
#
#
#
# Elastic Constant Matrix: (Units=GPa)
#
#
# Indices 1 2 3 4 5 6 
#
# 1 196.6250 59.2735 81.0420 0.0000 0.0000 0.0000
# 2 59.2735 76.3784 55.4560 0.0000 0.0000 0.0000
# 3 81.0420 55.4560 137.4344 0.0000 0.0000 0.0000
# 4 0.0000 0.0000 0.0000 33.5014 0.0000 0.0000
# 5 0.0000 0.0000 0.0000 0.0000 22.7877 0.0000
# 6 0.0000 0.0000 0.0000 0.0000 0.0000 36.9547
#
#
#
# Elastic Compliance Matrix: (Units=1/GPa)
#
#
# Indices 1 2 3 4 5 6 
#
# 1 0.007366 -0.003625 -0.002881 0.000000 0.000000 0.000000
# 2 -0.003625 0.020302 -0.006055 0.000000 0.000000 0.000000
# 3 -0.002881 -0.006055 0.011418 0.000000 0.000000 0.000000
# 4 0.000000 0.000000 0.000000 0.029849 0.000000 0.000000
# 5 0.000000 0.000000 0.000000 0.000000 0.043883 0.000000
# 6 0.000000 0.000000 0.000000 0.000000 0.000000 0.027060
#
#
# Mechanical properties :
#
#
# Convention : Reuss Voigt Hill
#
# Bulk Modulus (GPa) = 71.60527 89.10897 80.35712
# Shear Modulus (GPa) = 29.47180 32.95986 31.21583
#
# Velocity S-wave (km/s) = 3.51713 3.71944 3.61970
# Velocity P-wave (km/s) = 6.82265 7.47311 7.15528
#
# Compressibility (1/GPa) = 0.01396545
#
# Stress axis : x y z
#
# Youngs Moduli (GPa) = 135.76091 49.25733 87.58025
#
# Poissons Ratio (x) = 0.17853 0.25232
# Poissons Ratio (y) = 0.49207 0.53026
# Poissons Ratio (z) = 0.39112 0.29823
#
# Static dielectric constant tensor:
#      x y z
#    x 0.707310 0.000000 0.000000 
#    y 0.000000 3.983120 0.000000 
#    z 0.000000 0.000000 5.067620 
# 
# 
# High freq. dielectric constant tensor:
#      x y z
#    x 1.990000 0.000000 0.000000 
#    y 0.000000 1.898750 0.000000 
#    z 0.000000 0.000000 1.942630 
# 
# From -- ./inp_files/35617.got.cif
#   From: 2010.06.25/outbox.cif.g09.slc.cpg/sg52_18_cif.got.tgz:35617.got - 2010.06.26 19:32:48.
