data_PCOD8215859
_publ_section_title
;
Structure prediction by ZEFSAII (Michael W. Deem and Ramdas Pophale) SiO2 
 PCOD8215859
Probable space group: P N N A
;
_chemical_formula_sum "Si O2"
_cell_formula_units_Z 56
_cell_length_a 22.382269
_cell_length_b 5.352816
_cell_length_c 22.345570
_cell_angle_alpha 90.000000
_cell_angle_beta 90.000000
_cell_angle_gamma 90.000000
_cell_volume 2677.181796
_symmetry_space_group_name_H-M "P N N A"
_symmetry_group_IT_number 52
_symmetry_cell_setting 'orthorhombic'
loop_
_space_group_symop_operation_xyz
x,y,z
1/2-x,-y,z
x,1/2-y,1/2-z
1/2-x,1/2+y,1/2-z
-x,-y,-z
1/2+x,y,-z
-x,1/2+y,1/2+z
1/2+x,1/2-y,1/2+z
loop_
_atom_site_type_symbol
_atom_site_label
_atom_site_fract_x
_atom_site_fract_y
_atom_site_fract_z
Si Si1 0.469834 0.891208 0.573259
Si Si2 0.586537 0.615940 0.376024
Si Si3 0.814365 0.423659 0.929047
Si Si4 0.418733 0.199225 0.123748
Si Si5 0.091532 0.291364 0.461488
Si Si6 0.970027 0.250000 0.750000
Si Si7 0.816016 0.103896 0.039026
Si Si8 0.456635 0.250000 0.750000
O O1 0.442053 0.659651 0.612289
O O2 0.540254 0.916017 0.592385
O O3 0.458795 0.846417 0.502007
O O4 0.443904 0.162116 0.586926
O O5 0.656756 0.639004 0.394711
O O6 0.584279 0.673665 0.305733
O O7 0.750000 0.500000 0.902499
O O8 0.846799 0.210187 0.888906
O O9 0.862493 0.637937 0.921154
O O10 0.809066 0.353495 0.999110
O O11 0.428365 0.176296 0.194183
O O12 0.443421 0.959580 0.086946
O O13 0.134484 0.433492 0.507796
O O14 0.005989 0.500901 0.767373
O O15 0.750000 0.000000 0.044383
#
# Coordination Sequence:
#
# PCOD8215859 Si02
#       8
#     8   8   8   8   8   4   8   4
#     4  11  22  40  60 101 135 163 207 271 339 393
#     4  11  22  38  66  97 129 175 217 264 325 390
#     4  11  22  39  65  89 125 171 215 267 328 394
#     4  11  25  39  63  95 126 171 216 274 330 402
#     4  10  22  37  62  94 132 165 208 268 330 400
#     4  12  26  44  68  90 128 176 220 266 332 406
#     4  10  20  38  61  93 131 171 216 258 321 394
#     4  12  22  44  66  92 136 172 220 270 324 400
#
# _framework density 20.917518999999999
#
# number of rings (size 3 to 8) (size 9 to 14) (size 15 to 20)
#    0.000    1.143    5.714    0.429    4.000    0.571 
#    0.000    0.000    3.143    5.143    0.000    0.000 
#    0.000    0.000    0.000    0.000    0.000    0.000 
#
# Total GULP energy -693805.241616 kJ/mol
# GULP energy per Si atom -12389.379315 kJ/mol
# Density = 2.086991 g / cm^3
# Si number density = 20.917519 Si / 1000 Ang^3
#
#
#
# Elastic Constant Matrix: (Units=GPa)
#
#
# Indices 1 2 3 4 5 6 
#
# 1 100.0295 12.6677 35.0228 0.0000 0.0000 0.0000
# 2 12.6677 81.0226 9.8840 0.0000 0.0000 0.0000
# 3 35.0228 9.8840 134.5657 0.0000 0.0000 0.0000
# 4 0.0000 0.0000 0.0000 12.5357 0.0000 0.0000
# 5 0.0000 0.0000 0.0000 0.0000 9.4379 0.0000
# 6 0.0000 0.0000 0.0000 0.0000 0.0000 29.2293
#
#
#
# Elastic Compliance Matrix: (Units=1/GPa)
#
#
# Indices 1 2 3 4 5 6 
#
# 1 0.011155 -0.001402 -0.002800 0.000000 0.000000 0.000000
# 2 -0.001402 0.012630 -0.000563 0.000000 0.000000 0.000000
# 3 -0.002800 -0.000563 0.008201 0.000000 0.000000 0.000000
# 4 0.000000 0.000000 0.000000 0.079772 0.000000 0.000000
# 5 0.000000 0.000000 0.000000 0.000000 0.105956 0.000000
# 6 0.000000 0.000000 0.000000 0.000000 0.000000 0.034212
#
#
# Mechanical properties :
#
#
# Convention : Reuss Voigt Hill
#
# Bulk Modulus (GPa) = 44.53181 47.86298 46.19740
# Shear Modulus (GPa) = 18.59131 27.44346 23.01739
#
# Velocity S-wave (km/s) = 2.98450 3.62606 3.32081
# Velocity P-wave (km/s) = 5.76296 6.36102 6.06936
#
# Compressibility (1/GPa) = 0.02245586
#
# Stress axis : x y z
#
# Youngs Moduli (GPa) = 89.64507 79.17561 121.92948
#
# Poissons Ratio (x) = 0.11104 0.34144
# Poissons Ratio (y) = 0.12572 0.06861
# Poissons Ratio (z) = 0.25103 0.04455
#
# Static dielectric constant tensor:
#      x y z
#    x 3.883100 0.000000 0.000000 
#    y 0.000000 4.384920 0.000000 
#    z 0.000000 0.000000 3.716370 
# 
# 
# High freq. dielectric constant tensor:
#      x y z
#    x 1.811580 0.000000 0.000000 
#    y 0.000000 1.839920 0.000000 
#    z 0.000000 0.000000 1.798800 
# 
# From -- ./inp_files/41144.got.cif
#   From: 2010.06.25/outbox.cif.g09.slc.cpg/sg52_21_cif.got.tgz:41144.got - 2010.06.26 19:32:48.
