data_PCOD8215943
_publ_section_title
;
Structure prediction by ZEFSAII (Michael W. Deem and Ramdas Pophale) SiO2 
 PCOD8215943
Probable space group: P N N A
;
_chemical_formula_sum "Si O2"
_cell_formula_units_Z 24
_cell_length_a 14.049591
_cell_length_b 4.865766
_cell_length_c 16.800124
_cell_angle_alpha 90.000000
_cell_angle_beta 90.000000
_cell_angle_gamma 90.000000
_cell_volume 1148.490450
_symmetry_space_group_name_H-M "P N N A"
_symmetry_group_IT_number 52
_symmetry_cell_setting 'orthorhombic'
loop_
_space_group_symop_operation_xyz
x,y,z
1/2-x,-y,z
x,1/2-y,1/2-z
1/2-x,1/2+y,1/2-z
-x,-y,-z
1/2+x,y,-z
-x,1/2+y,1/2+z
1/2+x,1/2-y,1/2+z
loop_
_atom_site_type_symbol
_atom_site_label
_atom_site_fract_x
_atom_site_fract_y
_atom_site_fract_z
Si Si1 0.750000 0.000000 0.626477
Si Si2 0.687138 0.765284 0.128007
Si Si3 0.250000 0.000000 0.021247
Si Si4 0.395933 0.250000 0.250000
Si Si5 0.026559 0.750000 0.750000
O O1 0.792024 0.749505 0.574202
O O2 0.667326 0.864374 0.678458
O O3 0.750000 0.500000 0.116751
O O4 0.591314 0.684209 0.173477
O O5 0.750000 0.000000 0.175198
O O6 0.666485 0.884722 0.038270
O O7 0.462402 0.497008 0.278444
#
# Coordination Sequence:
#
# PCOD8215943 Si02
#       5
#     4   8   4   4   4
#     4  12  23  48  63  86 124 170 232 252 319 370
#     4  10  20  39  66  99 128 173 194 252 329 380
#     4  10  21  40  71  90 122 180 204 252 317 396
#     4  12  27  41  68  90 120 176 212 279 305 364
#     4  12  23  41  64 104 130 154 222 259 313 382
#
# _framework density 20.896992999999998
#
# number of rings (size 3 to 8) (size 9 to 14) (size 15 to 20)
#    1.000    0.000    1.667    7.000    0.000    0.000 
#    0.000   10.000    0.000    0.000    0.000    0.000 
#    0.000    0.000    0.000    0.000    0.000    0.000 
#
# Total GULP energy -297334.174145 kJ/mol
# GULP energy per Si atom -12388.923923 kJ/mol
# Density = 2.084943 g / cm^3
# Si number density = 20.896993 Si / 1000 Ang^3
#
#
#
# Elastic Constant Matrix: (Units=GPa)
#
#
# Indices 1 2 3 4 5 6 
#
# 1 107.8809 62.7767 63.2122 0.0000 0.0000 0.0000
# 2 62.7767 175.3429 67.1722 0.0000 0.0000 0.0000
# 3 63.2122 67.1722 143.7371 0.0000 0.0000 0.0000
# 4 0.0000 0.0000 0.0000 24.3663 0.0000 0.0000
# 5 0.0000 0.0000 0.0000 0.0000 -2.1868 0.0000
# 6 0.0000 0.0000 0.0000 0.0000 0.0000 40.4523
#
#
#
# Elastic Compliance Matrix: (Units=1/GPa)
#
#
# Indices 1 2 3 4 5 6 
#
# 1 0.013811 -0.003189 -0.004583 0.000000 0.000000 0.000000
# 2 -0.003189 0.007683 -0.002188 0.000000 0.000000 0.000000
# 3 -0.004583 -0.002188 0.009995 0.000000 0.000000 0.000000
# 4 0.000000 0.000000 0.000000 0.041040 0.000000 0.000000
# 5 0.000000 0.000000 0.000000 0.000000 -0.457283 0.000000
# 6 0.000000 0.000000 0.000000 0.000000 0.000000 0.024720
#
#
# Mechanical properties :
#
#
# Convention : Reuss Voigt Hill
#
# Bulk Modulus (GPa) = 86.44156 90.36479 88.40317
# Shear Modulus (GPa) = -14.86958 28.11302 6.62172
#
# Velocity S-wave (km/s) = -2.67041 3.67183 1.78203
# Velocity P-wave (km/s) = 5.65219 7.83028 6.82864
#
# Compressibility (1/GPa) = 0.01156851
#
# Stress axis : x y z
#
# Youngs Moduli (GPa) = 72.40809 130.15780 100.04573
#
# Poissons Ratio (x) = 0.41503 0.45855
# Poissons Ratio (y) = 0.23088 0.21892
# Poissons Ratio (z) = 0.33188 0.28481
#
# Static dielectric constant tensor:
#      x y z
#    x 3.626510 0.000000 0.000000 
#    y 0.000000 4.402000 0.000000 
#    z 0.000000 0.000000 3.881240 
# 
# 
# High freq. dielectric constant tensor:
#      x y z
#    x 1.773180 0.000000 0.000000 
#    y 0.000000 1.854380 0.000000 
#    z 0.000000 0.000000 1.822320 
# 
# From -- ./inp_files/26588.got.cif
#   From: 2010.06.25/outbox.cif.g09.slc.cpg/sg52_14_cif.got.tgz:26588.got - 2010.06.26 19:32:48.
