data_PCOD8215728
_publ_section_title
;
Structure prediction by ZEFSAII (Michael W. Deem and Ramdas Pophale) SiO2 
 PCOD8215728
Probable space group: P N N A
;
_chemical_formula_sum "Si O2"
_cell_formula_units_Z 48
_cell_length_a 10.045026
_cell_length_b 8.416600
_cell_length_c 25.034525
_cell_angle_alpha 90.000000
_cell_angle_beta 90.000000
_cell_angle_gamma 90.000000
_cell_volume 2116.543061
_symmetry_space_group_name_H-M "P N N A"
_symmetry_group_IT_number 52
_symmetry_cell_setting 'orthorhombic'
loop_
_space_group_symop_operation_xyz
x,y,z
1/2-x,-y,z
x,1/2-y,1/2-z
1/2-x,1/2+y,1/2-z
-x,-y,-z
1/2+x,y,-z
-x,1/2+y,1/2+z
1/2+x,1/2-y,1/2+z
loop_
_atom_site_type_symbol
_atom_site_label
_atom_site_fract_x
_atom_site_fract_y
_atom_site_fract_z
Si Si1 0.058801 0.068128 0.218871
Si Si2 0.693058 0.336742 0.087071
Si Si3 0.798827 0.175153 0.176992
Si Si4 0.750000 0.000000 0.873659
Si Si5 0.585644 0.250000 0.250000
Si Si6 0.750000 0.000000 0.692932
Si Si7 0.250000 0.500000 0.014953
Si Si8 0.611392 0.809766 0.601290
O O1 0.941776 0.195902 0.206134
O O2 0.133805 0.068132 0.162888
O O3 0.154959 0.111856 0.269265
O O4 0.008344 0.892672 0.232637
O O5 0.750000 0.500000 0.112173
O O6 0.795472 0.206913 0.112678
O O7 0.545885 0.286378 0.105653
O O8 0.698155 0.353497 0.022311
O O9 0.688696 0.296039 0.201924
O O10 0.750000 0.000000 0.190188
O O11 0.811611 0.143043 0.909663
O O12 0.838048 0.118071 0.657246
O O13 0.366035 0.432503 0.052673
#
# Coordination Sequence:
#
# PCOD8215728 Si02
#       8
#     8   8   8   4   4   4   4   8
#     4  10  21  38  57  95 129 173 220 258 324 405
#     4  10  23  43  69  92 130 173 217 281 337 397
#     4  10  21  37  61  94 131 172 216 271 334 398
#     4  11  24  39  64  90 138 171 208 281 338 396
#     4  10  20  36  58  84 136 168 208 264 318 390
#     4  10  22  38  66  86 128 176 220 266 312 394
#     4   9  24  45  72  98 124 173 232 285 340 402
#     4  11  22  44  66  98 128 173 226 275 340 403
#
# _framework density 22.67849
#
# number of rings (size 3 to 8) (size 9 to 14) (size 15 to 20)
#    0.500    1.333    0.000    4.500    0.000    9.333 
#    1.500    0.833    0.000    0.000    0.000    0.000 
#    0.000    0.000    0.000    0.000    0.000    0.000 
#
# Total GULP energy -594634.677815 kJ/mol
# GULP energy per Si atom -12388.222454 kJ/mol
# Density = 2.262687 g / cm^3
# Si number density = 22.678490 Si / 1000 Ang^3
#
#
#
# Elastic Constant Matrix: (Units=GPa)
#
#
# Indices 1 2 3 4 5 6 
#
# 1 133.5499 32.3396 58.7612 0.0000 0.0000 0.0000
# 2 32.3396 50.7149 31.8870 0.0000 0.0000 0.0000
# 3 58.7612 31.8870 134.1481 0.0000 0.0000 0.0000
# 4 0.0000 0.0000 0.0000 44.2678 0.0000 0.0000
# 5 0.0000 0.0000 0.0000 0.0000 24.0815 0.0000
# 6 0.0000 0.0000 0.0000 0.0000 0.0000 33.1692
#
#
#
# Elastic Compliance Matrix: (Units=1/GPa)
#
#
# Indices 1 2 3 4 5 6 
#
# 1 0.010001 -0.004260 -0.003368 0.000000 0.000000 0.000000
# 2 -0.004260 0.024997 -0.004076 0.000000 0.000000 0.000000
# 3 -0.003368 -0.004076 0.009899 0.000000 0.000000 0.000000
# 4 0.000000 0.000000 0.000000 0.022590 0.000000 0.000000
# 5 0.000000 0.000000 0.000000 0.000000 0.041526 0.000000
# 6 0.000000 0.000000 0.000000 0.000000 0.000000 0.030148
#
#
# Mechanical properties :
#
#
# Convention : Reuss Voigt Hill
#
# Bulk Modulus (GPa) = 46.53506 62.70983 54.62245
# Shear Modulus (GPa) = 29.45812 33.33204 31.39508
#
# Velocity S-wave (km/s) = 3.60800 3.83791 3.72473
# Velocity P-wave (km/s) = 6.15799 6.88121 6.52962
#
# Compressibility (1/GPa) = 0.02148917
#
# Stress axis : x y z
#
# Youngs Moduli (GPa) = 99.98554 40.00458 101.02273
#
# Poissons Ratio (x) = 0.17041 0.34029
# Poissons Ratio (y) = 0.42592 0.41176
# Poissons Ratio (z) = 0.33679 0.16305
#
# Static dielectric constant tensor:
#      x y z
#    x 4.351020 0.000000 0.000000 
#    y 0.000000 3.861330 0.000000 
#    z 0.000000 0.000000 4.066140 
# 
# 
# High freq. dielectric constant tensor:
#      x y z
#    x 1.907410 0.000000 0.000000 
#    y 0.000000 1.877610 0.000000 
#    z 0.000000 0.000000 1.887070 
# 
# From -- ./inp_files/44486.got.cif
#   From: 2010.06.25/outbox.cif.g09.slc.cpg/sg52_23_cif.got.tgz:44486.got - 2010.06.26 19:32:48.
