data_PCOD8215049
_publ_section_title
;
Structure prediction by ZEFSAII (Michael W. Deem and Ramdas Pophale) SiO2 
 PCOD8215049
Probable space group: P N N A
;
_chemical_formula_sum "Si O2"
_cell_formula_units_Z 48
_cell_length_a 28.420792
_cell_length_b 8.459678
_cell_length_c 11.568718
_cell_angle_alpha 90.000000
_cell_angle_beta 90.000000
_cell_angle_gamma 90.000000
_cell_volume 2781.475532
_symmetry_space_group_name_H-M "P N N A"
_symmetry_group_IT_number 52
_symmetry_cell_setting 'orthorhombic'
loop_
_space_group_symop_operation_xyz
x,y,z
1/2-x,-y,z
x,1/2-y,1/2-z
1/2-x,1/2+y,1/2-z
-x,-y,-z
1/2+x,y,-z
-x,1/2+y,1/2+z
1/2+x,1/2-y,1/2+z
loop_
_atom_site_type_symbol
_atom_site_label
_atom_site_fract_x
_atom_site_fract_y
_atom_site_fract_z
Si Si1 0.695283 0.750000 0.750000
Si Si2 0.467380 0.924051 0.401451
Si Si3 0.250000 0.000000 0.104163
Si Si4 0.136770 0.478411 0.167326
Si Si5 0.342099 0.654079 0.419719
Si Si6 0.561587 0.093623 0.994528
Si Si7 0.508403 0.913076 0.814742
O O1 0.730146 0.861390 0.818269
O O2 0.663314 0.647031 0.838707
O O3 0.415660 0.003817 0.383411
O O4 0.460919 0.740806 0.426078
O O5 0.500000 0.000000 0.500000
O O6 0.493677 0.947437 0.279584
O O7 0.206615 0.077048 0.033171
O O8 0.138377 0.421240 0.300397
O O9 0.163544 0.343661 0.092201
O O10 0.382496 0.610440 0.511445
O O11 0.546887 0.941972 0.916841
O O12 0.542512 0.088231 0.124826
O O13 0.520516 0.750000 0.750000
#
# Coordination Sequence:
#
# PCOD8215049 Si02
#       7
#     4   8   4   8   8   8   8
#     4  10  18  28  44  70  92 130 164 204 256 306
#     4  11  20  33  50  74 108 143 174 208 253 297
#     4  10  18  28  48  66  96 122 166 208 256 320
#     4   9  18  28  46  65 101 131 164 203 248 306
#     4   9  17  32  45  66  96 132 160 205 267 296
#     4  10  21  35  51  71 109 140 169 220 255 297
#     4  11  21  33  52  76 100 140 183 205 249 309
#
# _framework density 17.257027000000001
#
# number of rings (size 3 to 8) (size 9 to 14) (size 15 to 20)
#    0.000    2.000    3.333    2.500    1.167    0.000 
#    0.000    0.000    0.000    0.000    0.000    0.000 
#    5.000    0.000    0.000    0.000    0.000    0.000 
#
# Total GULP energy -594719.063389 kJ/mol
# GULP energy per Si atom -12389.980487 kJ/mol
# Density = 1.721775 g / cm^3
# Si number density = 17.257027 Si / 1000 Ang^3
#
#
#
# Elastic Constant Matrix: (Units=GPa)
#
#
# Indices 1 2 3 4 5 6 
#
# 1 139.6813 62.1119 36.2097 0.0000 0.0000 0.0000
# 2 62.1119 92.6727 25.7261 0.0000 0.0000 0.0000
# 3 36.2097 25.7261 54.6726 0.0000 0.0000 0.0000
# 4 0.0000 0.0000 0.0000 19.1397 0.0000 0.0000
# 5 0.0000 0.0000 0.0000 0.0000 23.2684 0.0000
# 6 0.0000 0.0000 0.0000 0.0000 0.0000 30.7576
#
#
#
# Elastic Compliance Matrix: (Units=1/GPa)
#
#
# Indices 1 2 3 4 5 6 
#
# 1 0.011052 -0.006183 -0.004410 0.000000 0.000000 0.000000
# 2 -0.006183 0.015871 -0.003373 0.000000 0.000000 0.000000
# 3 -0.004410 -0.003373 0.022799 0.000000 0.000000 0.000000
# 4 0.000000 0.000000 0.000000 0.052247 0.000000 0.000000
# 5 0.000000 0.000000 0.000000 0.000000 0.042977 0.000000
# 6 0.000000 0.000000 0.000000 0.000000 0.000000 0.032512
#
#
# Mechanical properties :
#
#
# Convention : Reuss Voigt Hill
#
# Bulk Modulus (GPa) = 45.89463 59.45800 52.67631
# Shear Modulus (GPa) = 23.51241 25.49839 24.50540
#
# Velocity S-wave (km/s) = 3.69519 3.84808 3.77241
# Velocity P-wave (km/s) = 6.69764 7.36701 7.04028
#
# Compressibility (1/GPa) = 0.02178904
#
# Stress axis : x y z
#
# Youngs Moduli (GPa) = 90.48311 63.00789 43.86195
#
# Poissons Ratio (x) = 0.38957 0.19344
# Poissons Ratio (y) = 0.55945 0.14795
# Poissons Ratio (z) = 0.39905 0.21253
#
# Static dielectric constant tensor:
#      x y z
#    x 3.458780 0.000000 0.000000 
#    y 0.000000 2.872890 0.000000 
#    z 0.000000 0.000000 2.910330 
# 
# 
# High freq. dielectric constant tensor:
#      x y z
#    x 1.666840 0.000000 0.000000 
#    y 0.000000 1.681990 0.000000 
#    z 0.000000 0.000000 1.608270 
# 
# From -- ./inp_files/23113.got.cif
#   From: 2010.06.25/outbox.cif.g09.slc.cpg/sg52_12_cif.got.tgz:23113.got - 2010.06.26 19:32:48.
