data_PCOD8215617
_publ_section_title
;
Structure prediction by ZEFSAII (Michael W. Deem and Ramdas Pophale) SiO2 
 PCOD8215617
Probable space group: P N N A
;
_chemical_formula_sum "Si O2"
_cell_formula_units_Z 48
_cell_length_a 15.483067
_cell_length_b 7.520052
_cell_length_c 22.400267
_cell_angle_alpha 90.000000
_cell_angle_beta 90.000000
_cell_angle_gamma 90.000000
_cell_volume 2608.140792
_symmetry_space_group_name_H-M "P N N A"
_symmetry_group_IT_number 52
_symmetry_cell_setting 'orthorhombic'
loop_
_space_group_symop_operation_xyz
x,y,z
1/2-x,-y,z
x,1/2-y,1/2-z
1/2-x,1/2+y,1/2-z
-x,-y,-z
1/2+x,y,-z
-x,1/2+y,1/2+z
1/2+x,1/2-y,1/2+z
loop_
_atom_site_type_symbol
_atom_site_label
_atom_site_fract_x
_atom_site_fract_y
_atom_site_fract_z
Si Si1 0.030710 0.250000 0.750000
Si Si2 0.654993 0.936450 0.279969
Si Si3 0.311338 0.351540 0.451394
Si Si4 0.594154 0.951031 0.411716
Si Si5 0.250000 0.500000 0.998832
Si Si6 0.484528 0.219209 0.119806
Si Si7 0.065718 0.930649 0.951068
O O1 0.088841 0.423682 0.753291
O O2 0.971844 0.231937 0.808936
O O3 0.633758 0.750000 0.250000
O O4 0.645926 0.919425 0.350850
O O5 0.750000 0.000000 0.262562
O O6 0.250000 0.500000 0.421807
O O7 0.256938 0.171316 0.458581
O O8 0.392201 0.322151 0.408193
O O9 0.340391 0.424618 0.517182
O O10 0.663263 0.017207 0.460082
O O11 0.545088 0.770180 0.430420
O O12 0.518914 0.095824 0.406527
O O13 0.556412 0.066384 0.104580
O O14 0.000000 0.000000 0.000000
#
# Coordination Sequence:
#
# PCOD8215617 Si02
#       7
#     4   8   8   8   4   8   8
#     4  10  22  38  56  80 110 146 192 228 272 330
#     4  11  20  33  52  79 111 149 182 219 264 326
#     4  10  21  35  55  81 108 141 183 230 282 328
#     4  10  20  34  52  80 113 144 179 219 274 334
#     4  10  20  34  54  82 114 142 176 224 274 334
#     4  10  21  37  57  79 110 148 183 233 277 333
#     4   9  19  34  55  82 108 141 174 218 277 336
#
# _framework density 18.403914
#
# number of rings (size 3 to 8) (size 9 to 14) (size 15 to 20)
#    0.000    2.000    1.667    2.000    0.000    8.667 
#    0.000    0.833    1.833    0.000    0.000    0.000 
#    0.000    0.000    0.000    0.000    0.000    0.000 
#
# Total GULP energy -595145.141463 kJ/mol
# GULP energy per Si atom -12398.857114 kJ/mol
# Density = 1.836203 g / cm^3
# Si number density = 18.403914 Si / 1000 Ang^3
#
#
#
# Elastic Constant Matrix: (Units=GPa)
#
#
# Indices 1 2 3 4 5 6 
#
# 1 78.7239 62.1946 43.5438 0.0000 0.0000 0.0000
# 2 62.1946 156.8290 59.0458 0.0000 0.0000 0.0000
# 3 43.5438 59.0458 92.5776 0.0000 0.0000 0.0000
# 4 0.0000 0.0000 0.0000 27.6363 0.0000 0.0000
# 5 0.0000 0.0000 0.0000 0.0000 18.3800 0.0000
# 6 0.0000 0.0000 0.0000 0.0000 0.0000 27.6854
#
#
#
# Elastic Compliance Matrix: (Units=1/GPa)
#
#
# Indices 1 2 3 4 5 6 
#
# 1 0.020704 -0.005980 -0.005924 0.000000 0.000000 0.000000
# 2 -0.005980 0.010119 -0.003641 0.000000 0.000000 0.000000
# 3 -0.005924 -0.003641 0.015910 0.000000 0.000000 0.000000
# 4 0.000000 0.000000 0.000000 0.036184 0.000000 0.000000
# 5 0.000000 0.000000 0.000000 0.000000 0.054407 0.000000
# 6 0.000000 0.000000 0.000000 0.000000 0.000000 0.036120
#
#
# Mechanical properties :
#
#
# Convention : Reuss Voigt Hill
#
# Bulk Modulus (GPa) = 63.92738 73.07766 68.50252
# Shear Modulus (GPa) = 23.83804 25.63008 24.73406
#
# Velocity S-wave (km/s) = 3.60289 3.73586 3.66998
# Velocity P-wave (km/s) = 7.21934 7.64217 7.43376
#
# Compressibility (1/GPa) = 0.01564275
#
# Stress axis : x y z
#
# Youngs Moduli (GPa) = 48.30003 98.82556 62.85290
#
# Poissons Ratio (x) = 0.59101 0.37233
# Poissons Ratio (y) = 0.28885 0.22884
# Poissons Ratio (z) = 0.28612 0.35981
#
# Static dielectric constant tensor:
#      x y z
#    x 3.135410 0.000000 0.000000 
#    y 0.000000 3.749390 0.000000 
#    z 0.000000 0.000000 3.491190 
# 
# 
# High freq. dielectric constant tensor:
#      x y z
#    x 1.693250 0.000000 0.000000 
#    y 0.000000 1.734400 0.000000 
#    z 0.000000 0.000000 1.704000 
# 
# From -- ./inp_files/37215.got.cif
#   From: 2010.06.25/outbox.cif.g09.slc.cpg/sg52_19_cif.got.tgz:37215.got - 2010.06.26 19:32:48.
