data_PCOD8215998
_publ_section_title
;
Structure prediction by ZEFSAII (Michael W. Deem and Ramdas Pophale) SiO2 
 PCOD8215998
Probable space group: P N N A
;
_chemical_formula_sum "Si O2"
_cell_formula_units_Z 48
_cell_length_a 17.694400
_cell_length_b 14.681278
_cell_length_c 8.561668
_cell_angle_alpha 90.000000
_cell_angle_beta 90.000000
_cell_angle_gamma 90.000000
_cell_volume 2224.119338
_symmetry_space_group_name_H-M "P N N A"
_symmetry_group_IT_number 52
_symmetry_cell_setting 'orthorhombic'
loop_
_space_group_symop_operation_xyz
x,y,z
1/2-x,-y,z
x,1/2-y,1/2-z
1/2-x,1/2+y,1/2-z
-x,-y,-z
1/2+x,y,-z
-x,1/2+y,1/2+z
1/2+x,1/2-y,1/2+z
loop_
_atom_site_type_symbol
_atom_site_label
_atom_site_fract_x
_atom_site_fract_y
_atom_site_fract_z
Si Si1 0.337832 0.250000 0.750000
Si Si2 0.521969 0.250000 0.250000
Si Si3 0.170250 0.545829 0.225147
Si Si4 0.576287 0.848783 0.502681
Si Si5 0.064148 0.381130 0.181001
Si Si6 0.387280 0.792128 0.027670
Si Si7 0.765370 0.394575 0.466236
O O1 0.390584 0.230177 0.603659
O O2 0.289637 0.337317 0.688009
O O3 0.469476 0.184867 0.348895
O O4 0.576660 0.310565 0.358875
O O5 0.250000 0.500000 0.194319
O O6 0.150642 0.602880 0.070542
O O7 0.103548 0.473503 0.231219
O O8 0.174232 0.602574 0.389346
O O9 0.517204 0.906245 0.395932
O O10 0.116133 0.317493 0.064655
O O11 0.053101 0.328953 0.344845
O O12 0.307636 0.843799 0.039402
O O13 0.750000 0.500000 0.416027
#
# Coordination Sequence:
#
# PCOD8215998 Si02
#       7
#     4   4   8   8   8   8   8
#     4  12  27  44  66  97 144 182 222 298 334 413
#     4  10  21  42  68  95 128 180 234 276 342 407
#     4  11  23  43  68 102 135 178 227 279 336 415
#     4  11  24  43  66 101 135 179 229 277 346 402
#     4  10  21  41  69  96 137 173 228 279 336 402
#     4  10  20  40  70  95 131 180 225 278 340 402
#     4  11  24  46  67 105 138 179 233 279 352 406
#
# _framework density 21.581575999999998
#
# number of rings (size 3 to 8) (size 9 to 14) (size 15 to 20)
#    0.000    1.333    3.333    4.000    2.333    0.667 
#    9.000    1.667    0.000    0.000    0.000    0.000 
#    0.000    0.000    0.000    0.000    0.000    0.000 
#
# Total GULP energy -594626.629071 kJ/mol
# GULP energy per Si atom -12388.054772 kJ/mol
# Density = 2.153246 g / cm^3
# Si number density = 21.581576 Si / 1000 Ang^3
#
#
#
# Elastic Constant Matrix: (Units=GPa)
#
#
# Indices 1 2 3 4 5 6 
#
# 1 82.1322 30.7156 58.5386 0.0000 0.0000 0.0000
# 2 30.7156 86.4954 51.8949 0.0000 0.0000 0.0000
# 3 58.5386 51.8949 157.0625 0.0000 0.0000 0.0000
# 4 0.0000 0.0000 0.0000 38.9676 0.0000 0.0000
# 5 0.0000 0.0000 0.0000 0.0000 43.1301 0.0000
# 6 0.0000 0.0000 0.0000 0.0000 0.0000 26.8510
#
#
#
# Elastic Compliance Matrix: (Units=1/GPa)
#
#
# Indices 1 2 3 4 5 6 
#
# 1 0.017109 -0.002806 -0.005450 0.000000 0.000000 0.000000
# 2 -0.002806 0.014880 -0.003871 0.000000 0.000000 0.000000
# 3 -0.005450 -0.003871 0.009677 0.000000 0.000000 0.000000
# 4 0.000000 0.000000 0.000000 0.025662 0.000000 0.000000
# 5 0.000000 0.000000 0.000000 0.000000 0.023186 0.000000
# 6 0.000000 0.000000 0.000000 0.000000 0.000000 0.037243
#
#
# Mechanical properties :
#
#
# Convention : Reuss Voigt Hill
#
# Bulk Modulus (GPa) = 57.42692 67.55425 62.49058
# Shear Modulus (GPa) = 31.68297 34.09246 32.88771
#
# Velocity S-wave (km/s) = 3.83568 3.97886 3.90792
# Velocity P-wave (km/s) = 6.80320 7.24418 7.02715
#
# Compressibility (1/GPa) = 0.01741344
#
# Stress axis : x y z
#
# Youngs Moduli (GPa) = 58.44890 67.20396 103.33909
#
# Poissons Ratio (x) = 0.18858 0.56315
# Poissons Ratio (y) = 0.16401 0.39999
# Poissons Ratio (z) = 0.31852 0.26012
#
# Static dielectric constant tensor:
#      x y z
#    x 4.043670 0.000000 0.000000 
#    y 0.000000 4.076050 0.000000 
#    z 0.000000 0.000000 4.335110 
# 
# 
# High freq. dielectric constant tensor:
#      x y z
#    x 1.842800 0.000000 0.000000 
#    y 0.000000 1.835380 0.000000 
#    z 0.000000 0.000000 1.860910 
# 
# From -- ./inp_files/12139.got.cif
#   From: 2010.06.25/outbox.cif.g09.slc.cpg/sg52_7_cif.got.tgz:12139.got - 2010.06.26 19:32:48.
