data_PCOD8215351
_publ_section_title
;
Structure prediction by ZEFSAII (Michael W. Deem and Ramdas Pophale) SiO2 
 PCOD8215351
Probable space group: P N N A
;
_chemical_formula_sum "Si O2"
_cell_formula_units_Z 52
_cell_length_a 24.727907
_cell_length_b 10.109703
_cell_length_c 11.540949
_cell_angle_alpha 90.000000
_cell_angle_beta 90.000000
_cell_angle_gamma 90.000000
_cell_volume 2885.142563
_symmetry_space_group_name_H-M "P N N A"
_symmetry_group_IT_number 52
_symmetry_cell_setting 'orthorhombic'
loop_
_space_group_symop_operation_xyz
x,y,z
1/2-x,-y,z
x,1/2-y,1/2-z
1/2-x,1/2+y,1/2-z
-x,-y,-z
1/2+x,y,-z
-x,1/2+y,1/2+z
1/2+x,1/2-y,1/2+z
loop_
_atom_site_type_symbol
_atom_site_label
_atom_site_fract_x
_atom_site_fract_y
_atom_site_fract_z
Si Si1 0.757128 0.851540 0.350168
Si Si2 0.573722 0.250000 0.250000
Si Si3 0.545023 0.668714 0.483080
Si Si4 0.500163 0.976012 0.809521
Si Si5 0.631982 0.388068 0.064530
Si Si6 0.467508 0.897627 0.421150
Si Si7 0.137408 0.818838 0.628216
O O1 0.775602 0.750000 0.250000
O O2 0.803516 0.860507 0.450718
O O3 0.700648 0.800009 0.404867
O O4 0.750000 0.000000 0.296973
O O5 0.535986 0.123607 0.262368
O O6 0.610845 0.261762 0.136842
O O7 0.543128 0.606563 0.612175
O O8 0.542339 0.551695 0.390484
O O9 0.492147 0.755921 0.453875
O O10 0.600658 0.750592 0.470609
O O11 0.528888 0.070927 0.715720
O O12 0.623469 0.525745 0.135204
O O13 0.597232 0.396851 0.946674
O O14 0.500000 0.000000 0.500000
O O15 0.123493 0.750000 0.750000
#
# Coordination Sequence:
#
# PCOD8215351 Si02
#       7
#     8   4   8   8   8   8   8
#     4   9  19  33  51  77 106 142 182 225 280 330
#     4  12  18  32  50  76 112 134 174 214 266 326
#     4  11  21  36  52  77 112 141 182 223 273 329
#     4  11  23  33  52  80 109 147 182 216 275 339
#     4  11  20  31  53  76 108 143 177 223 272 326
#     4  12  20  34  51  77 110 144 175 220 271 326
#     4  10  19  34  52  75 109 143 178 227 279 329
#
# _framework density 18.023372999999999
#
# number of rings (size 3 to 8) (size 9 to 14) (size 15 to 20)
#    0.000    1.231    5.385    2.308    0.000    0.000 
#    0.000    0.000    0.000    0.000    0.000   12.923 
#    0.000    0.000    0.000    0.000    0.000    0.000 
#
# Total GULP energy -644356.196000 kJ/mol
# GULP energy per Si atom -12391.465308 kJ/mol
# Density = 1.798235 g / cm^3
# Si number density = 18.023373 Si / 1000 Ang^3
#
#
#
# Elastic Constant Matrix: (Units=GPa)
#
#
# Indices 1 2 3 4 5 6 
#
# 1 124.5480 24.9692 35.4592 0.0000 0.0000 0.0000
# 2 24.9692 57.6617 11.9603 0.0000 0.0000 0.0000
# 3 35.4592 11.9603 77.2765 0.0000 0.0000 0.0000
# 4 0.0000 0.0000 0.0000 27.3644 0.0000 0.0000
# 5 0.0000 0.0000 0.0000 0.0000 26.0403 0.0000
# 6 0.0000 0.0000 0.0000 0.0000 0.0000 22.3159
#
#
#
# Elastic Compliance Matrix: (Units=1/GPa)
#
#
# Indices 1 2 3 4 5 6 
#
# 1 0.009854 -0.003440 -0.003989 0.000000 0.000000 0.000000
# 2 -0.003440 0.019118 -0.001381 0.000000 0.000000 0.000000
# 3 -0.003989 -0.001381 0.014985 0.000000 0.000000 0.000000
# 4 0.000000 0.000000 0.000000 0.036544 0.000000 0.000000
# 5 0.000000 0.000000 0.000000 0.000000 0.038402 0.000000
# 6 0.000000 0.000000 0.000000 0.000000 0.000000 0.044811
#
#
# Mechanical properties :
#
#
# Convention : Reuss Voigt Hill
#
# Bulk Modulus (GPa) = 37.96795 44.91819 41.44307
# Shear Modulus (GPa) = 26.30003 27.61726 26.95865
#
# Velocity S-wave (km/s) = 3.82412 3.91871 3.87170
# Velocity P-wave (km/s) = 6.37261 6.74176 6.55978
#
# Compressibility (1/GPa) = 0.02633800
#
# Stress axis : x y z
#
# Youngs Moduli (GPa) = 101.47709 52.30556 66.73414
#
# Poissons Ratio (x) = 0.17992 0.26623
# Poissons Ratio (y) = 0.34906 0.09214
# Poissons Ratio (z) = 0.40484 0.07222
#
# Static dielectric constant tensor:
#      x y z
#    x 3.468970 0.000000 0.000000 
#    y 0.000000 3.791730 0.000000 
#    z 0.000000 0.000000 3.075350 
# 
# 
# High freq. dielectric constant tensor:
#      x y z
#    x 1.691870 0.000000 0.000000 
#    y 0.000000 1.716400 0.000000 
#    z 0.000000 0.000000 1.654980 
# 
# From -- ./inp_files/22818.got.cif
#   From: 2010.06.25/outbox.cif.g09.slc.cpg/sg52_12_cif.got.tgz:22818.got - 2010.06.26 19:32:48.
