data_PCOD8215339
_publ_section_title
;
Structure prediction by ZEFSAII (Michael W. Deem and Ramdas Pophale) SiO2 
 PCOD8215339
Probable space group: P N N A
;
_chemical_formula_sum "Si O2"
_cell_formula_units_Z 60
_cell_length_a 26.317007
_cell_length_b 13.822594
_cell_length_c 8.862592
_cell_angle_alpha 90.000000
_cell_angle_beta 90.000000
_cell_angle_gamma 90.000000
_cell_volume 3223.938915
_symmetry_space_group_name_H-M "P N N A"
_symmetry_group_IT_number 52
_symmetry_cell_setting 'orthorhombic'
loop_
_space_group_symop_operation_xyz
x,y,z
1/2-x,-y,z
x,1/2-y,1/2-z
1/2-x,1/2+y,1/2-z
-x,-y,-z
1/2+x,y,-z
-x,1/2+y,1/2+z
1/2+x,1/2-y,1/2+z
loop_
_atom_site_type_symbol
_atom_site_label
_atom_site_fract_x
_atom_site_fract_y
_atom_site_fract_z
Si Si1 0.796925 0.854586 0.239436
Si Si2 0.420910 0.141116 0.300677
Si Si3 0.250000 0.500000 0.521137
Si Si4 0.356286 0.619903 0.023586
Si Si5 0.346115 0.985170 0.183625
Si Si6 0.610009 0.166400 0.030720
Si Si7 0.019177 0.057982 0.857166
Si Si8 0.554819 0.522300 0.064124
O O1 0.770898 0.750000 0.250000
O O2 0.809809 0.895283 0.405444
O O3 0.757721 0.911850 0.135870
O O4 0.852568 0.848568 0.169019
O O5 0.411013 0.250000 0.250000
O O6 0.373081 0.082507 0.236858
O O7 0.472242 0.103072 0.228634
O O8 0.425778 0.123193 0.484281
O O9 0.298112 0.482309 0.415341
O O10 0.329797 0.582472 0.176448
O O11 0.377413 0.729461 0.041491
O O12 0.406170 0.559426 0.987379
O O13 0.384601 0.919804 0.088570
O O14 0.553302 0.151160 0.095557
O O15 0.050210 0.982125 0.747181
O O16 0.000000 0.000000 0.000000
O O17 0.500000 0.500000 0.000000
#
# Coordination Sequence:
#
# PCOD8215339 Si02
#       8
#     8   8   4   8   8   8   8   8
#     4   9  19  36  60  88 110 142 196 242 295 356
#     4  10  22  38  55  78 118 162 195 232 283 351
#     4  10  22  40  64  80 116 150 184 256 312 348
#     4  10  19  34  59  86 115 148 192 245 287 345
#     4  10  21  40  56  83 115 151 193 241 300 344
#     4  10  19  33  57  87 118 148 188 239 295 335
#     4  11  20  34  57  84 120 158 192 236 289 348
#     4   9  20  34  52  81 116 153 199 232 274 348
#
# _framework density 18.610773999999999
#
# number of rings (size 3 to 8) (size 9 to 14) (size 15 to 20)
#    0.000    2.133    2.667    0.400    3.733    0.533 
#    0.000    7.333    0.000    0.000    0.000    0.000 
#    0.000    0.000    0.000    0.000    0.000    0.000 
#
# Total GULP energy -743341.613386 kJ/mol
# GULP energy per Si atom -12389.026890 kJ/mol
# Density = 1.856842 g / cm^3
# Si number density = 18.610774 Si / 1000 Ang^3
#
#
#
# Elastic Constant Matrix: (Units=GPa)
#
#
# Indices 1 2 3 4 5 6 
#
# 1 81.0390 42.3964 44.2002 0.0000 0.0000 0.0000
# 2 42.3964 122.1245 61.2349 0.0000 0.0000 0.0000
# 3 44.2002 61.2349 116.3367 0.0000 0.0000 0.0000
# 4 0.0000 0.0000 0.0000 28.4020 0.0000 0.0000
# 5 0.0000 0.0000 0.0000 0.0000 32.8648 0.0000
# 6 0.0000 0.0000 0.0000 0.0000 0.0000 -2.1922
#
#
#
# Elastic Compliance Matrix: (Units=1/GPa)
#
#
# Indices 1 2 3 4 5 6 
#
# 1 0.016618 -0.003537 -0.004452 0.000000 0.000000 0.000000
# 2 -0.003537 0.011877 -0.004908 0.000000 0.000000 0.000000
# 3 -0.004452 -0.004908 0.012871 0.000000 0.000000 0.000000
# 4 0.000000 0.000000 0.000000 0.035209 0.000000 0.000000
# 5 0.000000 0.000000 0.000000 0.000000 0.030428 0.000000
# 6 0.000000 0.000000 0.000000 0.000000 0.000000 -0.456157
#
#
# Mechanical properties :
#
#
# Convention : Reuss Voigt Hill
#
# Bulk Modulus (GPa) = 64.21680 68.35147 66.28413
# Shear Modulus (GPa) = -15.71489 23.25951 3.77231
#
# Velocity S-wave (km/s) = -2.90900 3.53907 1.42525
# Velocity P-wave (km/s) = 4.82670 7.31482 6.19692
#
# Compressibility (1/GPa) = 0.01557225
#
# Stress axis : x y z
#
# Youngs Moduli (GPa) = 60.17427 84.19607 77.69650
#
# Poissons Ratio (x) = 0.29778 0.34593
# Poissons Ratio (y) = 0.21282 0.38132
# Poissons Ratio (z) = 0.26791 0.41322
#
# Static dielectric constant tensor:
#      x y z
#    x 3.321770 0.000000 0.000000 
#    y 0.000000 5.197190 0.000000 
#    z 0.000000 0.000000 3.971630 
# 
# 
# High freq. dielectric constant tensor:
#      x y z
#    x 1.709350 0.000000 0.000000 
#    y 0.000000 1.706630 0.000000 
#    z 0.000000 0.000000 1.739980 
# 
# From -- ./inp_files/15099.got.cif
#   From: 2010.06.25/outbox.cif.g09.slc.cpg/sg52_8_cif.got.tgz:15099.got - 2010.06.26 19:32:48.
