data_PCOD8215967
_publ_section_title
;
Structure prediction by ZEFSAII (Michael W. Deem and Ramdas Pophale) SiO2 
 PCOD8215967
Probable space group: P N N A
;
_chemical_formula_sum "Si O2"
_cell_formula_units_Z 48
_cell_length_a 9.191404
_cell_length_b 17.343340
_cell_length_c 14.374217
_cell_angle_alpha 90.000000
_cell_angle_beta 90.000000
_cell_angle_gamma 90.000000
_cell_volume 2291.388824
_symmetry_space_group_name_H-M "P N N A"
_symmetry_group_IT_number 52
_symmetry_cell_setting 'orthorhombic'
loop_
_space_group_symop_operation_xyz
x,y,z
1/2-x,-y,z
x,1/2-y,1/2-z
1/2-x,1/2+y,1/2-z
-x,-y,-z
1/2+x,y,-z
-x,1/2+y,1/2+z
1/2+x,1/2-y,1/2+z
loop_
_atom_site_type_symbol
_atom_site_label
_atom_site_fract_x
_atom_site_fract_y
_atom_site_fract_z
Si Si1 0.874973 0.593567 0.570807
Si Si2 0.366002 0.563440 0.928229
Si Si3 0.538901 0.661994 0.274514
Si Si4 0.613199 0.455639 0.867877
Si Si5 0.549885 0.576279 0.610005
Si Si6 0.634307 0.160991 0.256838
O O1 0.703387 0.612459 0.577239
O O2 0.922933 0.514348 0.621587
O O3 0.962505 0.658262 0.625621
O O4 0.922439 0.593357 0.463808
O O5 0.250000 0.500000 0.896020
O O6 0.520278 0.526735 0.905583
O O7 0.352397 0.640107 0.865725
O O8 0.343611 0.588981 0.035999
O O9 0.516792 0.750000 0.250000
O O10 0.462274 0.604371 0.201144
O O11 0.708676 0.642450 0.287758
O O12 0.750000 0.500000 0.819642
O O13 0.491811 0.610616 0.707175
O O14 0.590390 0.250000 0.250000
#
# Coordination Sequence:
#
# PCOD8215967 Si02
#       6
#     8   8   8   8   8   8
#     4  10  22  40  63  91 120 158 209 253 307 362
#     4  10  20  40  63  88 119 161 206 255 302 361
#     4  11  24  40  60  90 128 166 200 255 317 370
#     4  10  22  38  63  90 119 160 208 254 306 367
#     4  10  22  40  64  91 119 160 205 256 303 366
#     4  11  24  40  61  91 127 166 204 251 317 372
#
# _framework density 20.947994000000001
#
# number of rings (size 3 to 8) (size 9 to 14) (size 15 to 20)
#    0.000    1.667    1.667    2.000    4.667    3.333 
#    0.000    0.000    0.000    0.000    0.000    0.000 
#    0.000    0.000    0.000    0.000    0.000    0.000 
#
# Total GULP energy -595041.064649 kJ/mol
# GULP energy per Si atom -12396.688847 kJ/mol
# Density = 2.090032 g / cm^3
# Si number density = 20.947994 Si / 1000 Ang^3
#
#
#
# Elastic Constant Matrix: (Units=GPa)
#
#
# Indices 1 2 3 4 5 6 
#
# 1 117.8915 19.7621 17.0208 0.0000 0.0000 0.0000
# 2 19.7621 64.6839 27.6136 0.0000 0.0000 0.0000
# 3 17.0208 27.6136 74.6591 0.0000 0.0000 0.0000
# 4 0.0000 0.0000 0.0000 20.7576 0.0000 0.0000
# 5 0.0000 0.0000 0.0000 0.0000 30.2519 0.0000
# 6 0.0000 0.0000 0.0000 0.0000 0.0000 27.4445
#
#
#
# Elastic Compliance Matrix: (Units=1/GPa)
#
#
# Indices 1 2 3 4 5 6 
#
# 1 0.009035 -0.002234 -0.001234 0.000000 0.000000 0.000000
# 2 -0.002234 0.018911 -0.006485 0.000000 0.000000 0.000000
# 3 -0.001234 -0.006485 0.016074 0.000000 0.000000 0.000000
# 4 0.000000 0.000000 0.000000 0.048175 0.000000 0.000000
# 5 0.000000 0.000000 0.000000 0.000000 0.033056 0.000000
# 6 0.000000 0.000000 0.000000 0.000000 0.000000 0.036437
#
#
# Mechanical properties :
#
#
# Convention : Reuss Voigt Hill
#
# Bulk Modulus (GPa) = 41.46829 42.89195 42.18012
# Shear Modulus (GPa) = 26.36699 28.54667 27.45683
#
# Velocity S-wave (km/s) = 3.55165 3.69554 3.62431
# Velocity P-wave (km/s) = 6.05456 6.22328 6.13950
#
# Compressibility (1/GPa) = 0.02411481
#
# Stress axis : x y z
#
# Youngs Moduli (GPa) = 110.68172 52.87994 62.21203
#
# Poissons Ratio (x) = 0.11812 0.07675
# Poissons Ratio (y) = 0.24723 0.40345
# Poissons Ratio (z) = 0.13654 0.34293
#
# Static dielectric constant tensor:
#      x y z
#    x 4.029940 0.000000 0.000000 
#    y 0.000000 3.515090 0.000000 
#    z 0.000000 0.000000 3.865900 
# 
# 
# High freq. dielectric constant tensor:
#      x y z
#    x 1.837140 0.000000 0.000000 
#    y 0.000000 1.792100 0.000000 
#    z 0.000000 0.000000 1.827250 
# 
# From -- ./inp_files/24739.got.cif
#   From: 2010.06.25/outbox.cif.g09.slc.cpg/sg52_13_cif.got.tgz:24739.got - 2010.06.26 19:32:48.
