data_PCOD8215536
_publ_section_title
;
Structure prediction by ZEFSAII (Michael W. Deem and Ramdas Pophale) SiO2 
 PCOD8215536
Probable space group: P N N A
;
_chemical_formula_sum "Si O2"
_cell_formula_units_Z 44
_cell_length_a 17.434289
_cell_length_b 14.565812
_cell_length_c 8.187069
_cell_angle_alpha 90.000000
_cell_angle_beta 90.000000
_cell_angle_gamma 90.000000
_cell_volume 2079.061765
_symmetry_space_group_name_H-M "P N N A"
_symmetry_group_IT_number 52
_symmetry_cell_setting 'orthorhombic'
loop_
_space_group_symop_operation_xyz
x,y,z
1/2-x,-y,z
x,1/2-y,1/2-z
1/2-x,1/2+y,1/2-z
-x,-y,-z
1/2+x,y,-z
-x,1/2+y,1/2+z
1/2+x,1/2-y,1/2+z
loop_
_atom_site_type_symbol
_atom_site_label
_atom_site_fract_x
_atom_site_fract_y
_atom_site_fract_z
Si Si1 0.603860 0.911395 0.981420
Si Si2 0.850222 0.750000 0.750000
Si Si3 0.473351 0.977152 0.760315
Si Si4 0.541839 0.127652 0.550113
Si Si5 0.729346 0.596884 0.774559
Si Si6 0.892781 0.283864 0.929464
O O1 0.524668 0.912888 0.876568
O O2 0.677098 0.938895 0.874502
O O3 0.618811 0.806646 0.040042
O O4 0.595613 0.976343 0.138121
O O5 0.904615 0.785896 0.600880
O O6 0.798980 0.660425 0.705060
O O7 0.429873 0.919656 0.618425
O O8 0.535037 0.052097 0.692906
O O9 0.454693 0.155039 0.517828
O O10 0.750000 0.500000 0.861390
O O11 0.685191 0.657816 0.909313
O O12 0.919201 0.250000 0.750000
#
# Coordination Sequence:
#
# PCOD8215536 Si02
#       6
#     8   4   8   8   8   8
#     4  10  19  40  64  93 126 182 215 274 341 410
#     4  12  24  38  66 104 132 176 228 286 348 408
#     4  10  21  36  68 100 130 167 229 280 332 394
#     4  11  22  38  62 107 127 165 230 289 327 403
#     4  11  22  40  64  92 132 184 224 273 345 424
#     4  10  19  39  64  90 127 177 218 269 340 408
#
# _framework density 21.163392000000002
#
# number of rings (size 3 to 8) (size 9 to 14) (size 15 to 20)
#    0.000    1.455    6.364    2.182    2.545    1.455 
#    0.000    0.000    4.000    2.182    0.000    0.000 
#    0.000    0.000    0.000    0.000    0.000    0.000 
#
# Total GULP energy -545152.082903 kJ/mol
# GULP energy per Si atom -12389.820066 kJ/mol
# Density = 2.111522 g / cm^3
# Si number density = 21.163392 Si / 1000 Ang^3
#
#
#
# Elastic Constant Matrix: (Units=GPa)
#
#
# Indices 1 2 3 4 5 6 
#
# 1 95.9428 53.3498 38.0801 0.0000 0.0000 0.0000
# 2 53.3498 156.0927 38.8324 0.0000 0.0000 0.0000
# 3 38.0801 38.8324 75.6549 0.0000 0.0000 0.0000
# 4 0.0000 0.0000 0.0000 29.9706 0.0000 0.0000
# 5 0.0000 0.0000 0.0000 0.0000 18.1513 0.0000
# 6 0.0000 0.0000 0.0000 0.0000 0.0000 47.1834
#
#
#
# Elastic Compliance Matrix: (Units=1/GPa)
#
#
# Indices 1 2 3 4 5 6 
#
# 1 0.014623 -0.003630 -0.005497 0.000000 0.000000 0.000000
# 2 -0.003630 0.008246 -0.002405 0.000000 0.000000 0.000000
# 3 -0.005497 -0.002405 0.017219 0.000000 0.000000 0.000000
# 4 0.000000 0.000000 0.000000 0.033366 0.000000 0.000000
# 5 0.000000 0.000000 0.000000 0.000000 0.055092 0.000000
# 6 0.000000 0.000000 0.000000 0.000000 0.000000 0.021194
#
#
# Mechanical properties :
#
#
# Convention : Reuss Voigt Hill
#
# Bulk Modulus (GPa) = 58.74333 65.35723 62.05028
# Shear Modulus (GPa) = 28.01433 32.22295 30.11864
#
# Velocity S-wave (km/s) = 3.64224 3.90626 3.77656
# Velocity P-wave (km/s) = 6.74575 7.16201 6.95700
#
# Compressibility (1/GPa) = 0.01702321
#
# Stress axis : x y z
#
# Youngs Moduli (GPa) = 68.38323 121.27700 58.07454
#
# Poissons Ratio (x) = 0.44030 0.31924
# Poissons Ratio (y) = 0.24827 0.13967
# Poissons Ratio (z) = 0.37591 0.29166
#
# Static dielectric constant tensor:
#      x y z
#    x 3.693240 0.000000 0.000000 
#    y 0.000000 4.416140 0.000000 
#    z 0.000000 0.000000 3.624460 
# 
# 
# High freq. dielectric constant tensor:
#      x y z
#    x 1.808560 0.000000 0.000000 
#    y 0.000000 1.857630 0.000000 
#    z 0.000000 0.000000 1.793320 
# 
# From -- ./inp_files/11985.got.cif
#   From: 2010.06.25/outbox.cif.g09.slc.cpg/sg52_6_cif.got.tgz:11985.got - 2010.06.26 19:32:48.
