data_PCOD8215513
_publ_section_title
;
Structure prediction by ZEFSAII (Michael W. Deem and Ramdas Pophale) SiO2 
 PCOD8215513
Probable space group: P N N A
;
_chemical_formula_sum "Si O2"
_cell_formula_units_Z 28
_cell_length_a 10.063062
_cell_length_b 14.403447
_cell_length_c 9.832962
_cell_angle_alpha 90.000000
_cell_angle_beta 90.000000
_cell_angle_gamma 90.000000
_cell_volume 1425.216850
_symmetry_space_group_name_H-M "P N N A"
_symmetry_group_IT_number 52
_symmetry_cell_setting 'orthorhombic'
loop_
_space_group_symop_operation_xyz
x,y,z
1/2-x,-y,z
x,1/2-y,1/2-z
1/2-x,1/2+y,1/2-z
-x,-y,-z
1/2+x,y,-z
-x,1/2+y,1/2+z
1/2+x,1/2-y,1/2+z
loop_
_atom_site_type_symbol
_atom_site_label
_atom_site_fract_x
_atom_site_fract_y
_atom_site_fract_z
Si Si1 0.658868 0.754783 0.095573
Si Si2 0.629987 0.942885 0.516721
Si Si3 0.627407 0.181263 0.879227
Si Si4 0.250000 0.500000 0.274168
O O1 0.710816 0.750000 0.250000
O O2 0.528509 0.819813 0.080017
O O3 0.606896 0.654347 0.053373
O O4 0.781426 0.784875 0.002952
O O5 0.750000 0.000000 0.445032
O O6 0.500000 0.000000 0.500000
O O7 0.657702 0.934229 0.678697
O O8 0.649024 0.250000 0.750000
O O9 0.662653 0.072806 0.859142
#
# Coordination Sequence:
#
# PCOD8215513 Si02
#       4
#     8   8   8   4
#     4  11  23  40  62  95 129 164 212 273 318 382
#     4  10  19  38  64  90 120 168 217 259 320 383
#     4  11  22  44  65  91 130 171 214 266 325 387
#     4  10  22  40  68  88 128 176 210 262 330 382
#
# _framework density 19.646132000000001
#
# number of rings (size 3 to 8) (size 9 to 14) (size 15 to 20)
#    0.857    0.571    2.857    5.143    0.000    2.286 
#    7.714    0.000    0.000    0.000    0.000    0.000 
#    0.000    0.000    0.000    0.000    0.000    0.000 
#
# Total GULP energy -346981.340733 kJ/mol
# GULP energy per Si atom -12392.190740 kJ/mol
# Density = 1.960142 g / cm^3
# Si number density = 19.646132 Si / 1000 Ang^3
#
#
#
# Elastic Constant Matrix: (Units=GPa)
#
#
# Indices 1 2 3 4 5 6 
#
# 1 100.5127 -13.1808 39.6371 0.0000 0.0000 0.0000
# 2 -13.1808 69.4429 14.8231 0.0000 0.0000 0.0000
# 3 39.6371 14.8231 110.8805 0.0000 0.0000 0.0000
# 4 0.0000 0.0000 0.0000 31.2514 0.0000 0.0000
# 5 0.0000 0.0000 0.0000 0.0000 -25.9165 0.0000
# 6 0.0000 0.0000 0.0000 0.0000 0.0000 37.3844
#
#
#
# Elastic Compliance Matrix: (Units=1/GPa)
#
#
# Indices 1 2 3 4 5 6 
#
# 1 0.012303 0.003370 -0.004849 0.000000 0.000000 0.000000
# 2 0.003370 0.015747 -0.003310 0.000000 0.000000 0.000000
# 3 -0.004849 -0.003310 0.011194 0.000000 0.000000 0.000000
# 4 0.000000 0.000000 0.000000 0.031999 0.000000 0.000000
# 5 0.000000 0.000000 0.000000 0.000000 -0.038586 0.000000
# 6 0.000000 0.000000 0.000000 0.000000 0.000000 0.026749
#
#
# Mechanical properties :
#
#
# Convention : Reuss Voigt Hill
#
# Bulk Modulus (GPa) = 33.70696 40.37722 37.04209
# Shear Modulus (GPa) = 63.39405 24.51430 43.95418
#
# Velocity S-wave (km/s) = 5.68665 3.53624 4.73514
# Velocity P-wave (km/s) = 7.76606 6.10493 6.98505
#
# Compressibility (1/GPa) = 0.02966746
#
# Stress axis : x y z
#
# Youngs Moduli (GPa) = 81.28119 63.50611 89.33005
#
# Poissons Ratio (x) = -0.21403 0.43312
# Poissons Ratio (y) = -0.27393 0.29567
# Poissons Ratio (z) = 0.39410 0.21019
#
# Static dielectric constant tensor:
#      x y z
#    x 3.401820 0.000000 0.000000 
#    y 0.000000 3.275930 0.000000 
#    z 0.000000 0.000000 3.222490 
# 
# 
# High freq. dielectric constant tensor:
#      x y z
#    x 1.773290 0.000000 0.000000 
#    y 0.000000 1.765700 0.000000 
#    z 0.000000 0.000000 1.754330 
# 
# From -- ./inp_files/8102.got.cif
#   From: 2010.06.25/outbox.cif.g09.slc.cpg/sg52_5_cif.got.tgz:8102.got - 2010.06.26 19:32:48.
