data_PCOD8215561
_publ_section_title
;
Structure prediction by ZEFSAII (Michael W. Deem and Ramdas Pophale) SiO2 
 PCOD8215561
Probable space group: P N N A
;
_chemical_formula_sum "Si O2"
_cell_formula_units_Z 44
_cell_length_a 11.494903
_cell_length_b 18.993839
_cell_length_c 8.935236
_cell_angle_alpha 90.000000
_cell_angle_beta 90.000000
_cell_angle_gamma 90.000000
_cell_volume 1950.850957
_symmetry_space_group_name_H-M "P N N A"
_symmetry_group_IT_number 52
_symmetry_cell_setting 'orthorhombic'
loop_
_space_group_symop_operation_xyz
x,y,z
1/2-x,-y,z
x,1/2-y,1/2-z
1/2-x,1/2+y,1/2-z
-x,-y,-z
1/2+x,y,-z
-x,1/2+y,1/2+z
1/2+x,1/2-y,1/2+z
loop_
_atom_site_type_symbol
_atom_site_label
_atom_site_fract_x
_atom_site_fract_y
_atom_site_fract_z
Si Si1 0.867503 0.243677 0.029969
Si Si2 0.324377 0.855973 0.590535
Si Si3 0.558700 0.250000 0.750000
Si Si4 0.495957 0.750000 0.750000
Si Si5 0.598770 0.101107 0.722898
Si Si6 0.250000 0.000000 0.075026
Si Si7 0.658588 0.597194 0.324309
O O1 0.764211 0.299703 0.016328
O O2 0.825695 0.178355 0.128377
O O3 0.979472 0.278337 0.112596
O O4 0.915948 0.217370 0.871678
O O5 0.422046 0.814598 0.684388
O O6 0.375663 0.902340 0.454652
O O7 0.260278 0.911851 0.700298
O O8 0.631460 0.179626 0.789919
O O9 0.464911 0.081670 0.750230
O O10 0.672779 0.046460 0.816175
O O11 0.329133 0.047628 0.967743
#
# Coordination Sequence:
#
# PCOD8215561 Si02
#       7
#     8   8   4   4   8   4   8
#     4  11  22  40  70 113 145 175 237 303 357 426
#     4  12  22  43  73 110 142 188 232 296 373 418
#     4  10  19  43  70 100 146 172 227 315 340 406
#     4  12  23  37  70 114 142 182 225 307 368 418
#     4  11  26  47  72 105 146 188 242 300 354 436
#     4  12  30  48  74 102 144 208 238 292 372 428
#     4  11  25  49  69 106 148 188 247 295 351 443
#
# _framework density 22.554259999999999
#
# number of rings (size 3 to 8) (size 9 to 14) (size 15 to 20)
#    0.000    0.727    7.273    0.545   10.182    0.727 
#    0.000    1.818    0.000    0.000    0.000    0.000 
#    0.000    0.000    0.000    0.000    0.000    0.000 
#
# Total GULP energy -545530.270829 kJ/mol
# GULP energy per Si atom -12398.415246 kJ/mol
# Density = 2.250293 g / cm^3
# Si number density = 22.554260 Si / 1000 Ang^3
#
#
#
# Elastic Constant Matrix: (Units=GPa)
#
#
# Indices 1 2 3 4 5 6 
#
# 1 61.0091 -1.5586 42.9877 0.0000 0.0000 0.0000
# 2 -1.5586 49.6366 15.7747 0.0000 0.0000 0.0000
# 3 42.9877 15.7747 152.4292 0.0000 0.0000 0.0000
# 4 0.0000 0.0000 0.0000 46.2837 0.0000 0.0000
# 5 0.0000 0.0000 0.0000 0.0000 39.4532 0.0000
# 6 0.0000 0.0000 0.0000 0.0000 0.0000 20.3893
#
#
#
# Elastic Compliance Matrix: (Units=1/GPa)
#
#
# Indices 1 2 3 4 5 6 
#
# 1 0.020775 0.002600 -0.006128 0.000000 0.000000 0.000000
# 2 0.002600 0.021157 -0.002923 0.000000 0.000000 0.000000
# 3 -0.006128 -0.002923 0.008591 0.000000 0.000000 0.000000
# 4 0.000000 0.000000 0.000000 0.021606 0.000000 0.000000
# 5 0.000000 0.000000 0.000000 0.000000 0.025347 0.000000
# 6 0.000000 0.000000 0.000000 0.000000 0.000000 0.049045
#
#
# Mechanical properties :
#
#
# Convention : Reuss Voigt Hill
#
# Bulk Modulus (GPa) = 26.58050 41.94249 34.26150
# Shear Modulus (GPa) = 29.07594 34.94996 32.01295
#
# Velocity S-wave (km/s) = 3.59438 3.94076 3.77155
# Velocity P-wave (km/s) = 5.38858 6.27238 5.84720
#
# Compressibility (1/GPa) = 0.03762157
#
# Stress axis : x y z
#
# Youngs Moduli (GPa) = 48.13403 47.26589 116.39940
#
# Poissons Ratio (x) = -0.12289 0.71330
# Poissons Ratio (y) = -0.12514 0.34020
# Poissons Ratio (z) = 0.29497 0.13814
#
# Static dielectric constant tensor:
#      x y z
#    x 4.147240 0.000000 0.000000 
#    y 0.000000 3.869990 0.000000 
#    z 0.000000 0.000000 4.496020 
# 
# 
# High freq. dielectric constant tensor:
#      x y z
#    x 1.892260 0.000000 0.000000 
#    y 0.000000 1.864990 0.000000 
#    z 0.000000 0.000000 1.909150 
# 
# From -- ./inp_files/8834.got.cif
#   From: 2010.06.25/outbox.cif.g09.slc.cpg/sg52_5_cif.got.tgz:8834.got - 2010.06.26 19:32:48.
