data_PCOD8215762
_publ_section_title
;
Structure prediction by ZEFSAII (Michael W. Deem and Ramdas Pophale) SiO2 
 PCOD8215762
Probable space group: P N N A
;
_chemical_formula_sum "Si O2"
_cell_formula_units_Z 48
_cell_length_a 16.539871
_cell_length_b 5.317977
_cell_length_c 25.344335
_cell_angle_alpha 90.000000
_cell_angle_beta 90.000000
_cell_angle_gamma 90.000000
_cell_volume 2229.253582
_symmetry_space_group_name_H-M "P N N A"
_symmetry_group_IT_number 52
_symmetry_cell_setting 'orthorhombic'
loop_
_space_group_symop_operation_xyz
x,y,z
1/2-x,-y,z
x,1/2-y,1/2-z
1/2-x,1/2+y,1/2-z
-x,-y,-z
1/2+x,y,-z
-x,1/2+y,1/2+z
1/2+x,1/2-y,1/2+z
loop_
_atom_site_type_symbol
_atom_site_label
_atom_site_fract_x
_atom_site_fract_y
_atom_site_fract_z
Si Si1 0.614918 0.671088 0.685692
Si Si2 0.655799 0.993979 0.015744
Si Si3 0.344239 0.506394 0.921209
Si Si4 0.250000 0.500000 0.137706
Si Si5 0.512559 0.957548 0.350503
Si Si6 0.616687 0.192408 0.907969
Si Si7 0.051991 0.250000 0.250000
O O1 0.692418 0.851662 0.678935
O O2 0.632882 0.451792 0.645506
O O3 0.605470 0.514626 0.742861
O O4 0.528796 0.786253 0.668726
O O5 0.630958 0.232974 0.051194
O O6 0.750000 0.000000 0.004314
O O7 0.631166 0.731199 0.042489
O O8 0.609955 0.019177 0.959808
O O9 0.250000 0.500000 0.906120
O O10 0.394225 0.495267 0.866478
O O11 0.303881 0.635318 0.092763
O O12 0.465761 0.852716 0.402236
O O13 0.504838 0.764809 0.301291
#
# Coordination Sequence:
#
# PCOD8215762 Si02
#       7
#     8   8   8   4   8   8   4
#     4  10  21  39  64  93 122 172 209 270 317 380
#     4  10  22  38  62  97 135 175 209 258 322 380
#     4  10  24  42  65  97 134 168 212 270 326 391
#     4  10  20  36  64  92 130 172 216 260 304 382
#     4  10  23  41  67  88 123 170 212 271 330 383
#     4  10  22  36  64  90 133 173 218 251 311 380
#     4  10  22  42  68  84 120 166 216 270 338 378
#
# _framework density 21.531872
#
# number of rings (size 3 to 8) (size 9 to 14) (size 15 to 20)
#    0.000    2.000    0.000    2.000   12.833    1.333 
#    0.000    0.000  135.667    0.000    0.000    0.000 
#    0.000    0.000    0.000    0.000    0.000    0.000 
#
# Total GULP energy -594799.581326 kJ/mol
# GULP energy per Si atom -12391.657944 kJ/mol
# Density = 2.148286 g / cm^3
# Si number density = 21.531872 Si / 1000 Ang^3
#
#
#
# Elastic Constant Matrix: (Units=GPa)
#
#
# Indices 1 2 3 4 5 6 
#
# 1 100.5820 36.6872 57.2731 0.0000 0.0000 0.0000
# 2 36.6872 116.9200 27.4461 0.0000 0.0000 0.0000
# 3 57.2731 27.4461 88.3430 0.0000 0.0000 0.0000
# 4 0.0000 0.0000 0.0000 20.5727 0.0000 0.0000
# 5 0.0000 0.0000 0.0000 0.0000 24.5966 0.0000
# 6 0.0000 0.0000 0.0000 0.0000 0.0000 9.9554
#
#
#
# Elastic Compliance Matrix: (Units=1/GPa)
#
#
# Indices 1 2 3 4 5 6 
#
# 1 0.016623 -0.002897 -0.009876 0.000000 0.000000 0.000000
# 2 -0.002897 0.009731 -0.001145 0.000000 0.000000 0.000000
# 3 -0.009876 -0.001145 0.018078 0.000000 0.000000 0.000000
# 4 0.000000 0.000000 0.000000 0.048608 0.000000 0.000000
# 5 0.000000 0.000000 0.000000 0.000000 0.040656 0.000000
# 6 0.000000 0.000000 0.000000 0.000000 0.000000 0.100448
#
#
# Mechanical properties :
#
#
# Convention : Reuss Voigt Hill
#
# Bulk Modulus (GPa) = 60.26119 60.96196 60.61158
# Shear Modulus (GPa) = 18.69072 23.32085 21.00578
#
# Velocity S-wave (km/s) = 2.94946 3.29460 3.12680
# Velocity P-wave (km/s) = 6.29657 6.54571 6.42235
#
# Compressibility (1/GPa) = 0.01659443
#
# Stress axis : x y z
#
# Youngs Moduli (GPa) = 60.15831 102.76725 55.31561
#
# Poissons Ratio (x) = 0.29777 0.54632
# Poissons Ratio (y) = 0.17431 0.06332
# Poissons Ratio (z) = 0.59415 0.11763
#
# Static dielectric constant tensor:
#      x y z
#    x 3.663680 0.000000 0.000000 
#    y 0.000000 4.430620 0.000000 
#    z 0.000000 0.000000 3.806000 
# 
# 
# High freq. dielectric constant tensor:
#      x y z
#    x 1.818150 0.000000 0.000000 
#    y 0.000000 1.869860 0.000000 
#    z 0.000000 0.000000 1.837780 
# 
# From -- ./inp_files/40831.got.cif
#   From: 2010.06.25/outbox.cif.g09.slc.cpg/sg52_21_cif.got.tgz:40831.got - 2010.06.26 19:32:48.
