data_PCOD8215465
_publ_section_title
;
Structure prediction by ZEFSAII (Michael W. Deem and Ramdas Pophale) SiO2 
 PCOD8215465
Probable space group: P N N A
;
_chemical_formula_sum "Si O2"
_cell_formula_units_Z 24
_cell_length_a 7.437380
_cell_length_b 8.095310
_cell_length_c 14.013866
_cell_angle_alpha 90.000000
_cell_angle_beta 90.000000
_cell_angle_gamma 90.000000
_cell_volume 843.745396
_symmetry_space_group_name_H-M "P N N A"
_symmetry_group_IT_number 52
_symmetry_cell_setting 'orthorhombic'
loop_
_space_group_symop_operation_xyz
x,y,z
1/2-x,-y,z
x,1/2-y,1/2-z
1/2-x,1/2+y,1/2-z
-x,-y,-z
1/2+x,y,-z
-x,1/2+y,1/2+z
1/2+x,1/2-y,1/2+z
loop_
_atom_site_type_symbol
_atom_site_label
_atom_site_fract_x
_atom_site_fract_y
_atom_site_fract_z
Si Si1 0.807835 0.811528 0.973394
Si Si2 0.912516 0.118507 0.668745
Si Si3 0.359379 0.187941 0.644256
O O1 0.819710 0.737262 0.082075
O O2 0.750000 0.000000 0.975463
O O3 0.644520 0.705589 0.929139
O O4 0.983220 0.790993 0.908886
O O5 0.957009 0.250000 0.750000
O O6 0.750000 0.000000 0.705432
O O7 0.091499 0.007299 0.648980
O O8 0.332547 0.250000 0.750000
#
# Coordination Sequence:
#
# PCOD8215465 Si02
#       3
#     8   8   8
#     4  11  22  41  68  98 134 179 229 287 348 411
#     4  10  19  36  64  97 133 180 231 283 344 412
#     4  11  24  43  66  99 137 179 230 286 346 413
#
# _framework density 28.444597999999999
#
# number of rings (size 3 to 8) (size 9 to 14) (size 15 to 20)
#    0.000    1.333    0.000    9.000    0.000    0.000 
#    0.000   11.667    0.000    0.000    0.000    2.333 
#    0.000    0.000    0.000    0.000    0.000    0.000 
#
# Total GULP energy -297745.892447 kJ/mol
# GULP energy per Si atom -12406.078852 kJ/mol
# Density = 2.837986 g / cm^3
# Si number density = 28.444598 Si / 1000 Ang^3
#
#
#
# Elastic Constant Matrix: (Units=GPa)
#
#
# Indices 1 2 3 4 5 6 
#
# 1 145.5615 24.9452 39.2515 0.0000 0.0000 0.0000
# 2 24.9452 206.8917 60.4286 0.0000 0.0000 0.0000
# 3 39.2515 60.4286 223.4982 0.0000 0.0000 0.0000
# 4 0.0000 0.0000 0.0000 68.3040 0.0000 0.0000
# 5 0.0000 0.0000 0.0000 0.0000 -4.0023 0.0000
# 6 0.0000 0.0000 0.0000 0.0000 0.0000 26.6883
#
#
#
# Elastic Compliance Matrix: (Units=1/GPa)
#
#
# Indices 1 2 3 4 5 6 
#
# 1 0.007268 -0.000547 -0.001129 0.000000 0.000000 0.000000
# 2 -0.000547 0.005289 -0.001334 0.000000 0.000000 0.000000
# 3 -0.001129 -0.001334 0.005033 0.000000 0.000000 0.000000
# 4 0.000000 0.000000 0.000000 0.014640 0.000000 0.000000
# 5 0.000000 0.000000 0.000000 0.000000 -0.249858 0.000000
# 6 0.000000 0.000000 0.000000 0.000000 0.000000 0.037470
#
#
# Mechanical properties :
#
#
# Convention : Reuss Voigt Hill
#
# Bulk Modulus (GPa) = 86.41862 91.68911 89.05386
# Shear Modulus (GPa) = -29.36301 48.28642 9.46170
#
# Velocity S-wave (km/s) = -3.21641 4.12462 1.82581
# Velocity P-wave (km/s) = 4.08088 7.41536 5.98503
#
# Compressibility (1/GPa) = 0.01157158
#
# Stress axis : x y z
#
# Youngs Moduli (GPa) = 137.59000 189.07185 198.68055
#
# Poissons Ratio (x) = 0.10336 0.22424
# Poissons Ratio (y) = 0.07522 0.26504
# Poissons Ratio (z) = 0.15529 0.25222
#
# Static dielectric constant tensor:
#      x y z
#    x 5.895230 0.000000 0.000000 
#    y 0.000000 5.507020 0.000000 
#    z 0.000000 0.000000 5.260270 
# 
# 
# High freq. dielectric constant tensor:
#      x y z
#    x 2.204480 0.000000 0.000000 
#    y 0.000000 2.179290 0.000000 
#    z 0.000000 0.000000 2.166690 
# 
# From -- ./inp_files/17403.got.cif
#   From: 2010.06.25/outbox.cif.g09.slc.cpg/sg52_9_cif.got.tgz:17403.got - 2010.06.26 19:32:48.
