data_PCOD8215127
_publ_section_title
;
Structure prediction by ZEFSAII (Michael W. Deem and Ramdas Pophale) SiO2 
 PCOD8215127
Probable space group: P N N A
;
_chemical_formula_sum "Si O2"
_cell_formula_units_Z 60
_cell_length_a 16.471806
_cell_length_b 28.449894
_cell_length_c 6.697999
_cell_angle_alpha 90.000000
_cell_angle_beta 90.000000
_cell_angle_gamma 90.000000
_cell_volume 3138.823892
_symmetry_space_group_name_H-M "P N N A"
_symmetry_group_IT_number 52
_symmetry_cell_setting 'orthorhombic'
loop_
_space_group_symop_operation_xyz
x,y,z
1/2-x,-y,z
x,1/2-y,1/2-z
1/2-x,1/2+y,1/2-z
-x,-y,-z
1/2+x,y,-z
-x,1/2+y,1/2+z
1/2+x,1/2-y,1/2+z
loop_
_atom_site_type_symbol
_atom_site_label
_atom_site_fract_x
_atom_site_fract_y
_atom_site_fract_z
Si Si1 0.332889 0.885062 0.174462
Si Si2 0.119486 0.671765 0.036929
Si Si3 0.162638 0.750000 0.750000
Si Si4 0.135085 0.438827 0.721208
Si Si5 0.929575 0.472970 0.113770
Si Si6 0.719367 0.580684 0.999869
Si Si7 0.732691 0.706201 0.629661
Si Si8 0.973461 0.611456 0.957359
O O1 0.271780 0.918679 0.297345
O O2 0.292074 0.837448 0.102259
O O3 0.406686 0.867016 0.311489
O O4 0.366733 0.916725 0.996526
O O5 0.183619 0.632755 0.960051
O O6 0.150441 0.691661 0.250241
O O7 0.109481 0.712984 0.874296
O O8 0.029404 0.651095 0.058151
O O9 0.217595 0.721265 0.596146
O O10 0.107004 0.493957 0.710517
O O11 0.225036 0.433628 0.812339
O O12 0.069030 0.413575 0.857735
O O13 0.971827 0.424149 0.180368
O O14 0.852593 0.457789 0.974098
O O15 0.000000 0.500000 0.000000
O O16 0.773188 0.750000 0.750000
#
# Coordination Sequence:
#
# PCOD8215127 Si02
#       8
#     8   8   4   8   8   8   8   8
#     4  10  20  35  57  81 108 147 187 227 279 333
#     4   9  18  34  55  78 105 142 183 223 277 331
#     4  10  18  32  58  80 106 138 182 228 272 336
#     4  10  19  33  54  80 108 143 186 227 275 331
#     4   9  18  35  54  75 108 147 180 223 279 323
#     4   9  18  35  55  76 105 141 183 234 276 323
#     4   9  19  35  57  82 107 140 186 230 274 331
#     4   9  20  36  53  75 113 147 177 227 275 326
#
# _framework density 19.11544
#
# number of rings (size 3 to 8) (size 9 to 14) (size 15 to 20)
#    0.000    2.667    0.000    1.200    0.000    2.667 
#    1.200   14.667    0.000    0.000    0.000    0.000 
#    0.000    0.000    0.000    0.000    0.000    0.000 
#
# Total GULP energy -743445.150340 kJ/mol
# GULP energy per Si atom -12390.752506 kJ/mol
# Density = 1.907193 g / cm^3
# Si number density = 19.115440 Si / 1000 Ang^3
#
#
#
# Elastic Constant Matrix: (Units=GPa)
#
#
# Indices 1 2 3 4 5 6 
#
# 1 104.2589 42.7203 39.1826 0.0000 0.0000 0.0000
# 2 42.7203 96.0106 41.3032 0.0000 0.0000 0.0000
# 3 39.1826 41.3032 92.2488 0.0000 0.0000 0.0000
# 4 0.0000 0.0000 0.0000 28.7031 0.0000 0.0000
# 5 0.0000 0.0000 0.0000 0.0000 8.6572 0.0000
# 6 0.0000 0.0000 0.0000 0.0000 0.0000 26.3151
#
#
#
# Elastic Compliance Matrix: (Units=1/GPa)
#
#
# Indices 1 2 3 4 5 6 
#
# 1 0.012588 -0.004089 -0.003516 0.000000 0.000000 0.000000
# 2 -0.004089 0.014228 -0.004634 0.000000 0.000000 0.000000
# 3 -0.003516 -0.004634 0.014409 0.000000 0.000000 0.000000
# 4 0.000000 0.000000 0.000000 0.034839 0.000000 0.000000
# 5 0.000000 0.000000 0.000000 0.000000 0.115511 0.000000
# 6 0.000000 0.000000 0.000000 0.000000 0.000000 0.038001
#
#
# Mechanical properties :
#
#
# Convention : Reuss Voigt Hill
#
# Bulk Modulus (GPa) = 59.70990 59.88115 59.79553
# Shear Modulus (GPa) = 19.25767 24.02255 21.64011
#
# Velocity S-wave (km/s) = 3.17746 3.54886 3.36828
# Velocity P-wave (km/s) = 6.69074 6.94165 6.81735
#
# Compressibility (1/GPa) = 0.01674764
#
# Stress axis : x y z
#
# Youngs Moduli (GPa) = 79.43905 70.28298 69.40324
#
# Poissons Ratio (x) = 0.28735 0.24404
# Poissons Ratio (y) = 0.32479 0.32161
# Poissons Ratio (z) = 0.27933 0.32568
#
# Static dielectric constant tensor:
#      x y z
#    x 3.611420 0.000000 0.000000 
#    y 0.000000 3.847430 0.000000 
#    z 0.000000 0.000000 3.221330 
# 
# 
# High freq. dielectric constant tensor:
#      x y z
#    x 1.743020 0.000000 0.000000 
#    y 0.000000 1.755770 0.000000 
#    z 0.000000 0.000000 1.715710 
# 
# From -- ./inp_files/3657.got.cif
#   From: 2010.06.25/outbox.cif.g09.slc.cpg/sg52_2_cif.got.tgz:3657.got - 2010.06.26 19:32:48.
