data_PCOD8215829
_publ_section_title
;
Structure prediction by ZEFSAII (Michael W. Deem and Ramdas Pophale) SiO2 
 PCOD8215829
Probable space group: P N N A
;
_chemical_formula_sum "Si O2"
_cell_formula_units_Z 40
_cell_length_a 17.758427
_cell_length_b 10.469642
_cell_length_c 10.433309
_cell_angle_alpha 90.000000
_cell_angle_beta 90.000000
_cell_angle_gamma 90.000000
_cell_volume 1939.806436
_symmetry_space_group_name_H-M "P N N A"
_symmetry_group_IT_number 52
_symmetry_cell_setting 'orthorhombic'
loop_
_space_group_symop_operation_xyz
x,y,z
1/2-x,-y,z
x,1/2-y,1/2-z
1/2-x,1/2+y,1/2-z
-x,-y,-z
1/2+x,y,-z
-x,1/2+y,1/2+z
1/2+x,1/2-y,1/2+z
loop_
_atom_site_type_symbol
_atom_site_label
_atom_site_fract_x
_atom_site_fract_y
_atom_site_fract_z
Si Si1 0.975528 0.554616 0.302396
Si Si2 0.932513 0.167526 0.016313
Si Si3 0.144539 0.102346 0.603685
Si Si4 0.806738 0.310806 0.117524
Si Si5 0.551421 0.157524 0.644668
O O1 0.934345 0.467527 0.409334
O O2 0.912321 0.630725 0.221421
O O3 0.030117 0.654304 0.375925
O O4 0.028210 0.477016 0.205313
O O5 0.846745 0.222542 0.007707
O O6 0.976207 0.274675 0.096118
O O7 0.216381 0.195931 0.611264
O O8 0.109041 0.133638 0.467819
O O9 0.167058 0.955510 0.607458
O O10 0.835316 0.250000 0.250000
O O11 0.590641 0.250000 0.750000
#
# Coordination Sequence:
#
# PCOD8215829 Si02
#       5
#     8   8   8   8   8
#     4  10  20  37  65  95 120 166 218 260 323 392
#     4  10  20  38  63  93 128 161 206 267 327 371
#     4  11  23  38  63  94 122 172 218 258 327 396
#     4  11  22  41  60  90 137 166 206 276 323 377
#     4  10  21  41  61  88 130 159 213 277 314 381
#
# _framework density 20.620615000000001
#
# number of rings (size 3 to 8) (size 9 to 14) (size 15 to 20)
#    0.000    1.600    4.000    1.200    2.800    0.000 
#    0.000    4.000    0.000    0.000    0.000    0.000 
#    0.000    0.000    0.000    0.000    0.000    0.000 
#
# Total GULP energy -495962.234020 kJ/mol
# GULP energy per Si atom -12399.055850 kJ/mol
# Density = 2.057368 g / cm^3
# Si number density = 20.620615 Si / 1000 Ang^3
#
#
#
# Elastic Constant Matrix: (Units=GPa)
#
#
# Indices 1 2 3 4 5 6 
#
# 1 147.9046 55.9893 84.9300 0.0000 0.0000 0.0000
# 2 55.9893 67.9212 41.9586 0.0000 0.0000 0.0000
# 3 84.9300 41.9586 132.2833 0.0000 0.0000 0.0000
# 4 0.0000 0.0000 0.0000 40.0411 0.0000 0.0000
# 5 0.0000 0.0000 0.0000 0.0000 36.2375 0.0000
# 6 0.0000 0.0000 0.0000 0.0000 0.0000 29.3617
#
#
#
# Elastic Compliance Matrix: (Units=1/GPa)
#
#
# Indices 1 2 3 4 5 6 
#
# 1 0.012833 -0.006826 -0.006074 0.000000 0.000000 0.000000
# 2 -0.006826 0.021942 -0.002577 0.000000 0.000000 0.000000
# 3 -0.006074 -0.002577 0.012277 0.000000 0.000000 0.000000
# 4 0.000000 0.000000 0.000000 0.024974 0.000000 0.000000
# 5 0.000000 0.000000 0.000000 0.000000 0.027596 0.000000
# 6 0.000000 0.000000 0.000000 0.000000 0.000000 0.034058
#
#
# Mechanical properties :
#
#
# Convention : Reuss Voigt Hill
#
# Bulk Modulus (GPa) = 62.12334 79.31834 70.72084
# Shear Modulus (GPa) = 29.41173 32.14348 30.77760
#
# Velocity S-wave (km/s) = 3.78077 3.95245 3.86756
# Velocity P-wave (km/s) = 7.01792 7.70573 7.36985
#
# Compressibility (1/GPa) = 0.01609701
#
# Stress axis : x y z
#
# Youngs Moduli (GPa) = 77.92367 45.57448 81.45577
#
# Poissons Ratio (x) = 0.31111 0.49476
# Poissons Ratio (y) = 0.53194 0.20991
# Poissons Ratio (z) = 0.47331 0.11744
#
# Static dielectric constant tensor:
#      x y z
#    x 3.819790 0.000000 0.000000 
#    y 0.000000 3.991980 0.000000 
#    z 0.000000 0.000000 3.770060 
# 
# 
# High freq. dielectric constant tensor:
#      x y z
#    x 1.791780 0.000000 0.000000 
#    y 0.000000 1.814450 0.000000 
#    z 0.000000 0.000000 1.800630 
# 
# From -- ./inp_files/11598.got.cif
#   From: 2010.06.25/outbox.cif.g09.slc.cpg/sg52_6_cif.got.tgz:11598.got - 2010.06.26 19:32:48.
