data_PCOD8215491
_publ_section_title
;
Structure prediction by ZEFSAII (Michael W. Deem and Ramdas Pophale) SiO2 
 PCOD8215491
Probable space group: P N N A
;
_chemical_formula_sum "Si O2"
_cell_formula_units_Z 48
_cell_length_a 14.447215
_cell_length_b 18.593244
_cell_length_c 8.891298
_cell_angle_alpha 90.000000
_cell_angle_beta 90.000000
_cell_angle_gamma 90.000000
_cell_volume 2388.385747
_symmetry_space_group_name_H-M "P N N A"
_symmetry_group_IT_number 52
_symmetry_cell_setting 'orthorhombic'
loop_
_space_group_symop_operation_xyz
x,y,z
1/2-x,-y,z
x,1/2-y,1/2-z
1/2-x,1/2+y,1/2-z
-x,-y,-z
1/2+x,y,-z
-x,1/2+y,1/2+z
1/2+x,1/2-y,1/2+z
loop_
_atom_site_type_symbol
_atom_site_label
_atom_site_fract_x
_atom_site_fract_y
_atom_site_fract_z
Si Si1 0.500492 0.482732 0.764139
Si Si2 0.629609 0.810042 0.624739
Si Si3 0.687356 0.933294 0.154515
Si Si4 0.051613 0.112377 0.528527
Si Si5 0.735027 0.312226 0.136168
Si Si6 0.678253 0.941824 0.819402
O O1 0.421296 0.450911 0.658422
O O2 0.452149 0.542806 0.866477
O O3 0.578726 0.519900 0.663014
O O4 0.545322 0.417173 0.858752
O O5 0.614222 0.750000 0.750000
O O6 0.530543 0.831351 0.558094
O O7 0.695932 0.781371 0.491690
O O8 0.678176 0.879141 0.697717
O O9 0.708165 0.869843 0.268507
O O10 0.750000 0.000000 0.204767
O O11 0.709916 0.911829 0.982080
O O12 0.146573 0.154342 0.554449
O O13 0.702558 0.250000 0.250000
O O14 0.750000 0.000000 0.756229
#
# Coordination Sequence:
#
# PCOD8215491 Si02
#       6
#     8   8   8   8   8   8
#     4  10  19  37  63  95 120 159 198 256 307 361
#     4  11  23  42  61  85 124 165 203 253 310 368
#     4  11  21  38  62  93 123 158 203 253 307 369
#     4  10  21  37  64  93 119 155 208 250 307 366
#     4  12  24  40  63  88 124 166 210 255 309 371
#     4  10  22  37  62  93 127 159 202 254 309 364
#
# _framework density 20.097256000000002
#
# number of rings (size 3 to 8) (size 9 to 14) (size 15 to 20)
#    0.000    1.333    3.333    3.000    0.000    0.667 
#    0.000    0.833    0.000    0.000    0.000    0.000 
#    0.000    0.000    0.000    0.000    0.000    0.000 
#
# Total GULP energy -595313.565952 kJ/mol
# GULP energy per Si atom -12402.365957 kJ/mol
# Density = 2.005151 g / cm^3
# Si number density = 20.097256 Si / 1000 Ang^3
#
#
#
# Elastic Constant Matrix: (Units=GPa)
#
#
# Indices 1 2 3 4 5 6 
#
# 1 82.6218 27.4292 20.1200 0.0000 0.0000 0.0000
# 2 27.4292 72.1960 26.0994 0.0000 0.0000 0.0000
# 3 20.1200 26.0994 78.1416 0.0000 0.0000 0.0000
# 4 0.0000 0.0000 0.0000 14.1444 0.0000 0.0000
# 5 0.0000 0.0000 0.0000 0.0000 -100.1572 0.0000
# 6 0.0000 0.0000 0.0000 0.0000 0.0000 23.3000
#
#
#
# Elastic Compliance Matrix: (Units=1/GPa)
#
#
# Indices 1 2 3 4 5 6 
#
# 1 0.014147 -0.004615 -0.002101 0.000000 0.000000 0.000000
# 2 -0.004615 0.017259 -0.004576 0.000000 0.000000 0.000000
# 3 -0.002101 -0.004576 0.014867 0.000000 0.000000 0.000000
# 4 0.000000 0.000000 0.000000 0.070699 0.000000 0.000000
# 5 0.000000 0.000000 0.000000 0.000000 -0.009984 0.000000
# 6 0.000000 0.000000 0.000000 0.000000 0.000000 0.042918
#
#
# Mechanical properties :
#
#
# Convention : Reuss Voigt Hill
#
# Bulk Modulus (GPa) = 42.21600 42.25074 42.23337
# Shear Modulus (GPa) = 27.71809 -1.92184 12.89813
#
# Velocity S-wave (km/s) = 3.71778 -0.97895 2.53610
# Velocity P-wave (km/s) = 6.28337 4.44871 5.44388
#
# Compressibility (1/GPa) = 0.02368770
#
# Stress axis : x y z
#
# Youngs Moduli (GPa) = 70.68520 57.94080 67.26435
#
# Poissons Ratio (x) = 0.26742 0.14133
# Poissons Ratio (y) = 0.32624 0.30781
# Poissons Ratio (z) = 0.14852 0.26515
#
# Static dielectric constant tensor:
#      x y z
#    x 3.622060 0.000000 0.000000 
#    y 0.000000 3.559740 0.000000 
#    z 0.000000 0.000000 3.549660 
# 
# 
# High freq. dielectric constant tensor:
#      x y z
#    x 1.791940 0.000000 0.000000 
#    y 0.000000 1.774610 0.000000 
#    z 0.000000 0.000000 1.788040 
# 
# From -- ./inp_files/10442.got.cif
#   From: 2010.06.25/outbox.cif.g09.slc.cpg/sg52_6_cif.got.tgz:10442.got - 2010.06.26 19:32:48.
