data_PCOD8215684
_publ_section_title
;
Structure prediction by ZEFSAII (Michael W. Deem and Ramdas Pophale) SiO2 
 PCOD8215684
Probable space group: P N N A
;
_chemical_formula_sum "Si O2"
_cell_formula_units_Z 48
_cell_length_a 17.381068
_cell_length_b 19.327559
_cell_length_c 7.484215
_cell_angle_alpha 90.000000
_cell_angle_beta 90.000000
_cell_angle_gamma 90.000000
_cell_volume 2514.199417
_symmetry_space_group_name_H-M "P N N A"
_symmetry_group_IT_number 52
_symmetry_cell_setting 'orthorhombic'
loop_
_space_group_symop_operation_xyz
x,y,z
1/2-x,-y,z
x,1/2-y,1/2-z
1/2-x,1/2+y,1/2-z
-x,-y,-z
1/2+x,y,-z
-x,1/2+y,1/2+z
1/2+x,1/2-y,1/2+z
loop_
_atom_site_type_symbol
_atom_site_label
_atom_site_fract_x
_atom_site_fract_y
_atom_site_fract_z
Si Si1 0.602675 0.455492 0.615677
Si Si2 0.285311 0.827217 0.445277
Si Si3 0.334109 0.526994 0.018328
Si Si4 0.700730 0.326595 0.543957
Si Si5 0.072168 0.954913 0.781272
Si Si6 0.172638 0.672004 0.751764
O O1 0.655693 0.488730 0.770606
O O2 0.628967 0.379584 0.544644
O O3 0.518880 0.451416 0.703411
O O4 0.608886 0.506373 0.449482
O O5 0.342653 0.889453 0.500372
O O6 0.325699 0.753340 0.492202
O O7 0.260038 0.830675 0.238594
O O8 0.206643 0.839906 0.551611
O O9 0.250000 0.500000 0.956872
O O10 0.400778 0.493062 0.899317
O O11 0.762203 0.346521 0.393932
O O12 0.100072 0.876207 0.780659
O O13 0.142027 0.750000 0.750000
#
# Coordination Sequence:
#
# PCOD8215684 Si02
#       6
#     8   8   8   8   8   8
#     4  10  24  38  57  85 118 154 183 243 289 349
#     4   9  18  34  54  88 107 141 192 237 270 328
#     4  11  21  35  62  86 109 152 197 235 285 339
#     4   9  19  35  57  81 112 145 192 231 277 338
#     4  11  23  39  55  85 122 146 190 238 298 341
#     4  10  20  35  57  83 111 148 188 237 278 335
#
# _framework density 19.091564000000002
#
# number of rings (size 3 to 8) (size 9 to 14) (size 15 to 20)
#    0.000    2.000    1.667    1.500    4.667    0.000 
#    6.000    0.000    0.000    0.000   13.000    0.000 
#    0.000    0.000    0.000    0.000    0.000    0.000 
#
# Total GULP energy -594968.259591 kJ/mol
# GULP energy per Si atom -12395.172075 kJ/mol
# Density = 1.904811 g / cm^3
# Si number density = 19.091564 Si / 1000 Ang^3
#
#
#
# Elastic Constant Matrix: (Units=GPa)
#
#
# Indices 1 2 3 4 5 6 
#
# 1 55.7537 43.2540 22.0699 0.0000 0.0000 0.0000
# 2 43.2540 123.5469 42.8966 0.0000 0.0000 0.0000
# 3 22.0699 42.8966 80.1532 0.0000 0.0000 0.0000
# 4 0.0000 0.0000 0.0000 28.7513 0.0000 0.0000
# 5 0.0000 0.0000 0.0000 0.0000 27.6094 0.0000
# 6 0.0000 0.0000 0.0000 0.0000 0.0000 29.1814
#
#
#
# Elastic Compliance Matrix: (Units=1/GPa)
#
#
# Indices 1 2 3 4 5 6 
#
# 1 0.025095 -0.007844 -0.002712 0.000000 0.000000 0.000000
# 2 -0.007844 0.012393 -0.004473 0.000000 0.000000 0.000000
# 3 -0.002712 -0.004473 0.015617 0.000000 0.000000 0.000000
# 4 0.000000 0.000000 0.000000 0.034781 0.000000 0.000000
# 5 0.000000 0.000000 0.000000 0.000000 0.036219 0.000000
# 6 0.000000 0.000000 0.000000 0.000000 0.000000 0.034268
#
#
# Mechanical properties :
#
#
# Convention : Reuss Voigt Hill
#
# Bulk Modulus (GPa) = 43.38893 52.87719 48.13306
# Shear Modulus (GPa) = 25.49536 27.19065 26.34301
#
# Velocity S-wave (km/s) = 3.65831 3.77798 3.71863
# Velocity P-wave (km/s) = 6.37342 6.84015 6.61090
#
# Compressibility (1/GPa) = 0.02304735
#
# Stress axis : x y z
#
# Youngs Moduli (GPa) = 39.84841 80.68809 64.03466
#
# Poissons Ratio (x) = 0.63294 0.17364
# Poissons Ratio (y) = 0.31258 0.28642
# Poissons Ratio (z) = 0.10806 0.36090
#
# Static dielectric constant tensor:
#      x y z
#    x 3.098530 0.000000 0.000000 
#    y 0.000000 3.846850 0.000000 
#    z 0.000000 0.000000 3.731380 
# 
# 
# High freq. dielectric constant tensor:
#      x y z
#    x 1.700930 0.000000 0.000000 
#    y 0.000000 1.759840 0.000000 
#    z 0.000000 0.000000 1.760820 
# 
# From -- ./inp_files/10642.got.cif
#   From: 2010.06.25/outbox.cif.g09.slc.cpg/sg52_6_cif.got.tgz:10642.got - 2010.06.26 19:32:48.
