data_PCOD8215444
_publ_section_title
;
Structure prediction by ZEFSAII (Michael W. Deem and Ramdas Pophale) SiO2 
 PCOD8215444
Probable space group: P N N A
;
_chemical_formula_sum "Si O2"
_cell_formula_units_Z 64
_cell_length_a 8.702262
_cell_length_b 17.866755
_cell_length_c 20.297889
_cell_angle_alpha 90.000000
_cell_angle_beta 90.000000
_cell_angle_gamma 90.000000
_cell_volume 3155.939796
_symmetry_space_group_name_H-M "P N N A"
_symmetry_group_IT_number 52
_symmetry_cell_setting 'orthorhombic'
loop_
_space_group_symop_operation_xyz
x,y,z
1/2-x,-y,z
x,1/2-y,1/2-z
1/2-x,1/2+y,1/2-z
-x,-y,-z
1/2+x,y,-z
-x,1/2+y,1/2+z
1/2+x,1/2-y,1/2+z
loop_
_atom_site_type_symbol
_atom_site_label
_atom_site_fract_x
_atom_site_fract_y
_atom_site_fract_z
Si Si1 0.799319 0.923102 0.684204
Si Si2 0.320053 0.199929 0.077867
Si Si3 0.848293 0.130777 0.558642
Si Si4 0.659667 0.579079 0.195332
Si Si5 0.400921 0.330194 0.279521
Si Si6 0.207666 0.412858 0.674925
Si Si7 0.669086 0.320724 0.450669
Si Si8 0.705048 0.151636 0.428628
O O1 0.731048 0.924156 0.610424
O O2 0.721081 0.857364 0.725690
O O3 0.981547 0.922628 0.678827
O O4 0.750000 0.000000 0.719252
O O5 0.281159 0.287193 0.073413
O O6 0.300487 0.177194 0.153755
O O7 0.488376 0.179996 0.053399
O O8 0.211506 0.155230 0.025891
O O9 0.800846 0.107110 0.484462
O O10 0.029742 0.127770 0.565192
O O11 0.750000 0.500000 0.193462
O O12 0.676584 0.615459 0.268060
O O13 0.740164 0.632647 0.143708
O O14 0.463485 0.250000 0.250000
O O15 0.538325 0.389241 0.295936
O O16 0.250000 0.500000 0.664941
O O17 0.240316 0.375551 0.604412
O O18 0.737505 0.239310 0.436173
#
# Coordination Sequence:
#
# PCOD8215444 Si02
#       8
#     8   8   8   8   8   8   8   8
#     4  12  24  40  61  89 124 164 206 266 325 386
#     4   9  19  37  61  91 121 165 209 262 316 378
#     4  10  19  36  58  86 123 162 209 260 320 376
#     4  11  24  40  58  87 124 164 210 260 316 382
#     4  11  22  42  69  92 127 176 221 266 330 393
#     4  10  22  41  63  91 128 170 211 263 325 391
#     4   9  20  36  60  88 122 162 204 258 315 377
#     4  10  20  36  59  88 120 163 211 261 314 378
#
# _framework density 20.279219999999999
#
# number of rings (size 3 to 8) (size 9 to 14) (size 15 to 20)
#    0.000    1.750    1.250    3.750    3.500    2.500 
#    2.250    5.625    0.000    0.000    0.000    0.000 
#    0.000    0.000    0.000    0.000    0.000    0.000 
#
# Total GULP energy -793055.972637 kJ/mol
# GULP energy per Si atom -12391.499572 kJ/mol
# Density = 2.023306 g / cm^3
# Si number density = 20.279220 Si / 1000 Ang^3
#
#
#
# Elastic Constant Matrix: (Units=GPa)
#
#
# Indices 1 2 3 4 5 6 
#
# 1 80.0167 41.5851 31.5291 0.0000 0.0000 0.0000
# 2 41.5851 68.9227 33.2707 0.0000 0.0000 0.0000
# 3 31.5291 33.2707 136.6777 0.0000 0.0000 0.0000
# 4 0.0000 0.0000 0.0000 28.9190 0.0000 0.0000
# 5 0.0000 0.0000 0.0000 0.0000 47.3440 0.0000
# 6 0.0000 0.0000 0.0000 0.0000 0.0000 24.8224
#
#
#
# Elastic Compliance Matrix: (Units=1/GPa)
#
#
# Indices 1 2 3 4 5 6 
#
# 1 0.018574 -0.010355 -0.001764 0.000000 0.000000 0.000000
# 2 -0.010355 0.022214 -0.003019 0.000000 0.000000 0.000000
# 3 -0.001764 -0.003019 0.008458 0.000000 0.000000 0.000000
# 4 0.000000 0.000000 0.000000 0.034579 0.000000 0.000000
# 5 0.000000 0.000000 0.000000 0.000000 0.021122 0.000000
# 6 0.000000 0.000000 0.000000 0.000000 0.000000 0.040286
#
#
# Mechanical properties :
#
#
# Convention : Reuss Voigt Hill
#
# Bulk Modulus (GPa) = 52.71331 55.37632 54.04481
# Shear Modulus (GPa) = 27.49764 32.16589 29.83177
#
# Velocity S-wave (km/s) = 3.68632 3.98697 3.83959
# Velocity P-wave (km/s) = 6.64596 6.96856 6.80917
#
# Compressibility (1/GPa) = 0.01897054
#
# Stress axis : x y z
#
# Youngs Moduli (GPa) = 53.83809 45.01617 118.22817
#
# Poissons Ratio (x) = 0.46616 0.20855
# Poissons Ratio (y) = 0.55752 0.35689
# Poissons Ratio (z) = 0.09497 0.13589
#
# Static dielectric constant tensor:
#      x y z
#    x 3.690130 0.000000 0.000000 
#    y 0.000000 3.617310 0.000000 
#    z 0.000000 0.000000 4.168490 
# 
# 
# High freq. dielectric constant tensor:
#      x y z
#    x 1.784930 0.000000 0.000000 
#    y 0.000000 1.771750 0.000000 
#    z 0.000000 0.000000 1.815380 
# 
# From -- ./inp_files/36177.got.cif
#   From: 2010.06.25/outbox.cif.g09.slc.cpg/sg52_19_cif.got.tgz:36177.got - 2010.06.26 19:32:48.
