data_PCOD8215888
_publ_section_title
;
Structure prediction by ZEFSAII (Michael W. Deem and Ramdas Pophale) SiO2 
 PCOD8215888
Probable space group: P N N A
;
_chemical_formula_sum "Si O2"
_cell_formula_units_Z 48
_cell_length_a 18.862232
_cell_length_b 8.159122
_cell_length_c 14.409346
_cell_angle_alpha 90.000000
_cell_angle_beta 90.000000
_cell_angle_gamma 90.000000
_cell_volume 2217.587572
_symmetry_space_group_name_H-M "P N N A"
_symmetry_group_IT_number 52
_symmetry_cell_setting 'orthorhombic'
loop_
_space_group_symop_operation_xyz
x,y,z
1/2-x,-y,z
x,1/2-y,1/2-z
1/2-x,1/2+y,1/2-z
-x,-y,-z
1/2+x,y,-z
-x,1/2+y,1/2+z
1/2+x,1/2-y,1/2+z
loop_
_atom_site_type_symbol
_atom_site_label
_atom_site_fract_x
_atom_site_fract_y
_atom_site_fract_z
Si Si1 0.203107 0.735992 0.025606
Si Si2 0.642950 0.120490 0.527220
Si Si3 0.324045 0.420498 0.301044
Si Si4 0.416369 0.896681 0.677740
Si Si5 0.447542 0.904131 0.300567
Si Si6 0.802008 0.355618 0.168788
O O1 0.288083 0.733849 0.041109
O O2 0.164923 0.565697 0.050041
O O3 0.172044 0.882988 0.088074
O O4 0.185071 0.767487 0.917131
O O5 0.609087 0.151269 0.425651
O O6 0.583922 0.164011 0.602957
O O7 0.250000 0.500000 0.271197
O O8 0.331091 0.250000 0.250000
O O9 0.387067 0.538232 0.270861
O O10 0.402680 0.750000 0.750000
O O11 0.498521 0.947473 0.679276
O O12 0.372495 0.058518 0.708418
O O13 0.485393 0.750000 0.250000
O O14 0.750000 0.500000 0.131532
O O15 0.765802 0.250000 0.250000
#
# Coordination Sequence:
#
# PCOD8215888 Si02
#       6
#     8   8   8   8   8   8
#     4  10  20  38  64  96 125 165 224 261 340 391
#     4  10  20  41  67  90 128 177 212 271 332 410
#     4  12  23  38  65  99 136 171 216 277 331 405
#     4  11  24  44  67  95 127 177 231 273 331 399
#     4  12  25  43  64  96 135 178 220 271 336 402
#     4  11  22  41  68  92 128 171 220 282 333 394
#
# _framework density 21.645142
#
# number of rings (size 3 to 8) (size 9 to 14) (size 15 to 20)
#    0.000    1.000    5.000    4.500    0.000    0.667 
#    3.000    0.833    0.000    0.000    0.000    0.000 
#    0.000    0.000    0.000    0.000    0.000    0.000 
#
# Total GULP energy -595110.762989 kJ/mol
# GULP energy per Si atom -12398.140896 kJ/mol
# Density = 2.159588 g / cm^3
# Si number density = 21.645142 Si / 1000 Ang^3
#
#
#
# Elastic Constant Matrix: (Units=GPa)
#
#
# Indices 1 2 3 4 5 6 
#
# 1 101.1710 14.8572 39.0077 0.0000 0.0000 0.0000
# 2 14.8572 47.7571 46.5943 0.0000 0.0000 0.0000
# 3 39.0077 46.5943 152.2034 0.0000 0.0000 0.0000
# 4 0.0000 0.0000 0.0000 34.3091 0.0000 0.0000
# 5 0.0000 0.0000 0.0000 0.0000 23.4312 0.0000
# 6 0.0000 0.0000 0.0000 0.0000 0.0000 20.9838
#
#
#
# Elastic Compliance Matrix: (Units=1/GPa)
#
#
# Indices 1 2 3 4 5 6 
#
# 1 0.010999 -0.000957 -0.002526 0.000000 0.000000 0.000000
# 2 -0.000957 0.029940 -0.008920 0.000000 0.000000 0.000000
# 3 -0.002526 -0.008920 0.009948 0.000000 0.000000 0.000000
# 4 0.000000 0.000000 0.000000 0.029147 0.000000 0.000000
# 5 0.000000 0.000000 0.000000 0.000000 0.042678 0.000000
# 6 0.000000 0.000000 0.000000 0.000000 0.000000 0.047656
#
#
# Mechanical properties :
#
#
# Convention : Reuss Voigt Hill
#
# Bulk Modulus (GPa) = 38.34319 55.78333 47.06326
# Shear Modulus (GPa) = 24.52565 29.12298 26.82431
#
# Velocity S-wave (km/s) = 3.36978 3.67205 3.52415
# Velocity P-wave (km/s) = 5.73528 6.61863 6.19273
#
# Compressibility (1/GPa) = 0.02608025
#
# Stress axis : x y z
#
# Youngs Moduli (GPa) = 90.92001 33.39987 100.52030
#
# Poissons Ratio (x) = 0.03198 0.25388
# Poissons Ratio (y) = 0.08705 0.89667
# Poissons Ratio (z) = 0.22964 0.29794
#
# Static dielectric constant tensor:
#      x y z
#    x 3.900200 0.000000 0.000000 
#    y 0.000000 3.769980 0.000000 
#    z 0.000000 0.000000 4.202180 
# 
# 
# High freq. dielectric constant tensor:
#      x y z
#    x 1.840950 0.000000 0.000000 
#    y 0.000000 1.832540 0.000000 
#    z 0.000000 0.000000 1.866240 
# 
# From -- ./inp_files/28063.got.cif
#   From: 2010.06.25/outbox.cif.g09.slc.cpg/sg52_15_cif.got.tgz:28063.got - 2010.06.26 19:32:48.
