data_PCOD8215458
_publ_section_title
;
Structure prediction by ZEFSAII (Michael W. Deem and Ramdas Pophale) SiO2 
 PCOD8215458
Probable space group: P N N A
;
_chemical_formula_sum "Si O2"
_cell_formula_units_Z 52
_cell_length_a 14.390053
_cell_length_b 17.617688
_cell_length_c 10.481616
_cell_angle_alpha 90.000000
_cell_angle_beta 90.000000
_cell_angle_gamma 90.000000
_cell_volume 2657.293671
_symmetry_space_group_name_H-M "P N N A"
_symmetry_group_IT_number 52
_symmetry_cell_setting 'orthorhombic'
loop_
_space_group_symop_operation_xyz
x,y,z
1/2-x,-y,z
x,1/2-y,1/2-z
1/2-x,1/2+y,1/2-z
-x,-y,-z
1/2+x,y,-z
-x,1/2+y,1/2+z
1/2+x,1/2-y,1/2+z
loop_
_atom_site_type_symbol
_atom_site_label
_atom_site_fract_x
_atom_site_fract_y
_atom_site_fract_z
Si Si1 0.942938 0.730467 0.895854
Si Si2 0.927460 0.021954 0.837007
Si Si3 0.560669 0.473259 0.118989
Si Si4 0.036789 0.878190 0.936032
Si Si5 0.250000 0.000000 0.327319
Si Si6 0.289950 0.865716 0.514194
Si Si7 0.885414 0.365213 0.170236
O O1 0.925818 0.750000 0.750000
O O2 0.842829 0.703900 0.947147
O O3 0.976107 0.804612 0.975430
O O4 0.023478 0.665951 0.904395
O O5 0.836191 0.997015 0.765317
O O6 0.997826 0.056990 0.734284
O O7 0.907324 0.086835 0.943519
O O8 0.966964 0.943784 0.892156
O O9 0.622188 0.544627 0.160202
O O10 0.500000 0.500000 0.000000
O O11 0.630759 0.405868 0.095203
O O12 0.105977 0.848456 0.822712
O O13 0.245858 0.924247 0.412747
O O14 0.208873 0.832272 0.606417
#
# Coordination Sequence:
#
# PCOD8215458 Si02
#       7
#     8   8   8   8   4   8   8
#     4  10  21  40  61  84 125 169 199 248 316 374
#     4  10  21  39  64  85 120 160 202 255 309 360
#     4  11  17  35  60  86 119 151 199 253 295 353
#     4   9  21  44  59  83 122 170 200 246 312 377
#     4  12  20  34  60 100 118 146 208 262 304 368
#     4  12  21  35  65  95 118 155 211 256 303 364
#     4  10  19  36  61  88 118 160 200 250 306 360
#
# _framework density 19.568783
#
# number of rings (size 3 to 8) (size 9 to 14) (size 15 to 20)
#    0.000    1.538    4.615    1.846    0.000    0.000 
#   13.846    3.846    0.000    0.000    0.000    0.000 
#    0.000    0.000    0.000    0.000    0.000    0.000 
#
# Total GULP energy -644574.745752 kJ/mol
# GULP energy per Si atom -12395.668188 kJ/mol
# Density = 1.952424 g / cm^3
# Si number density = 19.568783 Si / 1000 Ang^3
#
#
#
# Elastic Constant Matrix: (Units=GPa)
#
#
# Indices 1 2 3 4 5 6 
#
# 1 105.3092 16.8280 43.8021 0.0000 0.0000 0.0000
# 2 16.8280 68.4757 25.2138 0.0000 0.0000 0.0000
# 3 43.8021 25.2138 89.0517 0.0000 0.0000 0.0000
# 4 0.0000 0.0000 0.0000 26.2787 0.0000 0.0000
# 5 0.0000 0.0000 0.0000 0.0000 -3.9285 0.0000
# 6 0.0000 0.0000 0.0000 0.0000 0.0000 27.3695
#
#
#
# Elastic Compliance Matrix: (Units=1/GPa)
#
#
# Indices 1 2 3 4 5 6 
#
# 1 0.011984 -0.000865 -0.005650 0.000000 0.000000 0.000000
# 2 -0.000865 0.016366 -0.004208 0.000000 0.000000 0.000000
# 3 -0.005650 -0.004208 0.015200 0.000000 0.000000 0.000000
# 4 0.000000 0.000000 0.000000 0.038054 0.000000 0.000000
# 5 0.000000 0.000000 0.000000 0.000000 -0.254552 0.000000
# 6 0.000000 0.000000 0.000000 0.000000 0.000000 0.036537
#
#
# Mechanical properties :
#
#
# Convention : Reuss Voigt Hill
#
# Bulk Modulus (GPa) = 45.24084 48.28048 46.76066
# Shear Modulus (GPa) = -46.46923 21.74347 -12.36288
#
# Velocity S-wave (km/s) = -4.87834 3.33698 -2.51622
# Velocity P-wave (km/s) = 2.92606 6.29071 3.93771
#
# Compressibility (1/GPa) = 0.02210392
#
# Stress axis : x y z
#
# Youngs Moduli (GPa) = 83.44482 61.10290 65.78979
#
# Poissons Ratio (x) = 0.05284 0.37169
# Poissons Ratio (y) = 0.07216 0.27687
# Poissons Ratio (z) = 0.47144 0.25715
#
# Static dielectric constant tensor:
#      x y z
#    x 3.507950 0.000000 0.000000 
#    y 0.000000 3.607200 0.000000 
#    z 0.000000 0.000000 3.763410 
# 
# 
# High freq. dielectric constant tensor:
#      x y z
#    x 1.753890 0.000000 0.000000 
#    y 0.000000 1.756280 0.000000 
#    z 0.000000 0.000000 1.757710 
# 
# From -- ./inp_files/19790.got.cif
#   From: 2010.06.25/outbox.cif.g09.slc.cpg/sg52_10_cif.got.tgz:19790.got - 2010.06.26 19:32:48.
