data_PCOD8215158
_publ_section_title
;
Structure prediction by ZEFSAII (Michael W. Deem and Ramdas Pophale) SiO2 
 PCOD8215158
Probable space group: P N N A
;
_chemical_formula_sum "Si O2"
_cell_formula_units_Z 40
_cell_length_a 9.905353
_cell_length_b 8.577601
_cell_length_c 22.318093
_cell_angle_alpha 90.000000
_cell_angle_beta 90.000000
_cell_angle_gamma 90.000000
_cell_volume 1896.238154
_symmetry_space_group_name_H-M "P N N A"
_symmetry_group_IT_number 52
_symmetry_cell_setting 'orthorhombic'
loop_
_space_group_symop_operation_xyz
x,y,z
1/2-x,-y,z
x,1/2-y,1/2-z
1/2-x,1/2+y,1/2-z
-x,-y,-z
1/2+x,y,-z
-x,1/2+y,1/2+z
1/2+x,1/2-y,1/2+z
loop_
_atom_site_type_symbol
_atom_site_label
_atom_site_fract_x
_atom_site_fract_y
_atom_site_fract_z
Si Si1 0.217473 0.681064 0.312965
Si Si2 0.122604 0.112537 0.000902
Si Si3 0.023243 0.292189 0.378201
Si Si4 0.786574 0.177277 0.310669
Si Si5 0.553062 0.149804 0.127182
O O1 0.250000 0.500000 0.307671
O O2 0.170078 0.750000 0.250000
O O3 0.356928 0.759176 0.333672
O O4 0.097670 0.715818 0.360855
O O5 0.092484 0.229277 0.056159
O O6 0.250000 0.000000 0.011930
O O7 0.118160 0.201868 0.937139
O O8 0.000000 0.000000 0.000000
O O9 0.897634 0.178836 0.364387
O O10 0.958742 0.463275 0.367893
O O11 0.850638 0.250000 0.250000
O O12 0.654633 0.281232 0.324060
O O13 0.750000 0.000000 0.299517
#
# Coordination Sequence:
#
# PCOD8215158 Si02
#       5
#     8   8   8   8   8
#     4  10  21  35  55  83 114 147 188 235 288 347
#     4  10  18  33  61  92 117 148 190 238 288 347
#     4  10  20  37  60  88 116 148 191 240 292 352
#     4  12  25  40  58  83 115 156 201 247 295 348
#     4  10  20  37  61  88 116 149 192 242 292 348
#
# _framework density 21.094397000000001
#
# number of rings (size 3 to 8) (size 9 to 14) (size 15 to 20)
#    0.000    1.600    0.000    8.400    0.000    4.800 
#    0.000    1.000    0.000    2.400    0.000    0.000 
#    0.000    0.000    0.000    0.000    0.000    0.000 
#
# Total GULP energy -495630.221733 kJ/mol
# GULP energy per Si atom -12390.755543 kJ/mol
# Density = 2.104639 g / cm^3
# Si number density = 21.094397 Si / 1000 Ang^3
#
#
#
# Elastic Constant Matrix: (Units=GPa)
#
#
# Indices 1 2 3 4 5 6 
#
# 1 133.8899 31.4417 45.4892 0.0000 0.0000 0.0000
# 2 31.4417 41.1610 36.6653 0.0000 0.0000 0.0000
# 3 45.4892 36.6653 130.5359 0.0000 0.0000 0.0000
# 4 0.0000 0.0000 0.0000 26.3563 0.0000 0.0000
# 5 0.0000 0.0000 0.0000 0.0000 25.2217 0.0000
# 6 0.0000 0.0000 0.0000 0.0000 0.0000 18.3097
#
#
#
# Elastic Compliance Matrix: (Units=1/GPa)
#
#
# Indices 1 2 3 4 5 6 
#
# 1 0.009368 -0.005665 -0.001673 0.000000 0.000000 0.000000
# 2 -0.005665 0.035828 -0.008089 0.000000 0.000000 0.000000
# 3 -0.001673 -0.008089 0.010516 0.000000 0.000000 0.000000
# 4 0.000000 0.000000 0.000000 0.037942 0.000000 0.000000
# 5 0.000000 0.000000 0.000000 0.000000 0.039648 0.000000
# 6 0.000000 0.000000 0.000000 0.000000 0.000000 0.054616
#
#
# Mechanical properties :
#
#
# Convention : Reuss Voigt Hill
#
# Bulk Modulus (GPa) = 40.23125 59.19768 49.71446
# Shear Modulus (GPa) = 22.02077 26.77692 24.39885
#
# Velocity S-wave (km/s) = 3.23447 3.56671 3.40465
# Velocity P-wave (km/s) = 5.75000 6.71461 6.25094
#
# Compressibility (1/GPa) = 0.02485630
#
# Stress axis : x y z
#
# Youngs Moduli (GPa) = 106.75013 27.91105 95.09374
#
# Poissons Ratio (x) = 0.15812 0.15911
# Poissons Ratio (y) = 0.60477 0.76924
# Poissons Ratio (z) = 0.17861 0.22578
#
# Static dielectric constant tensor:
#      x y z
#    x 4.012600 0.000000 0.000000 
#    y 0.000000 3.302860 0.000000 
#    z 0.000000 0.000000 -0.079950 
# 
# 
# High freq. dielectric constant tensor:
#      x y z
#    x 1.852150 0.000000 0.000000 
#    y 0.000000 1.767900 0.000000 
#    z 0.000000 0.000000 1.838620 
# 
# From -- ./inp_files/39231.got.cif
#   From: 2010.06.25/outbox.cif.g09.slc.cpg/sg52_20_cif.got.tgz:39231.got - 2010.06.26 19:32:48.
