data_PCOD8215364
_publ_section_title
;
Structure prediction by ZEFSAII (Michael W. Deem and Ramdas Pophale) SiO2 
 PCOD8215364
Probable space group: P N N A
;
_chemical_formula_sum "Si O2"
_cell_formula_units_Z 48
_cell_length_a 5.032001
_cell_length_b 14.926483
_cell_length_c 32.256540
_cell_angle_alpha 90.000000
_cell_angle_beta 90.000000
_cell_angle_gamma 90.000000
_cell_volume 2422.791215
_symmetry_space_group_name_H-M "P N N A"
_symmetry_group_IT_number 52
_symmetry_cell_setting 'orthorhombic'
loop_
_space_group_symop_operation_xyz
x,y,z
1/2-x,-y,z
x,1/2-y,1/2-z
1/2-x,1/2+y,1/2-z
-x,-y,-z
1/2+x,y,-z
-x,1/2+y,1/2+z
1/2+x,1/2-y,1/2+z
loop_
_atom_site_type_symbol
_atom_site_label
_atom_site_fract_x
_atom_site_fract_y
_atom_site_fract_z
Si Si1 0.987165 0.559446 0.412699
Si Si2 0.630237 0.094226 0.642648
Si Si3 0.139204 0.244046 0.201228
Si Si4 0.157715 0.321421 0.658213
Si Si5 0.641801 0.160201 0.399818
Si Si6 0.609228 0.278214 0.472717
O O1 0.250000 0.500000 0.414890
O O2 0.750000 0.500000 0.430290
O O3 0.928628 0.587249 0.364786
O O4 0.998346 0.645835 0.441670
O O5 0.579016 0.157017 0.682574
O O6 0.360887 0.085607 0.614516
O O7 0.845956 0.135849 0.612419
O O8 0.750000 0.000000 0.658642
O O9 0.117662 0.250000 0.250000
O O10 0.430272 0.212224 0.188872
O O11 0.926558 0.169947 0.185229
O O12 0.233940 0.250720 0.622739
O O13 0.618901 0.182201 0.448796
O O14 0.410178 0.285479 0.511309
#
# Coordination Sequence:
#
# PCOD8215364 Si02
#       6
#     8   8   8   8   8   8
#     4  11  22  36  54  78 110 146 186 226 265 317
#     4  10  19  34  57  81 104 135 179 223 263 313
#     4  10  19  34  56  81 109 140 177 222 271 324
#     4   9  19  35  53  74 103 145 185 213 257 322
#     4   9  19  35  55  76 102 139 178 214 259 323
#     4  11  22  36  56  80 107 141 180 224 274 325
#
# _framework density 19.811859999999999
#
# number of rings (size 3 to 8) (size 9 to 14) (size 15 to 20)
#    0.000    2.000    0.000    4.000    0.000    7.333 
#    0.000    2.500    0.000   12.000    0.000    0.000 
#    0.000    0.000    0.000    0.000    0.000    0.000 
#
# Total GULP energy -594875.684738 kJ/mol
# GULP energy per Si atom -12393.243432 kJ/mol
# Density = 1.976677 g / cm^3
# Si number density = 19.811860 Si / 1000 Ang^3
#
#
#
# Elastic Constant Matrix: (Units=GPa)
#
#
# Indices 1 2 3 4 5 6 
#
# 1 112.0133 22.0266 32.3461 0.0000 0.0000 0.0000
# 2 22.0266 63.8870 35.9598 0.0000 0.0000 0.0000
# 3 32.3461 35.9598 99.8009 0.0000 0.0000 0.0000
# 4 0.0000 0.0000 0.0000 24.0835 0.0000 0.0000
# 5 0.0000 0.0000 0.0000 0.0000 29.5733 0.0000
# 6 0.0000 0.0000 0.0000 0.0000 0.0000 27.5766
#
#
#
# Elastic Compliance Matrix: (Units=1/GPa)
#
#
# Indices 1 2 3 4 5 6 
#
# 1 0.010059 -0.002048 -0.002522 0.000000 0.000000 0.000000
# 2 -0.002048 0.020052 -0.006561 0.000000 0.000000 0.000000
# 3 -0.002522 -0.006561 0.013201 0.000000 0.000000 0.000000
# 4 0.000000 0.000000 0.000000 0.041522 0.000000 0.000000
# 5 0.000000 0.000000 0.000000 0.000000 0.033814 0.000000
# 6 0.000000 0.000000 0.000000 0.000000 0.000000 0.036263
#
#
# Mechanical properties :
#
#
# Convention : Reuss Voigt Hill
#
# Bulk Modulus (GPa) = 47.50839 50.70735 49.10787
# Shear Modulus (GPa) = 27.14583 28.60459 27.87521
#
# Velocity S-wave (km/s) = 3.70561 3.80387 3.75506
# Velocity P-wave (km/s) = 6.50696 6.70393 6.60618
#
# Compressibility (1/GPa) = 0.02104891
#
# Stress axis : x y z
#
# Youngs Moduli (GPa) = 99.41755 49.87056 75.74947
#
# Poissons Ratio (x) = 0.10216 0.19104
# Poissons Ratio (y) = 0.20365 0.49700
# Poissons Ratio (z) = 0.25073 0.32721
#
# Static dielectric constant tensor:
#      x y z
#    x 3.691780 0.000000 0.000000 
#    y 0.000000 3.583970 0.000000 
#    z 0.000000 0.000000 3.537810 
# 
# 
# High freq. dielectric constant tensor:
#      x y z
#    x 1.794420 0.000000 0.000000 
#    y 0.000000 1.749450 0.000000 
#    z 0.000000 0.000000 1.759110 
# 
# From -- ./inp_files/41691.got.cif
#   From: 2010.06.25/outbox.cif.g09.slc.cpg/sg52_21_cif.got.tgz:41691.got - 2010.06.26 19:32:48.
