data_PCOD8215381
_publ_section_title
;
Structure prediction by ZEFSAII (Michael W. Deem and Ramdas Pophale) SiO2 
 PCOD8215381
Probable space group: P N N A
;
_chemical_formula_sum "Si O2"
_cell_formula_units_Z 48
_cell_length_a 12.349236
_cell_length_b 17.577885
_cell_length_c 11.093146
_cell_angle_alpha 90.000000
_cell_angle_beta 90.000000
_cell_angle_gamma 90.000000
_cell_volume 2408.027476
_symmetry_space_group_name_H-M "P N N A"
_symmetry_group_IT_number 52
_symmetry_cell_setting 'orthorhombic'
loop_
_space_group_symop_operation_xyz
x,y,z
1/2-x,-y,z
x,1/2-y,1/2-z
1/2-x,1/2+y,1/2-z
-x,-y,-z
1/2+x,y,-z
-x,1/2+y,1/2+z
1/2+x,1/2-y,1/2+z
loop_
_atom_site_type_symbol
_atom_site_label
_atom_site_fract_x
_atom_site_fract_y
_atom_site_fract_z
Si Si1 0.260740 0.680063 0.015083
Si Si2 0.110332 0.693641 0.430861
Si Si3 0.699797 0.160878 0.770017
Si Si4 0.629631 0.200030 0.138347
Si Si5 0.462888 0.166315 0.809278
Si Si6 0.735584 0.589071 0.222520
O O1 0.334560 0.756678 0.985740
O O2 0.272768 0.622602 0.905555
O O3 0.144166 0.717533 0.048978
O O4 0.295220 0.629995 0.132009
O O5 0.198727 0.641903 0.357560
O O6 0.094097 0.659668 0.562201
O O7 0.998857 0.688852 0.357026
O O8 0.703245 0.250000 0.750000
O O9 0.584900 0.134264 0.824550
O O10 0.670501 0.250000 0.250000
O O11 0.693848 0.121299 0.163940
O O12 0.460383 0.250000 0.750000
O O13 0.391640 0.109720 0.728755
O O14 0.750000 0.500000 0.220901
#
# Coordination Sequence:
#
# PCOD8215381 Si02
#       6
#     8   8   8   8   8   8
#     4  10  19  36  59  90 114 151 194 248 300 345
#     4  11  18  33  62  92 115 143 191 255 296 343
#     4   9  20  32  57  95 116 140 188 249 303 343
#     4  10  19  34  59  87 114 146 196 247 296 347
#     4  11  19  36  61  85 116 151 196 242 293 348
#     4  11  23  39  58  84 119 162 199 236 294 362
#
# _framework density 19.933326999999998
#
# number of rings (size 3 to 8) (size 9 to 14) (size 15 to 20)
#    0.000    1.667    3.333    5.000    0.000    0.000 
#    0.000    1.667    0.000    0.000    0.000    0.000 
#    0.000    0.000    0.000    0.000    0.000    0.000 
#
# Total GULP energy -594646.355255 kJ/mol
# GULP energy per Si atom -12388.465734 kJ/mol
# Density = 1.988796 g / cm^3
# Si number density = 19.933327 Si / 1000 Ang^3
#
#
#
# Elastic Constant Matrix: (Units=GPa)
#
#
# Indices 1 2 3 4 5 6 
#
# 1 158.9958 40.3714 51.3923 0.0000 0.0000 0.0000
# 2 40.3714 78.2329 24.8662 0.0000 0.0000 0.0000
# 3 51.3923 24.8662 129.8607 0.0000 0.0000 0.0000
# 4 0.0000 0.0000 0.0000 14.2659 0.0000 0.0000
# 5 0.0000 0.0000 0.0000 0.0000 32.7555 0.0000
# 6 0.0000 0.0000 0.0000 0.0000 0.0000 5.6985
#
#
#
# Elastic Compliance Matrix: (Units=1/GPa)
#
#
# Indices 1 2 3 4 5 6 
#
# 1 0.007938 -0.003299 -0.002510 0.000000 0.000000 0.000000
# 2 -0.003299 0.014982 -0.001563 0.000000 0.000000 0.000000
# 3 -0.002510 -0.001563 0.008993 0.000000 0.000000 0.000000
# 4 0.000000 0.000000 0.000000 0.070097 0.000000 0.000000
# 5 0.000000 0.000000 0.000000 0.000000 0.030529 0.000000
# 6 0.000000 0.000000 0.000000 0.000000 0.000000 0.175483
#
#
# Mechanical properties :
#
#
# Convention : Reuss Voigt Hill
#
# Bulk Modulus (GPa) = 58.24376 66.70545 62.47460
# Shear Modulus (GPa) = 15.22117 27.24129 21.23123
#
# Velocity S-wave (km/s) = 2.76634 3.70079 3.26715
# Velocity P-wave (km/s) = 6.28381 7.19709 6.75590
#
# Compressibility (1/GPa) = 0.01716922
#
# Stress axis : x y z
#
# Youngs Moduli (GPa) = 125.97055 66.74898 111.19508
#
# Poissons Ratio (x) = 0.22019 0.27909
# Poissons Ratio (y) = 0.41554 0.17382
# Poissons Ratio (z) = 0.31618 0.10434
#
# Static dielectric constant tensor:
#      x y z
#    x 3.959950 0.000000 0.000000 
#    y 0.000000 2.959250 0.000000 
#    z 0.000000 0.000000 4.553370 
# 
# 
# High freq. dielectric constant tensor:
#      x y z
#    x 1.790100 0.000000 0.000000 
#    y 0.000000 1.692930 0.000000 
#    z 0.000000 0.000000 1.804230 
# 
# From -- ./inp_files/18205.got.cif
#   From: 2010.06.25/outbox.cif.g09.slc.cpg/sg52_10_cif.got.tgz:18205.got - 2010.06.26 19:32:48.
