data_PCOD8215270
_publ_section_title
;
Structure prediction by ZEFSAII (Michael W. Deem and Ramdas Pophale) SiO2 
 PCOD8215270
Probable space group: P N N A
;
_chemical_formula_sum "Si O2"
_cell_formula_units_Z 60
_cell_length_a 9.165336
_cell_length_b 17.292643
_cell_length_c 18.885203
_cell_angle_alpha 90.000000
_cell_angle_beta 90.000000
_cell_angle_gamma 90.000000
_cell_volume 2993.170277
_symmetry_space_group_name_H-M "P N N A"
_symmetry_group_IT_number 52
_symmetry_cell_setting 'orthorhombic'
loop_
_space_group_symop_operation_xyz
x,y,z
1/2-x,-y,z
x,1/2-y,1/2-z
1/2-x,1/2+y,1/2-z
-x,-y,-z
1/2+x,y,-z
-x,1/2+y,1/2+z
1/2+x,1/2-y,1/2+z
loop_
_atom_site_type_symbol
_atom_site_label
_atom_site_fract_x
_atom_site_fract_y
_atom_site_fract_z
Si Si1 0.146625 0.063871 0.928475
Si Si2 0.555090 0.201436 0.862197
Si Si3 0.783898 0.250000 0.750000
Si Si4 0.025004 0.669852 0.139452
Si Si5 0.611613 0.051021 0.454878
Si Si6 0.230237 0.296661 0.028747
Si Si7 0.117863 0.459864 0.415520
Si Si8 0.737659 0.224140 0.118424
O O1 0.163808 0.140236 0.881722
O O2 0.250000 0.000000 0.892975
O O3 0.185611 0.075307 0.011435
O O4 0.983260 0.033697 0.926754
O O5 0.677780 0.205659 0.802711
O O6 0.603073 0.253580 0.928381
O O7 0.537799 0.110478 0.877512
O O8 0.391675 0.227545 0.838896
O O9 0.880142 0.317427 0.788906
O O10 0.121159 0.698579 0.073500
O O11 0.970254 0.583532 0.116623
O O12 0.878854 0.718846 0.152972
O O13 0.668355 0.120030 0.505255
O O14 0.750000 0.000000 0.430194
O O15 0.500000 0.000000 0.500000
O O16 0.275146 0.246555 0.961707
O O17 0.250000 0.500000 0.371712
#
# Coordination Sequence:
#
# PCOD8215270 Si02
#       8
#     8   8   4   8   8   8   8   8
#     4  10  19  31  49  92 129 152 184 234 309 359
#     4  11  22  39  61  83 124 163 214 250 294 380
#     4  10  26  46  62  78 116 174 228 248 300 370
#     4  10  23  40  63  89 126 167 207 259 309 389
#     4  11  21  38  66 101 137 155 195 269 348 395
#     4  10  21  35  59  99 128 158 193 252 334 381
#     4  10  21  31  54  85 129 161 185 235 296 362
#     4  11  20  33  62  93 122 153 203 258 316 366
#
# _framework density 20.045635999999998
#
# number of rings (size 3 to 8) (size 9 to 14) (size 15 to 20)
#    0.000    1.600    4.000    1.600    5.600    0.533 
#    0.000    0.000    5.867    0.800    0.000    0.000 
#    0.000    0.000    0.000    0.000    0.000    0.000 
#
# Total GULP energy -743420.299596 kJ/mol
# GULP energy per Si atom -12390.338327 kJ/mol
# Density = 2.000001 g / cm^3
# Si number density = 20.045636 Si / 1000 Ang^3
#
#
#
# Elastic Constant Matrix: (Units=GPa)
#
#
# Indices 1 2 3 4 5 6 
#
# 1 142.2254 47.0218 32.1157 0.0000 0.0000 0.0000
# 2 47.0218 111.7758 25.8681 0.0000 0.0000 0.0000
# 3 32.1157 25.8681 65.8960 0.0000 0.0000 0.0000
# 4 0.0000 0.0000 0.0000 15.8519 0.0000 0.0000
# 5 0.0000 0.0000 0.0000 0.0000 22.2608 0.0000
# 6 0.0000 0.0000 0.0000 0.0000 0.0000 39.5475
#
#
#
# Elastic Compliance Matrix: (Units=1/GPa)
#
#
# Indices 1 2 3 4 5 6 
#
# 1 0.008702 -0.002947 -0.003084 0.000000 0.000000 0.000000
# 2 -0.002947 0.010838 -0.002818 0.000000 0.000000 0.000000
# 3 -0.003084 -0.002818 0.017785 0.000000 0.000000 0.000000
# 4 0.000000 0.000000 0.000000 0.063084 0.000000 0.000000
# 5 0.000000 0.000000 0.000000 0.000000 0.044922 0.000000
# 6 0.000000 0.000000 0.000000 0.000000 0.000000 0.025286
#
#
# Mechanical properties :
#
#
# Convention : Reuss Voigt Hill
#
# Bulk Modulus (GPa) = 50.95255 58.87871 54.91563
# Shear Modulus (GPa) = 25.65963 29.85814 27.75889
#
# Velocity S-wave (km/s) = 3.58168 3.86360 3.72531
# Velocity P-wave (km/s) = 6.52518 7.02420 6.77928
#
# Compressibility (1/GPa) = 0.01962610
#
# Stress axis : x y z
#
# Youngs Moduli (GPa) = 114.91852 92.26396 56.22725
#
# Poissons Ratio (x) = 0.27189 0.17341
# Poissons Ratio (y) = 0.33866 0.15848
# Poissons Ratio (z) = 0.35443 0.26005
#
# Static dielectric constant tensor:
#      x y z
#    x 3.858570 0.000000 0.000000 
#    y 0.000000 3.712530 0.000000 
#    z 0.000000 0.000000 3.343310 
# 
# 
# High freq. dielectric constant tensor:
#      x y z
#    x 1.811630 0.000000 0.000000 
#    y 0.000000 1.780380 0.000000 
#    z 0.000000 0.000000 1.729790 
# 
# From -- ./inp_files/31478.got.cif
#   From: 2010.06.25/outbox.cif.g09.slc.cpg/sg52_16_cif.got.tgz:31478.got - 2010.06.26 19:32:48.
