data_PCOD8215124
_publ_section_title
;
Structure prediction by ZEFSAII (Michael W. Deem and Ramdas Pophale) SiO2 
 PCOD8215124
Probable space group: P N N A
;
_chemical_formula_sum "Si O2"
_cell_formula_units_Z 40
_cell_length_a 9.121137
_cell_length_b 8.531100
_cell_length_c 22.532765
_cell_angle_alpha 90.000000
_cell_angle_beta 90.000000
_cell_angle_gamma 90.000000
_cell_volume 1753.349521
_symmetry_space_group_name_H-M "P N N A"
_symmetry_group_IT_number 52
_symmetry_cell_setting 'orthorhombic'
loop_
_space_group_symop_operation_xyz
x,y,z
1/2-x,-y,z
x,1/2-y,1/2-z
1/2-x,1/2+y,1/2-z
-x,-y,-z
1/2+x,y,-z
-x,1/2+y,1/2+z
1/2+x,1/2-y,1/2+z
loop_
_atom_site_type_symbol
_atom_site_label
_atom_site_fract_x
_atom_site_fract_y
_atom_site_fract_z
Si Si1 0.428143 0.319229 0.188374
Si Si2 0.056422 0.172056 0.989306
Si Si3 0.207155 0.326895 0.631525
Si Si4 0.280036 0.323980 0.067501
Si Si5 0.382796 0.389952 0.794944
O O1 0.364581 0.250000 0.250000
O O2 0.566474 0.213966 0.171011
O O3 0.304301 0.301636 0.137989
O O4 0.473993 0.502965 0.193467
O O5 0.179158 0.177354 0.938327
O O6 0.922341 0.280401 0.970619
O O7 0.136435 0.224515 0.049812
O O8 0.000000 0.000000 0.000000
O O9 0.250000 0.500000 0.652258
O O10 0.333135 0.197218 0.644164
O O11 0.250000 0.500000 0.049634
O O12 0.250000 0.500000 0.771027
O O13 0.420155 0.250000 0.750000
#
# Coordination Sequence:
#
# PCOD8215124 Si02
#       5
#     8   8   8   8   8
#     4  10  22  40  61  92 131 172 217 266 329 396
#     4  11  24  44  69  98 133 173 221 273 331 393
#     4  10  19  33  60  95 130 170 218 271 323 382
#     4  11  25  45  69  97 133 175 219 270 327 391
#     4  10  18  32  56  90 128 170 218 270 323 384
#
# _framework density 22.813476000000001
#
# number of rings (size 3 to 8) (size 9 to 14) (size 15 to 20)
#    0.000    1.600    0.000    6.600    0.000    7.200 
#    0.000    7.000    0.000    0.000    0.000    1.400 
#    0.000    0.000    0.000    0.000    0.000    0.000 
#
# Total GULP energy -496049.789808 kJ/mol
# GULP energy per Si atom -12401.244745 kJ/mol
# Density = 2.276155 g / cm^3
# Si number density = 22.813476 Si / 1000 Ang^3
#
#
#
# Elastic Constant Matrix: (Units=GPa)
#
#
# Indices 1 2 3 4 5 6 
#
# 1 78.9944 66.4052 74.0167 0.0000 0.0000 0.0000
# 2 66.4052 187.7761 78.7377 0.0000 0.0000 0.0000
# 3 74.0167 78.7377 164.8524 0.0000 0.0000 0.0000
# 4 0.0000 0.0000 0.0000 31.1611 0.0000 0.0000
# 5 0.0000 0.0000 0.0000 0.0000 30.1812 0.0000
# 6 0.0000 0.0000 0.0000 0.0000 0.0000 32.5927
#
#
#
# Elastic Compliance Matrix: (Units=1/GPa)
#
#
# Indices 1 2 3 4 5 6 
#
# 1 0.025419 -0.005256 -0.008902 0.000000 0.000000 0.000000
# 2 -0.005256 0.007746 -0.001340 0.000000 0.000000 0.000000
# 3 -0.008902 -0.001340 0.010703 0.000000 0.000000 0.000000
# 4 0.000000 0.000000 0.000000 0.032091 0.000000 0.000000
# 5 0.000000 0.000000 0.000000 0.000000 0.033133 0.000000
# 6 0.000000 0.000000 0.000000 0.000000 0.000000 0.030682
#
#
# Mechanical properties :
#
#
# Convention : Reuss Voigt Hill
#
# Bulk Modulus (GPa) = 77.69128 96.66023 87.17575
# Shear Modulus (GPa) = 28.56137 32.95122 30.75630
#
# Velocity S-wave (km/s) = 3.54213 3.80462 3.67572
# Velocity P-wave (km/s) = 7.13147 7.85888 7.50399
#
# Compressibility (1/GPa) = 0.01287146
#
# Stress axis : x y z
#
# Youngs Moduli (GPa) = 39.34045 129.09719 93.43225
#
# Poissons Ratio (x) = 0.67858 0.83176
# Poissons Ratio (y) = 0.20679 0.12517
# Poissons Ratio (z) = 0.35022 0.17295
#
# Static dielectric constant tensor:
#      x y z
#    x 3.731620 0.000000 0.000000 
#    y 0.000000 4.249110 0.000000 
#    z 0.000000 0.000000 4.167150 
# 
# 
# High freq. dielectric constant tensor:
#      x y z
#    x 1.880470 0.000000 0.000000 
#    y 0.000000 1.915950 0.000000 
#    z 0.000000 0.000000 1.903330 
# 
# From -- ./inp_files/39222.got.cif
#   From: 2010.06.25/outbox.cif.g09.slc.cpg/sg52_20_cif.got.tgz:39222.got - 2010.06.26 19:32:48.
