data_PCOD8215258
_publ_section_title
;
Structure prediction by ZEFSAII (Michael W. Deem and Ramdas Pophale) SiO2 
 PCOD8215258
Probable space group: P N N A
;
_chemical_formula_sum "Si O2"
_cell_formula_units_Z 56
_cell_length_a 14.052263
_cell_length_b 15.419613
_cell_length_c 12.788058
_cell_angle_alpha 90.000000
_cell_angle_beta 90.000000
_cell_angle_gamma 90.000000
_cell_volume 2770.922255
_symmetry_space_group_name_H-M "P N N A"
_symmetry_group_IT_number 52
_symmetry_cell_setting 'orthorhombic'
loop_
_space_group_symop_operation_xyz
x,y,z
1/2-x,-y,z
x,1/2-y,1/2-z
1/2-x,1/2+y,1/2-z
-x,-y,-z
1/2+x,y,-z
-x,1/2+y,1/2+z
1/2+x,1/2-y,1/2+z
loop_
_atom_site_type_symbol
_atom_site_label
_atom_site_fract_x
_atom_site_fract_y
_atom_site_fract_z
Si Si1 0.740513 0.160662 0.696717
Si Si2 0.449776 0.927315 0.290267
Si Si3 0.403380 0.165652 0.597628
Si Si4 0.353881 0.987518 0.491112
Si Si5 0.558220 0.886508 0.758199
Si Si6 0.992010 0.746724 0.089200
Si Si7 0.202800 0.185407 0.548842
O O1 0.766841 0.250000 0.750000
O O2 0.645807 0.120057 0.749959
O O3 0.831542 0.101255 0.724206
O O4 0.728991 0.180619 0.574113
O O5 0.536654 0.856423 0.296252
O O6 0.433273 0.958750 0.409120
O O7 0.478290 0.013932 0.225428
O O8 0.462330 0.230577 0.524129
O O9 0.297978 0.206193 0.617184
O O10 0.386793 0.074256 0.543339
O O11 0.340436 0.910045 0.576643
O O12 0.250000 0.000000 0.434058
O O13 0.538211 0.834982 0.865850
O O14 0.507119 0.834611 0.665475
O O15 0.877532 0.757413 0.074130
#
# Coordination Sequence:
#
# PCOD8215258 Si02
#       7
#     8   8   8   8   8   8   8
#     4  11  19  33  51  79 109 140 187 242 280 327
#     4  11  19  28  50  77 107 144 180 228 281 325
#     4  11  17  29  49  77 105 143 184 219 274 336
#     4   9  15  23  42  72 107 132 170 216 259 325
#     4  11  20  32  50  79 118 148 180 223 281 340
#     4  11  19  31  50  77 115 152 177 219 279 348
#     4  10  19  30  48  77 105 144 185 223 280 341
#
# _framework density 20.209878
#
# number of rings (size 3 to 8) (size 9 to 14) (size 15 to 20)
#    0.000    1.429    7.143    3.429    0.000    0.000 
#    0.000    0.000    3.143    0.857    0.000    0.000 
#    0.000    0.000    0.000    0.143    0.000    0.000 
#
# Total GULP energy -693784.882729 kJ/mol
# GULP energy per Si atom -12389.015763 kJ/mol
# Density = 2.016388 g / cm^3
# Si number density = 20.209878 Si / 1000 Ang^3
#
#
#
# Elastic Constant Matrix: (Units=GPa)
#
#
# Indices 1 2 3 4 5 6 
#
# 1 153.7767 31.2973 23.5881 0.0000 0.0000 0.0000
# 2 31.2973 49.7586 23.1482 0.0000 0.0000 0.0000
# 3 23.5881 23.1482 30.2443 0.0000 0.0000 0.0000
# 4 0.0000 0.0000 0.0000 16.2643 0.0000 0.0000
# 5 0.0000 0.0000 0.0000 0.0000 15.0102 0.0000
# 6 0.0000 0.0000 0.0000 0.0000 0.0000 26.6942
#
#
#
# Elastic Compliance Matrix: (Units=1/GPa)
#
#
# Indices 1 2 3 4 5 6 
#
# 1 0.007698 -0.003182 -0.003569 0.000000 0.000000 0.000000
# 2 -0.003182 0.032525 -0.022412 0.000000 0.000000 0.000000
# 3 -0.003569 -0.022412 0.053001 0.000000 0.000000 0.000000
# 4 0.000000 0.000000 0.000000 0.061484 0.000000 0.000000
# 5 0.000000 0.000000 0.000000 0.000000 0.066621 0.000000
# 6 0.000000 0.000000 0.000000 0.000000 0.000000 0.037461
#
#
# Mechanical properties :
#
#
# Convention : Reuss Voigt Hill
#
# Bulk Modulus (GPa) = 28.65430 43.31633 35.98531
# Shear Modulus (GPa) = 15.20923 21.97681 18.59302
#
# Velocity S-wave (km/s) = 2.74627 3.30120 3.03644
# Velocity P-wave (km/s) = 4.92596 6.00086 5.48978
#
# Compressibility (1/GPa) = 0.03489878
#
# Stress axis : x y z
#
# Youngs Moduli (GPa) = 129.90598 30.74595 18.86764
#
# Poissons Ratio (x) = 0.09783 0.06733
# Poissons Ratio (y) = 0.41333 0.42286
# Poissons Ratio (z) = 0.46357 0.68908
#
# Static dielectric constant tensor:
#      x y z
#    x 4.453450 0.000000 0.000000 
#    y 0.000000 3.850020 0.000000 
#    z 0.000000 0.000000 3.112780 
# 
# 
# High freq. dielectric constant tensor:
#      x y z
#    x 1.814890 0.000000 0.000000 
#    y 0.000000 1.772210 0.000000 
#    z 0.000000 0.000000 1.714270 
# 
# From -- ./inp_files/27459.got.cif
#   From: 2010.06.25/outbox.cif.g09.slc.cpg/sg52_14_cif.got.tgz:27459.got - 2010.06.26 19:32:48.
