data_PCOD8215659
_publ_section_title
;
Structure prediction by ZEFSAII (Michael W. Deem and Ramdas Pophale) SiO2 
 PCOD8215659
Probable space group: P N N A
;
_chemical_formula_sum "Si O2"
_cell_formula_units_Z 64
_cell_length_a 31.775962
_cell_length_b 8.646813
_cell_length_c 11.579712
_cell_angle_alpha 90.000000
_cell_angle_beta 90.000000
_cell_angle_gamma 90.000000
_cell_volume 3181.650948
_symmetry_space_group_name_H-M "P N N A"
_symmetry_group_IT_number 52
_symmetry_cell_setting 'orthorhombic'
loop_
_space_group_symop_operation_xyz
x,y,z
1/2-x,-y,z
x,1/2-y,1/2-z
1/2-x,1/2+y,1/2-z
-x,-y,-z
1/2+x,y,-z
-x,1/2+y,1/2+z
1/2+x,1/2-y,1/2+z
loop_
_atom_site_type_symbol
_atom_site_label
_atom_site_fract_x
_atom_site_fract_y
_atom_site_fract_z
Si Si1 0.035945 0.123778 0.016986
Si Si2 0.104053 0.571209 0.605917
Si Si3 0.432892 0.511418 0.256962
Si Si4 0.864397 0.483331 0.915913
Si Si5 0.295324 0.927703 0.274697
Si Si6 0.091462 0.583941 0.858114
Si Si7 0.357863 0.127652 0.117531
Si Si8 0.484560 0.631120 0.845363
O O1 0.018382 0.288270 0.971671
O O2 0.074651 0.068268 0.937206
O O3 0.047587 0.139951 0.154356
O O4 0.000000 0.000000 0.000000
O O5 0.117177 0.548968 0.739718
O O6 0.081636 0.739774 0.607084
O O7 0.144154 0.583956 0.519554
O O8 0.400113 0.572504 0.160662
O O9 0.406024 0.401371 0.342244
O O10 0.468302 0.417497 0.187629
O O11 0.820399 0.571306 0.896888
O O12 0.853333 0.311853 0.865545
O O13 0.878684 0.495093 0.046973
O O14 0.288689 0.750000 0.250000
O O15 0.250000 0.000000 0.288972
O O16 0.322637 0.023290 0.179974
O O17 0.044927 0.516845 0.848296
O O18 0.467465 0.750000 0.750000
#
# Coordination Sequence:
#
# PCOD8215659 Si02
#       8
#     8   8   8   8   8   8   8   8
#     4  11  21  32  52  71  99 147 201 250 302 345
#     4   9  19  37  54  77 111 154 199 238 285 343
#     4  10  20  35  53  75 110 153 201 246 303 347
#     4  10  21  37  58  81 116 153 190 235 292 344
#     4  11  22  39  65  95 121 140 176 221 280 352
#     4  10  21  35  54  79 113 154 204 243 285 333
#     4   9  19  36  63  81 112 155 188 230 293 345
#     4  12  21  34  52  74 106 154 207 256 293 340
#
# _framework density 20.115342999999999
#
# number of rings (size 3 to 8) (size 9 to 14) (size 15 to 20)
#    0.000    1.750    2.500    3.000    3.500    3.500 
#    0.000    0.000   11.000    0.750    0.000    0.000 
#    0.000    0.000    0.000    0.000    0.000    0.000 
#
# Total GULP energy -792928.608103 kJ/mol
# GULP energy per Si atom -12389.509502 kJ/mol
# Density = 2.006956 g / cm^3
# Si number density = 20.115343 Si / 1000 Ang^3
#
#
#
# Elastic Constant Matrix: (Units=GPa)
#
#
# Indices 1 2 3 4 5 6 
#
# 1 121.1463 37.2441 59.8529 0.0000 0.0000 0.0000
# 2 37.2441 44.7228 27.6117 0.0000 0.0000 0.0000
# 3 59.8529 27.6117 138.7045 0.0000 0.0000 0.0000
# 4 0.0000 0.0000 0.0000 30.2449 0.0000 0.0000
# 5 0.0000 0.0000 0.0000 0.0000 13.3896 0.0000
# 6 0.0000 0.0000 0.0000 0.0000 0.0000 25.7206
#
#
#
# Elastic Compliance Matrix: (Units=1/GPa)
#
#
# Indices 1 2 3 4 5 6 
#
# 1 0.012664 -0.008178 -0.003837 0.000000 0.000000 0.000000
# 2 -0.008178 0.030774 -0.002597 0.000000 0.000000 0.000000
# 3 -0.003837 -0.002597 0.009382 0.000000 0.000000 0.000000
# 4 0.000000 0.000000 0.000000 0.033063 0.000000 0.000000
# 5 0.000000 0.000000 0.000000 0.000000 0.074685 0.000000
# 6 0.000000 0.000000 0.000000 0.000000 0.000000 0.038879
#
#
# Mechanical properties :
#
#
# Convention : Reuss Voigt Hill
#
# Bulk Modulus (GPa) = 42.37907 61.55457 51.96682
# Shear Modulus (GPa) = 21.13838 25.86201 23.50020
#
# Velocity S-wave (km/s) = 3.24521 3.58954 3.42171
# Velocity P-wave (km/s) = 5.92922 6.91715 6.44215
#
# Compressibility (1/GPa) = 0.02359656
#
# Stress axis : x y z
#
# Youngs Moduli (GPa) = 78.96329 32.49541 106.58392
#
# Poissons Ratio (x) = 0.26573 0.40895
# Poissons Ratio (y) = 0.64572 0.27684
# Poissons Ratio (z) = 0.30297 0.08440
#
# Static dielectric constant tensor:
#      x y z
#    x 3.365400 0.000000 0.000000 
#    y 0.000000 3.638760 0.000000 
#    z 0.000000 0.000000 4.269830 
# 
# 
# High freq. dielectric constant tensor:
#      x y z
#    x 1.739110 0.000000 0.000000 
#    y 0.000000 1.784480 0.000000 
#    z 0.000000 0.000000 1.800050 
# 
# From -- ./inp_files/23219.got.cif
#   From: 2010.06.25/outbox.cif.g09.slc.cpg/sg52_12_cif.got.tgz:23219.got - 2010.06.26 19:32:48.
