data_PCOD8215215
_publ_section_title
;
Structure prediction by ZEFSAII (Michael W. Deem and Ramdas Pophale) SiO2 
 PCOD8215215
Probable space group: P N N A
;
_chemical_formula_sum "Si O2"
_cell_formula_units_Z 52
_cell_length_a 20.686119
_cell_length_b 15.929653
_cell_length_c 7.977978
_cell_angle_alpha 90.000000
_cell_angle_beta 90.000000
_cell_angle_gamma 90.000000
_cell_volume 2628.924832
_symmetry_space_group_name_H-M "P N N A"
_symmetry_group_IT_number 52
_symmetry_cell_setting 'orthorhombic'
loop_
_space_group_symop_operation_xyz
x,y,z
1/2-x,-y,z
x,1/2-y,1/2-z
1/2-x,1/2+y,1/2-z
-x,-y,-z
1/2+x,y,-z
-x,1/2+y,1/2+z
1/2+x,1/2-y,1/2+z
loop_
_atom_site_type_symbol
_atom_site_label
_atom_site_fract_x
_atom_site_fract_y
_atom_site_fract_z
Si Si1 0.302164 0.061317 0.067476
Si Si2 0.868304 0.946671 0.198826
Si Si3 0.755719 0.346425 0.263578
Si Si4 0.893770 0.391871 0.130655
Si Si5 0.471432 0.813871 0.903184
Si Si6 0.482904 0.250000 0.750000
Si Si7 0.597292 0.653943 0.761686
O O1 0.341510 0.097960 0.219834
O O2 0.250000 0.000000 0.151125
O O3 0.269729 0.135574 0.959253
O O4 0.347307 0.009651 0.944690
O O5 0.806765 0.902233 0.288794
O O6 0.913591 0.879667 0.106752
O O7 0.904198 0.008433 0.332182
O O8 0.736230 0.250000 0.250000
O O9 0.817678 0.368360 0.148473
O O10 0.937317 0.332396 0.248455
O O11 0.922094 0.371691 0.948240
O O12 0.462219 0.750000 0.750000
O O13 0.538761 0.862594 0.868247
O O14 0.472801 0.764823 0.082936
O O15 0.618798 0.750000 0.750000
#
# Coordination Sequence:
#
# PCOD8215215 Si02
#       7
#     8   8   8   8   8   4   8
#     4   9  20  37  57  85 122 158 201 259 309 361
#     4  10  23  38  60  90 126 161 203 255 320 365
#     4  10  18  36  64  87 117 163 203 250 313 373
#     4  11  21  37  64  93 116 160 214 254 311 366
#     4  11  23  43  63  91 125 163 208 255 301 376
#     4  12  22  42  68  88 120 170 212 252 306 370
#     4  11  21  37  60  91 120 159 212 257 296 371
#
# _framework density 19.779948999999998
#
# number of rings (size 3 to 8) (size 9 to 14) (size 15 to 20)
#    0.000    1.538    3.846    4.615    0.000    4.308 
#    2.769    0.000   13.538    0.000    0.000    0.000 
#    0.000    0.000    0.000    0.000    0.000    0.000 
#
# Total GULP energy -644528.736347 kJ/mol
# GULP energy per Si atom -12394.783391 kJ/mol
# Density = 1.973493 g / cm^3
# Si number density = 19.779949 Si / 1000 Ang^3
#
#
#
# Elastic Constant Matrix: (Units=GPa)
#
#
# Indices 1 2 3 4 5 6 
#
# 1 66.1922 48.9180 20.7812 0.0000 0.0000 0.0000
# 2 48.9180 117.9532 36.8667 0.0000 0.0000 0.0000
# 3 20.7812 36.8667 91.2765 0.0000 0.0000 0.0000
# 4 0.0000 0.0000 0.0000 28.1641 0.0000 0.0000
# 5 0.0000 0.0000 0.0000 0.0000 14.6492 0.0000
# 6 0.0000 0.0000 0.0000 0.0000 0.0000 23.0334
#
#
#
# Elastic Compliance Matrix: (Units=1/GPa)
#
#
# Indices 1 2 3 4 5 6 
#
# 1 0.021965 -0.008637 -0.001512 0.000000 0.000000 0.000000
# 2 -0.008637 0.013099 -0.003324 0.000000 0.000000 0.000000
# 3 -0.001512 -0.003324 0.012643 0.000000 0.000000 0.000000
# 4 0.000000 0.000000 0.000000 0.035506 0.000000 0.000000
# 5 0.000000 0.000000 0.000000 0.000000 0.068263 0.000000
# 6 0.000000 0.000000 0.000000 0.000000 0.000000 0.043415
#
#
# Mechanical properties :
#
#
# Convention : Reuss Voigt Hill
#
# Bulk Modulus (GPa) = 48.17018 54.28376 51.22697
# Shear Modulus (GPa) = 21.85712 24.42639 23.14176
#
# Velocity S-wave (km/s) = 3.32778 3.51794 3.42418
# Velocity P-wave (km/s) = 6.25871 6.63359 6.44888
#
# Compressibility (1/GPa) = 0.02075973
#
# Stress axis : x y z
#
# Youngs Moduli (GPa) = 45.52653 76.34266 79.09661
#
# Poissons Ratio (x) = 0.65935 0.11963
# Poissons Ratio (y) = 0.39320 0.26294
# Poissons Ratio (z) = 0.06886 0.25378
#
# Static dielectric constant tensor:
#      x y z
#    x 3.652450 0.000000 0.000000 
#    y 0.000000 4.040370 0.000000 
#    z 0.000000 0.000000 3.517810 
# 
# 
# High freq. dielectric constant tensor:
#      x y z
#    x 1.763010 0.000000 0.000000 
#    y 0.000000 1.780130 0.000000 
#    z 0.000000 0.000000 1.754100 
# 
# From -- ./inp_files/13382.got.cif
#   From: 2010.06.25/outbox.cif.g09.slc.cpg/sg52_7_cif.got.tgz:13382.got - 2010.06.26 19:32:48.
