data_PCOD8215479
_publ_section_title
;
Structure prediction by ZEFSAII (Michael W. Deem and Ramdas Pophale) SiO2 
 PCOD8215479
Probable space group: P N N A
;
_chemical_formula_sum "Si O2"
_cell_formula_units_Z 64
_cell_length_a 8.354644
_cell_length_b 21.101192
_cell_length_c 16.868901
_cell_angle_alpha 90.000000
_cell_angle_beta 90.000000
_cell_angle_gamma 90.000000
_cell_volume 2973.868272
_symmetry_space_group_name_H-M "P N N A"
_symmetry_group_IT_number 52
_symmetry_cell_setting 'orthorhombic'
loop_
_space_group_symop_operation_xyz
x,y,z
1/2-x,-y,z
x,1/2-y,1/2-z
1/2-x,1/2+y,1/2-z
-x,-y,-z
1/2+x,y,-z
-x,1/2+y,1/2+z
1/2+x,1/2-y,1/2+z
loop_
_atom_site_type_symbol
_atom_site_label
_atom_site_fract_x
_atom_site_fract_y
_atom_site_fract_z
Si Si1 0.693913 0.302607 0.305577
Si Si2 0.919093 0.277150 0.438607
Si Si3 0.488980 0.527723 0.773505
Si Si4 0.495248 0.137344 0.543696
Si Si5 0.308386 0.432433 0.085005
Si Si6 0.828144 0.094793 0.306171
Si Si7 0.005656 0.596898 0.387138
Si Si8 0.192327 0.365251 0.468651
O O1 0.612738 0.250000 0.250000
O O2 0.816109 0.263662 0.360568
O O3 0.805977 0.353020 0.261335
O O4 0.544682 0.335312 0.349825
O O5 0.800771 0.307638 0.501710
O O6 0.995023 0.212664 0.474162
O O7 0.052895 0.330574 0.419580
O O8 0.638892 0.556038 0.823017
O O9 0.334602 0.556412 0.815485
O O10 0.476309 0.451577 0.782092
O O11 0.489958 0.542795 0.679478
O O12 0.456168 0.095638 0.465890
O O13 0.666779 0.118692 0.579658
O O14 0.358915 0.125445 0.608709
O O15 0.250000 0.500000 0.049464
O O16 0.191845 0.593199 0.412800
O O17 0.884001 0.589097 0.462328
#
# Coordination Sequence:
#
# PCOD8215479 Si02
#       8
#     8   8   8   8   8   8   8   8
#     4  10  19  37  59  90 124 160 203 246 309 367
#     4  10  20  37  59  84 121 157 199 251 303 368
#     4  10  22  41  60  88 121 160 203 254 310 355
#     4  12  23  37  57  85 121 167 210 246 300 364
#     4  12  25  39  57  86 124 161 210 257 297 356
#     4  10  21  38  63  83 120 167 204 247 306 363
#     4   9  20  39  66  91 124 157 200 256 310 373
#     4   9  19  39  63  89 118 156 198 252 313 363
#
# _framework density 21.520793000000001
#
# number of rings (size 3 to 8) (size 9 to 14) (size 15 to 20)
#    0.000    1.750    2.500    1.875    1.750    1.000 
#   11.250    0.000    0.000   28.500    0.000    0.000 
#    0.000    0.000    0.000    0.000    0.000    0.000 
#
# Total GULP energy -793234.560533 kJ/mol
# GULP energy per Si atom -12394.290008 kJ/mol
# Density = 2.147181 g / cm^3
# Si number density = 21.520793 Si / 1000 Ang^3
#
#
#
# Elastic Constant Matrix: (Units=GPa)
#
#
# Indices 1 2 3 4 5 6 
#
# 1 69.8027 -2.1944 22.3467 0.0000 0.0000 0.0000
# 2 -2.1944 60.9134 13.2425 0.0000 0.0000 0.0000
# 3 22.3467 13.2425 79.0552 0.0000 0.0000 0.0000
# 4 0.0000 0.0000 0.0000 27.3277 0.0000 0.0000
# 5 0.0000 0.0000 0.0000 0.0000 33.7775 0.0000
# 6 0.0000 0.0000 0.0000 0.0000 0.0000 22.6911
#
#
#
# Elastic Compliance Matrix: (Units=1/GPa)
#
#
# Indices 1 2 3 4 5 6 
#
# 1 0.015902 0.001609 -0.004765 0.000000 0.000000 0.000000
# 2 0.001609 0.017200 -0.003336 0.000000 0.000000 0.000000
# 3 -0.004765 -0.003336 0.014555 0.000000 0.000000 0.000000
# 4 0.000000 0.000000 0.000000 0.036593 0.000000 0.000000
# 5 0.000000 0.000000 0.000000 0.000000 0.029606 0.000000
# 6 0.000000 0.000000 0.000000 0.000000 0.000000 0.044070
#
#
# Mechanical properties :
#
#
# Convention : Reuss Voigt Hill
#
# Bulk Modulus (GPa) = 28.84055 30.72900 29.78477
# Shear Modulus (GPa) = 27.40226 28.51769 27.95998
#
# Velocity S-wave (km/s) = 3.57219 3.64417 3.60836
# Velocity P-wave (km/s) = 5.51765 5.65830 5.58842
#
# Compressibility (1/GPa) = 0.03467341
#
# Stress axis : x y z
#
# Youngs Moduli (GPa) = 62.88530 58.13983 68.70504
#
# Poissons Ratio (x) = -0.09353 0.32735
# Poissons Ratio (y) = -0.10116 0.22919
# Poissons Ratio (z) = 0.29962 0.19395
#
# Static dielectric constant tensor:
#      x y z
#    x 4.091610 0.000000 0.000000 
#    y 0.000000 3.754460 0.000000 
#    z 0.000000 0.000000 3.922700 
# 
# 
# High freq. dielectric constant tensor:
#      x y z
#    x 1.844310 0.000000 0.000000 
#    y 0.000000 1.834960 0.000000 
#    z 0.000000 0.000000 1.836990 
# 
# From -- ./inp_files/25146.got.cif
#   From: 2010.06.25/outbox.cif.g09.slc.cpg/sg52_13_cif.got.tgz:25146.got - 2010.06.26 19:32:48.
