data_PCOD8215476
_publ_section_title
;
Structure prediction by ZEFSAII (Michael W. Deem and Ramdas Pophale) SiO2 
 PCOD8215476
Probable space group: P N N A
;
_chemical_formula_sum "Si O2"
_cell_formula_units_Z 48
_cell_length_a 16.074010
_cell_length_b 9.745021
_cell_length_c 15.489765
_cell_angle_alpha 90.000000
_cell_angle_beta 90.000000
_cell_angle_gamma 90.000000
_cell_volume 2426.341031
_symmetry_space_group_name_H-M "P N N A"
_symmetry_group_IT_number 52
_symmetry_cell_setting 'orthorhombic'
loop_
_space_group_symop_operation_xyz
x,y,z
1/2-x,-y,z
x,1/2-y,1/2-z
1/2-x,1/2+y,1/2-z
-x,-y,-z
1/2+x,y,-z
-x,1/2+y,1/2+z
1/2+x,1/2-y,1/2+z
loop_
_atom_site_type_symbol
_atom_site_label
_atom_site_fract_x
_atom_site_fract_y
_atom_site_fract_z
Si Si1 0.155703 0.536439 0.294308
Si Si2 0.066719 0.074836 0.680112
Si Si3 0.993018 0.374916 0.315321
Si Si4 0.601466 0.680326 0.865869
Si Si5 0.102680 0.819266 0.567433
Si Si6 0.243190 0.343733 0.824818
O O1 0.250000 0.500000 0.316655
O O2 0.089301 0.422757 0.328516
O O3 0.147077 0.561178 0.190622
O O4 0.140881 0.674087 0.347249
O O5 0.144718 0.176842 0.663767
O O6 0.993002 0.181517 0.666671
O O7 0.062521 0.954042 0.609561
O O8 0.060449 0.001394 0.774583
O O9 0.992908 0.250000 0.250000
O O10 0.949459 0.317719 0.403738
O O11 0.603715 0.652461 0.966616
O O12 0.200675 0.809142 0.592344
O O13 0.250000 0.500000 0.794384
O O14 0.281150 0.250000 0.750000
#
# Coordination Sequence:
#
# PCOD8215476 Si02
#       6
#     8   8   8   8   8   8
#     4  10  23  40  58  81 111 158 204 242 291 350
#     4   9  19  36  59  86 115 152 190 230 292 354
#     4   9  19  36  61  82 114 151 190 235 300 355
#     4  10  22  39  59  83 114 149 202 244 287 349
#     4  10  19  37  57  90 119 148 187 242 297 348
#     4  10  20  34  58  87 119 150 191 232 292 363
#
# _framework density 19.782875000000001
#
# number of rings (size 3 to 8) (size 9 to 14) (size 15 to 20)
#    0.000    2.333    0.000    3.000    7.000    2.667 
#    3.000    2.500    0.000    0.000    0.000    0.000 
#    0.000    0.000    0.000    0.000    0.000    0.000 
#
# Total GULP energy -594727.442556 kJ/mol
# GULP energy per Si atom -12390.155053 kJ/mol
# Density = 1.973785 g / cm^3
# Si number density = 19.782875 Si / 1000 Ang^3
#
#
#
# Elastic Constant Matrix: (Units=GPa)
#
#
# Indices 1 2 3 4 5 6 
#
# 1 141.8622 35.9075 3.7918 0.0000 0.0000 0.0000
# 2 35.9075 60.6041 22.8169 0.0000 0.0000 0.0000
# 3 3.7918 22.8169 80.0561 0.0000 0.0000 0.0000
# 4 0.0000 0.0000 0.0000 14.4175 0.0000 0.0000
# 5 0.0000 0.0000 0.0000 0.0000 8.0983 0.0000
# 6 0.0000 0.0000 0.0000 0.0000 0.0000 30.1659
#
#
#
# Elastic Compliance Matrix: (Units=1/GPa)
#
#
# Indices 1 2 3 4 5 6 
#
# 1 0.008385 -0.005398 0.001141 0.000000 0.000000 0.000000
# 2 -0.005398 0.021959 -0.006003 0.000000 0.000000 0.000000
# 3 0.001141 -0.006003 0.014148 0.000000 0.000000 0.000000
# 4 0.000000 0.000000 0.000000 0.069360 0.000000 0.000000
# 5 0.000000 0.000000 0.000000 0.000000 0.123482 0.000000
# 6 0.000000 0.000000 0.000000 0.000000 0.000000 0.033150
#
#
# Mechanical properties :
#
#
# Convention : Reuss Voigt Hill
#
# Bulk Modulus (GPa) = 41.71338 45.28386 43.49862
# Shear Modulus (GPa) = 16.72278 25.20343 20.96311
#
# Velocity S-wave (km/s) = 2.91059 3.57319 3.25877
# Velocity P-wave (km/s) = 5.69445 6.32168 6.01625
#
# Compressibility (1/GPa) = 0.02397312
#
# Stress axis : x y z
#
# Youngs Moduli (GPa) = 119.26340 45.54037 70.68113
#
# Poissons Ratio (x) = 0.24581 -0.08066
# Poissons Ratio (y) = 0.64373 0.42428
# Poissons Ratio (z) = -0.13611 0.27337
#
# Static dielectric constant tensor:
#      x y z
#    x 4.025070 0.000000 0.000000 
#    y 0.000000 3.660560 0.000000 
#    z 0.000000 0.000000 3.410690 
# 
# 
# High freq. dielectric constant tensor:
#      x y z
#    x 1.782940 0.000000 0.000000 
#    y 0.000000 1.769750 0.000000 
#    z 0.000000 0.000000 1.742560 
# 
# From -- ./inp_files/28094.got.cif
#   From: 2010.06.25/outbox.cif.g09.slc.cpg/sg52_15_cif.got.tgz:28094.got - 2010.06.26 19:32:48.
