data_PCOD8215658
_publ_section_title
;
Structure prediction by ZEFSAII (Michael W. Deem and Ramdas Pophale) SiO2 
 PCOD8215658
Probable space group: P N N A
;
_chemical_formula_sum "Si O2"
_cell_formula_units_Z 48
_cell_length_a 12.035002
_cell_length_b 12.475266
_cell_length_c 17.301018
_cell_angle_alpha 90.000000
_cell_angle_beta 90.000000
_cell_angle_gamma 90.000000
_cell_volume 2597.572269
_symmetry_space_group_name_H-M "P N N A"
_symmetry_group_IT_number 52
_symmetry_cell_setting 'orthorhombic'
loop_
_space_group_symop_operation_xyz
x,y,z
1/2-x,-y,z
x,1/2-y,1/2-z
1/2-x,1/2+y,1/2-z
-x,-y,-z
1/2+x,y,-z
-x,1/2+y,1/2+z
1/2+x,1/2-y,1/2+z
loop_
_atom_site_type_symbol
_atom_site_label
_atom_site_fract_x
_atom_site_fract_y
_atom_site_fract_z
Si Si1 0.131124 0.548859 0.427668
Si Si2 0.517599 0.648137 0.704810
Si Si3 0.013729 0.335336 0.462389
Si Si4 0.885521 0.218836 0.340175
Si Si5 0.124855 0.020041 0.677112
Si Si6 0.353303 0.733358 0.906944
O O1 0.250000 0.500000 0.446898
O O2 0.120269 0.593330 0.340159
O O3 0.046041 0.453157 0.437057
O O4 0.096032 0.647882 0.483734
O O5 0.567831 0.750000 0.750000
O O6 0.458588 0.559354 0.757209
O O7 0.422132 0.689688 0.648521
O O8 0.111598 0.267913 0.506073
O O9 0.986869 0.276974 0.382255
O O10 0.876139 0.250000 0.250000
O O11 0.774818 0.253660 0.386182
O O12 0.915784 0.094441 0.352907
O O13 0.122488 0.107000 0.607540
O O14 0.250000 0.000000 0.709971
#
# Coordination Sequence:
#
# PCOD8215658 Si02
#       6
#     8   8   8   8   8   8
#     4  10  20  35  52  72  99 132 172 211 255 310
#     4   9  17  32  52  73 100 135 171 206 252 309
#     4  10  21  34  52  75 101 135 169 212 262 304
#     4  11  20  32  53  82 108 131 170 220 260 296
#     4   9  17  30  51  78 105 134 168 212 256 296
#     4   9  18  33  52  74 104 139 171 205 254 311
#
# _framework density 18.478793
#
# number of rings (size 3 to 8) (size 9 to 14) (size 15 to 20)
#    0.000    2.333    0.000    4.500    0.000    0.667 
#    0.000    8.333    0.000    0.000    0.000    1.167 
#    0.000    0.000    0.000    0.000    0.000    0.000 
#
# Total GULP energy -594805.866012 kJ/mol
# GULP energy per Si atom -12391.788875 kJ/mol
# Density = 1.843673 g / cm^3
# Si number density = 18.478793 Si / 1000 Ang^3
#
#
#
# Elastic Constant Matrix: (Units=GPa)
#
#
# Indices 1 2 3 4 5 6 
#
# 1 54.5311 21.7615 39.2967 0.0000 0.0000 0.0000
# 2 21.7615 90.7077 40.1429 0.0000 0.0000 0.0000
# 3 39.2967 40.1429 98.3306 0.0000 0.0000 0.0000
# 4 0.0000 0.0000 0.0000 24.7920 0.0000 0.0000
# 5 0.0000 0.0000 0.0000 0.0000 21.4764 0.0000
# 6 0.0000 0.0000 0.0000 0.0000 0.0000 28.2066
#
#
#
# Elastic Compliance Matrix: (Units=1/GPa)
#
#
# Indices 1 2 3 4 5 6 
#
# 1 0.026051 -0.002005 -0.009593 0.000000 0.000000 0.000000
# 2 -0.002005 0.013610 -0.004755 0.000000 0.000000 0.000000
# 3 -0.009593 -0.004755 0.015944 0.000000 0.000000 0.000000
# 4 0.000000 0.000000 0.000000 0.040336 0.000000 0.000000
# 5 0.000000 0.000000 0.000000 0.000000 0.046563 0.000000
# 6 0.000000 0.000000 0.000000 0.000000 0.000000 0.035453
#
#
# Mechanical properties :
#
#
# Convention : Reuss Voigt Hill
#
# Bulk Modulus (GPa) = 43.66665 49.55242 46.60953
# Shear Modulus (GPa) = 22.90492 24.38622 23.64557
#
# Velocity S-wave (km/s) = 3.52451 3.63669 3.58104
# Velocity P-wave (km/s) = 6.34388 6.67144 6.50972
#
# Compressibility (1/GPa) = 0.02290077
#
# Stress axis : x y z
#
# Youngs Moduli (GPa) = 38.38659 73.47732 62.71759
#
# Poissons Ratio (x) = 0.14729 0.60162
# Poissons Ratio (y) = 0.07695 0.29822
# Poissons Ratio (z) = 0.36822 0.34938
#
# Static dielectric constant tensor:
#      x y z
#    x 3.160310 0.000000 0.000000 
#    y 0.000000 3.642040 0.000000 
#    z 0.000000 0.000000 3.431360 
# 
# 
# High freq. dielectric constant tensor:
#      x y z
#    x 1.689760 0.000000 0.000000 
#    y 0.000000 1.731470 0.000000 
#    z 0.000000 0.000000 1.704320 
# 
# From -- ./inp_files/32198.got.cif
#   From: 2010.06.25/outbox.cif.g09.slc.cpg/sg52_17_cif.got.tgz:32198.got - 2010.06.26 19:32:48.
