data_PCOD8215927
_publ_section_title
;
Structure prediction by ZEFSAII (Michael W. Deem and Ramdas Pophale) SiO2 
 PCOD8215927
Probable space group: P N N A
;
_chemical_formula_sum "Si O2"
_cell_formula_units_Z 40
_cell_length_a 14.212483
_cell_length_b 14.017087
_cell_length_c 9.788437
_cell_angle_alpha 90.000000
_cell_angle_beta 90.000000
_cell_angle_gamma 90.000000
_cell_volume 1950.029032
_symmetry_space_group_name_H-M "P N N A"
_symmetry_group_IT_number 52
_symmetry_cell_setting 'orthorhombic'
loop_
_space_group_symop_operation_xyz
x,y,z
1/2-x,-y,z
x,1/2-y,1/2-z
1/2-x,1/2+y,1/2-z
-x,-y,-z
1/2+x,y,-z
-x,1/2+y,1/2+z
1/2+x,1/2-y,1/2+z
loop_
_atom_site_type_symbol
_atom_site_label
_atom_site_fract_x
_atom_site_fract_y
_atom_site_fract_z
Si Si1 0.846218 0.439392 0.487971
Si Si2 0.404288 0.820170 0.376034
Si Si3 0.009183 0.488523 0.284834
Si Si4 0.793307 0.231850 0.593195
Si Si5 0.984441 0.172585 0.632578
O O1 0.750000 0.500000 0.466833
O O2 0.907296 0.480309 0.613203
O O3 0.814832 0.330307 0.512279
O O4 0.916496 0.444346 0.357113
O O5 0.415923 0.750000 0.250000
O O6 0.441665 0.921111 0.325636
O O7 0.302035 0.821704 0.449523
O O8 0.463677 0.782879 0.503528
O O9 0.971710 0.576897 0.194759
O O10 0.773343 0.250000 0.750000
O O11 0.878014 0.156881 0.578062
O O12 0.982508 0.250000 0.750000
#
# Coordination Sequence:
#
# PCOD8215927 Si02
#       5
#     8   8   8   8   8
#     4  11  22  39  68  98 133 173 228 273 341 402
#     4  11  24  41  67  97 129 174 221 274 335 403
#     4  11  24  41  67  96 135 177 221 283 335 406
#     4  10  20  39  63  95 123 171 223 266 319 413
#     4  11  23  43  64  95 136 172 221 278 338 394
#
# _framework density 20.512515
#
# number of rings (size 3 to 8) (size 9 to 14) (size 15 to 20)
#    0.000    1.200    4.000    4.200    5.600    0.000 
#    3.600    1.000    0.000    0.000    0.000    0.000 
#    0.000    0.000    0.000    0.000    0.000    0.000 
#
# Total GULP energy -495532.266865 kJ/mol
# GULP energy per Si atom -12388.306672 kJ/mol
# Density = 2.046583 g / cm^3
# Si number density = 20.512515 Si / 1000 Ang^3
#
#
#
# Elastic Constant Matrix: (Units=GPa)
#
#
# Indices 1 2 3 4 5 6 
#
# 1 151.4027 35.9123 74.5499 0.0000 0.0000 0.0000
# 2 35.9123 91.0697 34.8456 0.0000 0.0000 0.0000
# 3 74.5499 34.8456 90.0112 0.0000 0.0000 0.0000
# 4 0.0000 0.0000 0.0000 33.3055 0.0000 0.0000
# 5 0.0000 0.0000 0.0000 0.0000 15.6426 0.0000
# 6 0.0000 0.0000 0.0000 0.0000 0.0000 50.0773
#
#
#
# Elastic Compliance Matrix: (Units=1/GPa)
#
#
# Indices 1 2 3 4 5 6 
#
# 1 0.011234 -0.001021 -0.008909 0.000000 0.000000 0.000000
# 2 -0.001021 0.012983 -0.004180 0.000000 0.000000 0.000000
# 3 -0.008909 -0.004180 0.020107 0.000000 0.000000 0.000000
# 4 0.000000 0.000000 0.000000 0.030025 0.000000 0.000000
# 5 0.000000 0.000000 0.000000 0.000000 0.063928 0.000000
# 6 0.000000 0.000000 0.000000 0.000000 0.000000 0.019969
#
#
# Mechanical properties :
#
#
# Convention : Reuss Voigt Hill
#
# Bulk Modulus (GPa) = 62.10141 69.23323 65.66732
# Shear Modulus (GPa) = 26.06430 32.28346 29.17388
#
# Velocity S-wave (km/s) = 3.56849 3.97147 3.77536
# Velocity P-wave (km/s) = 6.87891 7.40642 7.14754
#
# Compressibility (1/GPa) = 0.01610269
#
# Stress axis : x y z
#
# Youngs Moduli (GPa) = 89.01727 77.02534 49.73506
#
# Poissons Ratio (x) = 0.07866 0.44308
# Poissons Ratio (y) = 0.09090 0.20790
# Poissons Ratio (z) = 0.79304 0.32198
#
# Static dielectric constant tensor:
#      x y z
#    x 4.519980 0.000000 0.000000 
#    y 0.000000 4.877440 0.000000 
#    z 0.000000 0.000000 3.674570 
# 
# 
# High freq. dielectric constant tensor:
#      x y z
#    x 1.820000 0.000000 0.000000 
#    y 0.000000 1.794150 0.000000 
#    z 0.000000 0.000000 1.793760 
# 
# From -- ./inp_files/10026.got.cif
#   From: 2010.06.25/outbox.cif.g09.slc.cpg/sg52_6_cif.got.tgz:10026.got - 2010.06.26 19:32:48.
