data_PCOD8215221
_publ_section_title
;
Structure prediction by ZEFSAII (Michael W. Deem and Ramdas Pophale) SiO2 
 PCOD8215221
Probable space group: P N N A
;
_chemical_formula_sum "Si O2"
_cell_formula_units_Z 60
_cell_length_a 14.598226
_cell_length_b 10.230880
_cell_length_c 18.569950
_cell_angle_alpha 90.000000
_cell_angle_beta 90.000000
_cell_angle_gamma 90.000000
_cell_volume 2773.472142
_symmetry_space_group_name_H-M "P N N A"
_symmetry_group_IT_number 52
_symmetry_cell_setting 'orthorhombic'
loop_
_space_group_symop_operation_xyz
x,y,z
1/2-x,-y,z
x,1/2-y,1/2-z
1/2-x,1/2+y,1/2-z
-x,-y,-z
1/2+x,y,-z
-x,1/2+y,1/2+z
1/2+x,1/2-y,1/2+z
loop_
_atom_site_type_symbol
_atom_site_label
_atom_site_fract_x
_atom_site_fract_y
_atom_site_fract_z
Si Si1 0.750000 0.000000 0.843348
Si Si2 0.095301 0.428168 0.704238
Si Si3 0.752555 0.299045 0.530356
Si Si4 0.813114 0.119187 0.117880
Si Si5 0.591068 0.147831 0.474389
Si Si6 0.397020 0.095644 0.427885
Si Si7 0.395669 0.398934 0.238606
Si Si8 0.319244 0.825181 0.661054
O O1 0.746795 0.125985 0.894520
O O2 0.837504 0.007453 0.791085
O O3 0.094773 0.564030 0.656676
O O4 0.108242 0.297289 0.656646
O O5 0.174439 0.411747 0.767031
O O6 0.000218 0.423715 0.744069
O O7 0.811044 0.378265 0.469314
O O8 0.648808 0.274220 0.502063
O O9 0.805922 0.163815 0.542477
O O10 0.782008 0.260138 0.150228
O O11 0.750000 0.000000 0.146153
O O12 0.487320 0.182483 0.448318
O O13 0.649647 0.087626 0.407166
O O14 0.588189 0.045399 0.538251
O O15 0.382380 0.065895 0.344271
O O16 0.364952 0.250000 0.250000
#
# Coordination Sequence:
#
# PCOD8215221 Si02
#       8
#     4   8   8   8   8   8   8   8
#     4  12  28  40  66 102 128 178 230 280 336 396
#     4  10  18  36  66  92 128 172 217 264 319 408
#     4  11  23  43  63  97 138 173 221 279 340 398
#     4   9  19  35  59  91 129 164 211 264 322 386
#     4  10  22  41  69  96 130 171 227 276 331 405
#     4  11  23  42  69  97 127 179 224 280 335 403
#     4  12  23  42  67  95 128 174 228 270 336 396
#     4   9  17  35  61  95 125 169 209 262 323 395
#
# _framework density 21.633531000000001
#
# number of rings (size 3 to 8) (size 9 to 14) (size 15 to 20)
#    0.000    1.600    4.667    0.400    1.867    1.067 
#    0.000   16.000    0.000    0.000    0.000    0.000 
#    0.000    0.000    0.000    0.000    0.000    0.000 
#
# Total GULP energy -743287.141582 kJ/mol
# GULP energy per Si atom -12388.119026 kJ/mol
# Density = 2.158429 g / cm^3
# Si number density = 21.633531 Si / 1000 Ang^3
#
#
#
# Elastic Constant Matrix: (Units=GPa)
#
#
# Indices 1 2 3 4 5 6 
#
# 1 57.2916 18.8578 35.5619 0.0000 0.0000 0.0000
# 2 18.8578 46.3115 41.8924 0.0000 0.0000 0.0000
# 3 35.5619 41.8924 167.4188 0.0000 0.0000 0.0000
# 4 0.0000 0.0000 0.0000 9.4239 0.0000 0.0000
# 5 0.0000 0.0000 0.0000 0.0000 32.3155 0.0000
# 6 0.0000 0.0000 0.0000 0.0000 0.0000 25.6116
#
#
#
# Elastic Compliance Matrix: (Units=1/GPa)
#
#
# Indices 1 2 3 4 5 6 
#
# 1 0.021290 -0.005918 -0.003042 0.000000 0.000000 0.000000
# 2 -0.005918 0.029555 -0.006138 0.000000 0.000000 0.000000
# 3 -0.003042 -0.006138 0.008155 0.000000 0.000000 0.000000
# 4 0.000000 0.000000 0.000000 0.106113 0.000000 0.000000
# 5 0.000000 0.000000 0.000000 0.000000 0.030945 0.000000
# 6 0.000000 0.000000 0.000000 0.000000 0.000000 0.039045
#
#
# Mechanical properties :
#
#
# Convention : Reuss Voigt Hill
#
# Bulk Modulus (GPa) = 34.71632 51.51623 43.11627
# Shear Modulus (GPa) = 18.18836 25.11753 21.65294
#
# Velocity S-wave (km/s) = 2.90271 3.41111 3.16713
# Velocity P-wave (km/s) = 5.22653 6.27527 5.77476
#
# Compressibility (1/GPa) = 0.02880490
#
# Stress axis : x y z
#
# Youngs Moduli (GPa) = 46.96936 33.83474 122.62288
#
# Poissons Ratio (x) = 0.20024 0.37296
# Poissons Ratio (y) = 0.27797 0.75271
# Poissons Ratio (z) = 0.14286 0.20769
#
# Static dielectric constant tensor:
#      x y z
#    x 3.953670 0.000000 0.000000 
#    y 0.000000 4.303820 0.000000 
#    z 0.000000 0.000000 4.156180 
# 
# 
# High freq. dielectric constant tensor:
#      x y z
#    x 1.828380 0.000000 0.000000 
#    y 0.000000 1.819910 0.000000 
#    z 0.000000 0.000000 1.875800 
# 
# From -- ./inp_files/33267.got.cif
#   From: 2010.06.25/outbox.cif.g09.slc.cpg/sg52_17_cif.got.tgz:33267.got - 2010.06.26 19:32:48.
