data_PCOD8215350
_publ_section_title
;
Structure prediction by ZEFSAII (Michael W. Deem and Ramdas Pophale) SiO2 
 PCOD8215350
Probable space group: P N N A
;
_chemical_formula_sum "Si O2"
_cell_formula_units_Z 32
_cell_length_a 8.349494
_cell_length_b 11.313033
_cell_length_c 19.189338
_cell_angle_alpha 90.000000
_cell_angle_beta 90.000000
_cell_angle_gamma 90.000000
_cell_volume 1812.588430
_symmetry_space_group_name_H-M "P N N A"
_symmetry_group_IT_number 52
_symmetry_cell_setting 'orthorhombic'
loop_
_space_group_symop_operation_xyz
x,y,z
1/2-x,-y,z
x,1/2-y,1/2-z
1/2-x,1/2+y,1/2-z
-x,-y,-z
1/2+x,y,-z
-x,1/2+y,1/2+z
1/2+x,1/2-y,1/2+z
loop_
_atom_site_type_symbol
_atom_site_label
_atom_site_fract_x
_atom_site_fract_y
_atom_site_fract_z
Si Si1 0.999798 0.620504 0.906437
Si Si2 0.059535 0.510907 0.233336
Si Si3 0.919283 0.181660 0.184617
Si Si4 0.750000 0.500000 0.995217
Si Si5 0.108787 0.250000 0.750000
O O1 0.017150 0.760591 0.887828
O O2 0.015708 0.549452 0.834668
O O3 0.833896 0.595427 0.944976
O O4 0.138228 0.579875 0.957784
O O5 0.250000 0.500000 0.237226
O O6 0.978053 0.453634 0.303428
O O7 0.009030 0.646752 0.225546
O O8 0.001931 0.250000 0.250000
O O9 0.725469 0.200002 0.188354
#
# Coordination Sequence:
#
# PCOD8215350 Si02
#       5
#     8   8   8   4   4
#     4  10  19  34  50  78 111 138 186 226 265 325
#     4  11  21  32  53  84 116 136 181 229 281 325
#     4   8  19  34  51  73 111 139 172 224 274 325
#     4  10  20  30  54  80 104 156 180 222 272 308
#     4  10  20  30  54  78 108 152 166 216 288 334
#
# _framework density 17.654311
#
# number of rings (size 3 to 8) (size 9 to 14) (size 15 to 20)
#    0.750    1.500    1.250    2.250    5.250    0.000 
#    0.000    0.000    0.000    0.000    0.000   43.750 
#    0.000    0.000    0.000    0.000    0.000    0.000 
#
# Total GULP energy -396420.381928 kJ/mol
# GULP energy per Si atom -12388.136935 kJ/mol
# Density = 1.761413 g / cm^3
# Si number density = 17.654311 Si / 1000 Ang^3
#
#
#
# Elastic Constant Matrix: (Units=GPa)
#
#
# Indices 1 2 3 4 5 6 
#
# 1 106.1308 36.2319 32.0124 0.0000 0.0000 0.0000
# 2 36.2319 83.8305 37.6706 0.0000 0.0000 0.0000
# 3 32.0124 37.6706 76.7433 0.0000 0.0000 0.0000
# 4 0.0000 0.0000 0.0000 30.2079 0.0000 0.0000
# 5 0.0000 0.0000 0.0000 0.0000 12.6626 0.0000
# 6 0.0000 0.0000 0.0000 0.0000 0.0000 25.2904
#
#
#
# Elastic Compliance Matrix: (Units=1/GPa)
#
#
# Indices 1 2 3 4 5 6 
#
# 1 0.011583 -0.003637 -0.003046 0.000000 0.000000 0.000000
# 2 -0.003637 0.016447 -0.006556 0.000000 0.000000 0.000000
# 3 -0.003046 -0.006556 0.017519 0.000000 0.000000 0.000000
# 4 0.000000 0.000000 0.000000 0.033104 0.000000 0.000000
# 5 0.000000 0.000000 0.000000 0.000000 0.078973 0.000000
# 6 0.000000 0.000000 0.000000 0.000000 0.000000 0.039541
#
#
# Mechanical properties :
#
#
# Convention : Reuss Voigt Hill
#
# Bulk Modulus (GPa) = 52.43821 53.17051 52.80436
# Shear Modulus (GPa) = 21.73891 24.35149 23.04520
#
# Velocity S-wave (km/s) = 3.51289 3.71799 3.61689
# Velocity P-wave (km/s) = 6.79861 6.97239 6.88605
#
# Compressibility (1/GPa) = 0.01907006
#
# Stress axis : x y z
#
# Youngs Moduli (GPa) = 86.33409 60.80165 57.08014
#
# Poissons Ratio (x) = 0.22115 0.17388
# Poissons Ratio (y) = 0.31402 0.37422
# Poissons Ratio (z) = 0.26299 0.39861
#
# Static dielectric constant tensor:
#      x y z
#    x 3.316420 0.000000 0.000000 
#    y 0.000000 3.309640 0.000000 
#    z 0.000000 0.000000 3.178860 
# 
# 
# High freq. dielectric constant tensor:
#      x y z
#    x 1.689280 0.000000 0.000000 
#    y 0.000000 1.669680 0.000000 
#    z 0.000000 0.000000 1.647440 
# 
# From -- ./inp_files/30811.got.cif
#   From: 2010.06.25/outbox.cif.g09.slc.cpg/sg52_16_cif.got.tgz:30811.got - 2010.06.26 19:32:48.
