data_PCOD8215113
_publ_section_title
;
Structure prediction by ZEFSAII (Michael W. Deem and Ramdas Pophale) SiO2 
 PCOD8215113
Probable space group: P N N A
;
_chemical_formula_sum "Si O2"
_cell_formula_units_Z 64
_cell_length_a 24.645458
_cell_length_b 11.068164
_cell_length_c 12.052855
_cell_angle_alpha 90.000000
_cell_angle_beta 90.000000
_cell_angle_gamma 90.000000
_cell_volume 3287.777437
_symmetry_space_group_name_H-M "P N N A"
_symmetry_group_IT_number 52
_symmetry_cell_setting 'orthorhombic'
loop_
_space_group_symop_operation_xyz
x,y,z
1/2-x,-y,z
x,1/2-y,1/2-z
1/2-x,1/2+y,1/2-z
-x,-y,-z
1/2+x,y,-z
-x,1/2+y,1/2+z
1/2+x,1/2-y,1/2+z
loop_
_atom_site_type_symbol
_atom_site_label
_atom_site_fract_x
_atom_site_fract_y
_atom_site_fract_z
Si Si1 0.616098 0.625392 0.631846
Si Si2 0.599509 0.407496 0.986603
Si Si3 0.950498 0.965517 0.302293
Si Si4 0.718129 0.381349 0.886182
Si Si5 0.550859 0.554659 0.436824
Si Si6 0.937387 0.382187 0.844859
Si Si7 0.506854 0.289136 0.866742
Si Si8 0.258325 0.370514 0.362197
O O1 0.603411 0.552725 0.518397
O O2 0.591680 0.555044 0.737959
O O3 0.585750 0.752470 0.626698
O O4 0.678458 0.646853 0.658028
O O5 0.657606 0.387632 0.931995
O O6 0.573848 0.533781 0.948815
O O7 0.557750 0.302061 0.950172
O O8 0.600038 0.417439 0.121870
O O9 0.933091 0.979299 0.173545
O O10 0.972874 0.090047 0.350968
O O11 0.998935 0.868704 0.317217
O O12 0.750000 0.500000 0.933111
O O13 0.723922 0.380413 0.752450
O O14 0.740043 0.249967 0.929488
O O15 0.500000 0.500000 0.500000
O O16 0.536348 0.692034 0.409117
O O17 0.532936 0.250000 0.750000
O O18 0.250000 0.500000 0.425921
#
# Coordination Sequence:
#
# PCOD8215113 Si02
#       8
#     8   8   8   8   8   8   8   8
#     4  11  20  33  58  80 114 159 187 239 308 349
#     4  11  20  33  57  78 113 152 189 241 302 334
#     4  10  20  36  51  81 117 150 190 237 281 355
#     4  10  20  35  55  83 113 142 197 250 291 353
#     4  11  21  36  52  82 116 152 195 228 280 369
#     4  10  18  32  53  82 114 146 189 233 291 362
#     4   9  20  33  53  81 116 153 190 225 283 362
#     4  10  21  36  53  82 118 145 193 247 300 351
#
# _framework density 19.466038999999999
#
# number of rings (size 3 to 8) (size 9 to 14) (size 15 to 20)
#    0.000    1.750    1.250    6.750    1.750    1.000 
#    0.000    0.000    0.000    0.750    0.000    1.750 
#    0.000    0.000    0.000    0.000    0.000    0.000 
#
# Total GULP energy -792894.786889 kJ/mol
# GULP energy per Si atom -12388.981045 kJ/mol
# Density = 1.942173 g / cm^3
# Si number density = 19.466039 Si / 1000 Ang^3
#
#
#
# Elastic Constant Matrix: (Units=GPa)
#
#
# Indices 1 2 3 4 5 6 
#
# 1 92.5574 9.5663 53.8947 0.0000 0.0000 0.0000
# 2 9.5663 88.0847 14.2640 0.0000 0.0000 0.0000
# 3 53.8947 14.2640 133.3167 0.0000 0.0000 0.0000
# 4 0.0000 0.0000 0.0000 18.1929 0.0000 0.0000
# 5 0.0000 0.0000 0.0000 0.0000 21.1924 0.0000
# 6 0.0000 0.0000 0.0000 0.0000 0.0000 11.4293
#
#
#
# Elastic Compliance Matrix: (Units=1/GPa)
#
#
# Indices 1 2 3 4 5 6 
#
# 1 0.014164 -0.000622 -0.005659 0.000000 0.000000 0.000000
# 2 -0.000622 0.011580 -0.000988 0.000000 0.000000 0.000000
# 3 -0.005659 -0.000988 0.009894 0.000000 0.000000 0.000000
# 4 0.000000 0.000000 0.000000 0.054967 0.000000 0.000000
# 5 0.000000 0.000000 0.000000 0.000000 0.047187 0.000000
# 6 0.000000 0.000000 0.000000 0.000000 0.000000 0.087494
#
#
# Mechanical properties :
#
#
# Convention : Reuss Voigt Hill
#
# Bulk Modulus (GPa) = 47.39144 52.15653 49.77399
# Shear Modulus (GPa) = 20.25462 25.91182 23.08322
#
# Velocity S-wave (km/s) = 3.22919 3.65242 3.44731
# Velocity P-wave (km/s) = 6.18887 6.68122 6.43975
#
# Compressibility (1/GPa) = 0.02110086
#
# Stress axis : x y z
#
# Youngs Moduli (GPa) = 70.60308 86.35448 101.06693
#
# Poissons Ratio (x) = 0.05369 0.57197
# Poissons Ratio (y) = 0.04390 0.09982
# Poissons Ratio (z) = 0.39956 0.08529
#
# Static dielectric constant tensor:
#      x y z
#    x 3.378160 0.000000 0.000000 
#    y 0.000000 3.941250 0.000000 
#    z 0.000000 0.000000 3.807950 
# 
# 
# High freq. dielectric constant tensor:
#      x y z
#    x 1.729810 0.000000 0.000000 
#    y 0.000000 1.770400 0.000000 
#    z 0.000000 0.000000 1.736340 
# 
# From -- ./inp_files/22492.got.cif
#   From: 2010.06.25/outbox.cif.g09.slc.cpg/sg52_12_cif.got.tgz:22492.got - 2010.06.26 19:32:48.
