data_PCOD8215585
_publ_section_title
;
Structure prediction by ZEFSAII (Michael W. Deem and Ramdas Pophale) SiO2 
 PCOD8215585
Probable space group: P N N A
;
_chemical_formula_sum "Si O2"
_cell_formula_units_Z 40
_cell_length_a 31.278655
_cell_length_b 4.974460
_cell_length_c 16.391387
_cell_angle_alpha 90.000000
_cell_angle_beta 90.000000
_cell_angle_gamma 90.000000
_cell_volume 2550.408323
_symmetry_space_group_name_H-M "P N N A"
_symmetry_group_IT_number 52
_symmetry_cell_setting 'orthorhombic'
loop_
_space_group_symop_operation_xyz
x,y,z
1/2-x,-y,z
x,1/2-y,1/2-z
1/2-x,1/2+y,1/2-z
-x,-y,-z
1/2+x,y,-z
-x,1/2+y,1/2+z
1/2+x,1/2-y,1/2+z
loop_
_atom_site_type_symbol
_atom_site_label
_atom_site_fract_x
_atom_site_fract_y
_atom_site_fract_z
Si Si1 0.985097 0.684473 0.342682
Si Si2 0.127522 0.293227 0.346029
Si Si3 0.776171 0.750142 0.652782
Si Si4 0.965196 0.356357 0.058953
Si Si5 0.078386 0.705482 0.097878
O O1 0.973337 0.750000 0.250000
O O2 0.980426 0.383756 0.380143
O O3 0.034385 0.766417 0.353299
O O4 0.951842 0.889902 0.386189
O O5 0.125100 0.250000 0.250000
O O6 0.175379 0.248817 0.379894
O O7 0.113959 0.596039 0.366632
O O8 0.094965 0.096360 0.390999
O O9 0.750000 0.500000 0.618172
O O10 0.777219 0.750000 0.750000
O O11 0.750000 0.000000 0.617853
O O12 0.928251 0.244220 0.999466
O O13 0.000000 0.500000 0.000000
#
# Coordination Sequence:
#
# PCOD8215585 Si02
#       5
#     8   8   8   8   8
#     4  11  20  32  48  65  85 115 155 191 221 259
#     4  11  20  29  44  65  85 112 151 188 219 249
#     4   9  17  29  42  57  81 111 143 178 212 251
#     4  10  20  33  46  62  87 118 146 181 231 276
#     4  11  20  31  44  63  88 112 144 188 228 255
#
# _framework density 15.683764
#
# number of rings (size 3 to 8) (size 9 to 14) (size 15 to 20)
#    0.000    1.600    0.000    9.600    0.000    3.200 
#    0.000    0.000    0.000    0.000    0.000    0.000 
#    0.000    0.000    0.000    0.000    0.000  252.000 
#
# Total GULP energy -495524.509445 kJ/mol
# GULP energy per Si atom -12388.112736 kJ/mol
# Density = 1.564807 g / cm^3
# Si number density = 15.683764 Si / 1000 Ang^3
#
#
#
# Elastic Constant Matrix: (Units=GPa)
#
#
# Indices 1 2 3 4 5 6 
#
# 1 57.4047 15.8307 18.5973 0.0000 0.0000 0.0000
# 2 15.8307 100.7670 31.1812 0.0000 0.0000 0.0000
# 3 18.5973 31.1812 90.9494 0.0000 0.0000 0.0000
# 4 0.0000 0.0000 0.0000 24.1658 0.0000 0.0000
# 5 0.0000 0.0000 0.0000 0.0000 10.7872 0.0000
# 6 0.0000 0.0000 0.0000 0.0000 0.0000 12.6975
#
#
#
# Elastic Compliance Matrix: (Units=1/GPa)
#
#
# Indices 1 2 3 4 5 6 
#
# 1 0.019008 -0.001995 -0.003203 0.000000 0.000000 0.000000
# 2 -0.001995 0.011311 -0.003470 0.000000 0.000000 0.000000
# 3 -0.003203 -0.003470 0.012840 0.000000 0.000000 0.000000
# 4 0.000000 0.000000 0.000000 0.041381 0.000000 0.000000
# 5 0.000000 0.000000 0.000000 0.000000 0.092702 0.000000
# 6 0.000000 0.000000 0.000000 0.000000 0.000000 0.078755
#
#
# Mechanical properties :
#
#
# Convention : Reuss Voigt Hill
#
# Bulk Modulus (GPa) = 38.72507 42.25995 40.49251
# Shear Modulus (GPa) = 17.73424 21.76423 19.74923
#
# Velocity S-wave (km/s) = 3.36629 3.72921 3.55239
# Velocity P-wave (km/s) = 6.31300 6.74880 6.53453
#
# Compressibility (1/GPa) = 0.02582307
#
# Stress axis : x y z
#
# Youngs Moduli (GPa) = 52.60952 88.40907 77.88371
#
# Poissons Ratio (x) = 0.17639 0.24944
# Poissons Ratio (y) = 0.10496 0.27025
# Poissons Ratio (z) = 0.16849 0.30677
#
# Static dielectric constant tensor:
#      x y z
#    x 2.913780 0.000000 0.000000 
#    y 0.000000 3.286590 0.000000 
#    z 0.000000 0.000000 3.158150 
# 
# 
# High freq. dielectric constant tensor:
#      x y z
#    x 1.569260 0.000000 0.000000 
#    y 0.000000 1.629600 0.000000 
#    z 0.000000 0.000000 1.573920 
# 
# From -- ./inp_files/29306.got.cif
#   From: 2010.06.25/outbox.cif.g09.slc.cpg/sg52_15_cif.got.tgz:29306.got - 2010.06.26 19:32:48.
