data_PCOD8215434
_publ_section_title
;
Structure prediction by ZEFSAII (Michael W. Deem and Ramdas Pophale) SiO2 
 PCOD8215434
Probable space group: P N N A
;
_chemical_formula_sum "Si O2"
_cell_formula_units_Z 64
_cell_length_a 17.641198
_cell_length_b 9.813150
_cell_length_c 20.163097
_cell_angle_alpha 90.000000
_cell_angle_beta 90.000000
_cell_angle_gamma 90.000000
_cell_volume 3490.549098
_symmetry_space_group_name_H-M "P N N A"
_symmetry_group_IT_number 52
_symmetry_cell_setting 'orthorhombic'
loop_
_space_group_symop_operation_xyz
x,y,z
1/2-x,-y,z
x,1/2-y,1/2-z
1/2-x,1/2+y,1/2-z
-x,-y,-z
1/2+x,y,-z
-x,1/2+y,1/2+z
1/2+x,1/2-y,1/2+z
loop_
_atom_site_type_symbol
_atom_site_label
_atom_site_fract_x
_atom_site_fract_y
_atom_site_fract_z
Si Si1 0.881180 0.461825 0.350813
Si Si2 0.842769 0.396348 0.493297
Si Si3 0.336958 0.496245 0.796317
Si Si4 0.073927 0.394107 0.075026
Si Si5 0.180104 0.198042 0.009006
Si Si6 0.458399 0.323903 0.037718
Si Si7 0.965960 0.290614 0.176653
Si Si8 0.402525 0.737241 0.876945
O O1 0.829909 0.424453 0.414490
O O2 0.834875 0.456382 0.281780
O O3 0.949696 0.354320 0.357659
O O4 0.916062 0.611536 0.350824
O O5 0.852987 0.547232 0.523654
O O6 0.770179 0.310928 0.516833
O O7 0.913977 0.313106 0.519981
O O8 0.250000 0.500000 0.821751
O O9 0.388607 0.380415 0.830942
O O10 0.372889 0.641854 0.816972
O O11 0.147267 0.299401 0.064830
O O12 0.096651 0.551128 0.059532
O O13 0.039125 0.369106 0.147890
O O14 0.003802 0.356364 0.028325
O O15 0.157166 0.260648 0.937659
O O16 0.515252 0.309770 0.099164
O O17 0.988621 0.250000 0.250000
#
# Coordination Sequence:
#
# PCOD8215434 Si02
#       8
#     8   8   8   8   8   8   8   8
#     4  10  22  33  55  73 112 151 189 226 269 329
#     4  10  20  37  53  83 112 142 187 231 287 339
#     4  11  24  36  52  77 115 159 192 227 274 327
#     4  10  19  36  53  80 106 145 187 231 286 332
#     4   9  22  33  55  81 110 141 185 238 285 338
#     4  10  20  33  57  75 110 143 183 239 276 333
#     4  10  21  37  53  80 107 150 190 229 273 337
#     4  10  21  36  51  80 106 148 193 231 275 328
#
# _framework density 18.335225000000001
#
# number of rings (size 3 to 8) (size 9 to 14) (size 15 to 20)
#    0.000    2.000    2.500    0.375    7.000    4.000 
#    0.000    0.000    0.000    0.000    0.000    5.250 
#    0.000    0.000    0.000    0.000    0.000    0.000 
#
# Total GULP energy -792994.045250 kJ/mol
# GULP energy per Si atom -12390.531957 kJ/mol
# Density = 1.829349 g / cm^3
# Si number density = 18.335225 Si / 1000 Ang^3
#
#
#
# Elastic Constant Matrix: (Units=GPa)
#
#
# Indices 1 2 3 4 5 6 
#
# 1 63.2273 33.5380 31.5864 0.0000 0.0000 0.0000
# 2 33.5380 106.7652 27.3686 0.0000 0.0000 0.0000
# 3 31.5864 27.3686 50.6889 0.0000 0.0000 0.0000
# 4 0.0000 0.0000 0.0000 29.1090 0.0000 0.0000
# 5 0.0000 0.0000 0.0000 0.0000 15.5581 0.0000
# 6 0.0000 0.0000 0.0000 0.0000 0.0000 31.8464
#
#
#
# Elastic Compliance Matrix: (Units=1/GPa)
#
#
# Indices 1 2 3 4 5 6 
#
# 1 0.024636 -0.004415 -0.012968 0.000000 0.000000 0.000000
# 2 -0.004415 0.011662 -0.003546 0.000000 0.000000 0.000000
# 3 -0.012968 -0.003546 0.029724 0.000000 0.000000 0.000000
# 4 0.000000 0.000000 0.000000 0.034354 0.000000 0.000000
# 5 0.000000 0.000000 0.000000 0.000000 0.064275 0.000000
# 6 0.000000 0.000000 0.000000 0.000000 0.000000 0.031401
#
#
# Mechanical properties :
#
#
# Convention : Reuss Voigt Hill
#
# Bulk Modulus (GPa) = 41.38274 45.07415 43.22844
# Shear Modulus (GPa) = 20.32821 23.84860 22.08841
#
# Velocity S-wave (km/s) = 3.33332 3.61043 3.47464
# Velocity P-wave (km/s) = 6.11832 6.48205 6.30281
#
# Compressibility (1/GPa) = 0.02416467
#
# Stress axis : x y z
#
# Youngs Moduli (GPa) = 40.59077 85.74826 33.64318
#
# Poissons Ratio (x) = 0.37854 0.43629
# Poissons Ratio (y) = 0.17919 0.11929
# Poissons Ratio (z) = 0.52639 0.30405
#
# Static dielectric constant tensor:
#      x y z
#    x 3.045970 0.000000 0.000000 
#    y 0.000000 3.726180 0.000000 
#    z 0.000000 0.000000 3.296090 
# 
# 
# High freq. dielectric constant tensor:
#      x y z
#    x 1.679180 0.000000 0.000000 
#    y 0.000000 1.734990 0.000000 
#    z 0.000000 0.000000 1.685220 
# 
# From -- ./inp_files/37693.got.cif
#   From: 2010.06.25/outbox.cif.g09.slc.cpg/sg52_19_cif.got.tgz:37693.got - 2010.06.26 19:32:48.
