data_PCOD8215571
_publ_section_title
;
Structure prediction by ZEFSAII (Michael W. Deem and Ramdas Pophale) SiO2 
 PCOD8215571
Probable space group: P N N A
;
_chemical_formula_sum "Si O2"
_cell_formula_units_Z 36
_cell_length_a 26.401867
_cell_length_b 5.085840
_cell_length_c 16.564409
_cell_angle_alpha 90.000000
_cell_angle_beta 90.000000
_cell_angle_gamma 90.000000
_cell_volume 2224.197138
_symmetry_space_group_name_H-M "P N N A"
_symmetry_group_IT_number 52
_symmetry_cell_setting 'orthorhombic'
loop_
_space_group_symop_operation_xyz
x,y,z
1/2-x,-y,z
x,1/2-y,1/2-z
1/2-x,1/2+y,1/2-z
-x,-y,-z
1/2+x,y,-z
-x,1/2+y,1/2+z
1/2+x,1/2-y,1/2+z
loop_
_atom_site_type_symbol
_atom_site_label
_atom_site_fract_x
_atom_site_fract_y
_atom_site_fract_z
Si Si1 0.055717 0.250000 0.750000
Si Si2 0.121898 0.885134 0.668827
Si Si3 0.933177 0.246627 0.014977
Si Si4 0.781865 0.250000 0.250000
Si Si5 0.953122 0.755255 0.577398
Si Si6 0.486637 0.750000 0.250000
O O1 0.093677 0.327626 0.825857
O O2 0.019546 0.492564 0.727937
O O3 0.098582 0.750000 0.750000
O O4 0.107638 0.735126 0.587171
O O5 0.183122 0.874439 0.677950
O O6 0.923409 0.505440 0.962889
O O7 0.925241 0.004476 0.954572
O O8 0.988131 0.251330 0.054409
O O9 0.750000 0.500000 0.282716
O O10 0.949929 0.793019 0.673568
#
# Coordination Sequence:
#
# PCOD8215571 Si02
#       6
#     4   8   8   4   8   4
#     4  12  19  30  48  69  86 130 178 193 232 287
#     4  10  22  32  54  69  95 130 164 201 244 301
#     4  10  20  32  44  70  90 127 164 211 235 271
#     4  10  22  38  52  74  96 124 164 206 250 296
#     4  10  21  31  45  64 100 121 170 212 231 274
#     4  12  21  32  46  65  96 138 164 213 242 269
#
# _framework density 16.185614999999999
#
# number of rings (size 3 to 8) (size 9 to 14) (size 15 to 20)
#    0.667    0.889    3.333    2.000    9.333    0.000 
#    0.000    0.000    0.000    0.000    0.000    0.000 
#    0.000    0.000    0.000   20.000    0.000    0.000 
#
# Total GULP energy -445973.925162 kJ/mol
# GULP energy per Si atom -12388.164588 kJ/mol
# Density = 1.614878 g / cm^3
# Si number density = 16.185615 Si / 1000 Ang^3
#
#
#
# Elastic Constant Matrix: (Units=GPa)
#
#
# Indices 1 2 3 4 5 6 
#
# 1 54.8719 28.2170 32.7738 0.0000 0.0000 0.0000
# 2 28.2170 113.0045 44.8768 0.0000 0.0000 0.0000
# 3 32.7738 44.8768 115.7974 0.0000 0.0000 0.0000
# 4 0.0000 0.0000 0.0000 23.6291 0.0000 0.0000
# 5 0.0000 0.0000 0.0000 0.0000 13.0322 0.0000
# 6 0.0000 0.0000 0.0000 0.0000 0.0000 15.0881
#
#
#
# Elastic Compliance Matrix: (Units=1/GPa)
#
#
# Indices 1 2 3 4 5 6 
#
# 1 0.023214 -0.003767 -0.005110 0.000000 0.000000 0.000000
# 2 -0.003767 0.011070 -0.003224 0.000000 0.000000 0.000000
# 3 -0.005110 -0.003224 0.011332 0.000000 0.000000 0.000000
# 4 0.000000 0.000000 0.000000 0.042321 0.000000 0.000000
# 5 0.000000 0.000000 0.000000 0.000000 0.076733 0.000000
# 6 0.000000 0.000000 0.000000 0.000000 0.000000 0.066277
#
#
# Mechanical properties :
#
#
# Convention : Reuss Voigt Hill
#
# Bulk Modulus (GPa) = 46.70093 55.04545 50.87319
# Shear Modulus (GPa) = 19.06314 22.20363 20.63339
#
# Velocity S-wave (km/s) = 3.43561 3.70782 3.57430
# Velocity P-wave (km/s) = 6.68235 7.23970 6.96660
#
# Compressibility (1/GPa) = 0.02141285
#
# Stress axis : x y z
#
# Youngs Moduli (GPa) = 43.07819 90.33290 88.24914
#
# Poissons Ratio (x) = 0.34029 0.45097
# Poissons Ratio (y) = 0.16228 0.28452
# Poissons Ratio (z) = 0.22014 0.29124
#
# Static dielectric constant tensor:
#      x y z
#    x 2.650940 0.000000 0.000000 
#    y 0.000000 3.439600 0.000000 
#    z 0.000000 0.000000 3.036190 
# 
# 
# High freq. dielectric constant tensor:
#      x y z
#    x 1.557980 0.000000 0.000000 
#    y 0.000000 1.646370 0.000000 
#    z 0.000000 0.000000 1.603950 
# 
# From -- ./inp_files/28522.got.cif
#   From: 2010.06.25/outbox.cif.g09.slc.cpg/sg52_15_cif.got.tgz:28522.got - 2010.06.26 19:32:48.
