data_PCOD8215852
_publ_section_title
;
Structure prediction by ZEFSAII (Michael W. Deem and Ramdas Pophale) SiO2 
 PCOD8215852
Probable space group: P N N A
;
_chemical_formula_sum "Si O2"
_cell_formula_units_Z 36
_cell_length_a 9.832223
_cell_length_b 20.938614
_cell_length_c 8.628439
_cell_angle_alpha 90.000000
_cell_angle_beta 90.000000
_cell_angle_gamma 90.000000
_cell_volume 1776.363676
_symmetry_space_group_name_H-M "P N N A"
_symmetry_group_IT_number 52
_symmetry_cell_setting 'orthorhombic'
loop_
_space_group_symop_operation_xyz
x,y,z
1/2-x,-y,z
x,1/2-y,1/2-z
1/2-x,1/2+y,1/2-z
-x,-y,-z
1/2+x,y,-z
-x,1/2+y,1/2+z
1/2+x,1/2-y,1/2+z
loop_
_atom_site_type_symbol
_atom_site_label
_atom_site_fract_x
_atom_site_fract_y
_atom_site_fract_z
Si Si1 0.300481 0.367707 0.032011
Si Si2 0.268741 0.432298 0.336097
Si Si3 0.250000 0.000000 0.647315
Si Si4 0.928425 0.685513 0.157395
Si Si5 0.424919 0.928163 0.876358
O O1 0.252881 0.376457 0.210331
O O2 0.451655 0.338270 0.042436
O O3 0.296099 0.437607 0.950834
O O4 0.206562 0.314289 0.950234
O O5 0.250000 0.500000 0.249253
O O6 0.155584 0.425468 0.465124
O O7 0.416607 0.434427 0.417776
O O8 0.377989 0.984024 0.758407
O O9 0.960578 0.750000 0.250000
O O10 0.896107 0.638072 0.294905
#
# Coordination Sequence:
#
# PCOD8215852 Si02
#       5
#     8   8   4   8   8
#     4  10  23  39  68  89 126 162 207 260 311 374
#     4  11  21  35  57  94 122 159 195 250 312 372
#     4  10  20  38  60  96 124 160 202 260 324 358
#     4  10  24  44  61  90 122 168 212 252 304 372
#     4  10  23  35  59  88 129 156 203 254 303 367
#
# _framework density 20.266120000000001
#
# number of rings (size 3 to 8) (size 9 to 14) (size 15 to 20)
#    0.000    1.778    2.222    0.667    3.111    8.000 
#    0.000    1.111    0.000    0.000    0.000    0.000 
#    0.000    0.000    0.000    0.000    0.000    0.000 
#
# Total GULP energy -446101.906069 kJ/mol
# GULP energy per Si atom -12391.719613 kJ/mol
# Density = 2.021999 g / cm^3
# Si number density = 20.266120 Si / 1000 Ang^3
#
#
#
# Elastic Constant Matrix: (Units=GPa)
#
#
# Indices 1 2 3 4 5 6 
#
# 1 41.9273 39.0379 41.2654 0.0000 0.0000 0.0000
# 2 39.0379 81.6488 31.0412 0.0000 0.0000 0.0000
# 3 41.2654 31.0412 79.5435 0.0000 0.0000 0.0000
# 4 0.0000 0.0000 0.0000 21.3905 0.0000 0.0000
# 5 0.0000 0.0000 0.0000 0.0000 29.3028 0.0000
# 6 0.0000 0.0000 0.0000 0.0000 0.0000 22.4023
#
#
#
# Elastic Compliance Matrix: (Units=1/GPa)
#
#
# Indices 1 2 3 4 5 6 
#
# 1 0.077188 -0.025458 -0.030108 0.000000 0.000000 0.000000
# 2 -0.025458 0.022778 0.004318 0.000000 0.000000 0.000000
# 3 -0.030108 0.004318 0.026506 0.000000 0.000000 0.000000
# 4 0.000000 0.000000 0.000000 0.046750 0.000000 0.000000
# 5 0.000000 0.000000 0.000000 0.000000 0.034126 0.000000
# 6 0.000000 0.000000 0.000000 0.000000 0.000000 0.044638
#
#
# Mechanical properties :
#
#
# Convention : Reuss Voigt Hill
#
# Bulk Modulus (GPa) = 41.71012 47.31206 44.51109
# Shear Modulus (GPa) = 13.79406 20.73746 17.26576
#
# Velocity S-wave (km/s) = 2.61175 3.20231 2.92199
# Velocity P-wave (km/s) = 5.45169 6.08844 5.77884
#
# Compressibility (1/GPa) = 0.02397500
#
# Stress axis : x y z
#
# Youngs Moduli (GPa) = 12.95542 43.90204 37.72718
#
# Poissons Ratio (x) = 1.11767 1.13590
# Poissons Ratio (y) = 0.32982 -0.16292
# Poissons Ratio (z) = 0.39007 -0.18958
#
# Static dielectric constant tensor:
#      x y z
#    x 3.824950 0.000000 0.000000 
#    y 0.000000 3.665440 0.000000 
#    z 0.000000 0.000000 3.717370 
# 
# 
# High freq. dielectric constant tensor:
#      x y z
#    x 1.798610 0.000000 0.000000 
#    y 0.000000 1.773570 0.000000 
#    z 0.000000 0.000000 1.799830 
# 
# From -- ./inp_files/7280.got.cif
#   From: 2010.06.25/outbox.cif.g09.slc.cpg/sg52_4_cif.got.tgz:7280.got - 2010.06.26 19:32:48.
