data_PCOD8215180
_publ_section_title
;
Structure prediction by ZEFSAII (Michael W. Deem and Ramdas Pophale) SiO2 
 PCOD8215180
Probable space group: P N N A
;
_chemical_formula_sum "Si O2"
_cell_formula_units_Z 48
_cell_length_a 10.307320
_cell_length_b 16.401980
_cell_length_c 15.179179
_cell_angle_alpha 90.000000
_cell_angle_beta 90.000000
_cell_angle_gamma 90.000000
_cell_volume 2566.198931
_symmetry_space_group_name_H-M "P N N A"
_symmetry_group_IT_number 52
_symmetry_cell_setting 'orthorhombic'
loop_
_space_group_symop_operation_xyz
x,y,z
1/2-x,-y,z
x,1/2-y,1/2-z
1/2-x,1/2+y,1/2-z
-x,-y,-z
1/2+x,y,-z
-x,1/2+y,1/2+z
1/2+x,1/2-y,1/2+z
loop_
_atom_site_type_symbol
_atom_site_label
_atom_site_fract_x
_atom_site_fract_y
_atom_site_fract_z
Si Si1 0.798762 0.323665 0.303773
Si Si2 0.989455 0.637444 0.270695
Si Si3 0.933004 0.483247 0.357253
Si Si4 0.346625 0.565030 0.479100
Si Si5 0.218213 0.238806 0.986080
Si Si6 0.547857 0.723317 0.900175
O O1 0.870144 0.250000 0.250000
O O2 0.659806 0.336879 0.258550
O O3 0.869142 0.411689 0.299868
O O4 0.796081 0.290660 0.401768
O O5 0.009248 0.541056 0.288766
O O6 0.054626 0.655592 0.176566
O O7 0.049246 0.688025 0.352858
O O8 0.843095 0.547782 0.413851
O O9 0.013566 0.442667 0.435446
O O10 0.250000 0.500000 0.433220
O O11 0.308496 0.657135 0.458036
O O12 0.320984 0.291699 0.042947
O O13 0.082881 0.284687 0.961235
#
# Coordination Sequence:
#
# PCOD8215180 Si02
#       6
#     8   8   8   8   8   8
#     4  11  19  33  53  82 113 141 192 233 270 334
#     4  10  18  35  53  82 113 153 187 222 280 350
#     4  11  20  31  55  85 113 146 184 232 283 337
#     4  11  19  29  53  87 118 140 170 230 299 351
#     4  11  19  33  53  85 115 150 183 228 281 339
#     4  10  20  33  58  79 116 150 191 228 275 341
#
# _framework density 18.704706000000002
#
# number of rings (size 3 to 8) (size 9 to 14) (size 15 to 20)
#    0.000    1.333    8.333    2.500    0.000    0.000 
#    0.000    0.000   22.000    1.000    0.000    0.000 
#    0.000    0.000    0.000    0.000    0.000    0.000 
#
# Total GULP energy -594665.094886 kJ/mol
# GULP energy per Si atom -12388.856143 kJ/mol
# Density = 1.866213 g / cm^3
# Si number density = 18.704706 Si / 1000 Ang^3
#
#
#
# Elastic Constant Matrix: (Units=GPa)
#
#
# Indices 1 2 3 4 5 6 
#
# 1 61.6397 9.2351 39.1029 0.0000 0.0000 0.0000
# 2 9.2351 72.6832 35.4261 0.0000 0.0000 0.0000
# 3 39.1029 35.4261 77.5344 0.0000 0.0000 0.0000
# 4 0.0000 0.0000 0.0000 24.0569 0.0000 0.0000
# 5 0.0000 0.0000 0.0000 0.0000 19.7493 0.0000
# 6 0.0000 0.0000 0.0000 0.0000 0.0000 14.6614
#
#
#
# Elastic Compliance Matrix: (Units=1/GPa)
#
#
# Indices 1 2 3 4 5 6 
#
# 1 0.024630 0.003763 -0.014141 0.000000 0.000000 0.000000
# 2 0.003763 0.018275 -0.010248 0.000000 0.000000 0.000000
# 3 -0.014141 -0.010248 0.024712 0.000000 0.000000 0.000000
# 4 0.000000 0.000000 0.000000 0.041568 0.000000 0.000000
# 5 0.000000 0.000000 0.000000 0.000000 0.050635 0.000000
# 6 0.000000 0.000000 0.000000 0.000000 0.000000 0.068206
#
#
# Mechanical properties :
#
#
# Convention : Reuss Voigt Hill
#
# Bulk Modulus (GPa) = 37.92905 42.15394 40.04150
# Shear Modulus (GPa) = 17.98134 20.23308 19.10721
#
# Velocity S-wave (km/s) = 3.10389 3.29250 3.19959
# Velocity P-wave (km/s) = 5.75911 6.08602 5.92482
#
# Compressibility (1/GPa) = 0.02636501
#
# Stress axis : x y z
#
# Youngs Moduli (GPa) = 40.60037 54.71951 40.46693
#
# Poissons Ratio (x) = -0.20590 0.57225
# Poissons Ratio (y) = -0.15278 0.41469
# Poissons Ratio (z) = 0.57413 0.56075
#
# Static dielectric constant tensor:
#      x y z
#    x 3.281530 0.000000 0.000000 
#    y 0.000000 3.465490 0.000000 
#    z 0.000000 0.000000 3.230670 
# 
# 
# High freq. dielectric constant tensor:
#      x y z
#    x 1.709350 0.000000 0.000000 
#    y 0.000000 1.703950 0.000000 
#    z 0.000000 0.000000 1.701490 
# 
# From -- ./inp_files/18221.got.cif
#   From: 2010.06.25/outbox.cif.g09.slc.cpg/sg52_10_cif.got.tgz:18221.got - 2010.06.26 19:32:48.
