data_PCOD8215206
_publ_section_title
;
Structure prediction by ZEFSAII (Michael W. Deem and Ramdas Pophale) SiO2 
 PCOD8215206
Probable space group: P N N A
;
_chemical_formula_sum "Si O2"
_cell_formula_units_Z 36
_cell_length_a 9.189087
_cell_length_b 21.196905
_cell_length_c 8.155062
_cell_angle_alpha 90.000000
_cell_angle_beta 90.000000
_cell_angle_gamma 90.000000
_cell_volume 1588.444641
_symmetry_space_group_name_H-M "P N N A"
_symmetry_group_IT_number 52
_symmetry_cell_setting 'orthorhombic'
loop_
_space_group_symop_operation_xyz
x,y,z
1/2-x,-y,z
x,1/2-y,1/2-z
1/2-x,1/2+y,1/2-z
-x,-y,-z
1/2+x,y,-z
-x,1/2+y,1/2+z
1/2+x,1/2-y,1/2+z
loop_
_atom_site_type_symbol
_atom_site_label
_atom_site_fract_x
_atom_site_fract_y
_atom_site_fract_z
Si Si1 0.443149 0.250000 0.750000
Si Si2 0.715611 0.927771 0.143873
Si Si3 0.922094 0.319543 0.800015
Si Si4 0.454685 0.639493 0.465008
Si Si5 0.275121 0.843049 0.571062
O O1 0.544900 0.294571 0.635408
O O2 0.333967 0.209390 0.640698
O O3 0.543200 0.914486 0.133141
O O4 0.767946 0.907865 0.325483
O O5 0.750000 0.000000 0.112157
O O6 0.791404 0.883859 0.003046
O O7 0.874356 0.250000 0.750000
O O8 0.967610 0.357204 0.640587
O O9 0.059404 0.317616 0.928156
O O10 0.782141 0.353918 0.884909
#
# Coordination Sequence:
#
# PCOD8215206 Si02
#       5
#     4   8   8   8   8
#     4  10  18  36  60  94 126 154 204 264 332 368
#     4  10  22  43  62  87 126 174 219 260 303 377
#     4  11  21  38  57  91 127 158 200 259 321 392
#     4  10  22  37  63  94 123 165 213 265 320 380
#     4  10  22  37  59  88 125 161 202 260 319 370
#
# _framework density 22.663681
#
# number of rings (size 3 to 8) (size 9 to 14) (size 15 to 20)
#    0.000    1.778    3.333    0.667    0.000    3.556 
#    4.000    5.556    0.000    0.000    0.000    0.000 
#    0.000    0.000    0.000    0.000    0.000    0.000 
#
# Total GULP energy -446289.300966 kJ/mol
# GULP energy per Si atom -12396.925027 kJ/mol
# Density = 2.261210 g / cm^3
# Si number density = 22.663681 Si / 1000 Ang^3
#
#
#
# Elastic Constant Matrix: (Units=GPa)
#
#
# Indices 1 2 3 4 5 6 
#
# 1 85.5730 19.4714 31.7732 0.0000 0.0000 0.0000
# 2 19.4714 97.5674 22.5374 0.0000 0.0000 0.0000
# 3 31.7732 22.5374 79.2378 0.0000 0.0000 0.0000
# 4 0.0000 0.0000 0.0000 27.0703 0.0000 0.0000
# 5 0.0000 0.0000 0.0000 0.0000 37.8339 0.0000
# 6 0.0000 0.0000 0.0000 0.0000 0.0000 14.3780
#
#
#
# Elastic Compliance Matrix: (Units=1/GPa)
#
#
# Indices 1 2 3 4 5 6 
#
# 1 0.013959 -0.001598 -0.005143 0.000000 0.000000 0.000000
# 2 -0.001598 0.011153 -0.002531 0.000000 0.000000 0.000000
# 3 -0.005143 -0.002531 0.015403 0.000000 0.000000 0.000000
# 4 0.000000 0.000000 0.000000 0.036941 0.000000 0.000000
# 5 0.000000 0.000000 0.000000 0.000000 0.026431 0.000000
# 6 0.000000 0.000000 0.000000 0.000000 0.000000 0.069551
#
#
# Mechanical properties :
#
#
# Convention : Reuss Voigt Hill
#
# Bulk Modulus (GPa) = 45.51651 45.54913 45.53282
# Shear Modulus (GPa) = 25.08716 28.42953 26.75835
#
# Velocity S-wave (km/s) = 3.33067 3.54561 3.43982
# Velocity P-wave (km/s) = 5.90916 6.07480 5.99256
#
# Compressibility (1/GPa) = 0.02197005
#
# Stress axis : x y z
#
# Youngs Moduli (GPa) = 71.63807 89.66232 64.92452
#
# Poissons Ratio (x) = 0.14326 0.33390
# Poissons Ratio (y) = 0.11446 0.16436
# Poissons Ratio (z) = 0.36843 0.22698
#
# Static dielectric constant tensor:
#      x y z
#    x 4.245500 0.000000 0.000000 
#    y 0.000000 3.599460 0.000000 
#    z 0.000000 0.000000 4.372660 
# 
# 
# High freq. dielectric constant tensor:
#      x y z
#    x 1.903600 0.000000 0.000000 
#    y 0.000000 1.850190 0.000000 
#    z 0.000000 0.000000 1.900710 
# 
# From -- ./inp_files/7274.got.cif
#   From: 2010.06.25/outbox.cif.g09.slc.cpg/sg52_4_cif.got.tgz:7274.got - 2010.06.26 19:32:48.
