data_PCOD8215639
_publ_section_title
;
Structure prediction by ZEFSAII (Michael W. Deem and Ramdas Pophale) SiO2 
 PCOD8215639
Probable space group: P N N A
;
_chemical_formula_sum "Si O2"
_cell_formula_units_Z 56
_cell_length_a 12.266778
_cell_length_b 20.989555
_cell_length_c 10.626577
_cell_angle_alpha 90.000000
_cell_angle_beta 90.000000
_cell_angle_gamma 90.000000
_cell_volume 2736.069534
_symmetry_space_group_name_H-M "P N N A"
_symmetry_group_IT_number 52
_symmetry_cell_setting 'orthorhombic'
loop_
_space_group_symop_operation_xyz
x,y,z
1/2-x,-y,z
x,1/2-y,1/2-z
1/2-x,1/2+y,1/2-z
-x,-y,-z
1/2+x,y,-z
-x,1/2+y,1/2+z
1/2+x,1/2-y,1/2+z
loop_
_atom_site_type_symbol
_atom_site_label
_atom_site_fract_x
_atom_site_fract_y
_atom_site_fract_z
Si Si1 0.583694 0.876505 0.892477
Si Si2 0.113698 0.059480 0.754770
Si Si3 0.129602 0.689649 0.817088
Si Si4 0.269525 0.315462 0.199066
Si Si5 0.976361 0.236037 0.548889
Si Si6 0.665309 0.353309 0.043371
Si Si7 0.348214 0.078599 0.845322
O O1 0.498613 0.915332 0.810094
O O2 0.693595 0.861613 0.812919
O O3 0.524364 0.811997 0.938539
O O4 0.620476 0.921715 0.007897
O O5 0.119974 0.080830 0.606200
O O6 0.217324 0.087664 0.831545
O O7 0.113297 0.983537 0.769180
O O8 0.185164 0.750000 0.750000
O O9 0.214935 0.655243 0.905039
O O10 0.087866 0.638250 0.715768
O O11 0.031227 0.715310 0.902735
O O12 0.213262 0.250000 0.250000
O O13 0.379893 0.294011 0.129647
O O14 0.183593 0.353125 0.108552
O O15 0.090743 0.205468 0.592315
#
# Coordination Sequence:
#
# PCOD8215639 Si02
#       7
#     8   8   8   8   8   8   8
#     4  11  20  36  63  89 126 156 198 259 317 359
#     4  10  22  39  65  83 119 170 207 240 304 380
#     4  10  20  36  57  84 115 151 198 256 294 350
#     4   9  20  35  54  91 126 154 195 259 307 355
#     4  10  20  34  56  88 116 155 199 244 307 368
#     4  10  21  36  61  84 121 160 205 241 301 372
#     4  10  22  40  60  89 119 158 210 253 299 366
#
# _framework density 20.467316
#
# number of rings (size 3 to 8) (size 9 to 14) (size 15 to 20)
#    0.000    2.000    2.857    0.429    4.000    0.571 
#    2.571    0.714    6.286    0.000    0.000    0.000 
#    0.000    0.000    0.000    0.000    0.000    0.000 
#
# Total GULP energy -693938.150829 kJ/mol
# GULP energy per Si atom -12391.752693 kJ/mol
# Density = 2.042073 g / cm^3
# Si number density = 20.467316 Si / 1000 Ang^3
#
#
#
# Elastic Constant Matrix: (Units=GPa)
#
#
# Indices 1 2 3 4 5 6 
#
# 1 35.8097 19.9247 23.6628 0.0000 0.0000 0.0000
# 2 19.9247 124.5419 61.2722 0.0000 0.0000 0.0000
# 3 23.6628 61.2722 125.9379 0.0000 0.0000 0.0000
# 4 0.0000 0.0000 0.0000 37.4437 0.0000 0.0000
# 5 0.0000 0.0000 0.0000 0.0000 17.5377 0.0000
# 6 0.0000 0.0000 0.0000 0.0000 0.0000 20.7642
#
#
#
# Elastic Compliance Matrix: (Units=1/GPa)
#
#
# Indices 1 2 3 4 5 6 
#
# 1 0.032662 -0.002900 -0.004726 0.000000 0.000000 0.000000
# 2 -0.002900 0.010814 -0.004716 0.000000 0.000000 0.000000
# 3 -0.004726 -0.004716 0.011123 0.000000 0.000000 0.000000
# 4 0.000000 0.000000 0.000000 0.026707 0.000000 0.000000
# 5 0.000000 0.000000 0.000000 0.000000 0.057020 0.000000
# 6 0.000000 0.000000 0.000000 0.000000 0.000000 0.048160
#
#
# Mechanical properties :
#
#
# Convention : Reuss Voigt Hill
#
# Bulk Modulus (GPa) = 33.42941 55.11212 44.27077
# Shear Modulus (GPa) = 22.60996 27.24443 24.92719
#
# Velocity S-wave (km/s) = 3.32729 3.65241 3.49363
# Velocity P-wave (km/s) = 5.57940 6.69120 6.16043
#
# Compressibility (1/GPa) = 0.02991378
#
# Stress axis : x y z
#
# Youngs Moduli (GPa) = 30.61664 92.47501 89.90427
#
# Poissons Ratio (x) = 0.26821 0.42487
# Poissons Ratio (y) = 0.08880 0.42401
# Poissons Ratio (z) = 0.14469 0.43613
#
# Static dielectric constant tensor:
#      x y z
#    x 3.483010 0.000000 0.000000 
#    y 0.000000 3.696810 0.000000 
#    z 0.000000 0.000000 4.253550 
# 
# 
# High freq. dielectric constant tensor:
#      x y z
#    x 1.780670 0.000000 0.000000 
#    y 0.000000 1.783800 0.000000 
#    z 0.000000 0.000000 1.806820 
# 
# From -- ./inp_files/18350.got.cif
#   From: 2010.06.25/outbox.cif.g09.slc.cpg/sg52_10_cif.got.tgz:18350.got - 2010.06.26 19:32:48.
