data_PCOD8215615
_publ_section_title
;
Structure prediction by ZEFSAII (Michael W. Deem and Ramdas Pophale) SiO2 
 PCOD8215615
Probable space group: P N N A
;
_chemical_formula_sum "Si O2"
_cell_formula_units_Z 52
_cell_length_a 10.909267
_cell_length_b 9.598191
_cell_length_c 25.844640
_cell_angle_alpha 90.000000
_cell_angle_beta 90.000000
_cell_angle_gamma 90.000000
_cell_volume 2706.172311
_symmetry_space_group_name_H-M "P N N A"
_symmetry_group_IT_number 52
_symmetry_cell_setting 'orthorhombic'
loop_
_space_group_symop_operation_xyz
x,y,z
1/2-x,-y,z
x,1/2-y,1/2-z
1/2-x,1/2+y,1/2-z
-x,-y,-z
1/2+x,y,-z
-x,1/2+y,1/2+z
1/2+x,1/2-y,1/2+z
loop_
_atom_site_type_symbol
_atom_site_label
_atom_site_fract_x
_atom_site_fract_y
_atom_site_fract_z
Si Si1 0.241144 0.750184 0.505065
Si Si2 0.389779 0.012808 0.879994
Si Si3 0.990670 0.679291 0.461302
Si Si4 0.335451 0.312473 0.881784
Si Si5 0.494845 0.076459 0.383513
Si Si6 0.385406 0.764342 0.810726
Si Si7 0.250000 0.000000 0.426304
O O1 0.369235 0.663949 0.502524
O O2 0.228298 0.812915 0.562299
O O3 0.117216 0.660462 0.493372
O O4 0.255577 0.865904 0.461858
O O5 0.486411 0.943365 0.919059
O O6 0.395659 0.928139 0.825649
O O7 0.250000 0.000000 0.902456
O O8 0.422494 0.175886 0.873524
O O9 0.983047 0.832690 0.435398
O O10 0.406442 0.455333 0.876425
O O11 0.231834 0.305635 0.837997
O O12 0.498767 0.177624 0.333227
O O13 0.364199 0.003099 0.387487
O O14 0.375960 0.750000 0.750000
#
# Coordination Sequence:
#
# PCOD8215615 Si02
#       7
#     8   8   8   8   8   8   4
#     4  11  19  32  52  80 115 155 197 224 283 333
#     4   9  18  36  50  77 114 145 184 238 287 339
#     4  10  20  34  52  76 113 160 191 229 277 338
#     4  11  20  32  55  83 114 142 188 243 282 335
#     4  10  20  37  56  83 112 146 192 232 281 336
#     4  10  21  37  60  81 109 147 182 239 306 348
#     4  10  22  34  56  84 118 158 192 236 272 344
#
# _framework density 19.215330999999999
#
# number of rings (size 3 to 8) (size 9 to 14) (size 15 to 20)
#    0.000    1.846    4.615    2.308    0.000    6.769 
#    0.000    0.000    0.000   10.154    0.000    0.000 
#    0.000    0.000    0.000    0.000    0.000    0.000 
#
# Total GULP energy -644433.900050 kJ/mol
# GULP energy per Si atom -12392.959616 kJ/mol
# Density = 1.917160 g / cm^3
# Si number density = 19.215331 Si / 1000 Ang^3
#
#
#
# Elastic Constant Matrix: (Units=GPa)
#
#
# Indices 1 2 3 4 5 6 
#
# 1 99.9300 17.3264 59.4710 0.0000 0.0000 0.0000
# 2 17.3264 90.2851 15.8498 0.0000 0.0000 0.0000
# 3 59.4710 15.8498 97.0360 0.0000 0.0000 0.0000
# 4 0.0000 0.0000 0.0000 8.2314 0.0000 0.0000
# 5 0.0000 0.0000 0.0000 0.0000 5.3667 0.0000
# 6 0.0000 0.0000 0.0000 0.0000 0.0000 13.3754
#
#
#
# Elastic Compliance Matrix: (Units=1/GPa)
#
#
# Indices 1 2 3 4 5 6 
#
# 1 0.015918 -0.001382 -0.009530 0.000000 0.000000 0.000000
# 2 -0.001382 0.011523 -0.001035 0.000000 0.000000 0.000000
# 3 -0.009530 -0.001035 0.016315 0.000000 0.000000 0.000000
# 4 0.000000 0.000000 0.000000 0.121486 0.000000 0.000000
# 5 0.000000 0.000000 0.000000 0.000000 0.186333 0.000000
# 6 0.000000 0.000000 0.000000 0.000000 0.000000 0.074764
#
#
# Mechanical properties :
#
#
# Convention : Reuss Voigt Hill
#
# Bulk Modulus (GPa) = 50.34733 52.50507 51.42620
# Shear Modulus (GPa) = 10.94438 18.36830 14.65634
#
# Velocity S-wave (km/s) = 2.38915 3.09515 2.76477
# Velocity P-wave (km/s) = 5.81973 6.33697 6.08385
#
# Compressibility (1/GPa) = 0.01986203
#
# Stress axis : x y z
#
# Youngs Moduli (GPa) = 62.82090 86.78331 61.29178
#
# Poissons Ratio (x) = 0.11992 0.58412
# Poissons Ratio (y) = 0.08680 0.06346
# Poissons Ratio (z) = 0.59870 0.08985
#
# Static dielectric constant tensor:
#      x y z
#    x 3.720120 0.000000 0.000000 
#    y 0.000000 3.849870 0.000000 
#    z 0.000000 0.000000 3.217630 
# 
# 
# High freq. dielectric constant tensor:
#      x y z
#    x 1.732060 0.000000 0.000000 
#    y 0.000000 1.761940 0.000000 
#    z 0.000000 0.000000 1.711740 
# 
# From -- ./inp_files/42735.got.cif
#   From: 2010.06.25/outbox.cif.g09.slc.cpg/sg52_22_cif.got.tgz:42735.got - 2010.06.26 19:32:48.
