data_PCOD8215842
_publ_section_title
;
Structure prediction by ZEFSAII (Michael W. Deem and Ramdas Pophale) SiO2 
 PCOD8215842
Probable space group: P N N A
;
_chemical_formula_sum "Si O2"
_cell_formula_units_Z 48
_cell_length_a 9.136173
_cell_length_b 10.077762
_cell_length_c 26.256085
_cell_angle_alpha 90.000000
_cell_angle_beta 90.000000
_cell_angle_gamma 90.000000
_cell_volume 2417.454908
_symmetry_space_group_name_H-M "P N N A"
_symmetry_group_IT_number 52
_symmetry_cell_setting 'orthorhombic'
loop_
_space_group_symop_operation_xyz
x,y,z
1/2-x,-y,z
x,1/2-y,1/2-z
1/2-x,1/2+y,1/2-z
-x,-y,-z
1/2+x,y,-z
-x,1/2+y,1/2+z
1/2+x,1/2-y,1/2+z
loop_
_atom_site_type_symbol
_atom_site_label
_atom_site_fract_x
_atom_site_fract_y
_atom_site_fract_z
Si Si1 0.980026 0.641903 0.291280
Si Si2 0.767437 0.147557 0.138164
Si Si3 0.822632 0.864394 0.442645
Si Si4 0.031563 0.347574 0.295333
Si Si5 0.325797 0.135762 0.450761
Si Si6 0.784637 0.352419 0.631474
O O1 0.028750 0.750000 0.250000
O O2 0.052006 0.661044 0.347110
O O3 0.810571 0.657519 0.306238
O O4 0.017169 0.494832 0.271084
O O5 0.708001 0.251362 0.097909
O O6 0.934417 0.174251 0.153820
O O7 0.750000 0.000000 0.114588
O O8 0.736795 0.826313 0.494029
O O9 0.997479 0.878902 0.452071
O O10 0.750000 0.000000 0.421579
O O11 0.992708 0.250000 0.250000
O O12 0.192179 0.320828 0.317445
O O13 0.266179 0.249793 0.413949
O O14 0.250000 0.000000 0.431998
O O15 0.750000 0.500000 0.610436
#
# Coordination Sequence:
#
# PCOD8215842 Si02
#       6
#     8   8   8   8   8   8
#     4  10  20  38  59  84 123 159 200 251 297 352
#     4  10  22  40  61  89 123 160 201 249 301 357
#     4  11  24  42  64  92 123 158 201 252 305 364
#     4  10  22  36  59  90 121 159 204 247 297 356
#     4  11  24  42  64  92 123 158 201 252 305 364
#     4  10  22  40  61  89 123 160 201 249 301 357
#
# _framework density 19.855591
#
# number of rings (size 3 to 8) (size 9 to 14) (size 15 to 20)
#    0.000    1.667    1.667    3.000    4.667    3.333 
#    0.000    1.667    0.000    0.000    0.000    0.000 
#    0.000    0.000    0.000    0.000    0.000    0.000 
#
# Total GULP energy -594993.567137 kJ/mol
# GULP energy per Si atom -12395.699315 kJ/mol
# Density = 1.981040 g / cm^3
# Si number density = 19.855591 Si / 1000 Ang^3
#
#
#
# Elastic Constant Matrix: (Units=GPa)
#
#
# Indices 1 2 3 4 5 6 
#
# 1 91.4592 49.0922 30.6417 0.0000 0.0000 0.0000
# 2 49.0922 161.3749 93.8717 0.0000 0.0000 0.0000
# 3 30.6417 93.8717 87.5425 0.0000 0.0000 0.0000
# 4 0.0000 0.0000 0.0000 34.7583 0.0000 0.0000
# 5 0.0000 0.0000 0.0000 0.0000 16.9282 0.0000
# 6 0.0000 0.0000 0.0000 0.0000 0.0000 28.3827
#
#
#
# Elastic Compliance Matrix: (Units=1/GPa)
#
#
# Indices 1 2 3 4 5 6 
#
# 1 0.013090 -0.003500 -0.000829 0.000000 0.000000 0.000000
# 2 -0.003500 0.017406 -0.017439 0.000000 0.000000 0.000000
# 3 -0.000829 -0.017439 0.030413 0.000000 0.000000 0.000000
# 4 0.000000 0.000000 0.000000 0.028770 0.000000 0.000000
# 5 0.000000 0.000000 0.000000 0.000000 0.059073 0.000000
# 6 0.000000 0.000000 0.000000 0.000000 0.000000 0.035233
#
#
# Mechanical properties :
#
#
# Convention : Reuss Voigt Hill
#
# Bulk Modulus (GPa) = 57.55977 76.39865 66.97921
# Shear Modulus (GPa) = 21.43053 27.13191 24.28122
#
# Velocity S-wave (km/s) = 3.28886 3.70058 3.50078
# Velocity P-wave (km/s) = 6.59350 7.53789 7.08146
#
# Compressibility (1/GPa) = 0.01737325
#
# Stress axis : x y z
#
# Youngs Moduli (GPa) = 76.39279 57.45169 32.88063
#
# Poissons Ratio (x) = 0.20109 0.02724
# Poissons Ratio (y) = 0.26739 0.57341
# Poissons Ratio (z) = 0.06330 1.00191
#
# Static dielectric constant tensor:
#      x y z
#    x 3.841080 0.000000 0.000000 
#    y 0.000000 3.654100 0.000000 
#    z 0.000000 0.000000 3.225640 
# 
# 
# High freq. dielectric constant tensor:
#      x y z
#    x 1.800640 0.000000 0.000000 
#    y 0.000000 1.779340 0.000000 
#    z 0.000000 0.000000 1.754600 
# 
# From -- ./inp_files/44333.got.cif
#   From: 2010.06.25/outbox.cif.g09.slc.cpg/sg52_23_cif.got.tgz:44333.got - 2010.06.26 19:32:48.
