data_PCOD8215694
_publ_section_title
;
Structure prediction by ZEFSAII (Michael W. Deem and Ramdas Pophale) SiO2 
 PCOD8215694
Probable space group: P N N A
;
_chemical_formula_sum "Si O2"
_cell_formula_units_Z 48
_cell_length_a 10.704745
_cell_length_b 8.341701
_cell_length_c 25.059182
_cell_angle_alpha 90.000000
_cell_angle_beta 90.000000
_cell_angle_gamma 90.000000
_cell_volume 2237.679255
_symmetry_space_group_name_H-M "P N N A"
_symmetry_group_IT_number 52
_symmetry_cell_setting 'orthorhombic'
loop_
_space_group_symop_operation_xyz
x,y,z
1/2-x,-y,z
x,1/2-y,1/2-z
1/2-x,1/2+y,1/2-z
-x,-y,-z
1/2+x,y,-z
-x,1/2+y,1/2+z
1/2+x,1/2-y,1/2+z
loop_
_atom_site_type_symbol
_atom_site_label
_atom_site_fract_x
_atom_site_fract_y
_atom_site_fract_z
Si Si1 0.750000 0.000000 0.438351
Si Si2 0.100850 0.233820 0.498836
Si Si3 0.107888 0.179332 0.307757
Si Si4 0.501998 0.597891 0.598937
Si Si5 0.108598 0.697684 0.190377
Si Si6 0.250000 0.000000 0.051851
Si Si7 0.071812 0.738720 0.600395
O O1 0.854936 0.935647 0.478344
O O2 0.695821 0.852355 0.401883
O O3 0.221088 0.346205 0.485796
O O4 0.016392 0.307172 0.544840
O O5 0.016176 0.204058 0.447636
O O6 0.079577 0.250000 0.250000
O O7 0.247296 0.235138 0.325387
O O8 0.001584 0.248631 0.344759
O O9 0.089909 0.990520 0.311269
O O10 0.510150 0.713818 0.650677
O O11 0.636089 0.517237 0.592354
O O12 0.398508 0.453497 0.600216
O O13 0.077141 0.750000 0.250000
#
# Coordination Sequence:
#
# PCOD8215694 Si02
#       7
#     4   8   8   8   8   4   8
#     4  12  24  38  56  82 120 158 202 248 292 350
#     4  11  22  37  57  85 118 156 196 240 294 352
#     4  10  21  37  59  89 120 151 189 239 295 353
#     4  11  21  37  59  87 120 155 194 238 293 356
#     4  10  20  35  59  89 121 152 186 233 296 361
#     4  10  20  36  58  84 120 156 194 238 292 360
#     4  11  23  37  59  85 116 156 198 246 296 347
#
# _framework density 21.450796
#
# number of rings (size 3 to 8) (size 9 to 14) (size 15 to 20)
#    0.000    1.333    0.000    8.500    0.000    5.333 
#    0.000    0.000    0.000    6.000    0.000    1.167 
#    0.000    0.000    0.000    0.000    0.000    0.000 
#
# Total GULP energy -594906.433011 kJ/mol
# GULP energy per Si atom -12393.884021 kJ/mol
# Density = 2.140197 g / cm^3
# Si number density = 21.450796 Si / 1000 Ang^3
#
#
#
# Elastic Constant Matrix: (Units=GPa)
#
#
# Indices 1 2 3 4 5 6 
#
# 1 48.4185 24.6421 23.3216 0.0000 0.0000 0.0000
# 2 24.6421 106.0826 33.4752 0.0000 0.0000 0.0000
# 3 23.3216 33.4752 91.5457 0.0000 0.0000 0.0000
# 4 0.0000 0.0000 0.0000 28.5256 0.0000 0.0000
# 5 0.0000 0.0000 0.0000 0.0000 51.5344 0.0000
# 6 0.0000 0.0000 0.0000 0.0000 0.0000 36.9109
#
#
#
# Elastic Compliance Matrix: (Units=1/GPa)
#
#
# Indices 1 2 3 4 5 6 
#
# 1 0.025182 -0.004324 -0.004834 0.000000 0.000000 0.000000
# 2 -0.004324 0.011399 -0.003067 0.000000 0.000000 0.000000
# 3 -0.004834 -0.003067 0.013276 0.000000 0.000000 0.000000
# 4 0.000000 0.000000 0.000000 0.035056 0.000000 0.000000
# 5 0.000000 0.000000 0.000000 0.000000 0.019405 0.000000
# 6 0.000000 0.000000 0.000000 0.000000 0.000000 0.027092
#
#
# Mechanical properties :
#
#
# Convention : Reuss Voigt Hill
#
# Bulk Modulus (GPa) = 39.35793 45.43606 42.39699
# Shear Modulus (GPa) = 30.42664 34.36803 32.39734
#
# Velocity S-wave (km/s) = 3.77030 4.00707 3.89049
# Velocity P-wave (km/s) = 6.11076 6.52965 6.32367
#
# Compressibility (1/GPa) = 0.02540784
#
# Stress axis : x y z
#
# Youngs Moduli (GPa) = 39.71012 87.72868 75.32194
#
# Poissons Ratio (x) = 0.37936 0.36411
# Poissons Ratio (y) = 0.17172 0.23098
# Poissons Ratio (z) = 0.19196 0.26902
#
# Static dielectric constant tensor:
#      x y z
#    x 4.298690 0.000000 0.000000 
#    y 0.000000 4.070960 0.000000 
#    z 0.000000 0.000000 3.799390 
# 
# 
# High freq. dielectric constant tensor:
#      x y z
#    x 1.816420 0.000000 0.000000 
#    y 0.000000 1.862460 0.000000 
#    z 0.000000 0.000000 1.838050 
# 
# From -- ./inp_files/40196.got.cif
#   From: 2010.06.25/outbox.cif.g09.slc.cpg/sg52_21_cif.got.tgz:40196.got - 2010.06.26 19:32:48.
