data_PCOD8215624
_publ_section_title
;
Structure prediction by ZEFSAII (Michael W. Deem and Ramdas Pophale) SiO2 
 PCOD8215624
Probable space group: P N N A
;
_chemical_formula_sum "Si O2"
_cell_formula_units_Z 64
_cell_length_a 20.849237
_cell_length_b 12.029573
_cell_length_c 12.824218
_cell_angle_alpha 90.000000
_cell_angle_beta 90.000000
_cell_angle_gamma 90.000000
_cell_volume 3216.409011
_symmetry_space_group_name_H-M "P N N A"
_symmetry_group_IT_number 52
_symmetry_cell_setting 'orthorhombic'
loop_
_space_group_symop_operation_xyz
x,y,z
1/2-x,-y,z
x,1/2-y,1/2-z
1/2-x,1/2+y,1/2-z
-x,-y,-z
1/2+x,y,-z
-x,1/2+y,1/2+z
1/2+x,1/2-y,1/2+z
loop_
_atom_site_type_symbol
_atom_site_label
_atom_site_fract_x
_atom_site_fract_y
_atom_site_fract_z
Si Si1 0.123921 0.288496 0.964517
Si Si2 0.282454 0.613064 0.586940
Si Si3 0.063802 0.785605 0.938007
Si Si4 0.554921 0.329455 0.837419
Si Si5 0.954285 0.472283 0.277410
Si Si6 0.687216 0.701490 0.138490
Si Si7 0.001714 0.299574 0.642578
Si Si8 0.825432 0.961168 0.314766
O O1 0.155902 0.163766 0.975888
O O2 0.058726 0.280448 0.897476
O O3 0.174607 0.364929 0.901634
O O4 0.110463 0.350124 0.076031
O O5 0.250000 0.500000 0.538703
O O6 0.232557 0.713655 0.578300
O O7 0.302021 0.590291 0.706024
O O8 0.076246 0.891459 0.864602
O O9 0.120984 0.697032 0.926214
O O10 0.997207 0.738575 0.900062
O O11 0.056524 0.811393 0.060621
O O12 0.585909 0.250000 0.750000
O O13 0.519195 0.434182 0.783939
O O14 0.970345 0.579618 0.342470
O O15 0.898037 0.492685 0.194387
O O16 0.669677 0.750000 0.250000
O O17 0.715518 0.573986 0.151024
O O18 0.973862 0.250000 0.750000
#
# Coordination Sequence:
#
# PCOD8215624 Si02
#       8
#     8   8   8   8   8   8   8   8
#     4  11  23  37  56  89 119 152 196 237 300 359
#     4  12  24  37  58  85 118 153 193 241 299 347
#     4  10  20  34  54  81 114 152 191 235 289 356
#     4   9  20  38  59  84 115 152 195 238 289 358
#     4  11  18  35  55  80 118 154 187 233 296 356
#     4  12  21  36  55  80 117 155 192 233 288 350
#     4  11  21  34  53  82 120 149 189 243 296 355
#     4  12  22  35  57  85 122 154 187 238 294 361
#
# _framework density 19.897967000000001
#
# number of rings (size 3 to 8) (size 9 to 14) (size 15 to 20)
#    0.000    1.000    6.250    1.875    0.000    1.500 
#    0.000    0.000    0.000    0.750    3.250    0.000 
#    0.000    0.000    0.000    0.000    0.000    0.000 
#
# Total GULP energy -793167.870150 kJ/mol
# GULP energy per Si atom -12393.247971 kJ/mol
# Density = 1.985268 g / cm^3
# Si number density = 19.897967 Si / 1000 Ang^3
#
#
#
# Elastic Constant Matrix: (Units=GPa)
#
#
# Indices 1 2 3 4 5 6 
#
# 1 37.4041 15.5074 21.3658 0.0000 0.0000 0.0000
# 2 15.5074 102.6616 24.7410 0.0000 0.0000 0.0000
# 3 21.3658 24.7410 79.6773 0.0000 0.0000 0.0000
# 4 0.0000 0.0000 0.0000 7.6402 0.0000 0.0000
# 5 0.0000 0.0000 0.0000 0.0000 23.7155 0.0000
# 6 0.0000 0.0000 0.0000 0.0000 0.0000 30.9099
#
#
#
# Elastic Compliance Matrix: (Units=1/GPa)
#
#
# Indices 1 2 3 4 5 6 
#
# 1 0.032419 -0.003029 -0.007753 0.000000 0.000000 0.000000
# 2 -0.003029 0.010812 -0.002545 0.000000 0.000000 0.000000
# 3 -0.007753 -0.002545 0.015420 0.000000 0.000000 0.000000
# 4 0.000000 0.000000 0.000000 0.130886 0.000000 0.000000
# 5 0.000000 0.000000 0.000000 0.000000 0.042167 0.000000
# 6 0.000000 0.000000 0.000000 0.000000 0.000000 0.032352
#
#
# Mechanical properties :
#
#
# Convention : Reuss Voigt Hill
#
# Bulk Modulus (GPa) = 31.25237 38.10793 34.68015
# Shear Modulus (GPa) = 16.59065 22.99504 19.79284
#
# Velocity S-wave (km/s) = 2.89067 3.40317 3.15733
# Velocity P-wave (km/s) = 5.18476 5.88518 5.54604
#
# Compressibility (1/GPa) = 0.03199757
#
# Stress axis : x y z
#
# Youngs Moduli (GPa) = 30.84588 92.49354 64.85136
#
# Poissons Ratio (x) = 0.28013 0.50279
# Poissons Ratio (y) = 0.09342 0.16505
# Poissons Ratio (z) = 0.23915 0.23540
#
# Static dielectric constant tensor:
#      x y z
#    x 3.889800 0.000000 0.000000 
#    y 0.000000 3.926940 0.000000 
#    z 0.000000 0.000000 3.771910 
# 
# 
# High freq. dielectric constant tensor:
#      x y z
#    x 1.772990 0.000000 0.000000 
#    y 0.000000 1.787750 0.000000 
#    z 0.000000 0.000000 1.736100 
# 
# From -- ./inp_files/22504.got.cif
#   From: 2010.06.25/outbox.cif.g09.slc.cpg/sg52_12_cif.got.tgz:22504.got - 2010.06.26 19:32:48.
