data_PCOD8215389
_publ_section_title
;
Structure prediction by ZEFSAII (Michael W. Deem and Ramdas Pophale) SiO2 
 PCOD8215389
Probable space group: P N N A
;
_chemical_formula_sum "Si O2"
_cell_formula_units_Z 36
_cell_length_a 5.280871
_cell_length_b 17.353841
_cell_length_c 17.452756
_cell_angle_alpha 90.000000
_cell_angle_beta 90.000000
_cell_angle_gamma 90.000000
_cell_volume 1599.429824
_symmetry_space_group_name_H-M "P N N A"
_symmetry_group_IT_number 52
_symmetry_cell_setting 'orthorhombic'
loop_
_space_group_symop_operation_xyz
x,y,z
1/2-x,-y,z
x,1/2-y,1/2-z
1/2-x,1/2+y,1/2-z
-x,-y,-z
1/2+x,y,-z
-x,1/2+y,1/2+z
1/2+x,1/2-y,1/2+z
loop_
_atom_site_type_symbol
_atom_site_label
_atom_site_fract_x
_atom_site_fract_y
_atom_site_fract_z
Si Si1 0.250000 0.500000 0.947689
Si Si2 0.992323 0.861753 0.180866
Si Si3 0.158395 0.250000 0.250000
Si Si4 0.250000 0.500000 0.277250
Si Si5 0.722628 0.589262 0.455506
Si Si6 0.137793 0.604180 0.810117
O O1 0.217890 0.578044 0.895862
O O2 0.500000 0.500000 0.000000
O O3 0.161959 0.785762 0.184010
O O4 0.166165 0.935533 0.160894
O O5 0.763346 0.857265 0.120058
O O6 0.899464 0.883718 0.265781
O O7 0.999866 0.312905 0.201726
O O8 0.471355 0.534422 0.223772
O O9 0.750000 0.500000 0.432994
O O10 0.448118 0.612038 0.486314
#
# Coordination Sequence:
#
# PCOD8215389 Si02
#       6
#     4   8   4   4   8   8
#     4  12  27  46  76 113 150 190 246 320 383 444
#     4  11  22  40  67  97 132 187 235 297 347 433
#     4  10  26  40  72  96 142 180 264 294 362 430
#     4  10  19  34  70  99 126 172 242 294 349 416
#     4  10  23  38  61  99 138 172 215 276 348 413
#     4  11  22  44  69 104 136 190 246 306 367 437
#
# _framework density 22.508020999999999
#
# number of rings (size 3 to 8) (size 9 to 14) (size 15 to 20)
#    0.000    1.333    2.222    2.667   14.000    0.000 
#    0.000    2.222    0.000    0.000    0.000    0.000 
#    0.000    0.000    0.000    0.000    0.000    0.000 
#
# Total GULP energy -446043.303299 kJ/mol
# GULP energy per Si atom -12390.091758 kJ/mol
# Density = 2.245679 g / cm^3
# Si number density = 22.508021 Si / 1000 Ang^3
#
#
#
# Elastic Constant Matrix: (Units=GPa)
#
#
# Indices 1 2 3 4 5 6 
#
# 1 84.0571 37.1820 31.0430 0.0000 0.0000 0.0000
# 2 37.1820 133.4535 41.5577 0.0000 0.0000 0.0000
# 3 31.0430 41.5577 113.2948 0.0000 0.0000 0.0000
# 4 0.0000 0.0000 0.0000 15.4634 0.0000 0.0000
# 5 0.0000 0.0000 0.0000 0.0000 38.4910 0.0000
# 6 0.0000 0.0000 0.0000 0.0000 0.0000 30.6991
#
#
#
# Elastic Compliance Matrix: (Units=1/GPa)
#
#
# Indices 1 2 3 4 5 6 
#
# 1 0.014302 -0.003121 -0.002774 0.000000 0.000000 0.000000
# 2 -0.003121 0.009141 -0.002498 0.000000 0.000000 0.000000
# 3 -0.002774 -0.002498 0.010503 0.000000 0.000000 0.000000
# 4 0.000000 0.000000 0.000000 0.064669 0.000000 0.000000
# 5 0.000000 0.000000 0.000000 0.000000 0.025980 0.000000
# 6 0.000000 0.000000 0.000000 0.000000 0.000000 0.032574
#
#
# Mechanical properties :
#
#
# Convention : Reuss Voigt Hill
#
# Bulk Modulus (GPa) = 58.27514 61.15231 59.71373
# Shear Modulus (GPa) = 27.82836 31.66556 29.74696
#
# Velocity S-wave (km/s) = 3.52003 3.75488 3.63935
# Velocity P-wave (km/s) = 6.51673 6.78431 6.65187
#
# Compressibility (1/GPa) = 0.01715998
#
# Stress axis : x y z
#
# Youngs Moduli (GPa) = 69.92237 109.40262 95.21289
#
# Poissons Ratio (x) = 0.34143 0.26411
# Poissons Ratio (y) = 0.21822 0.23782
# Poissons Ratio (z) = 0.19396 0.27326
#
# Static dielectric constant tensor:
#      x y z
#    x 4.371930 0.000000 0.000000 
#    y 0.000000 4.107290 0.000000 
#    z 0.000000 0.000000 3.947360 
# 
# 
# High freq. dielectric constant tensor:
#      x y z
#    x 1.914170 0.000000 0.000000 
#    y 0.000000 1.873230 0.000000 
#    z 0.000000 0.000000 1.864690 
# 
# From -- ./inp_files/23586.got.cif
#   From: 2010.06.25/outbox.cif.g09.slc.cpg/sg52_12_cif.got.tgz:23586.got - 2010.06.26 19:32:48.
