data_PCOD8215294
_publ_section_title
;
Structure prediction by ZEFSAII (Michael W. Deem and Ramdas Pophale) SiO2 
 PCOD8215294
Probable space group: P N N A
;
_chemical_formula_sum "Si O2"
_cell_formula_units_Z 56
_cell_length_a 12.467596
_cell_length_b 18.648469
_cell_length_c 13.907068
_cell_angle_alpha 90.000000
_cell_angle_beta 90.000000
_cell_angle_gamma 90.000000
_cell_volume 3233.415249
_symmetry_space_group_name_H-M "P N N A"
_symmetry_group_IT_number 52
_symmetry_cell_setting 'orthorhombic'
loop_
_space_group_symop_operation_xyz
x,y,z
1/2-x,-y,z
x,1/2-y,1/2-z
1/2-x,1/2+y,1/2-z
-x,-y,-z
1/2+x,y,-z
-x,1/2+y,1/2+z
1/2+x,1/2-y,1/2+z
loop_
_atom_site_type_symbol
_atom_site_label
_atom_site_fract_x
_atom_site_fract_y
_atom_site_fract_z
Si Si1 0.718377 0.576207 0.787378
Si Si2 0.349188 0.320501 0.499065
Si Si3 0.605170 0.422792 0.624500
Si Si4 0.225783 0.277778 0.146628
Si Si5 0.196207 0.423818 0.587287
Si Si6 0.030860 0.577977 0.348565
Si Si7 0.995823 0.224605 0.151110
O O1 0.750000 0.500000 0.837113
O O2 0.790738 0.579968 0.691850
O O3 0.740688 0.638964 0.864136
O O4 0.594649 0.586351 0.752463
O O5 0.271454 0.272330 0.435707
O O6 0.287685 0.362872 0.585157
O O7 0.418539 0.373928 0.433222
O O8 0.423114 0.264320 0.557145
O O9 0.649039 0.417408 0.518524
O O10 0.536659 0.494623 0.625777
O O11 0.527920 0.358861 0.656064
O O12 0.267789 0.250000 0.250000
O O13 0.098262 0.275752 0.139620
O O14 0.250000 0.500000 0.611619
O O15 0.097408 0.405707 0.660654
O O16 0.937470 0.250000 0.250000
#
# Coordination Sequence:
#
# PCOD8215294 Si02
#       7
#     8   8   8   8   8   8   8
#     4  10  19  32  53  80 102 128 175 225 260 305
#     4  12  20  31  52  77 111 140 177 218 265 318
#     4  11  16  29  48  77 109 133 172 208 253 324
#     4  11  18  34  55  80 104 135 178 224 260 310
#     4  12  19  28  44  76 115 144 166 197 266 343
#     4  11  19  28  48  79 108 140 165 209 268 320
#     4  11  21  34  52  75 105 148 177 216 261 311
#
# _framework density 17.31915
#
# number of rings (size 3 to 8) (size 9 to 14) (size 15 to 20)
#    0.000    0.857   10.000    1.714    0.000    0.000 
#    0.000    0.000    6.286    0.857    0.000    1.000 
#    0.000    0.000    0.000    0.000    0.000    0.000 
#
# Total GULP energy -693984.273265 kJ/mol
# GULP energy per Si atom -12392.576308 kJ/mol
# Density = 1.727973 g / cm^3
# Si number density = 17.319150 Si / 1000 Ang^3
#
#
#
# Elastic Constant Matrix: (Units=GPa)
#
#
# Indices 1 2 3 4 5 6 
#
# 1 70.3258 29.5720 19.7928 0.0000 0.0000 0.0000
# 2 29.5720 76.6394 14.2290 0.0000 0.0000 0.0000
# 3 19.7928 14.2290 29.2252 0.0000 0.0000 0.0000
# 4 0.0000 0.0000 0.0000 16.6140 0.0000 0.0000
# 5 0.0000 0.0000 0.0000 0.0000 11.4316 0.0000
# 6 0.0000 0.0000 0.0000 0.0000 0.0000 10.3582
#
#
#
# Elastic Compliance Matrix: (Units=1/GPa)
#
#
# Indices 1 2 3 4 5 6 
#
# 1 0.019524 -0.005583 -0.010504 0.000000 0.000000 0.000000
# 2 -0.005583 0.015941 -0.003980 0.000000 0.000000 0.000000
# 3 -0.010504 -0.003980 0.043269 0.000000 0.000000 0.000000
# 4 0.000000 0.000000 0.000000 0.060190 0.000000 0.000000
# 5 0.000000 0.000000 0.000000 0.000000 0.087477 0.000000
# 6 0.000000 0.000000 0.000000 0.000000 0.000000 0.096542
#
#
# Mechanical properties :
#
#
# Convention : Reuss Voigt Hill
#
# Bulk Modulus (GPa) = 25.90752 33.70866 29.80809
# Shear Modulus (GPa) = 13.29986 15.18720 14.24353
#
# Velocity S-wave (km/s) = 2.77416 2.96447 2.87089
# Velocity P-wave (km/s) = 5.02520 5.58775 5.31392
#
# Compressibility (1/GPa) = 0.03859883
#
# Stress axis : x y z
#
# Youngs Moduli (GPa) = 51.22024 62.72968 23.11132
#
# Poissons Ratio (x) = 0.35023 0.24276
# Poissons Ratio (y) = 0.28597 0.09199
# Poissons Ratio (z) = 0.53802 0.24968
#
# Static dielectric constant tensor:
#      x y z
#    x 3.983110 0.000000 0.000000 
#    y 0.000000 3.627170 0.000000 
#    z 0.000000 0.000000 2.918590 
# 
# 
# High freq. dielectric constant tensor:
#      x y z
#    x 1.672760 0.000000 0.000000 
#    y 0.000000 1.670700 0.000000 
#    z 0.000000 0.000000 1.611310 
# 
# From -- ./inp_files/18341.got.cif
#   From: 2010.06.25/outbox.cif.g09.slc.cpg/sg52_10_cif.got.tgz:18341.got - 2010.06.26 19:32:48.
