data_PCOD8215787
_publ_section_title
;
Structure prediction by ZEFSAII (Michael W. Deem and Ramdas Pophale) SiO2 
 PCOD8215787
Probable space group: P N N A
;
_chemical_formula_sum "Si O2"
_cell_formula_units_Z 48
_cell_length_a 5.129305
_cell_length_b 25.484645
_cell_length_c 15.689517
_cell_angle_alpha 90.000000
_cell_angle_beta 90.000000
_cell_angle_gamma 90.000000
_cell_volume 2050.910395
_symmetry_space_group_name_H-M "P N N A"
_symmetry_group_IT_number 52
_symmetry_cell_setting 'orthorhombic'
loop_
_space_group_symop_operation_xyz
x,y,z
1/2-x,-y,z
x,1/2-y,1/2-z
1/2-x,1/2+y,1/2-z
-x,-y,-z
1/2+x,y,-z
-x,1/2+y,1/2+z
1/2+x,1/2-y,1/2+z
loop_
_atom_site_type_symbol
_atom_site_label
_atom_site_fract_x
_atom_site_fract_y
_atom_site_fract_z
Si Si1 0.182621 0.681092 0.187235
Si Si2 0.695504 0.631861 0.470485
Si Si3 0.152891 0.755320 0.046225
Si Si4 0.282549 0.905952 0.444579
Si Si5 0.485572 0.532315 0.208187
Si Si6 0.342694 0.357044 0.723986
O O1 0.136332 0.739366 0.147264
O O2 0.298515 0.647463 0.108944
O O3 0.415309 0.682024 0.256717
O O4 0.913827 0.656696 0.221843
O O5 0.435521 0.598350 0.490848
O O6 0.650044 0.681906 0.534407
O O7 0.729464 0.650479 0.374347
O O8 0.406508 0.730082 0.002113
O O9 0.486974 0.909011 0.521870
O O10 0.355264 0.953592 0.382238
O O11 0.750000 0.500000 0.194976
O O12 0.562330 0.583498 0.262112
O O13 0.250000 0.500000 0.255745
#
# Coordination Sequence:
#
# PCOD8215787 Si02
#       6
#     8   8   8   8   8   8
#     4  11  21  37  60  88 121 161 205 244 292 355
#     4  10  22  42  64  89 119 157 198 248 311 360
#     4  10  20  37  58  85 121 159 199 245 293 344
#     4  11  21  34  55  84 120 161 197 236 289 352
#     4  11  23  39  59  87 121 158 205 258 308 357
#     4  11  23  41  64  88 119 161 203 246 305 370
#
# _framework density 23.404237999999999
#
# number of rings (size 3 to 8) (size 9 to 14) (size 15 to 20)
#    0.000    1.333    0.000    8.000    0.000    2.000 
#    0.000   20.000    0.000    3.000    0.000    0.000 
#    0.000    0.000    0.000    0.000    0.000    0.000 
#
# Total GULP energy -594815.840747 kJ/mol
# GULP energy per Si atom -12391.996682 kJ/mol
# Density = 2.335097 g / cm^3
# Si number density = 23.404238 Si / 1000 Ang^3
#
#
#
# Elastic Constant Matrix: (Units=GPa)
#
#
# Indices 1 2 3 4 5 6 
#
# 1 195.6912 11.6997 29.0145 0.0000 0.0000 0.0000
# 2 11.6997 53.7965 5.7157 0.0000 0.0000 0.0000
# 3 29.0145 5.7157 67.8630 0.0000 0.0000 0.0000
# 4 0.0000 0.0000 0.0000 9.7792 0.0000 0.0000
# 5 0.0000 0.0000 0.0000 0.0000 38.7370 0.0000
# 6 0.0000 0.0000 0.0000 0.0000 0.0000 13.5782
#
#
#
# Elastic Compliance Matrix: (Units=1/GPa)
#
#
# Indices 1 2 3 4 5 6 
#
# 1 0.005504 -0.000956 -0.002273 0.000000 0.000000 0.000000
# 2 -0.000956 0.018922 -0.001185 0.000000 0.000000 0.000000
# 3 -0.002273 -0.001185 0.015807 0.000000 0.000000 0.000000
# 4 0.000000 0.000000 0.000000 0.102258 0.000000 0.000000
# 5 0.000000 0.000000 0.000000 0.000000 0.025815 0.000000
# 6 0.000000 0.000000 0.000000 0.000000 0.000000 0.073647
#
#
# Mechanical properties :
#
#
# Convention : Reuss Voigt Hill
#
# Bulk Modulus (GPa) = 31.84052 45.57895 38.70974
# Shear Modulus (GPa) = 19.13877 30.48026 24.80952
#
# Velocity S-wave (km/s) = 2.86273 3.61271 3.25936
# Velocity P-wave (km/s) = 4.95592 6.07611 5.54438
#
# Compressibility (1/GPa) = 0.03140652
#
# Stress axis : x y z
#
# Youngs Moduli (GPa) = 181.67921 52.84767 63.26264
#
# Poissons Ratio (x) = 0.05050 0.14378
# Poissons Ratio (y) = 0.17361 0.07498
# Poissons Ratio (z) = 0.41292 0.06263
#
# Static dielectric constant tensor:
#      x y z
#    x 5.767360 0.000000 0.000000 
#    y 0.000000 3.964000 0.000000 
#    z 0.000000 0.000000 4.061340 
# 
# 
# High freq. dielectric constant tensor:
#      x y z
#    x 1.965970 0.000000 0.000000 
#    y 0.000000 1.889680 0.000000 
#    z 0.000000 0.000000 1.915620 
# 
# From -- ./inp_files/23744.got.cif
#   From: 2010.06.25/outbox.cif.g09.slc.cpg/sg52_12_cif.got.tgz:23744.got - 2010.06.26 19:32:48.
