data_PCOD8215043
_publ_section_title
;
Structure prediction by ZEFSAII (Michael W. Deem and Ramdas Pophale) SiO2 
 PCOD8215043
Probable space group: P N N A
;
_chemical_formula_sum "Si O2"
_cell_formula_units_Z 48
_cell_length_a 5.100817
_cell_length_b 20.081939
_cell_length_c 33.691315
_cell_angle_alpha 90.000000
_cell_angle_beta 90.000000
_cell_angle_gamma 90.000000
_cell_volume 3451.146128
_symmetry_space_group_name_H-M "P N N A"
_symmetry_group_IT_number 52
_symmetry_cell_setting 'orthorhombic'
loop_
_space_group_symop_operation_xyz
x,y,z
1/2-x,-y,z
x,1/2-y,1/2-z
1/2-x,1/2+y,1/2-z
-x,-y,-z
1/2+x,y,-z
-x,1/2+y,1/2+z
1/2+x,1/2-y,1/2+z
loop_
_atom_site_type_symbol
_atom_site_label
_atom_site_fract_x
_atom_site_fract_y
_atom_site_fract_z
Si Si1 0.502221 0.042353 0.601382
Si Si2 0.675067 0.151327 0.223610
Si Si3 0.820595 0.636523 0.829004
Si Si4 0.179372 0.076605 0.242081
Si Si5 0.195781 0.577547 0.980055
Si Si6 0.686589 0.288314 0.189476
O O1 0.632651 0.084421 0.636214
O O2 0.392403 0.088176 0.565593
O O3 0.250000 0.000000 0.617390
O O4 0.750000 0.000000 0.584575
O O5 0.398615 0.116090 0.217938
O O6 0.684236 0.207840 0.189473
O O7 0.687941 0.186481 0.265827
O O8 0.906073 0.096417 0.221012
O O9 0.823423 0.595167 0.788340
O O10 0.551889 0.677588 0.834429
O O11 0.047096 0.691045 0.831726
O O12 0.250000 0.000000 0.237731
O O13 0.250000 0.500000 0.988465
O O14 0.475604 0.610576 0.991019
#
# Coordination Sequence:
#
# PCOD8215043 Si02
#       6
#     8   8   8   8   8   8
#     4  11  20  28  39  55  75  95 117 149 192 232
#     4   9  17  28  41  53  67  91 120 147 176 216
#     4  10  19  28  39  54  73  94 116 148 189 227
#     4  10  18  27  39  55  74  92 113 146 190 229
#     4   9  16  27  40  52  67  91 121 148 176 215
#     4   9  17  29  41  52  67  91 122 148 175 215
#
# _framework density 13.908422
#
# number of rings (size 3 to 8) (size 9 to 14) (size 15 to 20)
#    0.000    2.333    0.000    5.500    0.000    6.667 
#    0.000    0.000    0.000    0.000    0.000    0.000 
#    0.000    0.000    0.000    0.000    0.000    0.000 
#
# Total GULP energy -594786.510902 kJ/mol
# GULP energy per Si atom -12391.385644 kJ/mol
# Density = 1.387677 g / cm^3
# Si number density = 13.908422 Si / 1000 Ang^3
#
#
#
# Elastic Constant Matrix: (Units=GPa)
#
#
# Indices 1 2 3 4 5 6 
#
# 1 91.9181 22.0824 16.6870 0.0000 0.0000 0.0000
# 2 22.0824 56.5390 23.1848 0.0000 0.0000 0.0000
# 3 16.6870 23.1848 28.6739 0.0000 0.0000 0.0000
# 4 0.0000 0.0000 0.0000 3.7468 0.0000 0.0000
# 5 0.0000 0.0000 0.0000 0.0000 13.1872 0.0000
# 6 0.0000 0.0000 0.0000 0.0000 0.0000 17.4988
#
#
#
# Elastic Compliance Matrix: (Units=1/GPa)
#
#
# Indices 1 2 3 4 5 6 
#
# 1 0.012460 -0.002832 -0.004961 0.000000 0.000000 0.000000
# 2 -0.002832 0.027104 -0.020267 0.000000 0.000000 0.000000
# 3 -0.004961 -0.020267 0.054150 0.000000 0.000000 0.000000
# 4 0.000000 0.000000 0.000000 0.266891 0.000000 0.000000
# 5 0.000000 0.000000 0.000000 0.000000 0.075831 0.000000
# 6 0.000000 0.000000 0.000000 0.000000 0.000000 0.057147
#
#
# Mechanical properties :
#
#
# Convention : Reuss Voigt Hill
#
# Bulk Modulus (GPa) = 26.60107 33.44882 30.02495
# Shear Modulus (GPa) = 8.89306 14.56502 11.72904
#
# Velocity S-wave (km/s) = 2.53138 3.23957 2.90712
# Velocity P-wave (km/s) = 5.26415 6.17208 5.73611
#
# Compressibility (1/GPa) = 0.03759247
#
# Stress axis : x y z
#
# Youngs Moduli (GPa) = 80.25466 36.89485 18.46726
#
# Poissons Ratio (x) = 0.10449 0.09162
# Poissons Ratio (y) = 0.22729 0.37428
# Poissons Ratio (z) = 0.39818 0.74776
#
# Static dielectric constant tensor:
#      x y z
#    x 3.234870 0.000000 0.000000 
#    y 0.000000 2.587000 0.000000 
#    z 0.000000 0.000000 2.463020 
# 
# 
# High freq. dielectric constant tensor:
#      x y z
#    x 1.563810 0.000000 0.000000 
#    y 0.000000 1.491970 0.000000 
#    z 0.000000 0.000000 1.481260 
# 
# From -- ./inp_files/43831.got.cif
#   From: 2010.06.25/outbox.cif.g09.slc.cpg/sg52_22_cif.got.tgz:43831.got - 2010.06.26 19:32:48.
