data_PCOD8215960
_publ_section_title
;
Structure prediction by ZEFSAII (Michael W. Deem and Ramdas Pophale) SiO2 
 PCOD8215960
Probable space group: P N N A
;
_chemical_formula_sum "Si O2"
_cell_formula_units_Z 48
_cell_length_a 17.591958
_cell_length_b 8.670228
_cell_length_c 15.482930
_cell_angle_alpha 90.000000
_cell_angle_beta 90.000000
_cell_angle_gamma 90.000000
_cell_volume 2361.553822
_symmetry_space_group_name_H-M "P N N A"
_symmetry_group_IT_number 52
_symmetry_cell_setting 'orthorhombic'
loop_
_space_group_symop_operation_xyz
x,y,z
1/2-x,-y,z
x,1/2-y,1/2-z
1/2-x,1/2+y,1/2-z
-x,-y,-z
1/2+x,y,-z
-x,1/2+y,1/2+z
1/2+x,1/2-y,1/2+z
loop_
_atom_site_type_symbol
_atom_site_label
_atom_site_fract_x
_atom_site_fract_y
_atom_site_fract_z
Si Si1 0.807996 0.250000 0.750000
Si Si2 0.629296 0.404920 0.484634
Si Si3 0.379403 0.257002 0.572767
Si Si4 0.265517 0.823691 0.835821
Si Si5 0.967962 0.642218 0.946276
Si Si6 0.163425 0.940019 0.404179
Si Si7 0.250000 0.500000 0.374429
O O1 0.857273 0.144021 0.685971
O O2 0.757463 0.352002 0.686125
O O3 0.603282 0.562635 0.440659
O O4 0.680733 0.304871 0.418720
O O5 0.556290 0.297015 0.501857
O O6 0.677332 0.456907 0.567979
O O7 0.313024 0.233805 0.642671
O O8 0.458509 0.189071 0.611171
O O9 0.354453 0.173227 0.483705
O O10 0.302383 0.750000 0.750000
O O11 0.250000 0.000000 0.815749
O O12 0.891985 0.587937 0.898090
O O13 0.000000 0.500000 0.000000
O O14 0.250000 0.000000 0.408120
#
# Coordination Sequence:
#
# PCOD8215960 Si02
#       7
#     4   8   8   8   8   8   4
#     4  12  22  34  58  92 126 148 210 262 306 372
#     4  11  20  41  65  91 123 167 211 257 321 384
#     4  10  20  40  61  89 123 162 207 253 326 385
#     4  10  21  37  64  93 119 156 213 263 307 362
#     4  10  23  37  63  89 122 168 210 252 323 386
#     4  11  21  38  60  90 121 160 206 264 307 376
#     4  12  22  38  66  96 122 160 208 262 320 372
#
# _framework density 20.325599
#
# number of rings (size 3 to 8) (size 9 to 14) (size 15 to 20)
#    0.000    1.333    5.000    2.500    0.000    3.333 
#    0.000    1.667   14.667    0.000    0.000    0.000 
#    0.000    0.000    0.000    0.000    0.000    0.000 
#
# Total GULP energy -594661.699929 kJ/mol
# GULP energy per Si atom -12388.785415 kJ/mol
# Density = 2.027934 g / cm^3
# Si number density = 20.325599 Si / 1000 Ang^3
#
#
#
# Elastic Constant Matrix: (Units=GPa)
#
#
# Indices 1 2 3 4 5 6 
#
# 1 127.9368 38.3008 26.6104 0.0000 0.0000 0.0000
# 2 38.3008 69.7127 19.2957 0.0000 0.0000 0.0000
# 3 26.6104 19.2957 84.2849 0.0000 0.0000 0.0000
# 4 0.0000 0.0000 0.0000 36.2739 0.0000 0.0000
# 5 0.0000 0.0000 0.0000 0.0000 5.8984 0.0000
# 6 0.0000 0.0000 0.0000 0.0000 0.0000 44.8257
#
#
#
# Elastic Compliance Matrix: (Units=1/GPa)
#
#
# Indices 1 2 3 4 5 6 
#
# 1 0.009648 -0.004759 -0.001957 0.000000 0.000000 0.000000
# 2 -0.004759 0.017663 -0.002541 0.000000 0.000000 0.000000
# 3 -0.001957 -0.002541 0.013064 0.000000 0.000000 0.000000
# 4 0.000000 0.000000 0.000000 0.027568 0.000000 0.000000
# 5 0.000000 0.000000 0.000000 0.000000 0.169537 0.000000
# 6 0.000000 0.000000 0.000000 0.000000 0.000000 0.022309
#
#
# Mechanical properties :
#
#
# Convention : Reuss Voigt Hill
#
# Bulk Modulus (GPa) = 45.74316 50.03869 47.89093
# Shear Modulus (GPa) = 17.50767 30.58145 24.04456
#
# Velocity S-wave (km/s) = 2.93808 3.88310 3.44316
# Velocity P-wave (km/s) = 5.83642 6.69153 6.27855
#
# Compressibility (1/GPa) = 0.02186119
#
# Stress axis : x y z
#
# Youngs Moduli (GPa) = 103.64745 56.61657 76.54645
#
# Poissons Ratio (x) = 0.26945 0.14977
# Poissons Ratio (y) = 0.49328 0.19451
# Poissons Ratio (z) = 0.20279 0.14386
#
# Static dielectric constant tensor:
#      x y z
#    x 3.982440 0.000000 0.000000 
#    y 0.000000 4.206040 0.000000 
#    z 0.000000 0.000000 3.555880 
# 
# 
# High freq. dielectric constant tensor:
#      x y z
#    x 1.786940 0.000000 0.000000 
#    y 0.000000 1.818730 0.000000 
#    z 0.000000 0.000000 1.768150 
# 
# From -- ./inp_files/28125.got.cif
#   From: 2010.06.25/outbox.cif.g09.slc.cpg/sg52_15_cif.got.tgz:28125.got - 2010.06.26 19:32:48.
