data_PCOD8215707
_publ_section_title
;
Structure prediction by ZEFSAII (Michael W. Deem and Ramdas Pophale) SiO2 
 PCOD8215707
Probable space group: P N N A
;
_chemical_formula_sum "Si O2"
_cell_formula_units_Z 36
_cell_length_a 9.853239
_cell_length_b 20.026326
_cell_length_c 9.161532
_cell_angle_alpha 90.000000
_cell_angle_beta 90.000000
_cell_angle_gamma 90.000000
_cell_volume 1807.791756
_symmetry_space_group_name_H-M "P N N A"
_symmetry_group_IT_number 52
_symmetry_cell_setting 'orthorhombic'
loop_
_space_group_symop_operation_xyz
x,y,z
1/2-x,-y,z
x,1/2-y,1/2-z
1/2-x,1/2+y,1/2-z
-x,-y,-z
1/2+x,y,-z
-x,1/2+y,1/2+z
1/2+x,1/2-y,1/2+z
loop_
_atom_site_type_symbol
_atom_site_label
_atom_site_fract_x
_atom_site_fract_y
_atom_site_fract_z
Si Si1 0.277535 0.630082 0.133905
Si Si2 0.031846 0.372285 0.637091
Si Si3 0.264516 0.076879 0.047600
Si Si4 0.121831 0.750000 0.250000
Si Si5 0.011652 0.923823 0.455457
O O1 0.283843 0.592458 0.288556
O O2 0.223743 0.705955 0.150868
O O3 0.424484 0.625106 0.059996
O O4 0.169997 0.593743 0.027350
O O5 0.178701 0.376549 0.562869
O O6 0.923264 0.406767 0.528589
O O7 0.979787 0.296294 0.656390
O O8 0.036119 0.411561 0.789993
O O9 0.250000 0.000000 0.006533
O O10 0.000000 0.000000 0.500000
#
# Coordination Sequence:
#
# PCOD8215707 Si02
#       5
#     8   8   8   4   8
#     4  10  21  35  58  78 113 149 181 234 274 335
#     4  10  22  35  58  79 113 147 181 235 271 335
#     4  10  20  36  54  82 110 143 182 229 283 325
#     4   8  20  40  54  82 112 148 192 224 282 328
#     4  10  20  36  55  84 111 143 184 233 287 329
#
# _framework density 19.913799000000001
#
# number of rings (size 3 to 8) (size 9 to 14) (size 15 to 20)
#    0.000    2.667    0.000    4.000    0.000   10.667 
#    0.000    0.000    0.000   21.333    0.000    0.000 
#    0.000    0.000    0.000    0.000    0.000    0.000 
#
# Total GULP energy -446207.843666 kJ/mol
# GULP energy per Si atom -12394.662324 kJ/mol
# Density = 1.986847 g / cm^3
# Si number density = 19.913799 Si / 1000 Ang^3
#
#
#
# Elastic Constant Matrix: (Units=GPa)
#
#
# Indices 1 2 3 4 5 6 
#
# 1 53.4048 17.4913 36.3069 0.0000 0.0000 0.0000
# 2 17.4913 145.7231 23.4428 0.0000 0.0000 0.0000
# 3 36.3069 23.4428 59.2184 0.0000 0.0000 0.0000
# 4 0.0000 0.0000 0.0000 22.4601 0.0000 0.0000
# 5 0.0000 0.0000 0.0000 0.0000 45.0314 0.0000
# 6 0.0000 0.0000 0.0000 0.0000 0.0000 29.3041
#
#
#
# Elastic Compliance Matrix: (Units=1/GPa)
#
#
# Indices 1 2 3 4 5 6 
#
# 1 0.032182 -0.000736 -0.019439 0.000000 0.000000 0.000000
# 2 -0.000736 0.007346 -0.002457 0.000000 0.000000 0.000000
# 3 -0.019439 -0.002457 0.029778 0.000000 0.000000 0.000000
# 4 0.000000 0.000000 0.000000 0.044523 0.000000 0.000000
# 5 0.000000 0.000000 0.000000 0.000000 0.022207 0.000000
# 6 0.000000 0.000000 0.000000 0.000000 0.000000 0.034125
#
#
# Mechanical properties :
#
#
# Convention : Reuss Voigt Hill
#
# Bulk Modulus (GPa) = 41.59541 45.86982 43.73261
# Shear Modulus (GPa) = 22.37761 31.43282 26.90521
#
# Velocity S-wave (km/s) = 3.35584 3.97727 3.67970
# Velocity P-wave (km/s) = 5.99571 6.64649 6.32947
#
# Compressibility (1/GPa) = 0.02404112
#
# Stress axis : x y z
#
# Youngs Moduli (GPa) = 31.07374 136.13058 33.58227
#
# Poissons Ratio (x) = 0.10013 0.65282
# Poissons Ratio (y) = 0.02286 0.08251
# Poissons Ratio (z) = 0.60405 0.33448
#
# Static dielectric constant tensor:
#      x y z
#    x 3.783620 0.000000 0.000000 
#    y 0.000000 3.600350 0.000000 
#    z 0.000000 0.000000 3.423370 
# 
# 
# High freq. dielectric constant tensor:
#      x y z
#    x 1.781090 0.000000 0.000000 
#    y 0.000000 1.781310 0.000000 
#    z 0.000000 0.000000 1.758010 
# 
# From -- ./inp_files/7308.got.cif
#   From: 2010.06.25/outbox.cif.g09.slc.cpg/sg52_4_cif.got.tgz:7308.got - 2010.06.26 19:32:48.
