data_PCOD8215181
_publ_section_title
;
Structure prediction by ZEFSAII (Michael W. Deem and Ramdas Pophale) SiO2 
 PCOD8215181
Probable space group: P N N A
;
_chemical_formula_sum "Si O2"
_cell_formula_units_Z 40
_cell_length_a 14.875830
_cell_length_b 8.156999
_cell_length_c 15.116087
_cell_angle_alpha 90.000000
_cell_angle_beta 90.000000
_cell_angle_gamma 90.000000
_cell_volume 1834.218200
_symmetry_space_group_name_H-M "P N N A"
_symmetry_group_IT_number 52
_symmetry_cell_setting 'orthorhombic'
loop_
_space_group_symop_operation_xyz
x,y,z
1/2-x,-y,z
x,1/2-y,1/2-z
1/2-x,1/2+y,1/2-z
-x,-y,-z
1/2+x,y,-z
-x,1/2+y,1/2+z
1/2+x,1/2-y,1/2+z
loop_
_atom_site_type_symbol
_atom_site_label
_atom_site_fract_x
_atom_site_fract_y
_atom_site_fract_z
Si Si1 0.258282 0.817783 0.529913
Si Si2 0.911925 0.176405 0.575620
Si Si3 0.439821 0.822831 0.431129
Si Si4 0.675741 0.888079 0.183702
Si Si5 0.502558 0.503296 0.606467
O O1 0.193465 0.799534 0.444145
O O2 0.360764 0.787517 0.501381
O O3 0.229235 0.685586 0.601023
O O4 0.250000 0.000000 0.570123
O O5 0.964469 0.168820 0.481851
O O6 0.947011 0.328168 0.636096
O O7 0.925784 0.995976 0.621224
O O8 0.445430 0.665460 0.365075
O O9 0.638747 0.750000 0.250000
O O10 0.750000 0.000000 0.233664
O O11 0.594654 0.002686 0.151299
O O12 0.500000 0.500000 0.500000
#
# Coordination Sequence:
#
# PCOD8215181 Si02
#       5
#     8   8   8   8   8
#     4  10  19  32  54  81 120 149 188 248 309 359
#     4   9  17  30  48  81 108 143 187 238 297 336
#     4   9  17  29  51  79 108 143 186 247 293 331
#     4  12  24  38  52  79 121 163 197 236 309 395
#     4  10  18  35  55  75 105 149 202 242 278 343
#
# _framework density 21.807656999999999
#
# number of rings (size 3 to 8) (size 9 to 14) (size 15 to 20)
#    0.000    2.000    4.000    3.000    0.000    0.000 
#    3.600    0.000    0.000    0.000    0.000    0.000 
#   18.000    0.000    0.000    0.000    0.000    0.000 
#
# Total GULP energy -495628.406354 kJ/mol
# GULP energy per Si atom -12390.710159 kJ/mol
# Density = 2.175802 g / cm^3
# Si number density = 21.807657 Si / 1000 Ang^3
#
#
#
# Elastic Constant Matrix: (Units=GPa)
#
#
# Indices 1 2 3 4 5 6 
#
# 1 81.0090 23.0141 15.3447 0.0000 0.0000 0.0000
# 2 23.0141 183.4236 17.6966 0.0000 0.0000 0.0000
# 3 15.3447 17.6966 17.0899 0.0000 0.0000 0.0000
# 4 0.0000 0.0000 0.0000 19.7340 0.0000 0.0000
# 5 0.0000 0.0000 0.0000 0.0000 9.1239 0.0000
# 6 0.0000 0.0000 0.0000 0.0000 0.0000 42.3264
#
#
#
# Elastic Compliance Matrix: (Units=1/GPa)
#
#
# Indices 1 2 3 4 5 6 
#
# 1 0.014942 -0.000645 -0.012749 0.000000 0.000000 0.000000
# 2 -0.000645 0.006085 -0.005722 0.000000 0.000000 0.000000
# 3 -0.012749 -0.005722 0.075886 0.000000 0.000000 0.000000
# 4 0.000000 0.000000 0.000000 0.050674 0.000000 0.000000
# 5 0.000000 0.000000 0.000000 0.000000 0.109602 0.000000
# 6 0.000000 0.000000 0.000000 0.000000 0.000000 0.023626
#
#
# Mechanical properties :
#
#
# Convention : Reuss Voigt Hill
#
# Bulk Modulus (GPa) = 17.04093 43.73702 30.38897
# Shear Modulus (GPa) = 14.76640 29.26802 22.01721
#
# Velocity S-wave (km/s) = 2.60498 3.66744 3.18088
# Velocity P-wave (km/s) = 4.10841 6.16708 5.23984
#
# Compressibility (1/GPa) = 0.05868226
#
# Stress axis : x y z
#
# Youngs Moduli (GPa) = 66.92387 164.34379 13.17768
#
# Poissons Ratio (x) = 0.10597 0.16800
# Poissons Ratio (y) = 0.04315 0.07540
# Poissons Ratio (z) = 0.85319 0.94035
#
# Static dielectric constant tensor:
#      x y z
#    x 4.027840 0.000000 0.000000 
#    y 0.000000 5.346720 0.000000 
#    z 0.000000 0.000000 2.982500 
# 
# 
# High freq. dielectric constant tensor:
#      x y z
#    x 1.863210 0.000000 0.000000 
#    y 0.000000 1.897330 0.000000 
#    z 0.000000 0.000000 1.757740 
# 
# From -- ./inp_files/26908.got.cif
#   From: 2010.06.25/outbox.cif.g09.slc.cpg/sg52_14_cif.got.tgz:26908.got - 2010.06.26 19:32:48.
