data_PCOD8215893
_publ_section_title
;
Structure prediction by ZEFSAII (Michael W. Deem and Ramdas Pophale) SiO2 
 PCOD8215893
Probable space group: P N N A
;
_chemical_formula_sum "Si O2"
_cell_formula_units_Z 48
_cell_length_a 14.213585
_cell_length_b 27.180150
_cell_length_c 6.041617
_cell_angle_alpha 90.000000
_cell_angle_beta 90.000000
_cell_angle_gamma 90.000000
_cell_volume 2334.042020
_symmetry_space_group_name_H-M "P N N A"
_symmetry_group_IT_number 52
_symmetry_cell_setting 'orthorhombic'
loop_
_space_group_symop_operation_xyz
x,y,z
1/2-x,-y,z
x,1/2-y,1/2-z
1/2-x,1/2+y,1/2-z
-x,-y,-z
1/2+x,y,-z
-x,1/2+y,1/2+z
1/2+x,1/2-y,1/2+z
loop_
_atom_site_type_symbol
_atom_site_label
_atom_site_fract_x
_atom_site_fract_y
_atom_site_fract_z
Si Si1 0.283671 0.370003 0.309614
Si Si2 0.571175 0.642195 0.077240
Si Si3 0.950945 0.969956 0.302162
Si Si4 0.903584 0.061634 0.062579
Si Si5 0.631132 0.127956 0.468353
Si Si6 0.727375 0.805033 0.199147
O O1 0.305202 0.414279 0.482198
O O2 0.281670 0.317405 0.438537
O O3 0.366610 0.372741 0.132042
O O4 0.181657 0.376916 0.205049
O O5 0.555049 0.596525 0.243884
O O6 0.623702 0.687560 0.195191
O O7 0.467205 0.657341 0.995478
O O8 0.882507 0.927797 0.389772
O O9 0.025593 0.943074 0.143385
O O10 0.000000 0.000000 0.500000
O O11 0.886178 0.007704 0.163317
O O12 0.696366 0.157685 0.299799
O O13 0.761060 0.750000 0.250000
#
# Coordination Sequence:
#
# PCOD8215893 Si02
#       6
#     8   8   8   8   8   8
#     4  10  22  42  67  91 139 165 220 283 329 400
#     4  10  21  43  65  93 129 176 215 269 344 391
#     4  11  21  37  65  94 135 177 230 268 331 404
#     4  10  20  38  65  92 132 180 219 272 327 393
#     4  11  23  40  67  97 129 178 222 276 329 412
#     4  10  25  46  65  99 128 165 220 286 342 405
#
# _framework density 20.565180999999999
#
# number of rings (size 3 to 8) (size 9 to 14) (size 15 to 20)
#    0.000    1.667    3.333    0.000    2.333    2.667 
#    6.000   20.000    0.000    0.000    0.000    0.000 
#    0.000    0.000    0.000    0.000    0.000    0.000 
#
# Total GULP energy -594975.276630 kJ/mol
# GULP energy per Si atom -12395.318263 kJ/mol
# Density = 2.051837 g / cm^3
# Si number density = 20.565181 Si / 1000 Ang^3
#
#
#
# Elastic Constant Matrix: (Units=GPa)
#
#
# Indices 1 2 3 4 5 6 
#
# 1 116.0792 37.1641 41.1209 0.0000 0.0000 0.0000
# 2 37.1641 130.3720 55.1468 0.0000 0.0000 0.0000
# 3 41.1209 55.1468 117.4631 0.0000 0.0000 0.0000
# 4 0.0000 0.0000 0.0000 28.6874 0.0000 0.0000
# 5 0.0000 0.0000 0.0000 0.0000 35.0042 0.0000
# 6 0.0000 0.0000 0.0000 0.0000 0.0000 28.6222
#
#
#
# Elastic Compliance Matrix: (Units=1/GPa)
#
#
# Indices 1 2 3 4 5 6 
#
# 1 0.010139 -0.001733 -0.002736 0.000000 0.000000 0.000000
# 2 -0.001733 0.009867 -0.004026 0.000000 0.000000 0.000000
# 3 -0.002736 -0.004026 0.011361 0.000000 0.000000 0.000000
# 4 0.000000 0.000000 0.000000 0.034858 0.000000 0.000000
# 5 0.000000 0.000000 0.000000 0.000000 0.028568 0.000000
# 6 0.000000 0.000000 0.000000 0.000000 0.000000 0.034938
#
#
# Mechanical properties :
#
#
# Convention : Reuss Voigt Hill
#
# Bulk Modulus (GPa) = 69.55051 70.08644 69.81847
# Shear Modulus (GPa) = 33.00040 33.82826 33.41433
#
# Velocity S-wave (km/s) = 4.01018 4.06017 4.03526
# Velocity P-wave (km/s) = 7.43875 7.49227 7.46556
#
# Compressibility (1/GPa) = 0.01437804
#
# Stress axis : x y z
#
# Youngs Moduli (GPa) = 98.63130 101.34511 88.01980
#
# Poissons Ratio (x) = 0.17563 0.24080
# Poissons Ratio (y) = 0.17093 0.35435
# Poissons Ratio (z) = 0.26983 0.40800
#
# Static dielectric constant tensor:
#      x y z
#    x 3.637510 0.000000 0.000000 
#    y 0.000000 3.633440 0.000000 
#    z 0.000000 0.000000 4.083280 
# 
# 
# High freq. dielectric constant tensor:
#      x y z
#    x 1.794360 0.000000 0.000000 
#    y 0.000000 1.787000 0.000000 
#    z 0.000000 0.000000 1.827340 
# 
# From -- ./inp_files/2569.got.cif
#   From: 2010.06.25/outbox.cif.g09.slc.cpg/sg52_2_cif.got.tgz:2569.got - 2010.06.26 19:32:48.
