data_PCOD8215338
_publ_section_title
;
Structure prediction by ZEFSAII (Michael W. Deem and Ramdas Pophale) SiO2 
 PCOD8215338
Probable space group: P N N A
;
_chemical_formula_sum "Si O2"
_cell_formula_units_Z 48
_cell_length_a 7.877296
_cell_length_b 14.957345
_cell_length_c 21.482537
_cell_angle_alpha 90.000000
_cell_angle_beta 90.000000
_cell_angle_gamma 90.000000
_cell_volume 2531.146279
_symmetry_space_group_name_H-M "P N N A"
_symmetry_group_IT_number 52
_symmetry_cell_setting 'orthorhombic'
loop_
_space_group_symop_operation_xyz
x,y,z
1/2-x,-y,z
x,1/2-y,1/2-z
1/2-x,1/2+y,1/2-z
-x,-y,-z
1/2+x,y,-z
-x,1/2+y,1/2+z
1/2+x,1/2-y,1/2+z
loop_
_atom_site_type_symbol
_atom_site_label
_atom_site_fract_x
_atom_site_fract_y
_atom_site_fract_z
Si Si1 0.194379 0.398000 0.920571
Si Si2 0.560316 0.668381 0.610595
Si Si3 0.949124 0.486986 0.429762
Si Si4 0.038456 0.797662 0.499058
Si Si5 0.756450 0.736568 0.177866
Si Si6 0.426344 0.795961 0.114361
O O1 0.250000 0.500000 0.924665
O O2 0.206888 0.364274 0.848719
O O3 0.011656 0.380781 0.952747
O O4 0.296766 0.329419 0.964044
O O5 0.551264 0.561532 0.609226
O O6 0.568782 0.707972 0.540640
O O7 0.390900 0.700479 0.644158
O O8 0.737514 0.696557 0.644525
O O9 0.750000 0.500000 0.419861
O O10 0.000000 0.500000 0.500000
O O11 0.006390 0.391503 0.406415
O O12 0.909022 0.770598 0.554893
O O13 0.792038 0.750000 0.250000
O O14 0.559995 0.759718 0.164988
#
# Coordination Sequence:
#
# PCOD8215338 Si02
#       6
#     8   8   8   8   8   8
#     4  10  20  36  59  85 113 149 186 243 300 348
#     4  11  21  37  59  88 121 157 195 243 302 360
#     4  12  22  32  54  95 131 156 193 239 301 379
#     4  10  19  33  56  88 120 140 186 243 303 364
#     4  10  24  43  60  84 117 163 208 243 291 347
#     4  11  21  37  59  88 121 157 195 243 302 360
#
# _framework density 18.963742
#
# number of rings (size 3 to 8) (size 9 to 14) (size 15 to 20)
#    0.000    1.333    5.000    2.000    0.000    0.667 
#    3.000    0.000    0.000    0.000    0.000    0.000 
#    0.000    0.000    0.000    0.000    0.000    0.000 
#
# Total GULP energy -594725.620550 kJ/mol
# GULP energy per Si atom -12390.117095 kJ/mol
# Density = 1.892058 g / cm^3
# Si number density = 18.963742 Si / 1000 Ang^3
#
#
#
# Elastic Constant Matrix: (Units=GPa)
#
#
# Indices 1 2 3 4 5 6 
#
# 1 88.3063 -10.1572 9.1249 0.0000 0.0000 0.0000
# 2 -10.1572 82.9869 16.2440 0.0000 0.0000 0.0000
# 3 9.1249 16.2440 78.8318 0.0000 0.0000 0.0000
# 4 0.0000 0.0000 0.0000 12.8991 0.0000 0.0000
# 5 0.0000 0.0000 0.0000 0.0000 16.0614 0.0000
# 6 0.0000 0.0000 0.0000 0.0000 0.0000 17.8531
#
#
#
# Elastic Compliance Matrix: (Units=1/GPa)
#
#
# Indices 1 2 3 4 5 6 
#
# 1 0.011705 0.001769 -0.001719 0.000000 0.000000 0.000000
# 2 0.001769 0.012824 -0.002847 0.000000 0.000000 0.000000
# 3 -0.001719 -0.002847 0.013471 0.000000 0.000000 0.000000
# 4 0.000000 0.000000 0.000000 0.077525 0.000000 0.000000
# 5 0.000000 0.000000 0.000000 0.000000 0.062261 0.000000
# 6 0.000000 0.000000 0.000000 0.000000 0.000000 0.056013
#
#
# Mechanical properties :
#
#
# Convention : Reuss Voigt Hill
#
# Bulk Modulus (GPa) = 30.85913 31.17205 31.01559
# Shear Modulus (GPa) = 19.98436 25.02361 22.50398
#
# Velocity S-wave (km/s) = 3.24978 3.63650 3.44857
# Velocity P-wave (km/s) = 5.51266 5.84000 5.67869
#
# Compressibility (1/GPa) = 0.03240532
#
# Stress axis : x y z
#
# Youngs Moduli (GPa) = 85.43067 77.97895 74.23370
#
# Poissons Ratio (x) = -0.13797 0.12764
# Poissons Ratio (y) = -0.15115 0.21136
# Poissons Ratio (z) = 0.14690 0.22203
#
# Static dielectric constant tensor:
#      x y z
#    x 3.725590 0.000000 0.000000 
#    y 0.000000 3.337870 0.000000 
#    z 0.000000 0.000000 3.214010 
# 
# 
# High freq. dielectric constant tensor:
#      x y z
#    x 1.754800 0.000000 0.000000 
#    y 0.000000 1.733550 0.000000 
#    z 0.000000 0.000000 1.697150 
# 
# From -- ./inp_files/31259.got.cif
#   From: 2010.06.25/outbox.cif.g09.slc.cpg/sg52_16_cif.got.tgz:31259.got - 2010.06.26 19:32:48.
