data_PCOD8215918
_publ_section_title
;
Structure prediction by ZEFSAII (Michael W. Deem and Ramdas Pophale) SiO2 
 PCOD8215918
Probable space group: P N N A
;
_chemical_formula_sum "Si O2"
_cell_formula_units_Z 60
_cell_length_a 9.410411
_cell_length_b 28.366112
_cell_length_c 10.779102
_cell_angle_alpha 90.000000
_cell_angle_beta 90.000000
_cell_angle_gamma 90.000000
_cell_volume 2877.338697
_symmetry_space_group_name_H-M "P N N A"
_symmetry_group_IT_number 52
_symmetry_cell_setting 'orthorhombic'
loop_
_space_group_symop_operation_xyz
x,y,z
1/2-x,-y,z
x,1/2-y,1/2-z
1/2-x,1/2+y,1/2-z
-x,-y,-z
1/2+x,y,-z
-x,1/2+y,1/2+z
1/2+x,1/2-y,1/2+z
loop_
_atom_site_type_symbol
_atom_site_label
_atom_site_fract_x
_atom_site_fract_y
_atom_site_fract_z
Si Si1 0.220256 0.051634 0.354650
Si Si2 0.788823 0.906772 0.403643
Si Si3 0.999755 0.566019 0.539741
Si Si4 0.862430 0.683304 0.941349
Si Si5 0.537688 0.604874 0.735403
Si Si6 0.935533 0.292428 0.841358
Si Si7 0.250000 0.000000 0.999930
Si Si8 0.512670 0.615204 0.224200
O O1 0.260147 0.051870 0.502075
O O2 0.306105 0.088134 0.269287
O O3 0.058632 0.069238 0.340709
O O4 0.250000 0.000000 0.300693
O O5 0.804833 0.863382 0.496399
O O6 0.677837 0.890923 0.301485
O O7 0.931257 0.920850 0.331079
O O8 0.859353 0.534491 0.573356
O O9 0.998355 0.587476 0.402032
O O10 0.140281 0.534481 0.573853
O O11 0.994284 0.611770 0.627618
O O12 0.726869 0.712289 0.890726
O O13 0.958306 0.665937 0.824495
O O14 0.958855 0.711870 0.039947
O O15 0.533078 0.660937 0.759173
O O16 0.970111 0.250000 0.750000
#
# Coordination Sequence:
#
# PCOD8215918 Si02
#       8
#     8   8   8   8   8   8   4   8
#     4  11  23  37  59  90 127 172 223 271 322 385
#     4  10  20  39  61  91 125 171 211 267 324 385
#     4  11  24  40  60  88 127 183 225 269 330 387
#     4  10  20  44  70  97 134 169 213 268 343 393
#     4  11  23  41  65  92 131 170 220 273 332 400
#     4  11  23  46  75 100 133 173 216 283 344 408
#     4  10  24  40  54  84 132 180 226 274 314 382
#     4  11  21  38  66  87 128 178 216 264 329 394
#
# _framework density 20.852602999999998
#
# number of rings (size 3 to 8) (size 9 to 14) (size 15 to 20)
#    0.000    1.333    4.000    3.200    5.600    2.133 
#    4.800    2.000    0.000    0.000    0.000    0.000 
#    0.000    0.000    0.000    0.000    0.000    0.000 
#
# Total GULP energy -743467.067626 kJ/mol
# GULP energy per Si atom -12391.117794 kJ/mol
# Density = 2.080514 g / cm^3
# Si number density = 20.852603 Si / 1000 Ang^3
#
#
#
# Elastic Constant Matrix: (Units=GPa)
#
#
# Indices 1 2 3 4 5 6 
#
# 1 98.8266 22.6774 22.1881 0.0000 0.0000 0.0000
# 2 22.6774 68.8378 41.4461 0.0000 0.0000 0.0000
# 3 22.1881 41.4461 122.4829 0.0000 0.0000 0.0000
# 4 0.0000 0.0000 0.0000 35.5196 0.0000 0.0000
# 5 0.0000 0.0000 0.0000 0.0000 24.4209 0.0000
# 6 0.0000 0.0000 0.0000 0.0000 0.0000 17.2319
#
#
#
# Elastic Compliance Matrix: (Units=1/GPa)
#
#
# Indices 1 2 3 4 5 6 
#
# 1 0.011036 -0.003054 -0.000966 0.000000 0.000000 0.000000
# 2 -0.003054 0.019089 -0.005906 0.000000 0.000000 0.000000
# 3 -0.000966 -0.005906 0.010338 0.000000 0.000000 0.000000
# 4 0.000000 0.000000 0.000000 0.028153 0.000000 0.000000
# 5 0.000000 0.000000 0.000000 0.000000 0.040948 0.000000
# 6 0.000000 0.000000 0.000000 0.000000 0.000000 0.058032
#
#
# Mechanical properties :
#
#
# Convention : Reuss Voigt Hill
#
# Bulk Modulus (GPa) = 48.51770 51.41894 49.96832
# Shear Modulus (GPa) = 25.73080 29.02356 27.37718
#
# Velocity S-wave (km/s) = 3.51655 3.73479 3.62731
# Velocity P-wave (km/s) = 6.30918 6.58103 6.44654
#
# Compressibility (1/GPa) = 0.02061104
#
# Stress axis : x y z
#
# Youngs Moduli (GPa) = 90.60914 52.38610 96.73169
#
# Poissons Ratio (x) = 0.16000 0.09342
# Poissons Ratio (y) = 0.27675 0.57131
# Poissons Ratio (z) = 0.08751 0.30940
#
# Static dielectric constant tensor:
#      x y z
#    x 4.069000 0.000000 0.000000 
#    y 0.000000 3.492540 0.000000 
#    z 0.000000 0.000000 3.808610 
# 
# 
# High freq. dielectric constant tensor:
#      x y z
#    x 1.832870 0.000000 0.000000 
#    y 0.000000 1.775670 0.000000 
#    z 0.000000 0.000000 1.818760 
# 
# From -- ./inp_files/17152.got.cif
#   From: 2010.06.25/outbox.cif.g09.slc.cpg/sg52_9_cif.got.tgz:17152.got - 2010.06.26 19:32:48.
