data_PCOD8215370
_publ_section_title
;
Structure prediction by ZEFSAII (Michael W. Deem and Ramdas Pophale) SiO2 
 PCOD8215370
Probable space group: P N N A
;
_chemical_formula_sum "Si O2"
_cell_formula_units_Z 48
_cell_length_a 22.432409
_cell_length_b 8.805141
_cell_length_c 13.322324
_cell_angle_alpha 90.000000
_cell_angle_beta 90.000000
_cell_angle_gamma 90.000000
_cell_volume 2631.432420
_symmetry_space_group_name_H-M "P N N A"
_symmetry_group_IT_number 52
_symmetry_cell_setting 'orthorhombic'
loop_
_space_group_symop_operation_xyz
x,y,z
1/2-x,-y,z
x,1/2-y,1/2-z
1/2-x,1/2+y,1/2-z
-x,-y,-z
1/2+x,y,-z
-x,1/2+y,1/2+z
1/2+x,1/2-y,1/2+z
loop_
_atom_site_type_symbol
_atom_site_label
_atom_site_fract_x
_atom_site_fract_y
_atom_site_fract_z
Si Si1 0.768141 0.171937 0.849536
Si Si2 0.466961 0.654880 0.024376
Si Si3 0.360870 0.742342 0.368841
Si Si4 0.057094 0.656197 0.654243
Si Si5 0.501143 0.840635 0.848543
Si Si6 0.119585 0.586813 0.459527
O O1 0.794444 0.250000 0.750000
O O2 0.709953 0.266085 0.887266
O O3 0.819405 0.175025 0.933291
O O4 0.750000 0.000000 0.822448
O O5 0.401418 0.629935 0.075542
O O6 0.506452 0.743170 0.104348
O O7 0.500000 0.500000 0.000000
O O8 0.456026 0.753268 0.923367
O O9 0.374193 0.750000 0.250000
O O10 0.379240 0.584713 0.420698
O O11 0.082571 0.750000 0.750000
O O12 0.111047 0.610250 0.579193
O O13 0.024735 0.501265 0.686134
O O14 0.513783 0.750000 0.750000
O O15 0.563104 0.839544 0.907102
#
# Coordination Sequence:
#
# PCOD8215370 Si02
#       6
#     8   8   8   8   8   8
#     4   9  19  35  56  83 110 147 183 229 295 345
#     4  11  21  34  53  83 112 149 187 227 295 346
#     4  10  19  34  57  82 116 146 184 237 293 350
#     4  11  21  37  54  77 113 147 192 240 282 347
#     4  11  21  33  54  79 113 144 186 240 287 350
#     4  10  19  36  55  81 110 148 189 233 288 350
#
# _framework density 18.241015000000001
#
# number of rings (size 3 to 8) (size 9 to 14) (size 15 to 20)
#    0.000    1.667    3.333    3.000    2.333    0.000 
#    9.000    0.000    0.000    1.000    4.333    0.000 
#    0.000    0.000    0.000    0.000    0.000    0.000 
#
# Total GULP energy -594892.804612 kJ/mol
# GULP energy per Si atom -12393.600096 kJ/mol
# Density = 1.819950 g / cm^3
# Si number density = 18.241015 Si / 1000 Ang^3
#
#
#
# Elastic Constant Matrix: (Units=GPa)
#
#
# Indices 1 2 3 4 5 6 
#
# 1 102.0806 28.4654 40.7726 0.0000 0.0000 0.0000
# 2 28.4654 84.1447 39.0355 0.0000 0.0000 0.0000
# 3 40.7726 39.0355 114.5777 0.0000 0.0000 0.0000
# 4 0.0000 0.0000 0.0000 34.3426 0.0000 0.0000
# 5 0.0000 0.0000 0.0000 0.0000 3.5134 0.0000
# 6 0.0000 0.0000 0.0000 0.0000 0.0000 20.4731
#
#
#
# Elastic Compliance Matrix: (Units=1/GPa)
#
#
# Indices 1 2 3 4 5 6 
#
# 1 0.011824 -0.002432 -0.003379 0.000000 0.000000 0.000000
# 2 -0.002432 0.014616 -0.004114 0.000000 0.000000 0.000000
# 3 -0.003379 -0.004114 0.011332 0.000000 0.000000 0.000000
# 4 0.000000 0.000000 0.000000 0.029118 0.000000 0.000000
# 5 0.000000 0.000000 0.000000 0.000000 0.284627 0.000000
# 6 0.000000 0.000000 0.000000 0.000000 0.000000 0.048845
#
#
# Mechanical properties :
#
#
# Convention : Reuss Voigt Hill
#
# Bulk Modulus (GPa) = 55.80057 57.48333 56.64195
# Shear Modulus (GPa) = 11.73199 24.50111 18.11655
#
# Velocity S-wave (km/s) = 2.53882 3.66893 3.15489
# Velocity P-wave (km/s) = 6.26508 7.03773 6.66262
#
# Compressibility (1/GPa) = 0.01792097
#
# Stress axis : x y z
#
# Youngs Moduli (GPa) = 84.57327 68.42003 88.24868
#
# Poissons Ratio (x) = 0.16643 0.29818
# Poissons Ratio (y) = 0.20572 0.36304
# Poissons Ratio (z) = 0.28576 0.28147
#
# Static dielectric constant tensor:
#      x y z
#    x 3.498870 0.000000 0.000000 
#    y 0.000000 3.217880 0.000000 
#    z 0.000000 0.000000 3.537560 
# 
# 
# High freq. dielectric constant tensor:
#      x y z
#    x 1.693550 0.000000 0.000000 
#    y 0.000000 1.705680 0.000000 
#    z 0.000000 0.000000 1.701750 
# 
# From -- ./inp_files/22280.got.cif
#   From: 2010.06.25/outbox.cif.g09.slc.cpg/sg52_12_cif.got.tgz:22280.got - 2010.06.26 19:32:48.
