data_PCOD8215306
_publ_section_title
;
Structure prediction by ZEFSAII (Michael W. Deem and Ramdas Pophale) SiO2 
 PCOD8215306
Probable space group: P N N A
;
_chemical_formula_sum "Si O2"
_cell_formula_units_Z 56
_cell_length_a 10.136073
_cell_length_b 16.622469
_cell_length_c 20.851690
_cell_angle_alpha 90.000000
_cell_angle_beta 90.000000
_cell_angle_gamma 90.000000
_cell_volume 3513.229502
_symmetry_space_group_name_H-M "P N N A"
_symmetry_group_IT_number 52
_symmetry_cell_setting 'orthorhombic'
loop_
_space_group_symop_operation_xyz
x,y,z
1/2-x,-y,z
x,1/2-y,1/2-z
1/2-x,1/2+y,1/2-z
-x,-y,-z
1/2+x,y,-z
-x,1/2+y,1/2+z
1/2+x,1/2-y,1/2+z
loop_
_atom_site_type_symbol
_atom_site_label
_atom_site_fract_x
_atom_site_fract_y
_atom_site_fract_z
Si Si1 0.865716 0.057196 0.243197
Si Si2 0.724426 0.634328 0.125557
Si Si3 0.881953 0.049880 0.748164
Si Si4 0.770159 0.294937 0.316655
Si Si5 0.480338 0.198427 0.186058
Si Si6 0.871680 0.054455 0.503982
Si Si7 0.039743 0.856367 0.376114
O O1 0.833361 0.085004 0.315171
O O2 0.873194 0.132295 0.193155
O O3 0.750000 0.000000 0.218527
O O4 0.003669 0.013690 0.240491
O O5 0.683399 0.728918 0.130750
O O6 0.882921 0.626565 0.125118
O O7 0.659055 0.597404 0.062859
O O8 0.888321 0.120432 0.802362
O O9 0.892206 0.088913 0.678058
O O10 0.750000 0.000000 0.756299
O O11 0.752725 0.250000 0.250000
O O12 0.626395 0.331332 0.334514
O O13 0.492472 0.250000 0.250000
O O14 0.426006 0.261491 0.133162
O O15 0.895623 0.123113 0.556215
O O16 0.750000 0.000000 0.526114
O O17 0.000000 0.000000 0.500000
#
# Coordination Sequence:
#
# PCOD8215306 Si02
#       7
#     8   8   8   8   8   8   8
#     4  11  16  29  52  74  95 121 160 201 239 279
#     4  10  19  33  49  70 100 130 164 202 232 280
#     4  11  20  30  47  77 104 124 155 198 249 291
#     4   8  15  28  49  72  90 123 165 197 237 283
#     4   8  15  30  49  67  93 129 162 189 236 299
#     4  12  22  33  48  73  99 130 167 197 233 276
#     4  10  19  34  50  68  98 136 164 192 236 294
#
# _framework density 15.939749000000001
#
# number of rings (size 3 to 8) (size 9 to 14) (size 15 to 20)
#    0.000    2.000    4.286    3.429    0.000    0.000 
#    0.000    7.857    0.000    0.000    0.000    2.000 
#    0.000    0.000    0.000    0.000    0.000    0.000 
#
# Total GULP energy -693976.456845 kJ/mol
# GULP energy per Si atom -12392.436729 kJ/mol
# Density = 1.590347 g / cm^3
# Si number density = 15.939749 Si / 1000 Ang^3
#
#
#
# Elastic Constant Matrix: (Units=GPa)
#
#
# Indices 1 2 3 4 5 6 
#
# 1 100.1932 63.3117 28.3540 0.0000 0.0000 0.0000
# 2 63.3117 128.6770 53.5646 0.0000 0.0000 0.0000
# 3 28.3540 53.5646 63.9129 0.0000 0.0000 0.0000
# 4 0.0000 0.0000 0.0000 34.8790 0.0000 0.0000
# 5 0.0000 0.0000 0.0000 0.0000 18.3185 0.0000
# 6 0.0000 0.0000 0.0000 0.0000 0.0000 22.1403
#
#
#
# Elastic Compliance Matrix: (Units=1/GPa)
#
#
# Indices 1 2 3 4 5 6 
#
# 1 0.014504 -0.006846 -0.000697 0.000000 0.000000 0.000000
# 2 -0.006846 0.015167 -0.009674 0.000000 0.000000 0.000000
# 3 -0.000697 -0.009674 0.024063 0.000000 0.000000 0.000000
# 4 0.000000 0.000000 0.000000 0.028671 0.000000 0.000000
# 5 0.000000 0.000000 0.000000 0.000000 0.054590 0.000000
# 6 0.000000 0.000000 0.000000 0.000000 0.000000 0.045167
#
#
# Mechanical properties :
#
#
# Convention : Reuss Voigt Hill
#
# Bulk Modulus (GPa) = 51.81335 64.80488 58.30911
# Shear Modulus (GPa) = 22.41873 24.90440 23.66157
#
# Velocity S-wave (km/s) = 3.75436 3.95702 3.85702
# Velocity P-wave (km/s) = 7.16728 7.84995 7.51637
#
# Compressibility (1/GPa) = 0.01930005
#
# Stress axis : x y z
#
# Youngs Moduli (GPa) = 68.94656 65.93321 41.55753
#
# Poissons Ratio (x) = 0.45139 0.02896
# Poissons Ratio (y) = 0.47202 0.40203
# Poissons Ratio (z) = 0.04804 0.63783
#
# Static dielectric constant tensor:
#      x y z
#    x 2.722600 0.000000 0.000000 
#    y 0.000000 3.440190 0.000000 
#    z 0.000000 0.000000 3.142560 
# 
# 
# High freq. dielectric constant tensor:
#      x y z
#    x 1.599130 0.000000 0.000000 
#    y 0.000000 1.624480 0.000000 
#    z 0.000000 0.000000 1.574920 
# 
# From -- ./inp_files/36135.got.cif
#   From: 2010.06.25/outbox.cif.g09.slc.cpg/sg52_19_cif.got.tgz:36135.got - 2010.06.26 19:32:48.
