data_PCOD8215045
_publ_section_title
;
Structure prediction by ZEFSAII (Michael W. Deem and Ramdas Pophale) SiO2 
 PCOD8215045
Probable space group: P N N A
;
_chemical_formula_sum "Si O2"
_cell_formula_units_Z 52
_cell_length_a 22.451652
_cell_length_b 5.140196
_cell_length_c 28.686050
_cell_angle_alpha 90.000000
_cell_angle_beta 90.000000
_cell_angle_gamma 90.000000
_cell_volume 3310.539183
_symmetry_space_group_name_H-M "P N N A"
_symmetry_group_IT_number 52
_symmetry_cell_setting 'orthorhombic'
loop_
_space_group_symop_operation_xyz
x,y,z
1/2-x,-y,z
x,1/2-y,1/2-z
1/2-x,1/2+y,1/2-z
-x,-y,-z
1/2+x,y,-z
-x,1/2+y,1/2+z
1/2+x,1/2-y,1/2+z
loop_
_atom_site_type_symbol
_atom_site_label
_atom_site_fract_x
_atom_site_fract_y
_atom_site_fract_z
Si Si1 0.482482 0.781484 0.804527
Si Si2 0.946040 0.743558 0.545460
Si Si3 0.250000 0.500000 0.722116
Si Si4 0.507196 0.212089 0.642867
Si Si5 0.648979 0.290300 0.344102
Si Si6 0.624112 0.792259 0.396608
Si Si7 0.921416 0.255207 0.005659
O O1 0.491194 0.750000 0.750000
O O2 0.520104 0.556269 0.830283
O O3 0.412780 0.768259 0.816529
O O4 0.509923 0.054782 0.820290
O O5 0.945191 0.735625 0.601779
O O6 0.908464 0.504762 0.524020
O O7 0.013133 0.734837 0.527103
O O8 0.914298 0.006645 0.529566
O O9 0.277820 0.250000 0.750000
O O10 0.300688 0.645262 0.693060
O O11 0.443209 0.181819 0.619672
O O12 0.650354 0.516334 0.382180
O O13 0.662161 0.023554 0.372415
O O14 0.626206 0.799429 0.452830
#
# Coordination Sequence:
#
# PCOD8215045 Si02
#       7
#     8   8   4   8   8   8   8
#     4  10  18  28  40  52  68  94 125 156 190 227
#     4   9  15  23  35  54  75  93 111 134 164 209
#     4  12  24  36  48  60  72  92 124 162 208 252
#     4   9  17  26  37  53  73  93 116 146 179 215
#     4  10  20  32  44  56  72  89 116 157 197 238
#     4   9  17  29  42  57  73  91 111 139 181 230
#     4   9  15  23  38  55  73  93 111 129 163 219
#
# _framework density 15.707412
#
# number of rings (size 3 to 8) (size 9 to 14) (size 15 to 20)
#    0.000    2.462    0.000    3.692    0.000    9.846 
#    0.000    0.000    0.000    0.000    0.000    0.000 
#    0.000    0.000    0.000    0.000    0.000    0.000 
#
# Total GULP energy -644563.405874 kJ/mol
# GULP energy per Si atom -12395.450113 kJ/mol
# Density = 1.567166 g / cm^3
# Si number density = 15.707412 Si / 1000 Ang^3
#
#
#
# Elastic Constant Matrix: (Units=GPa)
#
#
# Indices 1 2 3 4 5 6 
#
# 1 11.9783 12.5397 25.7244 0.0000 0.0000 0.0000
# 2 12.5397 123.9534 64.8455 0.0000 0.0000 0.0000
# 3 25.7244 64.8455 122.7924 0.0000 0.0000 0.0000
# 4 0.0000 0.0000 0.0000 24.1737 0.0000 0.0000
# 5 0.0000 0.0000 0.0000 0.0000 9.9999 0.0000
# 6 0.0000 0.0000 0.0000 0.0000 0.0000 9.1098
#
#
#
# Elastic Compliance Matrix: (Units=1/GPa)
#
#
# Indices 1 2 3 4 5 6 
#
# 1 0.152045 0.001771 -0.032788 0.000000 0.000000 0.000000
# 2 0.001771 0.011168 -0.006269 0.000000 0.000000 0.000000
# 3 -0.032788 -0.006269 0.018323 0.000000 0.000000 0.000000
# 4 0.000000 0.000000 0.000000 0.041367 0.000000 0.000000
# 5 0.000000 0.000000 0.000000 0.000000 0.100001 0.000000
# 6 0.000000 0.000000 0.000000 0.000000 0.000000 0.109772
#
#
# Mechanical properties :
#
#
# Convention : Reuss Voigt Hill
#
# Bulk Modulus (GPa) = 9.34882 51.66036 30.50459
# Shear Modulus (GPa) = 9.20975 19.03097 14.12036
#
# Velocity S-wave (km/s) = 2.42406 3.48457 3.00152
# Velocity P-wave (km/s) = 3.71477 7.01072 5.61024
#
# Compressibility (1/GPa) = 0.10696534
#
# Stress axis : x y z
#
# Youngs Moduli (GPa) = 6.57698 89.54340 54.57565
#
# Poissons Ratio (x) = -0.15860 1.78943
# Poissons Ratio (y) = -0.01165 0.34212
# Poissons Ratio (z) = 0.21565 0.56132
#
# Static dielectric constant tensor:
#      x y z
#    x 2.412830 0.000000 0.000000 
#    y 0.000000 3.445640 0.000000 
#    z 0.000000 0.000000 3.141660 
# 
# 
# High freq. dielectric constant tensor:
#      x y z
#    x 1.506980 0.000000 0.000000 
#    y 0.000000 1.631350 0.000000 
#    z 0.000000 0.000000 1.609600 
# 
# From -- ./inp_files/43325.got.cif
#   From: 2010.06.25/outbox.cif.g09.slc.cpg/sg52_22_cif.got.tgz:43325.got - 2010.06.26 19:32:48.
