data_PCOD8215990
_publ_section_title
;
Structure prediction by ZEFSAII (Michael W. Deem and Ramdas Pophale) SiO2 
 PCOD8215990
Probable space group: P N N A
;
_chemical_formula_sum "Si O2"
_cell_formula_units_Z 48
_cell_length_a 18.097818
_cell_length_b 9.147837
_cell_length_c 14.946078
_cell_angle_alpha 90.000000
_cell_angle_beta 90.000000
_cell_angle_gamma 90.000000
_cell_volume 2474.411232
_symmetry_space_group_name_H-M "P N N A"
_symmetry_group_IT_number 52
_symmetry_cell_setting 'orthorhombic'
loop_
_space_group_symop_operation_xyz
x,y,z
1/2-x,-y,z
x,1/2-y,1/2-z
1/2-x,1/2+y,1/2-z
-x,-y,-z
1/2+x,y,-z
-x,1/2+y,1/2+z
1/2+x,1/2-y,1/2+z
loop_
_atom_site_type_symbol
_atom_site_label
_atom_site_fract_x
_atom_site_fract_y
_atom_site_fract_z
Si Si1 0.740697 0.668400 0.340344
Si Si2 0.349856 0.832494 0.999207
Si Si3 0.313745 0.604453 0.308307
Si Si4 0.416205 0.105217 0.900263
Si Si5 0.021286 0.368103 0.059854
Si Si6 0.470911 0.577728 0.254969
O O1 0.750000 0.500000 0.319465
O O2 0.762823 0.750000 0.250000
O O3 0.795265 0.718748 0.420008
O O4 0.655704 0.693644 0.366829
O O5 0.396421 0.976324 0.969768
O O6 0.300628 0.868605 0.086193
O O7 0.400338 0.696462 0.028765
O O8 0.250000 0.500000 0.271225
O O9 0.310634 0.750000 0.250000
O O10 0.393367 0.524231 0.297295
O O11 0.465811 0.230726 0.945101
O O12 0.460378 0.028104 0.817409
O O13 0.022481 0.462997 0.151654
O O14 0.000000 0.500000 0.000000
O O15 0.470455 0.750000 0.250000
#
# Coordination Sequence:
#
# PCOD8215990 Si02
#       6
#     8   8   8   8   8   8
#     4  10  22  38  61  93 122 157 198 246 307 366
#     4  11  22  41  61  89 123 159 205 249 295 371
#     4  11  21  41  62  85 122 163 203 251 301 357
#     4  10  20  40  68  84 114 167 205 239 307 376
#     4  11  22  38  60  90 121 155 202 258 308 351
#     4   9  18  38  61  80 120 161 192 242 310 349
#
# _framework density 19.398553
#
# number of rings (size 3 to 8) (size 9 to 14) (size 15 to 20)
#    0.000    1.667    5.000    3.500    0.000    4.000 
#    6.000    0.833    0.000    0.000    0.000    0.000 
#    0.000    0.000    0.000    0.000    0.000    0.000 
#
# Total GULP energy -594796.166721 kJ/mol
# GULP energy per Si atom -12391.586807 kJ/mol
# Density = 1.935440 g / cm^3
# Si number density = 19.398553 Si / 1000 Ang^3
#
#
#
# Elastic Constant Matrix: (Units=GPa)
#
#
# Indices 1 2 3 4 5 6 
#
# 1 125.3533 28.9565 50.4408 0.0000 0.0000 0.0000
# 2 28.9565 49.2902 43.5838 0.0000 0.0000 0.0000
# 3 50.4408 43.5838 157.1747 0.0000 0.0000 0.0000
# 4 0.0000 0.0000 0.0000 33.5318 0.0000 0.0000
# 5 0.0000 0.0000 0.0000 0.0000 20.3110 0.0000
# 6 0.0000 0.0000 0.0000 0.0000 0.0000 23.8915
#
#
#
# Elastic Compliance Matrix: (Units=1/GPa)
#
#
# Indices 1 2 3 4 5 6 
#
# 1 0.009695 -0.003901 -0.002030 0.000000 0.000000 0.000000
# 2 -0.003901 0.028448 -0.006637 0.000000 0.000000 0.000000
# 3 -0.002030 -0.006637 0.008854 0.000000 0.000000 0.000000
# 4 0.000000 0.000000 0.000000 0.029822 0.000000 0.000000
# 5 0.000000 0.000000 0.000000 0.000000 0.049235 0.000000
# 6 0.000000 0.000000 0.000000 0.000000 0.000000 0.041856
#
#
# Mechanical properties :
#
#
# Convention : Reuss Voigt Hill
#
# Bulk Modulus (GPa) = 45.73987 64.19782 54.96885
# Shear Modulus (GPa) = 24.95853 29.46932 27.21392
#
# Velocity S-wave (km/s) = 3.59084 3.90186 3.74957
# Velocity P-wave (km/s) = 6.38924 7.31200 6.86614
#
# Compressibility (1/GPa) = 0.02186276
#
# Stress axis : x y z
#
# Youngs Moduli (GPa) = 103.14267 35.15189 112.94305
#
# Poissons Ratio (x) = 0.13713 0.22924
# Poissons Ratio (y) = 0.40236 0.74956
# Poissons Ratio (z) = 0.20935 0.23329
#
# Static dielectric constant tensor:
#      x y z
#    x 3.930470 0.000000 0.000000 
#    y 0.000000 3.138800 0.000000 
#    z 0.000000 0.000000 2.845230 
# 
# 
# High freq. dielectric constant tensor:
#      x y z
#    x 1.768070 0.000000 0.000000 
#    y 0.000000 1.720130 0.000000 
#    z 0.000000 0.000000 1.772410 
# 
# From -- ./inp_files/28064.got.cif
#   From: 2010.06.25/outbox.cif.g09.slc.cpg/sg52_15_cif.got.tgz:28064.got - 2010.06.26 19:32:48.
