data_PCOD8215660
_publ_section_title
;
Structure prediction by ZEFSAII (Michael W. Deem and Ramdas Pophale) SiO2 
 PCOD8215660
Probable space group: P N N A
;
_chemical_formula_sum "Si O2"
_cell_formula_units_Z 40
_cell_length_a 18.267145
_cell_length_b 7.996914
_cell_length_c 13.977607
_cell_angle_alpha 90.000000
_cell_angle_beta 90.000000
_cell_angle_gamma 90.000000
_cell_volume 2041.859839
_symmetry_space_group_name_H-M "P N N A"
_symmetry_group_IT_number 52
_symmetry_cell_setting 'orthorhombic'
loop_
_space_group_symop_operation_xyz
x,y,z
1/2-x,-y,z
x,1/2-y,1/2-z
1/2-x,1/2+y,1/2-z
-x,-y,-z
1/2+x,y,-z
-x,1/2+y,1/2+z
1/2+x,1/2-y,1/2+z
loop_
_atom_site_type_symbol
_atom_site_label
_atom_site_fract_x
_atom_site_fract_y
_atom_site_fract_z
Si Si1 0.588062 0.111164 0.867485
Si Si2 0.734237 0.305797 0.854955
Si Si3 0.459592 0.409597 0.191151
Si Si4 0.557648 0.805508 0.353786
Si Si5 0.131164 0.782787 0.039058
O O1 0.650908 0.251394 0.874081
O O2 0.511153 0.196760 0.889423
O O3 0.587198 0.034467 0.759786
O O4 0.598002 0.967123 0.946216
O O5 0.750000 0.500000 0.868846
O O6 0.761160 0.250000 0.750000
O O7 0.783602 0.208893 0.933034
O O8 0.488022 0.250000 0.250000
O O9 0.531818 0.501392 0.150442
O O10 0.407727 0.355362 0.105205
O O11 0.586855 0.750000 0.250000
O O12 0.622452 0.776796 0.429512
#
# Coordination Sequence:
#
# PCOD8215660 Si02
#       5
#     8   8   8   8   8
#     4  10  20  35  53  79 107 134 170 216 269 321
#     4  12  22  34  53  80 109 136 167 215 273 327
#     4   9  18  32  52  78 107 136 170 215 268 319
#     4  10  20  35  53  76 106 140 176 216 256 309
#     4  11  20  32  53  79 107 138 172 214 264 318
#
# _framework density 19.589983
#
# number of rings (size 3 to 8) (size 9 to 14) (size 15 to 20)
#    0.000    1.600    0.000    9.000    0.000    0.000 
#    0.000    0.000    0.000    2.400    0.000    5.600 
#    0.000    0.000    0.000    0.000    0.000    0.000 
#
# Total GULP energy -496083.153868 kJ/mol
# GULP energy per Si atom -12402.078847 kJ/mol
# Density = 1.954540 g / cm^3
# Si number density = 19.589983 Si / 1000 Ang^3
#
#
#
# Elastic Constant Matrix: (Units=GPa)
#
#
# Indices 1 2 3 4 5 6 
#
# 1 59.7646 10.3595 40.0644 0.0000 0.0000 0.0000
# 2 10.3595 82.1739 14.9416 0.0000 0.0000 0.0000
# 3 40.0644 14.9416 94.2278 0.0000 0.0000 0.0000
# 4 0.0000 0.0000 0.0000 21.7503 0.0000 0.0000
# 5 0.0000 0.0000 0.0000 0.0000 18.3464 0.0000
# 6 0.0000 0.0000 0.0000 0.0000 0.0000 20.0684
#
#
#
# Elastic Compliance Matrix: (Units=1/GPa)
#
#
# Indices 1 2 3 4 5 6 
#
# 1 0.023514 -0.001180 -0.009810 0.000000 0.000000 0.000000
# 2 -0.001180 0.012590 -0.001494 0.000000 0.000000 0.000000
# 3 -0.009810 -0.001494 0.015021 0.000000 0.000000 0.000000
# 4 0.000000 0.000000 0.000000 0.045976 0.000000 0.000000
# 5 0.000000 0.000000 0.000000 0.000000 0.054507 0.000000
# 6 0.000000 0.000000 0.000000 0.000000 0.000000 0.049830
#
#
# Mechanical properties :
#
#
# Convention : Reuss Voigt Hill
#
# Bulk Modulus (GPa) = 38.23580 40.76636 39.50108
# Shear Modulus (GPa) = 21.26527 23.41976 22.34252
#
# Velocity S-wave (km/s) = 3.29829 3.46135 3.38080
# Velocity P-wave (km/s) = 5.83656 6.06873 5.95378
#
# Compressibility (1/GPa) = 0.02615350
#
# Stress axis : x y z
#
# Youngs Moduli (GPa) = 42.52863 79.42898 66.57426
#
# Poissons Ratio (x) = 0.09376 0.65312
# Poissons Ratio (y) = 0.05020 0.09949
# Poissons Ratio (z) = 0.41723 0.11870
#
# Static dielectric constant tensor:
#      x y z
#    x 3.280100 0.000000 0.000000 
#    y 0.000000 3.905170 0.000000 
#    z 0.000000 0.000000 3.399310 
# 
# 
# High freq. dielectric constant tensor:
#      x y z
#    x 1.728490 0.000000 0.000000 
#    y 0.000000 1.786100 0.000000 
#    z 0.000000 0.000000 1.737810 
# 
# From -- ./inp_files/26867.got.cif
#   From: 2010.06.25/outbox.cif.g09.slc.cpg/sg52_14_cif.got.tgz:26867.got - 2010.06.26 19:32:48.
