data_PCOD8215355
_publ_section_title
;
Structure prediction by ZEFSAII (Michael W. Deem and Ramdas Pophale) SiO2 
 PCOD8215355
Probable space group: P N N A
;
_chemical_formula_sum "Si O2"
_cell_formula_units_Z 48
_cell_length_a 15.638508
_cell_length_b 18.049665
_cell_length_c 8.718221
_cell_angle_alpha 90.000000
_cell_angle_beta 90.000000
_cell_angle_gamma 90.000000
_cell_volume 2460.890764
_symmetry_space_group_name_H-M "P N N A"
_symmetry_group_IT_number 52
_symmetry_cell_setting 'orthorhombic'
loop_
_space_group_symop_operation_xyz
x,y,z
1/2-x,-y,z
x,1/2-y,1/2-z
1/2-x,1/2+y,1/2-z
-x,-y,-z
1/2+x,y,-z
-x,1/2+y,1/2+z
1/2+x,1/2-y,1/2+z
loop_
_atom_site_type_symbol
_atom_site_label
_atom_site_fract_x
_atom_site_fract_y
_atom_site_fract_z
Si Si1 0.661620 0.536833 0.897164
Si Si2 0.164488 0.043757 0.884041
Si Si3 0.249229 0.175374 0.327218
Si Si4 0.255978 0.670727 0.809683
Si Si5 0.909992 0.412293 0.210226
Si Si6 0.903905 0.905010 0.799105
O O1 0.750000 0.500000 0.963562
O O2 0.686377 0.607472 0.790215
O O3 0.610971 0.480954 0.791386
O O4 0.599669 0.562882 0.033308
O O5 0.183082 0.106508 0.756335
O O6 0.250000 0.000000 0.938483
O O7 0.100193 0.985189 0.812087
O O8 0.113881 0.081848 0.022401
O O9 0.286894 0.250000 0.250000
O O10 0.237637 0.176842 0.508700
O O11 0.157182 0.161297 0.252872
O O12 0.285344 0.750000 0.750000
O O13 0.159809 0.651289 0.754951
O O14 0.000992 0.377886 0.256854
#
# Coordination Sequence:
#
# PCOD8215355 Si02
#       6
#     8   8   8   8   8   8
#     4   9  18  34  54  78 106 141 178 213 261 318
#     4  10  19  34  54  78 106 140 179 215 259 320
#     4  10  20  35  55  78 104 139 182 218 258 317
#     4  10  21  37  55  74 104 145 181 214 261 320
#     4  10  20  34  54  79 108 137 170 218 271 317
#     4  11  20  32  55  83 107 132 172 226 269 310
#
# _framework density 19.505130000000001
#
# number of rings (size 3 to 8) (size 9 to 14) (size 15 to 20)
#    0.000    2.000    0.000    7.000    0.000    2.000 
#    0.000    0.000    0.000    7.000    0.000    0.000 
#    0.000    0.000    0.000    0.000    0.000    0.000 
#
# Total GULP energy -595104.492611 kJ/mol
# GULP energy per Si atom -12398.010263 kJ/mol
# Density = 1.946074 g / cm^3
# Si number density = 19.505130 Si / 1000 Ang^3
#
#
#
# Elastic Constant Matrix: (Units=GPa)
#
#
# Indices 1 2 3 4 5 6 
#
# 1 68.1756 2.7509 19.2725 0.0000 0.0000 0.0000
# 2 2.7509 77.7187 11.8098 0.0000 0.0000 0.0000
# 3 19.2725 11.8098 83.1360 0.0000 0.0000 0.0000
# 4 0.0000 0.0000 0.0000 25.8226 0.0000 0.0000
# 5 0.0000 0.0000 0.0000 0.0000 15.0945 0.0000
# 6 0.0000 0.0000 0.0000 0.0000 0.0000 17.9841
#
#
#
# Elastic Compliance Matrix: (Units=1/GPa)
#
#
# Indices 1 2 3 4 5 6 
#
# 1 0.015697 -0.000003 -0.003638 0.000000 0.000000 0.000000
# 2 -0.000003 0.013151 -0.001867 0.000000 0.000000 0.000000
# 3 -0.003638 -0.001867 0.013137 0.000000 0.000000 0.000000
# 4 0.000000 0.000000 0.000000 0.038726 0.000000 0.000000
# 5 0.000000 0.000000 0.000000 0.000000 0.066249 0.000000
# 6 0.000000 0.000000 0.000000 0.000000 0.000000 0.055605
#
#
# Mechanical properties :
#
#
# Convention : Reuss Voigt Hill
#
# Bulk Modulus (GPa) = 32.29196 32.96628 32.62912
# Shear Modulus (GPa) = 22.33100 24.79339 23.56219
#
# Velocity S-wave (km/s) = 3.38728 3.56915 3.47940
# Velocity P-wave (km/s) = 5.64710 5.82435 5.73641
#
# Compressibility (1/GPa) = 0.03096746
#
# Stress axis : x y z
#
# Youngs Moduli (GPa) = 63.70788 76.04106 76.11959
#
# Poissons Ratio (x) = 0.00021 0.27695
# Poissons Ratio (y) = 0.00017 0.14215
# Poissons Ratio (z) = 0.23179 0.14201
#
# Static dielectric constant tensor:
#      x y z
#    x 3.364630 0.000000 0.000000 
#    y 0.000000 3.767530 0.000000 
#    z 0.000000 0.000000 3.497140 
# 
# 
# High freq. dielectric constant tensor:
#      x y z
#    x 1.736430 0.000000 0.000000 
#    y 0.000000 1.760770 0.000000 
#    z 0.000000 0.000000 1.763780 
# 
# From -- ./inp_files/10462.got.cif
#   From: 2010.06.25/outbox.cif.g09.slc.cpg/sg52_6_cif.got.tgz:10462.got - 2010.06.26 19:32:48.
