data_PCOD8215172
_publ_section_title
;
Structure prediction by ZEFSAII (Michael W. Deem and Ramdas Pophale) SiO2 
 PCOD8215172
Probable space group: P N N A
;
_chemical_formula_sum "Si O2"
_cell_formula_units_Z 52
_cell_length_a 20.590393
_cell_length_b 14.281941
_cell_length_c 9.244461
_cell_angle_alpha 90.000000
_cell_angle_beta 90.000000
_cell_angle_gamma 90.000000
_cell_volume 2718.525838
_symmetry_space_group_name_H-M "P N N A"
_symmetry_group_IT_number 52
_symmetry_cell_setting 'orthorhombic'
loop_
_space_group_symop_operation_xyz
x,y,z
1/2-x,-y,z
x,1/2-y,1/2-z
1/2-x,1/2+y,1/2-z
-x,-y,-z
1/2+x,y,-z
-x,1/2+y,1/2+z
1/2+x,1/2-y,1/2+z
loop_
_atom_site_type_symbol
_atom_site_label
_atom_site_fract_x
_atom_site_fract_y
_atom_site_fract_z
Si Si1 0.178126 0.291723 0.021621
Si Si2 0.924685 0.750000 0.750000
Si Si3 0.066571 0.445229 0.681231
Si Si4 0.180099 0.491836 0.882865
Si Si5 0.680301 0.548477 0.811326
Si Si6 0.889512 0.750000 0.250000
Si Si7 0.938015 0.552316 0.658713
Si Si8 0.782820 0.250000 0.750000
O O1 0.116835 0.294780 0.124126
O O2 0.240081 0.250233 0.103684
O O3 0.187984 0.395454 0.968169
O O4 0.158748 0.229345 0.883848
O O5 0.963070 0.658941 0.691216
O O6 0.123361 0.501885 0.764863
O O7 0.065098 0.341643 0.753208
O O8 0.079104 0.452262 0.510696
O O9 0.996019 0.486788 0.712851
O O10 0.250000 0.500000 0.802581
O O11 0.168510 0.563780 0.015844
O O12 0.750000 0.500000 0.779950
O O13 0.626458 0.480542 0.741686
O O14 0.675749 0.653681 0.743702
#
# Coordination Sequence:
#
# PCOD8215172 Si02
#       8
#     8   4   8   8   8   4   8   4
#     4  10  18  34  60  85 117 157 203 245 291 368
#     4  11  18  36  64  84 110 163 210 244 290 375
#     4  10  24  40  62  88 123 159 202 251 308 363
#     4  10  19  39  60  90 122 152 199 260 301 362
#     4  11  21  37  61  90 123 156 204 254 302 360
#     4  10  20  37  60  90 116 161 204 252 294 373
#     4  11  23  42  60  88 123 161 205 251 302 374
#     4  11  20  35  58  94 122 162 200 254 310 358
#
# _framework density 19.128012999999999
#
# number of rings (size 3 to 8) (size 9 to 14) (size 15 to 20)
#    0.000    1.538    6.154    0.923    0.000    1.846 
#    2.769    3.077    0.000    0.000    0.000    0.000 
#    0.000    0.000    0.000    0.000    0.000    0.000 
#
# Total GULP energy -644179.336290 kJ/mol
# GULP energy per Si atom -12388.064159 kJ/mol
# Density = 1.908448 g / cm^3
# Si number density = 19.128013 Si / 1000 Ang^3
#
#
#
# Elastic Constant Matrix: (Units=GPa)
#
#
# Indices 1 2 3 4 5 6 
#
# 1 105.1925 34.3581 60.3291 0.0000 0.0000 0.0000
# 2 34.3581 112.2702 31.4937 0.0000 0.0000 0.0000
# 3 60.3291 31.4937 95.8103 0.0000 0.0000 0.0000
# 4 0.0000 0.0000 0.0000 25.7001 0.0000 0.0000
# 5 0.0000 0.0000 0.0000 0.0000 15.4398 0.0000
# 6 0.0000 0.0000 0.0000 0.0000 0.0000 30.5456
#
#
#
# Elastic Compliance Matrix: (Units=1/GPa)
#
#
# Indices 1 2 3 4 5 6 
#
# 1 0.015353 -0.002188 -0.008948 0.000000 0.000000 0.000000
# 2 -0.002188 0.010124 -0.001950 0.000000 0.000000 0.000000
# 3 -0.008948 -0.001950 0.016712 0.000000 0.000000 0.000000
# 4 0.000000 0.000000 0.000000 0.038910 0.000000 0.000000
# 5 0.000000 0.000000 0.000000 0.000000 0.064768 0.000000
# 6 0.000000 0.000000 0.000000 0.000000 0.000000 0.032738
#
#
# Mechanical properties :
#
#
# Convention : Reuss Voigt Hill
#
# Bulk Modulus (GPa) = 62.43425 62.84831 62.64128
# Shear Modulus (GPa) = 23.79635 26.80992 25.30313
#
# Velocity S-wave (km/s) = 3.53095 3.74786 3.64102
# Velocity P-wave (km/s) = 7.02385 7.18726 7.10602
#
# Compressibility (1/GPa) = 0.01601685
#
# Stress axis : x y z
#
# Youngs Moduli (GPa) = 65.13427 98.77758 59.83551
#
# Poissons Ratio (x) = 0.21617 0.53541
# Poissons Ratio (y) = 0.14254 0.11667
# Poissons Ratio (z) = 0.58282 0.19260
#
# Static dielectric constant tensor:
#      x y z
#    x 3.368970 0.000000 0.000000 
#    y 0.000000 3.780060 0.000000 
#    z 0.000000 0.000000 3.812990 
# 
# 
# High freq. dielectric constant tensor:
#      x y z
#    x 1.718630 0.000000 0.000000 
#    y 0.000000 1.747690 0.000000 
#    z 0.000000 0.000000 1.751670 
# 
# From -- ./inp_files/13418.got.cif
#   From: 2010.06.25/outbox.cif.g09.slc.cpg/sg52_7_cif.got.tgz:13418.got - 2010.06.26 19:32:48.
