data_PCOD8215673
_publ_section_title
;
Structure prediction by ZEFSAII (Michael W. Deem and Ramdas Pophale) SiO2 
 PCOD8215673
Probable space group: P N N A
;
_chemical_formula_sum "Si O2"
_cell_formula_units_Z 36
_cell_length_a 8.911164
_cell_length_b 12.692525
_cell_length_c 18.140954
_cell_angle_alpha 90.000000
_cell_angle_beta 90.000000
_cell_angle_gamma 90.000000
_cell_volume 2051.835720
_symmetry_space_group_name_H-M "P N N A"
_symmetry_group_IT_number 52
_symmetry_cell_setting 'orthorhombic'
loop_
_space_group_symop_operation_xyz
x,y,z
1/2-x,-y,z
x,1/2-y,1/2-z
1/2-x,1/2+y,1/2-z
-x,-y,-z
1/2+x,y,-z
-x,1/2+y,1/2+z
1/2+x,1/2-y,1/2+z
loop_
_atom_site_type_symbol
_atom_site_label
_atom_site_fract_x
_atom_site_fract_y
_atom_site_fract_z
Si Si1 0.933997 0.698701 0.149944
Si Si2 0.735823 0.121645 0.651512
Si Si3 0.232656 0.381126 0.713447
Si Si4 0.494383 0.750000 0.250000
Si Si5 0.134218 0.421618 0.989292
O O1 0.829291 0.626361 0.202701
O O2 0.889212 0.820722 0.162370
O O3 0.904154 0.673648 0.064746
O O4 0.108614 0.681091 0.168016
O O5 0.605480 0.180721 0.695238
O O6 0.695841 0.126908 0.565175
O O7 0.750000 0.000000 0.677369
O O8 0.250000 0.500000 0.686583
O O9 0.396882 0.328552 0.704678
O O10 0.250000 0.500000 0.950013
O O11 0.000000 0.500000 0.000000
#
# Coordination Sequence:
#
# PCOD8215673 Si02
#       5
#     8   8   8   4   8
#     4  10  20  35  55  81 114 145 181 228 282 333
#     4  11  21  35  55  85 114 144 177 231 286 328
#     4  10  22  36  56  78 111 152 188 229 268 326
#     4  10  22  34  56  80 110 148 190 226 270 338
#     4  11  21  33  57  87 115 141 177 237 288 332
#
# _framework density 17.545262999999998
#
# number of rings (size 3 to 8) (size 9 to 14) (size 15 to 20)
#    0.000    1.778    4.444    3.333    6.222    0.000 
#    0.000    0.000    0.000    6.667    0.000    0.000 
#    0.000    0.000    0.000    0.000    0.000    0.000 
#
# Total GULP energy -446155.497701 kJ/mol
# GULP energy per Si atom -12393.208269 kJ/mol
# Density = 1.750533 g / cm^3
# Si number density = 17.545263 Si / 1000 Ang^3
#
#
#
# Elastic Constant Matrix: (Units=GPa)
#
#
# Indices 1 2 3 4 5 6 
#
# 1 143.0150 67.0209 36.0950 0.0000 0.0000 0.0000
# 2 67.0209 154.5430 47.0349 0.0000 0.0000 0.0000
# 3 36.0950 47.0349 79.5729 0.0000 0.0000 0.0000
# 4 0.0000 0.0000 0.0000 24.8353 0.0000 0.0000
# 5 0.0000 0.0000 0.0000 0.0000 29.0522 0.0000
# 6 0.0000 0.0000 0.0000 0.0000 0.0000 35.0278
#
#
#
# Elastic Compliance Matrix: (Units=1/GPa)
#
#
# Indices 1 2 3 4 5 6 
#
# 1 0.009077 -0.003272 -0.002183 0.000000 0.000000 0.000000
# 2 -0.003272 0.009069 -0.003877 0.000000 0.000000 0.000000
# 3 -0.002183 -0.003877 0.015849 0.000000 0.000000 0.000000
# 4 0.000000 0.000000 0.000000 0.040265 0.000000 0.000000
# 5 0.000000 0.000000 0.000000 0.000000 0.034421 0.000000
# 6 0.000000 0.000000 0.000000 0.000000 0.000000 0.028549
#
#
# Mechanical properties :
#
#
# Convention : Reuss Voigt Hill
#
# Bulk Modulus (GPa) = 65.22595 75.27028 70.24811
# Shear Modulus (GPa) = 31.05513 32.91506 31.98509
#
# Velocity S-wave (km/s) = 4.21170 4.33599 4.27430
# Velocity P-wave (km/s) = 7.80434 8.24994 8.03023
#
# Compressibility (1/GPa) = 0.01533132
#
# Stress axis : x y z
#
# Youngs Moduli (GPa) = 110.17402 110.26025 63.09551
#
# Poissons Ratio (x) = 0.36075 0.13776
# Poissons Ratio (y) = 0.36046 0.24461
# Poissons Ratio (z) = 0.24054 0.42745
#
# Static dielectric constant tensor:
#      x y z
#    x 3.392290 0.000000 0.000000 
#    y 0.000000 3.217200 0.000000 
#    z 0.000000 0.000000 12.024600 
# 
# 
# High freq. dielectric constant tensor:
#      x y z
#    x 1.705520 0.000000 0.000000 
#    y 0.000000 1.665400 0.000000 
#    z 0.000000 0.000000 1.656890 
# 
# From -- ./inp_files/31012.got.cif
#   From: 2010.06.25/outbox.cif.g09.slc.cpg/sg52_16_cif.got.tgz:31012.got - 2010.06.26 19:32:48.
