data_PCOD8215308
_publ_section_title
;
Structure prediction by ZEFSAII (Michael W. Deem and Ramdas Pophale) SiO2 
 PCOD8215308
Probable space group: P N N A
;
_chemical_formula_sum "Si O2"
_cell_formula_units_Z 60
_cell_length_a 21.253328
_cell_length_b 5.360900
_cell_length_c 27.781658
_cell_angle_alpha 90.000000
_cell_angle_beta 90.000000
_cell_angle_gamma 90.000000
_cell_volume 3165.357825
_symmetry_space_group_name_H-M "P N N A"
_symmetry_group_IT_number 52
_symmetry_cell_setting 'orthorhombic'
loop_
_space_group_symop_operation_xyz
x,y,z
1/2-x,-y,z
x,1/2-y,1/2-z
1/2-x,1/2+y,1/2-z
-x,-y,-z
1/2+x,y,-z
-x,1/2+y,1/2+z
1/2+x,1/2-y,1/2+z
loop_
_atom_site_type_symbol
_atom_site_label
_atom_site_fract_x
_atom_site_fract_y
_atom_site_fract_z
Si Si1 0.610845 0.254034 0.041951
Si Si2 0.116855 0.255470 0.335319
Si Si3 0.600024 0.753429 0.609192
Si Si4 0.749659 0.250044 0.437191
Si Si5 0.788978 0.750000 0.750000
Si Si6 0.524069 0.749114 0.194690
Si Si7 0.624339 0.754696 0.000694
Si Si8 0.041718 0.254023 0.638217
O O1 0.685680 0.251310 0.032255
O O2 0.585137 0.506578 0.016567
O O3 0.596211 0.258676 0.098545
O O4 0.584665 0.998288 0.018285
O O5 0.128512 0.520580 0.361288
O O6 0.170191 0.207582 0.296981
O O7 0.050917 0.260548 0.307672
O O8 0.121180 0.021795 0.371221
O O9 0.628771 0.734028 0.556359
O O10 0.524432 0.735801 0.609996
O O11 0.750000 0.500000 0.404330
O O12 0.806635 0.251291 0.475126
O O13 0.750000 0.000000 0.404356
O O14 0.750000 0.500000 0.742043
O O15 0.545824 0.750000 0.250000
O O16 0.548343 0.492896 0.170768
O O17 0.552576 0.994937 0.169160
#
# Coordination Sequence:
#
# PCOD8215308 Si02
#       8
#     8   8   8   8   4   8   8   8
#     4  10  19  33  50  74 110 139 176 225 265 308
#     4  10  21  39  56  76 104 138 175 226 278 322
#     4  10  21  35  54  78 106 139 183 220 269 326
#     4   8  16  30  47  67  92 132 177 210 245 297
#     4  12  24  40  58  80 104 138 186 236 284 332
#     4  10  19  36  58  79 104 141 174 213 275 335
#     4  10  19  33  52  73 104 146 182 216 259 316
#     4  10  21  32  52  83 109 135 178 222 271 325
#
# _framework density 18.955204999999999
#
# number of rings (size 3 to 8) (size 9 to 14) (size 15 to 20)
#    0.000    2.133    0.667    2.800    0.000    1.067 
#    0.000   12.000    0.000    0.000    0.000    0.000 
#    0.000   96.000    0.000    0.000    0.000    0.000 
#
# Total GULP energy -743290.022083 kJ/mol
# GULP energy per Si atom -12388.167035 kJ/mol
# Density = 1.891206 g / cm^3
# Si number density = 18.955205 Si / 1000 Ang^3
#
#
#
# Elastic Constant Matrix: (Units=GPa)
#
#
# Indices 1 2 3 4 5 6 
#
# 1 33.3162 15.0563 27.7771 0.0000 0.0000 0.0000
# 2 15.0563 207.2148 37.9041 0.0000 0.0000 0.0000
# 3 27.7771 37.9041 104.8892 0.0000 0.0000 0.0000
# 4 0.0000 0.0000 0.0000 29.7955 0.0000 0.0000
# 5 0.0000 0.0000 0.0000 0.0000 22.1516 0.0000
# 6 0.0000 0.0000 0.0000 0.0000 0.0000 11.8236
#
#
#
# Elastic Compliance Matrix: (Units=1/GPa)
#
#
# Indices 1 2 3 4 5 6 
#
# 1 0.038715 -0.001004 -0.009890 0.000000 0.000000 0.000000
# 2 -0.001004 0.005194 -0.001611 0.000000 0.000000 0.000000
# 3 -0.009890 -0.001611 0.012735 0.000000 0.000000 0.000000
# 4 0.000000 0.000000 0.000000 0.033562 0.000000 0.000000
# 5 0.000000 0.000000 0.000000 0.000000 0.045143 0.000000
# 6 0.000000 0.000000 0.000000 0.000000 0.000000 0.084577
#
#
# Mechanical properties :
#
#
# Convention : Reuss Voigt Hill
#
# Bulk Modulus (GPa) = 31.61163 56.32170 43.96666
# Shear Modulus (GPa) = 19.57104 30.39965 24.98535
#
# Velocity S-wave (km/s) = 3.21672 4.00905 3.63454
# Velocity P-wave (km/s) = 5.52355 7.15594 6.39207
#
# Compressibility (1/GPa) = 0.03163393
#
# Stress axis : x y z
#
# Youngs Moduli (GPa) = 25.83004 192.54716 78.52350
#
# Poissons Ratio (x) = 0.19331 0.77658
# Poissons Ratio (y) = 0.02593 0.12650
# Poissons Ratio (z) = 0.25545 0.31018
#
# Static dielectric constant tensor:
#      x y z
#    x 3.238970 0.000000 0.000000 
#    y 0.000000 4.529190 0.000000 
#    z 0.000000 0.000000 3.156210 
# 
# 
# High freq. dielectric constant tensor:
#      x y z
#    x 1.709220 0.000000 0.000000 
#    y 0.000000 1.783030 0.000000 
#    z 0.000000 0.000000 1.707910 
# 
# From -- ./inp_files/38188.got.cif
#   From: 2010.06.25/outbox.cif.g09.slc.cpg/sg52_20_cif.got.tgz:38188.got - 2010.06.26 19:32:48.
