data_PCOD8215756
_publ_section_title
;
Structure prediction by ZEFSAII (Michael W. Deem and Ramdas Pophale) SiO2 
 PCOD8215756
Probable space group: P N N A
;
_chemical_formula_sum "Si O2"
_cell_formula_units_Z 60
_cell_length_a 19.497879
_cell_length_b 19.246323
_cell_length_c 7.729741
_cell_angle_alpha 90.000000
_cell_angle_beta 90.000000
_cell_angle_gamma 90.000000
_cell_volume 2900.681755
_symmetry_space_group_name_H-M "P N N A"
_symmetry_group_IT_number 52
_symmetry_cell_setting 'orthorhombic'
loop_
_space_group_symop_operation_xyz
x,y,z
1/2-x,-y,z
x,1/2-y,1/2-z
1/2-x,1/2+y,1/2-z
-x,-y,-z
1/2+x,y,-z
-x,1/2+y,1/2+z
1/2+x,1/2-y,1/2+z
loop_
_atom_site_type_symbol
_atom_site_label
_atom_site_fract_x
_atom_site_fract_y
_atom_site_fract_z
Si Si1 0.481469 0.327227 0.728070
Si Si2 0.615172 0.750000 0.750000
Si Si3 0.613597 0.106267 0.801534
Si Si4 0.945863 0.467440 0.636050
Si Si5 0.140128 0.185913 0.552097
Si Si6 0.351589 0.354817 0.517456
Si Si7 0.801035 0.660526 0.401448
Si Si8 0.009533 0.648926 0.101674
O O1 0.509445 0.250000 0.750000
O O2 0.543280 0.360838 0.617075
O O3 0.407767 0.321868 0.643211
O O4 0.480501 0.374473 0.902518
O O5 0.662080 0.697430 0.642245
O O6 0.567972 0.705590 0.875827
O O7 0.643529 0.145451 0.631495
O O8 0.594353 0.026714 0.756259
O O9 0.668251 0.108201 0.956487
O O10 0.883863 0.428044 0.538759
O O11 0.985178 0.416124 0.768302
O O12 0.000000 0.500000 0.500000
O O13 0.177072 0.261141 0.541395
O O14 0.176744 0.142781 0.705599
O O15 0.061945 0.190202 0.617475
O O16 0.279304 0.357580 0.611081
#
# Coordination Sequence:
#
# PCOD8215756 Si02
#       8
#     8   4   8   8   8   8   8   8
#     4  11  21  38  66 100 125 162 227 290 343 387
#     4  10  20  36  62  92 128 158 216 280 350 384
#     4  11  23  43  68  93 135 180 223 272 334 412
#     4  11  23  44  68  95 134 179 228 280 335 406
#     4  10  23  38  67 101 126 175 215 281 347 404
#     4  11  25  40  66  98 129 181 216 287 340 406
#     4  11  24  42  65  96 140 169 226 272 353 411
#     4  10  21  37  64  99 125 163 222 279 337 401
#
# _framework density 20.684792999999999
#
# number of rings (size 3 to 8) (size 9 to 14) (size 15 to 20)
#    0.000    1.333    2.667    3.600    5.600    2.667 
#    4.800    0.000    0.000    0.000    0.000    0.000 
#    0.000    0.000    0.000    0.000    0.000    0.000 
#
# Total GULP energy -743394.171671 kJ/mol
# GULP energy per Si atom -12389.902861 kJ/mol
# Density = 2.063771 g / cm^3
# Si number density = 20.684793 Si / 1000 Ang^3
#
#
#
# Elastic Constant Matrix: (Units=GPa)
#
#
# Indices 1 2 3 4 5 6 
#
# 1 102.0926 16.3514 33.1534 0.0000 0.0000 0.0000
# 2 16.3514 102.0392 24.8853 0.0000 0.0000 0.0000
# 3 33.1534 24.8853 93.5735 0.0000 0.0000 0.0000
# 4 0.0000 0.0000 0.0000 21.3010 0.0000 0.0000
# 5 0.0000 0.0000 0.0000 0.0000 16.3052 0.0000
# 6 0.0000 0.0000 0.0000 0.0000 0.0000 25.0590
#
#
#
# Elastic Compliance Matrix: (Units=1/GPa)
#
#
# Indices 1 2 3 4 5 6 
#
# 1 0.011142 -0.000880 -0.003714 0.000000 0.000000 0.000000
# 2 -0.000880 0.010549 -0.002494 0.000000 0.000000 0.000000
# 3 -0.003714 -0.002494 0.012666 0.000000 0.000000 0.000000
# 4 0.000000 0.000000 0.000000 0.046946 0.000000 0.000000
# 5 0.000000 0.000000 0.000000 0.000000 0.061330 0.000000
# 6 0.000000 0.000000 0.000000 0.000000 0.000000 0.039906
#
#
# Mechanical properties :
#
#
# Convention : Reuss Voigt Hill
#
# Bulk Modulus (GPa) = 49.54782 49.60949 49.57865
# Shear Modulus (GPa) = 24.57714 27.42073 25.99894
#
# Velocity S-wave (km/s) = 3.45073 3.64489 3.54914
# Velocity P-wave (km/s) = 6.31526 6.46137 6.38873
#
# Compressibility (1/GPa) = 0.02018252
#
# Stress axis : x y z
#
# Youngs Moduli (GPa) = 89.75134 94.79273 78.95307
#
# Poissons Ratio (x) = 0.08340 0.29320
# Poissons Ratio (y) = 0.07896 0.19690
# Poissons Ratio (z) = 0.33330 0.23640
#
# Static dielectric constant tensor:
#      x y z
#    x 3.683700 0.000000 0.000000 
#    y 0.000000 4.140990 0.000000 
#    z 0.000000 0.000000 3.854200 
# 
# 
# High freq. dielectric constant tensor:
#      x y z
#    x 1.802770 0.000000 0.000000 
#    y 0.000000 1.798670 0.000000 
#    z 0.000000 0.000000 1.815840 
# 
# From -- ./inp_files/12439.got.cif
#   From: 2010.06.25/outbox.cif.g09.slc.cpg/sg52_7_cif.got.tgz:12439.got - 2010.06.26 19:32:48.
