data_PCOD8215495
_publ_section_title
;
Structure prediction by ZEFSAII (Michael W. Deem and Ramdas Pophale) SiO2 
 PCOD8215495
Probable space group: P N N A
;
_chemical_formula_sum "Si O2"
_cell_formula_units_Z 48
_cell_length_a 28.133265
_cell_length_b 9.786187
_cell_length_c 8.672719
_cell_angle_alpha 90.000000
_cell_angle_beta 90.000000
_cell_angle_gamma 90.000000
_cell_volume 2387.750378
_symmetry_space_group_name_H-M "P N N A"
_symmetry_group_IT_number 52
_symmetry_cell_setting 'orthorhombic'
loop_
_space_group_symop_operation_xyz
x,y,z
1/2-x,-y,z
x,1/2-y,1/2-z
1/2-x,1/2+y,1/2-z
-x,-y,-z
1/2+x,y,-z
-x,1/2+y,1/2+z
1/2+x,1/2-y,1/2+z
loop_
_atom_site_type_symbol
_atom_site_label
_atom_site_fract_x
_atom_site_fract_y
_atom_site_fract_z
Si Si1 0.452553 0.155886 0.395175
Si Si2 0.803356 0.507297 0.943620
Si Si3 0.140417 0.727316 0.928632
Si Si4 0.804646 0.030211 0.917064
Si Si5 0.455103 0.841694 0.397605
Si Si6 0.859647 0.765354 0.929826
O O1 0.463398 0.250000 0.250000
O O2 0.409415 0.228940 0.483521
O O3 0.498909 0.157774 0.498520
O O4 0.440867 0.998074 0.349488
O O5 0.750000 0.500000 0.001723
O O6 0.808606 0.456412 0.767341
O O7 0.817712 0.662897 0.972817
O O8 0.836052 0.420024 0.055624
O O9 0.130569 0.750000 0.750000
O O10 0.177860 0.832483 0.002908
O O11 0.750000 0.000000 0.963883
O O12 0.840700 0.913542 0.978432
O O13 0.467324 0.750000 0.250000
O O14 0.411386 0.775489 0.498687
O O15 0.870018 0.750000 0.750000
#
# Coordination Sequence:
#
# PCOD8215495 Si02
#       6
#     8   8   8   8   8   8
#     4  11  24  43  67  92 124 165 209 255 315 379
#     4  10  19  37  65  91 120 159 209 257 307 366
#     4  12  25  40  59  91 130 169 206 255 311 367
#     4  10  21  39  65  94 122 161 214 257 307 373
#     4  10  22  42  64  95 128 154 205 263 318 374
#     4   9  18  35  60  91 120 156 196 257 310 360
#
# _framework density 20.102602999999998
#
# number of rings (size 3 to 8) (size 9 to 14) (size 15 to 20)
#    0.000    1.667    1.667    3.000    4.667    4.000 
#    6.000    0.833    0.000    0.000    0.000    0.000 
#    0.000    0.000    0.000    0.000    0.000    0.000 
#
# Total GULP energy -595105.314802 kJ/mol
# GULP energy per Si atom -12398.027392 kJ/mol
# Density = 2.005685 g / cm^3
# Si number density = 20.102603 Si / 1000 Ang^3
#
#
#
# Elastic Constant Matrix: (Units=GPa)
#
#
# Indices 1 2 3 4 5 6 
#
# 1 125.0912 29.1220 13.1524 0.0000 0.0000 0.0000
# 2 29.1220 82.3644 28.5492 0.0000 0.0000 0.0000
# 3 13.1524 28.5492 60.6785 0.0000 0.0000 0.0000
# 4 0.0000 0.0000 0.0000 9.4340 0.0000 0.0000
# 5 0.0000 0.0000 0.0000 0.0000 18.5757 0.0000
# 6 0.0000 0.0000 0.0000 0.0000 0.0000 39.1461
#
#
#
# Elastic Compliance Matrix: (Units=1/GPa)
#
#
# Indices 1 2 3 4 5 6 
#
# 1 0.008725 -0.002903 -0.000525 0.000000 0.000000 0.000000
# 2 -0.002903 0.015473 -0.006651 0.000000 0.000000 0.000000
# 3 -0.000525 -0.006651 0.019723 0.000000 0.000000 0.000000
# 4 0.000000 0.000000 0.000000 0.105999 0.000000 0.000000
# 5 0.000000 0.000000 0.000000 0.000000 0.053834 0.000000
# 6 0.000000 0.000000 0.000000 0.000000 0.000000 0.025545
#
#
# Mechanical properties :
#
#
# Convention : Reuss Voigt Hill
#
# Bulk Modulus (GPa) = 42.08172 45.53126 43.80649
# Shear Modulus (GPa) = 19.42661 26.58520 23.00591
#
# Velocity S-wave (km/s) = 3.11203 3.64053 3.38660
# Velocity P-wave (km/s) = 5.82167 6.35373 6.09351
#
# Compressibility (1/GPa) = 0.02376329
#
# Stress axis : x y z
#
# Youngs Moduli (GPa) = 114.61017 64.62932 50.70131
#
# Poissons Ratio (x) = 0.18761 0.02664
# Poissons Ratio (y) = 0.33270 0.33720
# Poissons Ratio (z) = 0.06022 0.42983
#
# Static dielectric constant tensor:
#      x y z
#    x 3.919390 0.000000 0.000000 
#    y 0.000000 3.974910 0.000000 
#    z 0.000000 0.000000 3.302950 
# 
# 
# High freq. dielectric constant tensor:
#      x y z
#    x 1.810670 0.000000 0.000000 
#    y 0.000000 1.798760 0.000000 
#    z 0.000000 0.000000 1.744400 
# 
# From -- ./inp_files/15489.got.cif
#   From: 2010.06.25/outbox.cif.g09.slc.cpg/sg52_8_cif.got.tgz:15489.got - 2010.06.26 19:32:48.
