data_PCOD8215619
_publ_section_title
;
Structure prediction by ZEFSAII (Michael W. Deem and Ramdas Pophale) SiO2 
 PCOD8215619
Probable space group: P N N A
;
_chemical_formula_sum "Si O2"
_cell_formula_units_Z 28
_cell_length_a 20.879560
_cell_length_b 5.031254
_cell_length_c 12.431586
_cell_angle_alpha 90.000000
_cell_angle_beta 90.000000
_cell_angle_gamma 90.000000
_cell_volume 1305.942706
_symmetry_space_group_name_H-M "P N N A"
_symmetry_group_IT_number 52
_symmetry_cell_setting 'orthorhombic'
loop_
_space_group_symop_operation_xyz
x,y,z
1/2-x,-y,z
x,1/2-y,1/2-z
1/2-x,1/2+y,1/2-z
-x,-y,-z
1/2+x,y,-z
-x,1/2+y,1/2+z
1/2+x,1/2-y,1/2+z
loop_
_atom_site_type_symbol
_atom_site_label
_atom_site_fract_x
_atom_site_fract_y
_atom_site_fract_z
Si Si1 0.821611 0.594631 0.977481
Si Si2 0.012193 0.006771 0.177015
Si Si3 0.897593 0.418371 0.475975
Si Si4 0.290370 0.750000 0.250000
O O1 0.750000 0.500000 0.005139
O O2 0.831094 0.633055 0.848807
O O3 0.871290 0.378552 0.019696
O O4 0.839292 0.871152 0.035887
O O5 0.034227 0.250000 0.250000
O O6 0.942490 0.061864 0.127485
O O7 0.008672 0.750000 0.250000
O O8 0.064395 0.978919 0.084531
O O9 0.250000 0.500000 0.297417
#
# Coordination Sequence:
#
# PCOD8215619 Si02
#       4
#     8   8   8   4
#     4  11  22  38  60  90 130 161 195 250 301 373
#     4  11  24  43  65  89 121 160 207 262 301 349
#     4  11  24  40  64  94 119 163 208 242 312 367
#     4  10  20  34  52  86 126 164 198 228 298 372
#
# _framework density 21.440453000000002
#
# number of rings (size 3 to 8) (size 9 to 14) (size 15 to 20)
#    0.000    1.143    0.000    7.714    6.000    4.571 
#    0.000    0.000    0.000   17.143    0.000    0.000 
#    0.000    0.000    0.000    0.000    0.000    0.000 
#
# Total GULP energy -347261.722217 kJ/mol
# GULP energy per Si atom -12402.204365 kJ/mol
# Density = 2.139165 g / cm^3
# Si number density = 21.440453 Si / 1000 Ang^3
#
#
#
# Elastic Constant Matrix: (Units=GPa)
#
#
# Indices 1 2 3 4 5 6 
#
# 1 71.6886 13.8320 9.7539 0.0000 0.0000 0.0000
# 2 13.8320 138.3235 26.2095 0.0000 0.0000 0.0000
# 3 9.7539 26.2095 51.9159 0.0000 0.0000 0.0000
# 4 0.0000 0.0000 0.0000 4.4140 0.0000 0.0000
# 5 0.0000 0.0000 0.0000 0.0000 16.2686 0.0000
# 6 0.0000 0.0000 0.0000 0.0000 0.0000 42.5571
#
#
#
# Elastic Compliance Matrix: (Units=1/GPa)
#
#
# Indices 1 2 3 4 5 6 
#
# 1 0.014446 -0.001029 -0.002195 0.000000 0.000000 0.000000
# 2 -0.001029 0.008067 -0.003879 0.000000 0.000000 0.000000
# 3 -0.002195 -0.003879 0.021633 0.000000 0.000000 0.000000
# 4 0.000000 0.000000 0.000000 0.226551 0.000000 0.000000
# 5 0.000000 0.000000 0.000000 0.000000 0.061468 0.000000
# 6 0.000000 0.000000 0.000000 0.000000 0.000000 0.023498
#
#
# Mechanical properties :
#
#
# Convention : Reuss Voigt Hill
#
# Bulk Modulus (GPa) = 33.39963 40.16876 36.78420
# Shear Modulus (GPa) = 13.16310 26.79011 19.97661
#
# Velocity S-wave (km/s) = 2.48046 3.53868 3.05573
# Velocity P-wave (km/s) = 4.88009 5.95584 5.44460
#
# Compressibility (1/GPa) = 0.02994045
#
# Stress axis : x y z
#
# Youngs Moduli (GPa) = 69.22171 123.95591 46.22609
#
# Poissons Ratio (x) = 0.12752 0.10146
# Poissons Ratio (y) = 0.07121 0.17933
# Poissons Ratio (z) = 0.15193 0.48089
#
# Static dielectric constant tensor:
#      x y z
#    x 3.905830 0.000000 0.000000 
#    y 0.000000 4.137760 0.000000 
#    z 0.000000 0.000000 3.681260 
# 
# 
# High freq. dielectric constant tensor:
#      x y z
#    x 1.843580 0.000000 0.000000 
#    y 0.000000 1.867870 0.000000 
#    z 0.000000 0.000000 1.815570 
# 
# From -- ./inp_files/21091.got.cif
#   From: 2010.06.25/outbox.cif.g09.slc.cpg/sg52_11_cif.got.tgz:21091.got - 2010.06.26 19:32:48.
