data_PCOD8215531
_publ_section_title
;
Structure prediction by ZEFSAII (Michael W. Deem and Ramdas Pophale) SiO2 
 PCOD8215531
Probable space group: P N N A
;
_chemical_formula_sum "Si O2"
_cell_formula_units_Z 52
_cell_length_a 20.230626
_cell_length_b 8.997975
_cell_length_c 13.475343
_cell_angle_alpha 90.000000
_cell_angle_beta 90.000000
_cell_angle_gamma 90.000000
_cell_volume 2452.979575
_symmetry_space_group_name_H-M "P N N A"
_symmetry_group_IT_number 52
_symmetry_cell_setting 'orthorhombic'
loop_
_space_group_symop_operation_xyz
x,y,z
1/2-x,-y,z
x,1/2-y,1/2-z
1/2-x,1/2+y,1/2-z
-x,-y,-z
1/2+x,y,-z
-x,1/2+y,1/2+z
1/2+x,1/2-y,1/2+z
loop_
_atom_site_type_symbol
_atom_site_label
_atom_site_fract_x
_atom_site_fract_y
_atom_site_fract_z
Si Si1 0.896215 0.695370 0.143436
Si Si2 0.272320 0.651924 0.568679
Si Si3 0.476452 0.841463 0.033978
Si Si4 0.935892 0.418181 0.039807
Si Si5 0.352647 0.556693 0.377093
Si Si6 0.735110 0.250000 0.750000
Si Si7 0.828316 0.268564 0.924078
O O1 0.922859 0.750000 0.250000
O O2 0.819324 0.744913 0.135620
O O3 0.902356 0.515786 0.128020
O O4 0.942048 0.767093 0.060469
O O5 0.250000 0.500000 0.626664
O O6 0.312253 0.596889 0.474088
O O7 0.208917 0.743071 0.529461
O O8 0.538081 0.744148 0.075989
O O9 0.423504 0.861386 0.122498
O O10 0.500000 0.000000 0.000000
O O11 0.883867 0.392282 0.949093
O O12 0.000000 0.500000 0.000000
O O13 0.310502 0.611900 0.283553
O O14 0.362254 0.379192 0.377630
O O15 0.777792 0.322297 0.839245
#
# Coordination Sequence:
#
# PCOD8215531 Si02
#       7
#     8   8   8   8   8   4   8
#     4  10  22  42  61  92 131 159 216 287 322 393
#     4   8  17  36  64  83 113 165 202 258 342 383
#     4  10  19  41  70  84 121 183 220 257 332 406
#     4  10  22  41  60  92 126 177 219 260 347 399
#     4   9  18  37  60  89 124 163 215 272 322 402
#     4  10  20  36  58 106 132 162 222 286 346 400
#     4  10  19  39  62  89 134 169 215 273 333 403
#
# _framework density 21.198708
#
# number of rings (size 3 to 8) (size 9 to 14) (size 15 to 20)
#    0.000    2.462    1.538    1.385    0.000    0.615 
#   33.231    0.000    0.000    0.000    0.000    0.000 
#    0.000    0.000    0.000    0.000    0.000    0.000 
#
# Total GULP energy -644350.378098 kJ/mol
# GULP energy per Si atom -12391.353425 kJ/mol
# Density = 2.115046 g / cm^3
# Si number density = 21.198708 Si / 1000 Ang^3
#
#
#
# Elastic Constant Matrix: (Units=GPa)
#
#
# Indices 1 2 3 4 5 6 
#
# 1 119.2481 61.1963 41.2210 0.0000 0.0000 0.0000
# 2 61.1963 137.7419 44.7917 0.0000 0.0000 0.0000
# 3 41.2210 44.7917 78.2602 0.0000 0.0000 0.0000
# 4 0.0000 0.0000 0.0000 29.4597 0.0000 0.0000
# 5 0.0000 0.0000 0.0000 0.0000 25.2980 0.0000
# 6 0.0000 0.0000 0.0000 0.0000 0.0000 42.9481
#
#
#
# Elastic Compliance Matrix: (Units=1/GPa)
#
#
# Indices 1 2 3 4 5 6 
#
# 1 0.011775 -0.003950 -0.003942 0.000000 0.000000 0.000000
# 2 -0.003950 0.010245 -0.003783 0.000000 0.000000 0.000000
# 3 -0.003942 -0.003783 0.017019 0.000000 0.000000 0.000000
# 4 0.000000 0.000000 0.000000 0.033945 0.000000 0.000000
# 5 0.000000 0.000000 0.000000 0.000000 0.039529 0.000000
# 6 0.000000 0.000000 0.000000 0.000000 0.000000 0.023284
#
#
# Mechanical properties :
#
#
# Convention : Reuss Voigt Hill
#
# Bulk Modulus (GPa) = 63.73346 69.96312 66.84829
# Shear Modulus (GPa) = 30.41793 32.07724 31.24759
#
# Velocity S-wave (km/s) = 3.79211 3.89417 3.84348
# Velocity P-wave (km/s) = 7.02165 7.30031 7.16233
#
# Compressibility (1/GPa) = 0.01569034
#
# Stress axis : x y z
#
# Youngs Moduli (GPa) = 84.92285 97.60816 58.75671
#
# Poissons Ratio (x) = 0.38554 0.23160
# Poissons Ratio (y) = 0.33543 0.22229
# Poissons Ratio (z) = 0.33474 0.36927
#
# Static dielectric constant tensor:
#      x y z
#    x 3.733360 0.000000 0.000000 
#    y 0.000000 3.635360 0.000000 
#    z 0.000000 0.000000 3.406690 
# 
# 
# High freq. dielectric constant tensor:
#      x y z
#    x 1.840230 0.000000 0.000000 
#    y 0.000000 1.837180 0.000000 
#    z 0.000000 0.000000 1.779950 
# 
# From -- ./inp_files/28696.got.cif
#   From: 2010.06.25/outbox.cif.g09.slc.cpg/sg52_15_cif.got.tgz:28696.got - 2010.06.26 19:32:48.
