data_PCOD8215806
_publ_section_title
;
Structure prediction by ZEFSAII (Michael W. Deem and Ramdas Pophale) SiO2 
 PCOD8215806
Probable space group: P N N A
;
_chemical_formula_sum "Si O2"
_cell_formula_units_Z 56
_cell_length_a 12.217443
_cell_length_b 12.276029
_cell_length_c 19.041455
_cell_angle_alpha 90.000000
_cell_angle_beta 90.000000
_cell_angle_gamma 90.000000
_cell_volume 2855.869498
_symmetry_space_group_name_H-M "P N N A"
_symmetry_group_IT_number 52
_symmetry_cell_setting 'orthorhombic'
loop_
_space_group_symop_operation_xyz
x,y,z
1/2-x,-y,z
x,1/2-y,1/2-z
1/2-x,1/2+y,1/2-z
-x,-y,-z
1/2+x,y,-z
-x,1/2+y,1/2+z
1/2+x,1/2-y,1/2+z
loop_
_atom_site_type_symbol
_atom_site_label
_atom_site_fract_x
_atom_site_fract_y
_atom_site_fract_z
Si Si1 0.348408 0.220183 0.092024
Si Si2 0.864591 0.725977 0.669860
Si Si3 0.526927 0.384774 0.069523
Si Si4 0.353780 0.930756 0.946720
Si Si5 0.748463 0.715162 0.058042
Si Si6 0.433574 0.978371 0.093368
Si Si7 0.029646 0.620588 0.910184
O O1 0.262797 0.248194 0.153753
O O2 0.461926 0.285018 0.107526
O O3 0.366797 0.090752 0.091753
O O4 0.292122 0.254061 0.019362
O O5 0.891022 0.750000 0.750000
O O6 0.894746 0.599544 0.656033
O O7 0.936419 0.804325 0.621186
O O8 0.657118 0.375166 0.058320
O O9 0.512589 0.495576 0.115644
O O10 0.471322 0.389754 0.993852
O O11 0.311312 0.820508 0.910086
O O12 0.250000 0.000000 0.966140
O O13 0.437533 0.994699 0.895647
O O14 0.417924 0.910048 0.020577
O O15 0.648702 0.673904 0.107325
#
# Coordination Sequence:
#
# PCOD8215806 Si02
#       7
#     8   8   8   8   8   8   8
#     4  11  21  37  59  91 125 158 206 250 316 361
#     4  12  25  43  59  84 129 173 210 241 295 387
#     4  10  20  37  61  91 124 154 198 264 309 368
#     4  11  18  29  59  94 124 150 182 264 327 363
#     4  11  18  34  62  94 125 148 190 263 325 363
#     4  11  21  35  57  90 127 153 205 257 313 360
#     4  10  22  37  59  90 123 162 205 244 309 368
#
# _framework density 19.608740000000001
#
# number of rings (size 3 to 8) (size 9 to 14) (size 15 to 20)
#    0.000    1.143    5.714    1.714    4.000    0.571 
#    5.143    0.000    0.000    6.000    0.000    0.000 
#    0.000    0.000    0.000    0.000    0.000    0.000 
#
# Total GULP energy -694061.239624 kJ/mol
# GULP energy per Si atom -12393.950708 kJ/mol
# Density = 1.956411 g / cm^3
# Si number density = 19.608740 Si / 1000 Ang^3
#
#
#
# Elastic Constant Matrix: (Units=GPa)
#
#
# Indices 1 2 3 4 5 6 
#
# 1 131.0758 51.8447 25.4260 0.0000 0.0000 0.0000
# 2 51.8447 138.2510 32.7335 0.0000 0.0000 0.0000
# 3 25.4260 32.7335 40.3436 0.0000 0.0000 0.0000
# 4 0.0000 0.0000 0.0000 16.2427 0.0000 0.0000
# 5 0.0000 0.0000 0.0000 0.0000 9.2397 0.0000
# 6 0.0000 0.0000 0.0000 0.0000 0.0000 36.5532
#
#
#
# Elastic Compliance Matrix: (Units=1/GPa)
#
#
# Indices 1 2 3 4 5 6 
#
# 1 0.009405 -0.002628 -0.003795 0.000000 0.000000 0.000000
# 2 -0.002628 0.009688 -0.006204 0.000000 0.000000 0.000000
# 3 -0.003795 -0.006204 0.032212 0.000000 0.000000 0.000000
# 4 0.000000 0.000000 0.000000 0.061566 0.000000 0.000000
# 5 0.000000 0.000000 0.000000 0.000000 0.108229 0.000000
# 6 0.000000 0.000000 0.000000 0.000000 0.000000 0.027357
#
#
# Mechanical properties :
#
#
# Convention : Reuss Voigt Hill
#
# Bulk Modulus (GPa) = 38.38620 58.85320 48.61970
# Shear Modulus (GPa) = 17.70569 25.71819 21.71194
#
# Velocity S-wave (km/s) = 3.00817 3.62549 3.33116
# Velocity P-wave (km/s) = 5.62886 6.89960 6.29637
#
# Compressibility (1/GPa) = 0.02605103
#
# Stress axis : x y z
#
# Youngs Moduli (GPa) = 106.32767 103.22306 31.04409
#
# Poissons Ratio (x) = 0.27131 0.11780
# Poissons Ratio (y) = 0.27947 0.19259
# Poissons Ratio (z) = 0.40348 0.64038
#
# Static dielectric constant tensor:
#      x y z
#    x 3.996100 0.000000 0.000000 
#    y 0.000000 4.038540 0.000000 
#    z 0.000000 0.000000 2.861720 
# 
# 
# High freq. dielectric constant tensor:
#      x y z
#    x 1.790990 0.000000 0.000000 
#    y 0.000000 1.783590 0.000000 
#    z 0.000000 0.000000 1.673910 
# 
# From -- ./inp_files/36805.got.cif
#   From: 2010.06.25/outbox.cif.g09.slc.cpg/sg52_19_cif.got.tgz:36805.got - 2010.06.26 19:32:48.
