data_PCOD8215017
_publ_section_title
;
Structure prediction by ZEFSAII (Michael W. Deem and Ramdas Pophale) SiO2 
 PCOD8215017
Probable space group: P N N A
;
_chemical_formula_sum "Si O2"
_cell_formula_units_Z 64
_cell_length_a 19.389324
_cell_length_b 19.253041
_cell_length_c 10.041825
_cell_angle_alpha 90.000000
_cell_angle_beta 90.000000
_cell_angle_gamma 90.000000
_cell_volume 3748.647916
_symmetry_space_group_name_H-M "P N N A"
_symmetry_group_IT_number 52
_symmetry_cell_setting 'orthorhombic'
loop_
_space_group_symop_operation_xyz
x,y,z
1/2-x,-y,z
x,1/2-y,1/2-z
1/2-x,1/2+y,1/2-z
-x,-y,-z
1/2+x,y,-z
-x,1/2+y,1/2+z
1/2+x,1/2-y,1/2+z
loop_
_atom_site_type_symbol
_atom_site_label
_atom_site_fract_x
_atom_site_fract_y
_atom_site_fract_z
Si Si1 0.133220 0.636195 0.277338
Si Si2 0.024122 0.720761 0.615652
Si Si3 0.576986 0.201167 0.129476
Si Si4 0.057271 0.568477 0.611588
Si Si5 0.995630 0.932524 0.170148
Si Si6 0.644248 0.766024 0.546474
Si Si7 0.293333 0.069797 0.991100
Si Si8 0.263361 0.790716 0.885836
O O1 0.066529 0.587472 0.255872
O O2 0.112415 0.702322 0.367542
O O3 0.153636 0.663184 0.130828
O O4 0.194938 0.596556 0.355746
O O5 0.989403 0.750000 0.750000
O O6 0.054127 0.646554 0.664819
O O7 0.088646 0.770667 0.572943
O O8 0.967757 0.718081 0.500308
O O9 0.554244 0.250000 0.250000
O O10 0.564501 0.124379 0.190213
O O11 0.655629 0.212946 0.086167
O O12 0.006444 0.566167 0.487119
O O13 0.134277 0.548588 0.571427
O O14 0.030635 0.509269 0.716172
O O15 0.721655 0.750108 0.499508
O O16 0.250000 0.000000 0.996995
O O17 0.259032 0.128141 0.894976
O O18 0.245110 0.750000 0.750000
#
# Coordination Sequence:
#
# PCOD8215017 Si02
#       8
#     8   8   8   8   8   8   8   8
#     4   9  17  30  52  77  98 139 178 213 266 318
#     4  11  20  33  53  81 107 136 174 225 269 319
#     4  10  19  33  52  75 104 136 173 215 269 322
#     4   9  17  28  47  74 103 130 165 214 268 304
#     4   9  15  28  49  73  99 127 167 214 255 309
#     4  10  17  32  53  75 103 136 180 217 255 325
#     4  10  18  31  49  78 106 133 179 224 269 314
#     4  10  20  33  52  79 104 138 178 222 271 323
#
# _framework density 17.072821999999999
#
# number of rings (size 3 to 8) (size 9 to 14) (size 15 to 20)
#    0.000    2.250    5.000    1.875    0.000    1.000 
#    4.500    0.000    0.000    3.750    0.000    0.000 
#    0.000    0.000    0.000    0.000    0.000    0.000 
#
# Total GULP energy -792889.032028 kJ/mol
# GULP energy per Si atom -12388.891125 kJ/mol
# Density = 1.703396 g / cm^3
# Si number density = 17.072822 Si / 1000 Ang^3
#
#
#
# Elastic Constant Matrix: (Units=GPa)
#
#
# Indices 1 2 3 4 5 6 
#
# 1 92.7155 51.2984 41.1278 0.0000 0.0000 0.0000
# 2 51.2984 120.6041 58.9884 0.0000 0.0000 0.0000
# 3 41.1278 58.9884 70.2887 0.0000 0.0000 0.0000
# 4 0.0000 0.0000 0.0000 21.2310 0.0000 0.0000
# 5 0.0000 0.0000 0.0000 0.0000 18.1298 0.0000
# 6 0.0000 0.0000 0.0000 0.0000 0.0000 14.4993
#
#
#
# Elastic Compliance Matrix: (Units=1/GPa)
#
#
# Indices 1 2 3 4 5 6 
#
# 1 0.015459 -0.003649 -0.005983 0.000000 0.000000 0.000000
# 2 -0.003649 0.014926 -0.010391 0.000000 0.000000 0.000000
# 3 -0.005983 -0.010391 0.026449 0.000000 0.000000 0.000000
# 4 0.000000 0.000000 0.000000 0.047101 0.000000 0.000000
# 5 0.000000 0.000000 0.000000 0.000000 0.055158 0.000000
# 6 0.000000 0.000000 0.000000 0.000000 0.000000 0.068969
#
#
# Mechanical properties :
#
#
# Convention : Reuss Voigt Hill
#
# Bulk Modulus (GPa) = 59.57063 65.15974 62.36518
# Shear Modulus (GPa) = 18.26795 19.58492 18.92644
#
# Velocity S-wave (km/s) = 3.27464 3.39062 3.33313
# Velocity P-wave (km/s) = 7.01894 7.31963 7.17086
#
# Compressibility (1/GPa) = 0.01678680
#
# Stress axis : x y z
#
# Youngs Moduli (GPa) = 64.68905 66.99644 37.80917
#
# Poissons Ratio (x) = 0.24447 0.22621
# Poissons Ratio (y) = 0.23605 0.39289
# Poissons Ratio (z) = 0.38703 0.69619
#
# Static dielectric constant tensor:
#      x y z
#    x 3.125250 0.000000 0.000000 
#    y 0.000000 3.573780 0.000000 
#    z 0.000000 0.000000 2.977820 
# 
# 
# High freq. dielectric constant tensor:
#      x y z
#    x 1.660010 0.000000 0.000000 
#    y 0.000000 1.659420 0.000000 
#    z 0.000000 0.000000 1.622010 
# 
# From -- ./inp_files/13671.got.cif
#   From: 2010.06.25/outbox.cif.g09.slc.cpg/sg52_7_cif.got.tgz:13671.got - 2010.06.26 19:32:48.
