data_PCOD8215432
_publ_section_title
;
Structure prediction by ZEFSAII (Michael W. Deem and Ramdas Pophale) SiO2 
 PCOD8215432
Probable space group: P N N A
;
_chemical_formula_sum "Si O2"
_cell_formula_units_Z 64
_cell_length_a 8.714894
_cell_length_b 17.637991
_cell_length_c 20.596094
_cell_angle_alpha 90.000000
_cell_angle_beta 90.000000
_cell_angle_gamma 90.000000
_cell_volume 3165.891968
_symmetry_space_group_name_H-M "P N N A"
_symmetry_group_IT_number 52
_symmetry_cell_setting 'orthorhombic'
loop_
_space_group_symop_operation_xyz
x,y,z
1/2-x,-y,z
x,1/2-y,1/2-z
1/2-x,1/2+y,1/2-z
-x,-y,-z
1/2+x,y,-z
-x,1/2+y,1/2+z
1/2+x,1/2-y,1/2+z
loop_
_atom_site_type_symbol
_atom_site_label
_atom_site_fract_x
_atom_site_fract_y
_atom_site_fract_z
Si Si1 0.020273 0.729596 0.406587
Si Si2 0.920873 0.026863 0.332399
Si Si3 0.963092 0.195904 0.189787
Si Si4 0.336314 0.925472 0.236864
Si Si5 0.626664 0.169686 0.215229
Si Si6 0.539034 0.824737 0.414166
Si Si7 0.568340 0.882545 0.672909
Si Si8 0.724378 0.230400 0.509982
O O1 0.979320 0.670123 0.349919
O O2 0.883343 0.726078 0.459133
O O3 0.042218 0.812748 0.374743
O O4 0.178578 0.710222 0.444608
O O5 0.000978 0.048785 0.265153
O O6 0.918976 0.100492 0.376559
O O7 0.750000 0.000000 0.319192
O O8 0.024410 0.959861 0.365469
O O9 0.999642 0.250000 0.250000
O O10 0.803116 0.149863 0.199333
O O11 0.109374 0.137655 0.183705
O O12 0.943621 0.247087 0.126390
O O13 0.238096 0.885739 0.295145
O O14 0.250000 0.000000 0.207264
O O15 0.620664 0.250000 0.250000
O O16 0.551963 0.112614 0.266335
O O17 0.656398 0.822968 0.473512
O O18 0.368047 0.826441 0.442840
#
# Coordination Sequence:
#
# PCOD8215432 Si02
#       8
#     8   8   8   8   8   8   8   8
#     4  10  19  36  52  79 116 151 203 250 301 350
#     4  11  21  36  57  78 121 157 197 244 314 363
#     4  11  20  34  62  86 117 150 207 249 328 376
#     4  10  22  36  53  92 124 153 192 245 318 392
#     4   9  19  33  56  85 112 147 196 253 316 373
#     4  11  22  39  57  84 117 165 206 265 299 359
#     4  10  21  35  56  82 117 154 195 251 315 370
#     4  10  22  36  54  78 119 157 213 256 288 357
#
# _framework density 20.215471000000001
#
# number of rings (size 3 to 8) (size 9 to 14) (size 15 to 20)
#    0.000    1.750    2.500    2.250    3.500    0.500 
#    0.000    6.875    0.000    0.000    0.000    0.875 
#    0.000    0.000    0.000    0.000    0.000    0.000 
#
# Total GULP energy -792988.019593 kJ/mol
# GULP energy per Si atom -12390.437806 kJ/mol
# Density = 2.016946 g / cm^3
# Si number density = 20.215471 Si / 1000 Ang^3
#
#
#
# Elastic Constant Matrix: (Units=GPa)
#
#
# Indices 1 2 3 4 5 6 
#
# 1 137.2654 31.0913 44.8334 0.0000 0.0000 0.0000
# 2 31.0913 50.2117 26.9515 0.0000 0.0000 0.0000
# 3 44.8334 26.9515 73.3536 0.0000 0.0000 0.0000
# 4 0.0000 0.0000 0.0000 7.7975 0.0000 0.0000
# 5 0.0000 0.0000 0.0000 0.0000 25.6140 0.0000
# 6 0.0000 0.0000 0.0000 0.0000 0.0000 28.6765
#
#
#
# Elastic Compliance Matrix: (Units=1/GPa)
#
#
# Indices 1 2 3 4 5 6 
#
# 1 0.009564 -0.003468 -0.004571 0.000000 0.000000 0.000000
# 2 -0.003468 0.026066 -0.007457 0.000000 0.000000 0.000000
# 3 -0.004571 -0.007457 0.019166 0.000000 0.000000 0.000000
# 4 0.000000 0.000000 0.000000 0.128246 0.000000 0.000000
# 5 0.000000 0.000000 0.000000 0.000000 0.039041 0.000000
# 6 0.000000 0.000000 0.000000 0.000000 0.000000 0.034872
#
#
# Mechanical properties :
#
#
# Convention : Reuss Voigt Hill
#
# Bulk Modulus (GPa) = 42.01190 51.84259 46.92724
# Shear Modulus (GPa) = 16.89859 22.94788 19.92323
#
# Velocity S-wave (km/s) = 2.89437 3.37288 3.14274
# Velocity P-wave (km/s) = 5.65659 6.39289 6.03598
#
# Compressibility (1/GPa) = 0.02380278
#
# Stress axis : x y z
#
# Youngs Moduli (GPa) = 104.56169 38.36403 52.17490
#
# Poissons Ratio (x) = 0.13306 0.23849
# Poissons Ratio (y) = 0.36266 0.38908
# Poissons Ratio (z) = 0.47795 0.28609
#
# Static dielectric constant tensor:
#      x y z
#    x 4.098710 0.000000 0.000000 
#    y 0.000000 3.604100 0.000000 
#    z 0.000000 0.000000 3.713930 
# 
# 
# High freq. dielectric constant tensor:
#      x y z
#    x 1.819070 0.000000 0.000000 
#    y 0.000000 1.752550 0.000000 
#    z 0.000000 0.000000 1.768230 
# 
# From -- ./inp_files/36192.got.cif
#   From: 2010.06.25/outbox.cif.g09.slc.cpg/sg52_19_cif.got.tgz:36192.got - 2010.06.26 19:32:48.
