data_PCOD8215392
_publ_section_title
;
Structure prediction by ZEFSAII (Michael W. Deem and Ramdas Pophale) SiO2 
 PCOD8215392
Probable space group: P N N A
;
_chemical_formula_sum "Si O2"
_cell_formula_units_Z 36
_cell_length_a 12.118040
_cell_length_b 9.003979
_cell_length_c 19.382047
_cell_angle_alpha 90.000000
_cell_angle_beta 90.000000
_cell_angle_gamma 90.000000
_cell_volume 2114.786345
_symmetry_space_group_name_H-M "P N N A"
_symmetry_group_IT_number 52
_symmetry_cell_setting 'orthorhombic'
loop_
_space_group_symop_operation_xyz
x,y,z
1/2-x,-y,z
x,1/2-y,1/2-z
1/2-x,1/2+y,1/2-z
-x,-y,-z
1/2+x,y,-z
-x,1/2+y,1/2+z
1/2+x,1/2-y,1/2+z
loop_
_atom_site_type_symbol
_atom_site_label
_atom_site_fract_x
_atom_site_fract_y
_atom_site_fract_z
Si Si1 0.750000 0.000000 0.043591
Si Si2 0.367380 0.243540 0.048026
Si Si3 0.750000 0.500000 0.029581
Si Si4 0.019650 0.250000 0.750000
Si Si5 0.689707 0.649929 0.693536
Si Si6 0.390863 0.743524 0.897201
O O1 0.676693 0.103998 0.093094
O O2 0.829660 0.101937 0.996841
O O3 0.310621 0.239360 0.122513
O O4 0.498817 0.240504 0.057365
O O5 0.330879 0.399465 0.016084
O O6 0.675185 0.397807 0.077040
O O7 0.092967 0.292171 0.815914
O O8 0.935265 0.380474 0.723130
O O9 0.750000 0.500000 0.679097
O O10 0.755148 0.750000 0.750000
#
# Coordination Sequence:
#
# PCOD8215392 Si02
#       6
#     4   8   4   4   8   8
#     4  10  20  33  57  78 102 144 180 216 270 312
#     4  10  19  35  54  82 108 138 176 226 263 320
#     4  10  22  33  57  82 108 148 178 220 276 314
#     4   8  20  34  58  72 110 140 174 226 262 312
#     4   9  18  32  54  76 108 138 174 213 274 318
#     4  10  20  37  53  77 109 141 183 221 265 313
#
# _framework density 17.022997
#
# number of rings (size 3 to 8) (size 9 to 14) (size 15 to 20)
#    0.667    1.778    1.111    1.333    1.556    0.889 
#    0.000    0.000    9.778    0.000    0.000    0.000 
#    0.000    0.000    0.000    0.000    0.000    0.000 
#
# Total GULP energy -446049.266298 kJ/mol
# GULP energy per Si atom -12390.257397 kJ/mol
# Density = 1.698425 g / cm^3
# Si number density = 17.022997 Si / 1000 Ang^3
#
#
#
# Elastic Constant Matrix: (Units=GPa)
#
#
# Indices 1 2 3 4 5 6 
#
# 1 100.4409 56.5276 54.6502 0.0000 0.0000 0.0000
# 2 56.5276 113.4681 53.9155 0.0000 0.0000 0.0000
# 3 54.6502 53.9155 127.5985 0.0000 0.0000 0.0000
# 4 0.0000 0.0000 0.0000 13.4298 0.0000 0.0000
# 5 0.0000 0.0000 0.0000 0.0000 24.0285 0.0000
# 6 0.0000 0.0000 0.0000 0.0000 0.0000 25.5875
#
#
#
# Elastic Compliance Matrix: (Units=1/GPa)
#
#
# Indices 1 2 3 4 5 6 
#
# 1 0.015454 -0.005698 -0.004211 0.000000 0.000000 0.000000
# 2 -0.005698 0.013128 -0.003107 0.000000 0.000000 0.000000
# 3 -0.004211 -0.003107 0.010953 0.000000 0.000000 0.000000
# 4 0.000000 0.000000 0.000000 0.074461 0.000000 0.000000
# 5 0.000000 0.000000 0.000000 0.000000 0.041617 0.000000
# 6 0.000000 0.000000 0.000000 0.000000 0.000000 0.039082
#
#
# Mechanical properties :
#
#
# Convention : Reuss Voigt Hill
#
# Bulk Modulus (GPa) = 74.05410 74.63267 74.34338
# Shear Modulus (GPa) = 22.19962 24.37010 23.28486
#
# Velocity S-wave (km/s) = 3.61514 3.78775 3.70245
# Velocity P-wave (km/s) = 7.81169 7.94146 7.87685
#
# Compressibility (1/GPa) = 0.01350364
#
# Stress axis : x y z
#
# Youngs Moduli (GPa) = 64.70679 76.17435 91.29504
#
# Poissons Ratio (x) = 0.43404 0.38448
# Poissons Ratio (y) = 0.36869 0.28362
# Poissons Ratio (z) = 0.27251 0.23664
#
# Static dielectric constant tensor:
#      x y z
#    x 3.171650 0.000000 0.000000 
#    y 0.000000 3.052770 0.000000 
#    z 0.000000 0.000000 3.265890 
# 
# 
# High freq. dielectric constant tensor:
#      x y z
#    x 1.652490 0.000000 0.000000 
#    y 0.000000 1.646440 0.000000 
#    z 0.000000 0.000000 1.668560 
# 
# From -- ./inp_files/32834.got.cif
#   From: 2010.06.25/outbox.cif.g09.slc.cpg/sg52_17_cif.got.tgz:32834.got - 2010.06.26 19:32:48.
