data_PCOD8215115
_publ_section_title
;
Structure prediction by ZEFSAII (Michael W. Deem and Ramdas Pophale) SiO2 
 PCOD8215115
Probable space group: P N N A
;
_chemical_formula_sum "Si O2"
_cell_formula_units_Z 40
_cell_length_a 9.055709
_cell_length_b 8.281592
_cell_length_c 27.530055
_cell_angle_alpha 90.000000
_cell_angle_beta 90.000000
_cell_angle_gamma 90.000000
_cell_volume 2064.635394
_symmetry_space_group_name_H-M "P N N A"
_symmetry_group_IT_number 52
_symmetry_cell_setting 'orthorhombic'
loop_
_space_group_symop_operation_xyz
x,y,z
1/2-x,-y,z
x,1/2-y,1/2-z
1/2-x,1/2+y,1/2-z
-x,-y,-z
1/2+x,y,-z
-x,1/2+y,1/2+z
1/2+x,1/2-y,1/2+z
loop_
_atom_site_type_symbol
_atom_site_label
_atom_site_fract_x
_atom_site_fract_y
_atom_site_fract_z
Si Si1 0.093160 0.562350 0.242582
Si Si2 0.570809 0.847568 0.639450
Si Si3 0.086360 0.049879 0.452689
Si Si4 0.844376 0.844452 0.896859
Si Si5 0.922322 0.522981 0.333820
O O1 0.250000 0.500000 0.261788
O O2 0.097609 0.750000 0.250000
O O3 0.066885 0.528819 0.185440
O O4 0.964307 0.491772 0.277150
O O5 0.736676 0.776427 0.633028
O O6 0.456307 0.703556 0.648160
O O7 0.520595 0.950658 0.593022
O O8 0.086115 0.243219 0.441921
O O9 0.250000 0.000000 0.464343
O O10 0.000000 0.000000 0.500000
O O11 0.750000 0.000000 0.915213
O O12 0.982605 0.896024 0.864422
O O13 0.750000 0.500000 0.341887
#
# Coordination Sequence:
#
# PCOD8215115 Si02
#       5
#     8   8   8   8   8
#     4  10  18  32  54  77 103 141 182 214 253 313
#     4   9  19  37  55  76 106 144 184 220 260 324
#     4  10  21  38  58  81 107 136 177 227 275 324
#     4   9  18  37  60  78 105 144 185 221 262 324
#     4  10  20  34  52  80 113 141 175 224 274 319
#
# _framework density 19.37388
#
# number of rings (size 3 to 8) (size 9 to 14) (size 15 to 20)
#    0.000    2.400    0.000    4.800    0.000    1.600 
#    0.000   26.000    0.000    0.000    0.000    0.000 
#    0.000    0.000    0.000    0.000    0.000    0.000 
#
# Total GULP energy -495759.857577 kJ/mol
# GULP energy per Si atom -12393.996439 kJ/mol
# Density = 1.932978 g / cm^3
# Si number density = 19.373880 Si / 1000 Ang^3
#
#
#
# Elastic Constant Matrix: (Units=GPa)
#
#
# Indices 1 2 3 4 5 6 
#
# 1 115.0383 43.5301 60.5370 0.0000 0.0000 0.0000
# 2 43.5301 88.2795 67.4631 0.0000 0.0000 0.0000
# 3 60.5370 67.4631 159.0130 0.0000 0.0000 0.0000
# 4 0.0000 0.0000 0.0000 22.8737 0.0000 0.0000
# 5 0.0000 0.0000 0.0000 0.0000 20.0173 0.0000
# 6 0.0000 0.0000 0.0000 0.0000 0.0000 21.2543
#
#
#
# Elastic Compliance Matrix: (Units=1/GPa)
#
#
# Indices 1 2 3 4 5 6 
#
# 1 0.011540 -0.003452 -0.002929 0.000000 0.000000 0.000000
# 2 -0.003452 0.017795 -0.006235 0.000000 0.000000 0.000000
# 3 -0.002929 -0.006235 0.010049 0.000000 0.000000 0.000000
# 4 0.000000 0.000000 0.000000 0.043718 0.000000 0.000000
# 5 0.000000 0.000000 0.000000 0.000000 0.049957 0.000000
# 6 0.000000 0.000000 0.000000 0.000000 0.000000 0.047049
#
#
# Mechanical properties :
#
#
# Convention : Reuss Voigt Hill
#
# Bulk Modulus (GPa) = 70.66339 78.37679 74.52009
# Shear Modulus (GPa) = 23.80279 25.54909 24.67594
#
# Velocity S-wave (km/s) = 3.50894 3.63538 3.57272
# Velocity P-wave (km/s) = 7.27802 7.62654 7.45432
#
# Compressibility (1/GPa) = 0.01415160
#
# Stress axis : x y z
#
# Youngs Moduli (GPa) = 86.65276 56.19516 99.50972
#
# Poissons Ratio (x) = 0.19400 0.29144
# Poissons Ratio (y) = 0.29915 0.62049
# Poissons Ratio (z) = 0.25379 0.35040
#
# Static dielectric constant tensor:
#      x y z
#    x 3.307480 0.000000 0.000000 
#    y 0.000000 3.826410 0.000000 
#    z 0.000000 0.000000 4.009750 
# 
# 
# High freq. dielectric constant tensor:
#      x y z
#    x 1.733320 0.000000 0.000000 
#    y 0.000000 1.760160 0.000000 
#    z 0.000000 0.000000 1.747340 
# 
# From -- ./inp_files/42125.got.cif
#   From: 2010.06.25/outbox.cif.g09.slc.cpg/sg52_22_cif.got.tgz:42125.got - 2010.06.26 19:32:48.
