data_PCOD8215633
_publ_section_title
;
Structure prediction by ZEFSAII (Michael W. Deem and Ramdas Pophale) SiO2 
 PCOD8215633
Probable space group: P N N A
;
_chemical_formula_sum "Si O2"
_cell_formula_units_Z 52
_cell_length_a 8.605708
_cell_length_b 12.116139
_cell_length_c 25.836133
_cell_angle_alpha 90.000000
_cell_angle_beta 90.000000
_cell_angle_gamma 90.000000
_cell_volume 2693.880735
_symmetry_space_group_name_H-M "P N N A"
_symmetry_group_IT_number 52
_symmetry_cell_setting 'orthorhombic'
loop_
_space_group_symop_operation_xyz
x,y,z
1/2-x,-y,z
x,1/2-y,1/2-z
1/2-x,1/2+y,1/2-z
-x,-y,-z
1/2+x,y,-z
-x,1/2+y,1/2+z
1/2+x,1/2-y,1/2+z
loop_
_atom_site_type_symbol
_atom_site_label
_atom_site_fract_x
_atom_site_fract_y
_atom_site_fract_z
Si Si1 0.942336 0.374193 0.554634
Si Si2 0.081800 0.234885 0.845925
Si Si3 0.065106 0.696682 0.656191
Si Si4 0.422423 0.869624 0.054361
Si Si5 0.347128 0.750000 0.250000
Si Si6 0.631963 0.919273 0.701510
Si Si7 0.917985 0.518544 0.284154
O O1 0.760542 0.350165 0.556476
O O2 0.972502 0.503692 0.562908
O O3 0.033770 0.306404 0.597794
O O4 0.011013 0.330817 0.500564
O O5 0.267200 0.257250 0.843526
O O6 0.046484 0.142188 0.803315
O O7 0.980358 0.344149 0.833768
O O8 0.071119 0.565954 0.668094
O O9 0.995115 0.707626 0.598817
O O10 0.952908 0.748920 0.698757
O O11 0.233084 0.852735 0.256677
O O12 0.531987 0.004486 0.736495
O O13 0.750000 0.000000 0.668778
O O14 0.750000 0.500000 0.259185
#
# Coordination Sequence:
#
# PCOD8215633 Si02
#       7
#     8   8   8   8   4   8   8
#     4  10  20  34  56  84 115 155 191 243 299 373
#     4  11  22  37  57  82 119 160 199 244 305 361
#     4  11  23  36  56  85 119 157 195 244 300 367
#     4  10  20  34  55  83 119 149 195 240 305 364
#     4  12  24  36  56  84 116 156 204 240 294 356
#     4  12  24  38  57  83 121 160 209 250 297 361
#     4  10  21  35  56  81 119 157 196 242 300 359
#
# _framework density 19.303007999999998
#
# number of rings (size 3 to 8) (size 9 to 14) (size 15 to 20)
#    0.000    1.231    4.615    1.846    4.308    1.231 
#    0.000    0.000    0.000    0.000    0.000    9.692 
#    0.000    0.000    0.000    0.154    0.000    0.154 
#
# Total GULP energy -644480.908011 kJ/mol
# GULP energy per Si atom -12393.863616 kJ/mol
# Density = 1.925907 g / cm^3
# Si number density = 19.303008 Si / 1000 Ang^3
#
#
#
# Elastic Constant Matrix: (Units=GPa)
#
#
# Indices 1 2 3 4 5 6 
#
# 1 116.3861 40.0895 67.6600 0.0000 0.0000 0.0000
# 2 40.0895 55.2500 24.2337 0.0000 0.0000 0.0000
# 3 67.6600 24.2337 120.2737 0.0000 0.0000 0.0000
# 4 0.0000 0.0000 0.0000 22.2430 0.0000 0.0000
# 5 0.0000 0.0000 0.0000 0.0000 36.7222 0.0000
# 6 0.0000 0.0000 0.0000 0.0000 0.0000 35.6551
#
#
#
# Elastic Compliance Matrix: (Units=1/GPa)
#
#
# Indices 1 2 3 4 5 6 
#
# 1 0.015522 -0.008153 -0.007089 0.000000 0.000000 0.000000
# 2 -0.008153 0.024137 -0.000277 0.000000 0.000000 0.000000
# 3 -0.007089 -0.000277 0.012358 0.000000 0.000000 0.000000
# 4 0.000000 0.000000 0.000000 0.044958 0.000000 0.000000
# 5 0.000000 0.000000 0.000000 0.000000 0.027232 0.000000
# 6 0.000000 0.000000 0.000000 0.000000 0.000000 0.028046
#
#
# Mechanical properties :
#
#
# Convention : Reuss Voigt Hill
#
# Bulk Modulus (GPa) = 47.66706 61.76403 54.71554
# Shear Modulus (GPa) = 26.27671 29.58584 27.93127
#
# Velocity S-wave (km/s) = 3.69355 3.91923 3.80806
# Velocity P-wave (km/s) = 6.55267 7.24893 6.90958
#
# Compressibility (1/GPa) = 0.02097885
#
# Stress axis : x y z
#
# Youngs Moduli (GPa) = 64.42671 41.43046 80.91941
#
# Poissons Ratio (x) = 0.33779 0.57363
# Poissons Ratio (y) = 0.52528 0.02239
# Poissons Ratio (z) = 0.45671 0.01147
#
# Static dielectric constant tensor:
#      x y z
#    x 3.853920 0.000000 0.000000 
#    y 0.000000 3.389410 0.000000 
#    z 0.000000 0.000000 3.355340 
# 
# 
# High freq. dielectric constant tensor:
#      x y z
#    x 1.781440 0.000000 0.000000 
#    y 0.000000 1.714320 0.000000 
#    z 0.000000 0.000000 1.734760 
# 
# From -- ./inp_files/39590.got.cif
#   From: 2010.06.25/outbox.cif.g09.slc.cpg/sg52_20_cif.got.tgz:39590.got - 2010.06.26 19:32:48.
