data_PCOD8215297
_publ_section_title
;
Structure prediction by ZEFSAII (Michael W. Deem and Ramdas Pophale) SiO2 
 PCOD8215297
Probable space group: P N N A
;
_chemical_formula_sum "Si O2"
_cell_formula_units_Z 36
_cell_length_a 20.370704
_cell_length_b 8.097874
_cell_length_c 9.963960
_cell_angle_alpha 90.000000
_cell_angle_beta 90.000000
_cell_angle_gamma 90.000000
_cell_volume 1643.648806
_symmetry_space_group_name_H-M "P N N A"
_symmetry_group_IT_number 52
_symmetry_cell_setting 'orthorhombic'
loop_
_space_group_symop_operation_xyz
x,y,z
1/2-x,-y,z
x,1/2-y,1/2-z
1/2-x,1/2+y,1/2-z
-x,-y,-z
1/2+x,y,-z
-x,1/2+y,1/2+z
1/2+x,1/2-y,1/2+z
loop_
_atom_site_type_symbol
_atom_site_label
_atom_site_fract_x
_atom_site_fract_y
_atom_site_fract_z
Si Si1 0.822358 0.948316 0.607360
Si Si2 0.058187 0.628503 0.997631
Si Si3 0.822020 0.560856 0.587134
Si Si4 0.440351 0.461357 0.595981
Si Si5 0.494178 0.750000 0.750000
O O1 0.829362 0.755832 0.584414
O O2 0.837454 0.000611 0.761301
O O3 0.750000 0.000000 0.564261
O O4 0.872043 0.039018 0.506911
O O5 0.044275 0.737538 0.128368
O O6 0.057400 0.761558 0.873777
O O7 0.000000 0.500000 0.000000
O O8 0.750000 0.500000 0.544540
O O9 0.871602 0.489499 0.478471
O O10 0.500000 0.500000 0.500000
O O11 0.448261 0.582876 0.727031
#
# Coordination Sequence:
#
# PCOD8215297 Si02
#       5
#     8   8   8   8   4
#     4  10  19  32  54  85 117 146 185 236 293 347
#     4  11  22  36  57  86 116 148 188 238 289 343
#     4  10  20  34  55  83 115 151 187 234 290 345
#     4  10  20  36  56  80 111 149 190 233 284 344
#     4  10  22  38  58  80 114 152 190 234 284 346
#
# _framework density 21.902488999999999
#
# number of rings (size 3 to 8) (size 9 to 14) (size 15 to 20)
#    0.000    1.778    0.000    6.667    0.000    6.222 
#    0.000    0.000    0.000    8.000    0.000    0.000 
#    0.000    0.000    0.000    0.000    0.000    0.000 
#
# Total GULP energy -446043.672915 kJ/mol
# GULP energy per Si atom -12390.102025 kJ/mol
# Density = 2.185264 g / cm^3
# Si number density = 21.902489 Si / 1000 Ang^3
#
#
#
# Elastic Constant Matrix: (Units=GPa)
#
#
# Indices 1 2 3 4 5 6 
#
# 1 134.8482 50.8139 22.4856 0.0000 0.0000 0.0000
# 2 50.8139 149.4185 16.4672 0.0000 0.0000 0.0000
# 3 22.4856 16.4672 39.9973 0.0000 0.0000 0.0000
# 4 0.0000 0.0000 0.0000 36.9139 0.0000 0.0000
# 5 0.0000 0.0000 0.0000 0.0000 36.1052 0.0000
# 6 0.0000 0.0000 0.0000 0.0000 0.0000 45.5074
#
#
#
# Elastic Compliance Matrix: (Units=1/GPa)
#
#
# Indices 1 2 3 4 5 6 
#
# 1 0.009083 -0.002646 -0.004017 0.000000 0.000000 0.000000
# 2 -0.002646 0.007782 -0.001716 0.000000 0.000000 0.000000
# 3 -0.004017 -0.001716 0.027966 0.000000 0.000000 0.000000
# 4 0.000000 0.000000 0.000000 0.027090 0.000000 0.000000
# 5 0.000000 0.000000 0.000000 0.000000 0.027697 0.000000
# 6 0.000000 0.000000 0.000000 0.000000 0.000000 0.021974
#
#
# Mechanical properties :
#
#
# Convention : Reuss Voigt Hill
#
# Bulk Modulus (GPa) = 35.62177 55.97751 45.79964
# Shear Modulus (GPa) = 33.85073 39.33846 36.59459
#
# Velocity S-wave (km/s) = 3.93557 4.24261 4.09197
# Velocity P-wave (km/s) = 6.07871 7.04363 6.57889
#
# Compressibility (1/GPa) = 0.02807272
#
# Stress axis : x y z
#
# Youngs Moduli (GPa) = 110.10020 128.50767 35.75734
#
# Poissons Ratio (x) = 0.34005 0.14362
# Poissons Ratio (y) = 0.29134 0.06136
# Poissons Ratio (z) = 0.44223 0.22054
#
# Static dielectric constant tensor:
#      x y z
#    x 3.633420 0.000000 0.000000 
#    y 0.000000 4.789490 0.000000 
#    z 0.000000 0.000000 4.539730 
# 
# 
# High freq. dielectric constant tensor:
#      x y z
#    x 1.859690 0.000000 0.000000 
#    y 0.000000 1.892870 0.000000 
#    z 0.000000 0.000000 1.828240 
# 
# From -- ./inp_files/12924.got.cif
#   From: 2010.06.25/outbox.cif.g09.slc.cpg/sg52_7_cif.got.tgz:12924.got - 2010.06.26 19:32:48.
