data_PCOD8215426
_publ_section_title
;
Structure prediction by ZEFSAII (Michael W. Deem and Ramdas Pophale) SiO2 
 PCOD8215426
Probable space group: P N N A
;
_chemical_formula_sum "Si O2"
_cell_formula_units_Z 40
_cell_length_a 10.402947
_cell_length_b 13.003350
_cell_length_c 13.803624
_cell_angle_alpha 90.000000
_cell_angle_beta 90.000000
_cell_angle_gamma 90.000000
_cell_volume 1867.259850
_symmetry_space_group_name_H-M "P N N A"
_symmetry_group_IT_number 52
_symmetry_cell_setting 'orthorhombic'
loop_
_space_group_symop_operation_xyz
x,y,z
1/2-x,-y,z
x,1/2-y,1/2-z
1/2-x,1/2+y,1/2-z
-x,-y,-z
1/2+x,y,-z
-x,1/2+y,1/2+z
1/2+x,1/2-y,1/2+z
loop_
_atom_site_type_symbol
_atom_site_label
_atom_site_fract_x
_atom_site_fract_y
_atom_site_fract_z
Si Si1 0.367434 0.445594 0.392949
Si Si2 0.973478 0.244516 0.364050
Si Si3 0.228730 0.768695 0.364212
Si Si4 0.872312 0.068783 0.493454
Si Si5 0.882559 0.032060 0.106155
O O1 0.250000 0.500000 0.333128
O O2 0.346834 0.325832 0.412044
O O3 0.501863 0.471175 0.338632
O O4 0.374063 0.507829 0.495004
O O5 0.961712 0.250000 0.250000
O O6 0.892158 0.150282 0.407153
O O7 0.908438 0.347631 0.401524
O O8 0.122260 0.232593 0.395869
O O9 0.212176 0.750000 0.250000
O O10 0.159715 0.872020 0.404568
O O11 0.750000 0.000000 0.464991
O O12 0.000000 0.000000 0.500000
O O13 0.750000 0.000000 0.159967
#
# Coordination Sequence:
#
# PCOD8215426 Si02
#       5
#     8   8   8   8   8
#     4  10  19  35  63  92 120 162 208 266 329 397
#     4  11  24  43  68  99 137 181 232 286 346 423
#     4  11  24  42  70 101 133 180 238 284 336 429
#     4  12  26  46  72 101 144 192 235 288 360 426
#     4  10  21  35  62  94 126 159 205 272 344 393
#
# _framework density 21.421762999999999
#
# number of rings (size 3 to 8) (size 9 to 14) (size 15 to 20)
#    0.000    1.200    6.000    0.000    0.000    4.800 
#    0.000    2.000    0.000    0.000    0.000    0.000 
#    0.000    0.000    0.000    0.000    0.000    0.000 
#
# Total GULP energy -495690.541930 kJ/mol
# GULP energy per Si atom -12392.263548 kJ/mol
# Density = 2.137301 g / cm^3
# Si number density = 21.421763 Si / 1000 Ang^3
#
#
#
# Elastic Constant Matrix: (Units=GPa)
#
#
# Indices 1 2 3 4 5 6 
#
# 1 224.5045 98.1810 40.9991 0.0000 0.0000 0.0000
# 2 98.1810 154.8916 35.0032 0.0000 0.0000 0.0000
# 3 40.9991 35.0032 55.0583 0.0000 0.0000 0.0000
# 4 0.0000 0.0000 0.0000 10.1452 0.0000 0.0000
# 5 0.0000 0.0000 0.0000 0.0000 20.6822 0.0000
# 6 0.0000 0.0000 0.0000 0.0000 0.0000 55.3137
#
#
#
# Elastic Compliance Matrix: (Units=1/GPa)
#
#
# Indices 1 2 3 4 5 6 
#
# 1 0.006461 -0.003513 -0.002578 0.000000 0.000000 0.000000
# 2 -0.003513 0.009449 -0.003391 0.000000 0.000000 0.000000
# 3 -0.002578 -0.003391 0.022238 0.000000 0.000000 0.000000
# 4 0.000000 0.000000 0.000000 0.098569 0.000000 0.000000
# 5 0.000000 0.000000 0.000000 0.000000 0.048351 0.000000
# 6 0.000000 0.000000 0.000000 0.000000 0.000000 0.018079
#
#
# Mechanical properties :
#
#
# Convention : Reuss Voigt Hill
#
# Bulk Modulus (GPa) = 52.12652 86.98011 69.55332
# Shear Modulus (GPa) = 21.88112 34.57963 28.23038
#
# Velocity S-wave (km/s) = 3.19947 4.02211 3.63414
# Velocity P-wave (km/s) = 6.16726 7.89060 7.08155
#
# Compressibility (1/GPa) = 0.01918409
#
# Stress axis : x y z
#
# Youngs Moduli (GPa) = 154.76487 105.82715 44.96732
#
# Poissons Ratio (x) = 0.37178 0.11593
# Poissons Ratio (y) = 0.54370 0.15250
# Poissons Ratio (z) = 0.39899 0.35890
#
# Static dielectric constant tensor:
#      x y z
#    x 4.585680 0.000000 0.000000 
#    y 0.000000 3.986160 0.000000 
#    z 0.000000 0.000000 2.273890 
# 
# 
# High freq. dielectric constant tensor:
#      x y z
#    x 1.862650 0.000000 0.000000 
#    y 0.000000 1.847990 0.000000 
#    z 0.000000 0.000000 1.803520 
# 
# From -- ./inp_files/24437.got.cif
#   From: 2010.06.25/outbox.cif.g09.slc.cpg/sg52_13_cif.got.tgz:24437.got - 2010.06.26 19:32:48.
