data_PCOD8215393
_publ_section_title
;
Structure prediction by ZEFSAII (Michael W. Deem and Ramdas Pophale) SiO2 
 PCOD8215393
Probable space group: P N N A
;
_chemical_formula_sum "Si O2"
_cell_formula_units_Z 52
_cell_length_a 18.987113
_cell_length_b 12.856938
_cell_length_c 11.114669
_cell_angle_alpha 90.000000
_cell_angle_beta 90.000000
_cell_angle_gamma 90.000000
_cell_volume 2713.270034
_symmetry_space_group_name_H-M "P N N A"
_symmetry_group_IT_number 52
_symmetry_cell_setting 'orthorhombic'
loop_
_space_group_symop_operation_xyz
x,y,z
1/2-x,-y,z
x,1/2-y,1/2-z
1/2-x,1/2+y,1/2-z
-x,-y,-z
1/2+x,y,-z
-x,1/2+y,1/2+z
1/2+x,1/2-y,1/2+z
loop_
_atom_site_type_symbol
_atom_site_label
_atom_site_fract_x
_atom_site_fract_y
_atom_site_fract_z
Si Si1 0.505659 0.288831 0.871234
Si Si2 0.814549 0.572268 0.561634
Si Si3 0.490957 0.250000 0.250000
Si Si4 0.956868 0.897947 0.044438
Si Si5 0.599482 0.636908 0.946354
Si Si6 0.139694 0.072325 0.327455
Si Si7 0.740199 0.721018 0.883466
O O1 0.467977 0.250000 0.750000
O O2 0.525871 0.190675 0.949773
O O3 0.577054 0.345561 0.832423
O O4 0.448685 0.363582 0.934760
O O5 0.750000 0.500000 0.522783
O O6 0.875370 0.566681 0.461299
O O7 0.847077 0.536216 0.690033
O O8 0.787513 0.689454 0.561333
O O9 0.532131 0.343086 0.323600
O O10 0.443836 0.313186 0.159856
O O11 0.000000 0.000000 0.000000
O O12 0.619082 0.520484 0.914165
O O13 0.671635 0.701650 0.965914
O O14 0.212300 0.118201 0.378151
O O15 0.713752 0.750000 0.750000
#
# Coordination Sequence:
#
# PCOD8215393 Si02
#       7
#     8   8   4   8   8   8   8
#     4  11  22  40  59  88 124 162 205 259 318 380
#     4  11  22  35  64  91 125 162 203 268 325 377
#     4  10  24  38  60  96 126 168 216 258 306 386
#     4  11  23  41  65  92 129 169 215 264 316 390
#     4  11  22  35  61  90 121 158 210 259 308 385
#     4  11  19  37  58  91 121 158 201 265 333 372
#     4  10  19  35  54  89 125 148 198 257 318 371
#
# _framework density 19.165065999999999
#
# number of rings (size 3 to 8) (size 9 to 14) (size 15 to 20)
#    0.000    1.231    3.846    4.154    4.308    0.000 
#    0.000    0.000    1.692    0.000    0.000    0.000 
#    0.000    0.000    0.000    0.000    0.000    0.000 
#
# Total GULP energy -644472.658961 kJ/mol
# GULP energy per Si atom -12393.704980 kJ/mol
# Density = 1.912145 g / cm^3
# Si number density = 19.165066 Si / 1000 Ang^3
#
#
#
# Elastic Constant Matrix: (Units=GPa)
#
#
# Indices 1 2 3 4 5 6 
#
# 1 131.1155 35.9358 48.5045 0.0000 0.0000 0.0000
# 2 35.9358 89.5550 26.3618 0.0000 0.0000 0.0000
# 3 48.5045 26.3618 81.1757 0.0000 0.0000 0.0000
# 4 0.0000 0.0000 0.0000 29.1307 0.0000 0.0000
# 5 0.0000 0.0000 0.0000 0.0000 30.5949 0.0000
# 6 0.0000 0.0000 0.0000 0.0000 0.0000 32.3370
#
#
#
# Elastic Compliance Matrix: (Units=1/GPa)
#
#
# Indices 1 2 3 4 5 6 
#
# 1 0.010298 -0.002566 -0.005320 0.000000 0.000000 0.000000
# 2 -0.002566 0.012986 -0.002684 0.000000 0.000000 0.000000
# 3 -0.005320 -0.002684 0.016369 0.000000 0.000000 0.000000
# 4 0.000000 0.000000 0.000000 0.034328 0.000000 0.000000
# 5 0.000000 0.000000 0.000000 0.000000 0.032685 0.000000
# 6 0.000000 0.000000 0.000000 0.000000 0.000000 0.030924
#
#
# Mechanical properties :
#
#
# Convention : Reuss Voigt Hill
#
# Bulk Modulus (GPa) = 54.01490 58.16114 56.08802
# Shear Modulus (GPa) = 30.32085 31.14880 30.73483
#
# Velocity S-wave (km/s) = 3.98186 4.03586 4.00895
# Velocity P-wave (km/s) = 7.02749 7.22018 7.12448
#
# Compressibility (1/GPa) = 0.01851341
#
# Stress axis : x y z
#
# Youngs Moduli (GPa) = 97.10297 77.00516 61.08962
#
# Poissons Ratio (x) = 0.19762 0.32500
# Poissons Ratio (y) = 0.24920 0.16395
# Poissons Ratio (z) = 0.51660 0.20666
#
# Static dielectric constant tensor:
#      x y z
#    x 3.859900 0.000000 0.000000 
#    y 0.000000 3.700860 0.000000 
#    z 0.000000 0.000000 3.756090 
# 
# 
# High freq. dielectric constant tensor:
#      x y z
#    x 1.756340 0.000000 0.000000 
#    y 0.000000 1.761190 0.000000 
#    z 0.000000 0.000000 1.709860 
# 
# From -- ./inp_files/20802.got.cif
#   From: 2010.06.25/outbox.cif.g09.slc.cpg/sg52_11_cif.got.tgz:20802.got - 2010.06.26 19:32:48.
