data_PCOD8215754
_publ_section_title
;
Structure prediction by ZEFSAII (Michael W. Deem and Ramdas Pophale) SiO2 
 PCOD8215754
Probable space group: P N N A
;
_chemical_formula_sum "Si O2"
_cell_formula_units_Z 40
_cell_length_a 8.706776
_cell_length_b 10.373938
_cell_length_c 22.718085
_cell_angle_alpha 90.000000
_cell_angle_beta 90.000000
_cell_angle_gamma 90.000000
_cell_volume 2051.978186
_symmetry_space_group_name_H-M "P N N A"
_symmetry_group_IT_number 52
_symmetry_cell_setting 'orthorhombic'
loop_
_space_group_symop_operation_xyz
x,y,z
1/2-x,-y,z
x,1/2-y,1/2-z
1/2-x,1/2+y,1/2-z
-x,-y,-z
1/2+x,y,-z
-x,1/2+y,1/2+z
1/2+x,1/2-y,1/2+z
loop_
_atom_site_type_symbol
_atom_site_label
_atom_site_fract_x
_atom_site_fract_y
_atom_site_fract_z
Si Si1 0.670924 0.861936 0.046489
Si Si2 0.504268 0.750000 0.250000
Si Si3 0.511710 0.750000 0.750000
Si Si4 0.309093 0.642529 0.429401
Si Si5 0.743562 0.146326 0.167703
Si Si6 0.739345 0.142473 0.669570
O O1 0.488324 0.869419 0.054898
O O2 0.743422 0.784845 0.103204
O O3 0.750000 0.000000 0.037080
O O4 0.715703 0.794477 0.984670
O O5 0.607157 0.830728 0.205967
O O6 0.405146 0.852466 0.286517
O O7 0.409464 0.826348 0.796807
O O8 0.611353 0.846054 0.710832
O O9 0.250000 0.500000 0.410257
O O10 0.275656 0.742289 0.376865
O O11 0.750000 0.000000 0.148231
O O12 0.750000 0.000000 0.639964
#
# Coordination Sequence:
#
# PCOD8215754 Si02
#       6
#     8   4   4   8   8   8
#     4  10  21  37  64  92 119 149 209 259 301 353
#     4  10  20  40  58  84 122 160 202 242 302 368
#     4  10  24  36  62  84 122 166 198 244 300 370
#     4  11  23  39  66  91 120 159 207 259 303 359
#     4  10  20  36  62  89 116 150 203 256 302 352
#     4  11  24  40  60  90 127 161 201 246 305 368
#
# _framework density 19.493385
#
# number of rings (size 3 to 8) (size 9 to 14) (size 15 to 20)
#    0.000    1.600    2.000    3.600    8.400    3.200 
#    0.000    1.000    0.000    0.000    0.000    0.000 
#    0.000    0.000    0.000    0.000    0.000    0.000 
#
# Total GULP energy -495586.809947 kJ/mol
# GULP energy per Si atom -12389.670249 kJ/mol
# Density = 1.944902 g / cm^3
# Si number density = 19.493385 Si / 1000 Ang^3
#
#
#
# Elastic Constant Matrix: (Units=GPa)
#
#
# Indices 1 2 3 4 5 6 
#
# 1 136.8164 36.3277 53.3646 0.0000 0.0000 0.0000
# 2 36.3277 90.8130 51.1892 0.0000 0.0000 0.0000
# 3 53.3646 51.1892 144.4984 0.0000 0.0000 0.0000
# 4 0.0000 0.0000 0.0000 22.5743 0.0000 0.0000
# 5 0.0000 0.0000 0.0000 0.0000 84.5079 0.0000
# 6 0.0000 0.0000 0.0000 0.0000 0.0000 10.6407
#
#
#
# Elastic Compliance Matrix: (Units=1/GPa)
#
#
# Indices 1 2 3 4 5 6 
#
# 1 0.008855 -0.002123 -0.002518 0.000000 0.000000 0.000000
# 2 -0.002123 0.014268 -0.004271 0.000000 0.000000 0.000000
# 3 -0.002518 -0.004271 0.009363 0.000000 0.000000 0.000000
# 4 0.000000 0.000000 0.000000 0.044298 0.000000 0.000000
# 5 0.000000 0.000000 0.000000 0.000000 0.011833 0.000000
# 6 0.000000 0.000000 0.000000 0.000000 0.000000 0.093979
#
#
# Mechanical properties :
#
#
# Convention : Reuss Voigt Hill
#
# Bulk Modulus (GPa) = 68.19773 72.65455 70.42614
# Shear Modulus (GPa) = 24.35369 38.96097 31.65733
#
# Velocity S-wave (km/s) = 3.53842 4.47551 4.03426
# Velocity P-wave (km/s) = 7.19409 8.00370 7.60967
#
# Compressibility (1/GPa) = 0.01466325
#
# Stress axis : x y z
#
# Youngs Moduli (GPa) = 112.93162 70.08682 106.79931
#
# Poissons Ratio (x) = 0.14878 0.26894
# Poissons Ratio (y) = 0.23973 0.45609
# Poissons Ratio (z) = 0.28439 0.29931
#
# Static dielectric constant tensor:
#      x y z
#    x 7.457280 0.000000 0.000000 
#    y 0.000000 3.079350 0.000000 
#    z 0.000000 0.000000 4.030350 
# 
# 
# High freq. dielectric constant tensor:
#      x y z
#    x 1.779020 0.000000 0.000000 
#    y 0.000000 1.710980 0.000000 
#    z 0.000000 0.000000 1.786420 
# 
# From -- ./inp_files/35786.got.cif
#   From: 2010.06.25/outbox.cif.g09.slc.cpg/sg52_18_cif.got.tgz:35786.got - 2010.06.26 19:32:48.
