data_PCOD8215558
_publ_section_title
;
Structure prediction by ZEFSAII (Michael W. Deem and Ramdas Pophale) SiO2 
 PCOD8215558
Probable space group: P N N A
;
_chemical_formula_sum "Si O2"
_cell_formula_units_Z 60
_cell_length_a 18.941783
_cell_length_b 16.688315
_cell_length_c 9.446794
_cell_angle_alpha 90.000000
_cell_angle_beta 90.000000
_cell_angle_gamma 90.000000
_cell_volume 2986.192434
_symmetry_space_group_name_H-M "P N N A"
_symmetry_group_IT_number 52
_symmetry_cell_setting 'orthorhombic'
loop_
_space_group_symop_operation_xyz
x,y,z
1/2-x,-y,z
x,1/2-y,1/2-z
1/2-x,1/2+y,1/2-z
-x,-y,-z
1/2+x,y,-z
-x,1/2+y,1/2+z
1/2+x,1/2-y,1/2+z
loop_
_atom_site_type_symbol
_atom_site_label
_atom_site_fract_x
_atom_site_fract_y
_atom_site_fract_z
Si Si1 0.530985 0.712665 0.611540
Si Si2 0.206913 0.908817 0.934147
Si Si3 0.750000 0.500000 0.169912
Si Si4 0.325594 0.585138 0.356708
Si Si5 0.403903 0.757880 0.090050
Si Si6 0.701719 0.120013 0.544476
Si Si7 0.931029 0.462158 0.566599
Si Si8 0.314388 0.243472 0.416372
O O1 0.494841 0.750000 0.750000
O O2 0.475338 0.719569 0.487869
O O3 0.550158 0.620223 0.646457
O O4 0.600926 0.764560 0.575404
O O5 0.221064 0.927797 0.768973
O O6 0.269296 0.949689 0.030049
O O7 0.128179 0.943375 0.950038
O O8 0.208467 0.817089 0.984053
O O9 0.694476 0.453951 0.066182
O O10 0.347413 0.671240 0.419369
O O11 0.290020 0.588244 0.203775
O O12 0.394060 0.527918 0.332940
O O13 0.428987 0.750000 0.250000
O O14 0.366895 0.677441 0.030122
O O15 0.775196 0.167193 0.515484
O O16 0.000000 0.500000 0.500000
O O17 0.290462 0.250000 0.250000
#
# Coordination Sequence:
#
# PCOD8215558 Si02
#       8
#     8   8   4   8   8   8   8   8
#     4  10  23  38  62  93 130 166 212 266 331 400
#     4  11  22  40  62  93 127 165 212 270 333 383
#     4  12  28  38  56 102 138 164 202 276 352 388
#     4  11  20  41  72  92 120 171 228 279 320 396
#     4  10  21  42  65  92 122 170 220 275 326 391
#     4  11  24  40  65  94 128 167 226 270 327 399
#     4  11  22  38  66  96 127 166 219 269 332 399
#     4  10  19  41  68  93 117 165 229 271 312 384
#
# _framework density 20.092475
#
# number of rings (size 3 to 8) (size 9 to 14) (size 15 to 20)
#    0.000    1.333    5.333    0.400    1.867    2.667 
#    4.800    0.000    0.000    3.200    0.000    0.000 
#    0.000    0.000    0.000    0.000    0.000    0.000 
#
# Total GULP energy -743364.789306 kJ/mol
# GULP energy per Si atom -12389.413155 kJ/mol
# Density = 2.004674 g / cm^3
# Si number density = 20.092475 Si / 1000 Ang^3
#
#
#
# Elastic Constant Matrix: (Units=GPa)
#
#
# Indices 1 2 3 4 5 6 
#
# 1 98.6553 40.1734 55.3078 0.0000 0.0000 0.0000
# 2 40.1734 106.5602 61.5558 0.0000 0.0000 0.0000
# 3 55.3078 61.5558 109.8615 0.0000 0.0000 0.0000
# 4 0.0000 0.0000 0.0000 39.0096 0.0000 0.0000
# 5 0.0000 0.0000 0.0000 0.0000 22.2487 0.0000
# 6 0.0000 0.0000 0.0000 0.0000 0.0000 35.4792
#
#
#
# Elastic Compliance Matrix: (Units=1/GPa)
#
#
# Indices 1 2 3 4 5 6 
#
# 1 0.014359 -0.001830 -0.006204 0.000000 0.000000 0.000000
# 2 -0.001830 0.014109 -0.006984 0.000000 0.000000 0.000000
# 3 -0.006204 -0.006984 0.016139 0.000000 0.000000 0.000000
# 4 0.000000 0.000000 0.000000 0.025635 0.000000 0.000000
# 5 0.000000 0.000000 0.000000 0.000000 0.044947 0.000000
# 6 0.000000 0.000000 0.000000 0.000000 0.000000 0.028186
#
#
# Mechanical properties :
#
#
# Convention : Reuss Voigt Hill
#
# Bulk Modulus (GPa) = 68.62635 69.90567 69.26601
# Shear Modulus (GPa) = 28.04811 29.88349 28.96580
#
# Velocity S-wave (km/s) = 3.74030 3.86073 3.80099
# Velocity P-wave (km/s) = 7.27203 7.39873 7.33565
#
# Compressibility (1/GPa) = 0.01457166
#
# Stress axis : x y z
#
# Youngs Moduli (GPa) = 69.64119 70.87909 61.96340
#
# Poissons Ratio (x) = 0.12970 0.38440
# Poissons Ratio (y) = 0.12744 0.43274
# Poissons Ratio (z) = 0.43203 0.49501
#
# Static dielectric constant tensor:
#      x y z
#    x 3.627290 0.000000 0.000000 
#    y 0.000000 4.071400 0.000000 
#    z 0.000000 0.000000 3.443550 
# 
# 
# High freq. dielectric constant tensor:
#      x y z
#    x 1.783680 0.000000 0.000000 
#    y 0.000000 1.804760 0.000000 
#    z 0.000000 0.000000 1.756990 
# 
# From -- ./inp_files/12422.got.cif
#   From: 2010.06.25/outbox.cif.g09.slc.cpg/sg52_7_cif.got.tgz:12422.got - 2010.06.26 19:32:48.
