data_PCOD8215769
_publ_section_title
;
Structure prediction by ZEFSAII (Michael W. Deem and Ramdas Pophale) SiO2 
 PCOD8215769
Probable space group: P N N A
;
_chemical_formula_sum "Si O2"
_cell_formula_units_Z 64
_cell_length_a 9.044656
_cell_length_b 32.952762
_cell_length_c 10.529426
_cell_angle_alpha 90.000000
_cell_angle_beta 90.000000
_cell_angle_gamma 90.000000
_cell_volume 3138.257477
_symmetry_space_group_name_H-M "P N N A"
_symmetry_group_IT_number 52
_symmetry_cell_setting 'orthorhombic'
loop_
_space_group_symop_operation_xyz
x,y,z
1/2-x,-y,z
x,1/2-y,1/2-z
1/2-x,1/2+y,1/2-z
-x,-y,-z
1/2+x,y,-z
-x,1/2+y,1/2+z
1/2+x,1/2-y,1/2+z
loop_
_atom_site_type_symbol
_atom_site_label
_atom_site_fract_x
_atom_site_fract_y
_atom_site_fract_z
Si Si1 0.290345 0.858360 0.701728
Si Si2 0.384298 0.238627 0.112721
Si Si3 0.358640 0.713469 0.978026
Si Si4 0.479591 0.652164 0.146239
Si Si5 0.239407 0.453308 0.161788
Si Si6 0.506778 0.649161 0.571443
Si Si7 0.960658 0.917535 0.452979
Si Si8 0.196730 0.114679 0.152513
O O1 0.295174 0.826740 0.585842
O O2 0.117748 0.855901 0.742120
O O3 0.387422 0.844837 0.819196
O O4 0.342963 0.902825 0.654430
O O5 0.314896 0.250000 0.250000
O O6 0.537843 0.262402 0.117109
O O7 0.411613 0.192751 0.063515
O O8 0.270610 0.255865 0.011400
O O9 0.457040 0.698268 0.098652
O O10 0.328876 0.642383 0.222564
O O11 0.512645 0.622508 0.027641
O O12 0.250000 0.500000 0.198664
O O13 0.399003 0.437293 0.115841
O O14 0.181506 0.431087 0.291221
O O15 0.119946 0.448673 0.048291
O O16 0.422824 0.629706 0.451031
O O17 0.636062 0.617697 0.604165
#
# Coordination Sequence:
#
# PCOD8215769 Si02
#       8
#     8   8   8   8   8   8   8   8
#     4  11  20  38  65  90 127 170 219 266 317 383
#     4  12  24  41  59  89 128 169 214 277 332 372
#     4  11  23  38  60  93 124 160 215 274 329 371
#     4  10  21  37  64  94 125 168 212 263 321 391
#     4  11  22  41  68 103 137 164 207 271 336 398
#     4  12  24  43  65  85 128 178 223 269 317 388
#     4  10  20  36  65  98 132 167 204 262 328 394
#     4  11  25  43  66  93 125 173 221 260 323 401
#
# _framework density 20.393483
#
# number of rings (size 3 to 8) (size 9 to 14) (size 15 to 20)
#    0.000    1.000    5.000    2.625    0.000    0.000 
#    0.000    1.250    0.000    0.000    0.000    0.000 
#    0.000    0.000    0.000    0.000    0.000    0.000 
#
# Total GULP energy -793065.737172 kJ/mol
# GULP energy per Si atom -12391.652143 kJ/mol
# Density = 2.034707 g / cm^3
# Si number density = 20.393483 Si / 1000 Ang^3
#
#
#
# Elastic Constant Matrix: (Units=GPa)
#
#
# Indices 1 2 3 4 5 6 
#
# 1 89.1057 34.1220 35.4507 0.0000 0.0000 0.0000
# 2 34.1220 113.1422 48.1016 0.0000 0.0000 0.0000
# 3 35.4507 48.1016 86.8417 0.0000 0.0000 0.0000
# 4 0.0000 0.0000 0.0000 24.7614 0.0000 0.0000
# 5 0.0000 0.0000 0.0000 0.0000 31.4595 0.0000
# 6 0.0000 0.0000 0.0000 0.0000 0.0000 27.2762
#
#
#
# Elastic Compliance Matrix: (Units=1/GPa)
#
#
# Indices 1 2 3 4 5 6 
#
# 1 0.013849 -0.002319 -0.004369 0.000000 0.000000 0.000000
# 2 -0.002319 0.011949 -0.005672 0.000000 0.000000 0.000000
# 3 -0.004369 -0.005672 0.016440 0.000000 0.000000 0.000000
# 4 0.000000 0.000000 0.000000 0.040386 0.000000 0.000000
# 5 0.000000 0.000000 0.000000 0.000000 0.031787 0.000000
# 6 0.000000 0.000000 0.000000 0.000000 0.000000 0.036662
#
#
# Mechanical properties :
#
#
# Convention : Reuss Voigt Hill
#
# Bulk Modulus (GPa) = 57.08239 58.27090 57.67665
# Shear Modulus (GPa) = 27.52813 28.12709 27.82761
#
# Velocity S-wave (km/s) = 3.67802 3.71781 3.69797
# Velocity P-wave (km/s) = 6.78884 6.86038 6.82470
#
# Compressibility (1/GPa) = 0.01751854
#
# Stress axis : x y z
#
# Youngs Moduli (GPa) = 72.20805 83.68717 60.82611
#
# Poissons Ratio (x) = 0.19409 0.26574
# Poissons Ratio (y) = 0.16747 0.34500
# Poissons Ratio (z) = 0.31546 0.47467
#
# Static dielectric constant tensor:
#      x y z
#    x 3.887340 0.000000 0.000000 
#    y 0.000000 3.559000 0.000000 
#    z 0.000000 0.000000 3.657880 
# 
# 
# High freq. dielectric constant tensor:
#      x y z
#    x 1.815580 0.000000 0.000000 
#    y 0.000000 1.772760 0.000000 
#    z 0.000000 0.000000 1.788960 
# 
# From -- ./inp_files/17239.got.cif
#   From: 2010.06.25/outbox.cif.g09.slc.cpg/sg52_9_cif.got.tgz:17239.got - 2010.06.26 19:32:48.
