data_PCOD8215577
_publ_section_title
;
Structure prediction by ZEFSAII (Michael W. Deem and Ramdas Pophale) SiO2 
 PCOD8215577
Probable space group: P N N A
;
_chemical_formula_sum "Si O2"
_cell_formula_units_Z 44
_cell_length_a 16.708008
_cell_length_b 5.133283
_cell_length_c 27.286836
_cell_angle_alpha 90.000000
_cell_angle_beta 90.000000
_cell_angle_gamma 90.000000
_cell_volume 2340.308247
_symmetry_space_group_name_H-M "P N N A"
_symmetry_group_IT_number 52
_symmetry_cell_setting 'orthorhombic'
loop_
_space_group_symop_operation_xyz
x,y,z
1/2-x,-y,z
x,1/2-y,1/2-z
1/2-x,1/2+y,1/2-z
-x,-y,-z
1/2+x,y,-z
-x,1/2+y,1/2+z
1/2+x,1/2-y,1/2+z
loop_
_atom_site_type_symbol
_atom_site_label
_atom_site_fract_x
_atom_site_fract_y
_atom_site_fract_z
Si Si1 0.063832 0.237415 0.644891
Si Si2 0.040683 0.751404 0.059527
Si Si3 0.389671 0.750000 0.750000
Si Si4 0.838098 0.247030 0.122547
Si Si5 0.750000 0.500000 0.299866
Si Si6 0.604944 0.253174 0.986712
Si Si7 0.750000 0.500000 0.463873
O O1 0.055148 0.174081 0.703336
O O2 0.097920 0.526594 0.637635
O O3 0.978139 0.217290 0.617668
O O4 0.122850 0.028819 0.620183
O O5 0.102132 0.530300 0.041175
O O6 0.078648 0.032704 0.051693
O O7 0.954986 0.735515 0.032598
O O8 0.328260 0.522314 0.733988
O O9 0.765738 0.243025 0.162789
O O10 0.804998 0.191989 0.068374
O O11 0.694719 0.188610 0.003463
#
# Coordination Sequence:
#
# PCOD8215577 Si02
#       7
#     8   8   4   8   4   8   4
#     4  11  21  37  52  74 103 145 182 216 260 310
#     4  10  21  38  51  75 104 144 174 224 267 319
#     4  10  20  32  52  72 102 144 178 222 252 310
#     4  10  22  32  52  74 107 139 180 225 248 297
#     4   9  18  32  44  72 106 136 174 216 259 276
#     4  10  22  35  56  74 104 137 184 219 270 317
#     4  11  22  36  54  86 102 142 188 230 263 328
#
# _framework density 18.800941999999999
#
# number of rings (size 3 to 8) (size 9 to 14) (size 15 to 20)
#    0.000    1.818    1.818    2.182    5.091   10.182 
#    0.000    0.000    0.000    0.000    0.000    0.000 
#    0.000    2.909    0.000    0.000    0.000    0.000 
#
# Total GULP energy -545335.217924 kJ/mol
# GULP energy per Si atom -12393.982226 kJ/mol
# Density = 1.875815 g / cm^3
# Si number density = 18.800942 Si / 1000 Ang^3
#
#
#
# Elastic Constant Matrix: (Units=GPa)
#
#
# Indices 1 2 3 4 5 6 
#
# 1 52.4300 14.2955 46.2049 0.0000 0.0000 0.0000
# 2 14.2955 75.8665 21.5706 0.0000 0.0000 0.0000
# 3 46.2049 21.5706 125.3369 0.0000 0.0000 0.0000
# 4 0.0000 0.0000 0.0000 14.6479 0.0000 0.0000
# 5 0.0000 0.0000 0.0000 0.0000 28.5582 0.0000
# 6 0.0000 0.0000 0.0000 0.0000 0.0000 26.7397
#
#
#
# Elastic Compliance Matrix: (Units=1/GPa)
#
#
# Indices 1 2 3 4 5 6 
#
# 1 0.028703 -0.002524 -0.010147 0.000000 0.000000 0.000000
# 2 -0.002524 0.014081 -0.001493 0.000000 0.000000 0.000000
# 3 -0.010147 -0.001493 0.011976 0.000000 0.000000 0.000000
# 4 0.000000 0.000000 0.000000 0.068269 0.000000 0.000000
# 5 0.000000 0.000000 0.000000 0.000000 0.035016 0.000000
# 6 0.000000 0.000000 0.000000 0.000000 0.000000 0.037398
#
#
# Mechanical properties :
#
#
# Convention : Reuss Voigt Hill
#
# Bulk Modulus (GPa) = 37.83114 46.41948 42.12531
# Shear Modulus (GPa) = 21.49781 25.42667 23.46224
#
# Velocity S-wave (km/s) = 3.38515 3.68151 3.53644
# Velocity P-wave (km/s) = 5.95354 6.54331 6.25538
#
# Compressibility (1/GPa) = 0.02643325
#
# Stress axis : x y z
#
# Youngs Moduli (GPa) = 34.83907 71.01731 83.49941
#
# Poissons Ratio (x) = 0.17921 0.84728
# Poissons Ratio (y) = 0.08792 0.12467
# Poissons Ratio (z) = 0.35351 0.10603
#
# Static dielectric constant tensor:
#      x y z
#    x 3.107580 0.000000 0.000000 
#    y 0.000000 3.478320 0.000000 
#    z 0.000000 0.000000 3.694090 
# 
# 
# High freq. dielectric constant tensor:
#      x y z
#    x 1.668450 0.000000 0.000000 
#    y 0.000000 1.745530 0.000000 
#    z 0.000000 0.000000 1.720540 
# 
# From -- ./inp_files/44929.got.cif
#   From: 2010.06.25/outbox.cif.g09.slc.cpg/sg52_23_cif.got.tgz:44929.got - 2010.06.26 19:32:48.
