data_PCOD8215677
_publ_section_title
;
Structure prediction by ZEFSAII (Michael W. Deem and Ramdas Pophale) SiO2 
 PCOD8215677
Probable space group: P N N A
;
_chemical_formula_sum "Si O2"
_cell_formula_units_Z 48
_cell_length_a 15.700405
_cell_length_b 8.818335
_cell_length_c 15.712283
_cell_angle_alpha 90.000000
_cell_angle_beta 90.000000
_cell_angle_gamma 90.000000
_cell_volume 2175.388064
_symmetry_space_group_name_H-M "P N N A"
_symmetry_group_IT_number 52
_symmetry_cell_setting 'orthorhombic'
loop_
_space_group_symop_operation_xyz
x,y,z
1/2-x,-y,z
x,1/2-y,1/2-z
1/2-x,1/2+y,1/2-z
-x,-y,-z
1/2+x,y,-z
-x,1/2+y,1/2+z
1/2+x,1/2-y,1/2+z
loop_
_atom_site_type_symbol
_atom_site_label
_atom_site_fract_x
_atom_site_fract_y
_atom_site_fract_z
Si Si1 0.997152 0.648518 0.666207
Si Si2 0.045456 0.312900 0.665998
Si Si3 0.724662 0.169924 0.517995
Si Si4 0.765970 0.676013 0.167549
Si Si5 0.523733 0.173500 0.504574
Si Si6 0.302913 0.641317 0.328553
O O1 0.011410 0.750000 0.750000
O O2 0.024318 0.749497 0.584643
O O3 0.899975 0.595205 0.651203
O O4 0.054150 0.495794 0.669998
O O5 0.995819 0.250000 0.750000
O O6 0.136405 0.228312 0.668301
O O7 0.994912 0.261108 0.581366
O O8 0.768444 0.219054 0.427448
O O9 0.623918 0.182477 0.513915
O O10 0.749988 0.285867 0.592434
O O11 0.750000 0.000000 0.543540
O O12 0.750000 0.500000 0.179808
O O13 0.718147 0.750000 0.250000
O O14 0.500000 0.000000 0.500000
O O15 0.250000 0.500000 0.297325
O O16 0.306513 0.750000 0.250000
#
# Coordination Sequence:
#
# PCOD8215677 Si02
#       6
#     8   8   8   8   8   8
#     4  10  21  37  56  81 113 147 188 236 282 335
#     4  10  20  36  56  81 111 145 187 232 282 339
#     4   9  19  36  54  76 108 142 180 222 270 328
#     4   9  19  37  57  79 109 145 184 229 278 335
#     4  10  20  35  56  83 112 145 185 231 282 336
#     4  10  21  35  54  80 109 144 183 224 273 327
#
# _framework density 22.065028000000002
#
# number of rings (size 3 to 8) (size 9 to 14) (size 15 to 20)
#    0.000    2.333    0.000    2.000    0.000    2.667 
#    0.000   13.333    0.000    0.000    0.000    0.000 
#    0.000    0.000    0.000    0.000    0.000    0.000 
#
# Total GULP energy -594734.496943 kJ/mol
# GULP energy per Si atom -12390.302020 kJ/mol
# Density = 2.201481 g / cm^3
# Si number density = 22.065028 Si / 1000 Ang^3
#
#
#
# Elastic Constant Matrix: (Units=GPa)
#
#
# Indices 1 2 3 4 5 6 
#
# 1 33.5985 31.4677 13.1262 0.0000 0.0000 0.0000
# 2 31.4677 143.4326 53.8850 0.0000 0.0000 0.0000
# 3 13.1262 53.8850 147.2693 0.0000 0.0000 0.0000
# 4 0.0000 0.0000 0.0000 31.3409 0.0000 0.0000
# 5 0.0000 0.0000 0.0000 0.0000 109.6294 0.0000
# 6 0.0000 0.0000 0.0000 0.0000 0.0000 36.3363
#
#
#
# Elastic Compliance Matrix: (Units=1/GPa)
#
#
# Indices 1 2 3 4 5 6 
#
# 1 0.037479 -0.008078 -0.000385 0.000000 0.000000 0.000000
# 2 -0.008078 0.009824 -0.002875 0.000000 0.000000 0.000000
# 3 -0.000385 -0.002875 0.007876 0.000000 0.000000 0.000000
# 4 0.000000 0.000000 0.000000 0.031907 0.000000 0.000000
# 5 0.000000 0.000000 0.000000 0.000000 0.009122 0.000000
# 6 0.000000 0.000000 0.000000 0.000000 0.000000 0.027521
#
#
# Mechanical properties :
#
#
# Convention : Reuss Voigt Hill
#
# Bulk Modulus (GPa) = 30.76460 57.91758 44.34109
# Shear Modulus (GPa) = 31.79867 50.51607 41.15737
#
# Velocity S-wave (km/s) = 3.80035 4.78998 4.32357
# Velocity P-wave (km/s) = 5.76453 7.54304 6.71294
#
# Compressibility (1/GPa) = 0.03250489
#
# Stress axis : x y z
#
# Youngs Moduli (GPa) = 26.68135 101.79069 126.96202
#
# Poissons Ratio (x) = 0.82227 0.04886
# Poissons Ratio (y) = 0.21553 0.36496
# Poissons Ratio (z) = 0.01027 0.29260
#
# Static dielectric constant tensor:
#      x y z
#    x 3.672480 0.000000 0.000000 
#    y 0.000000 3.856050 0.000000 
#    z 0.000000 0.000000 5.871840 
# 
# 
# High freq. dielectric constant tensor:
#      x y z
#    x 1.828820 0.000000 0.000000 
#    y 0.000000 1.869080 0.000000 
#    z 0.000000 0.000000 1.901630 
# 
# From -- ./inp_files/28600.got.cif
#   From: 2010.06.25/outbox.cif.g09.slc.cpg/sg52_15_cif.got.tgz:28600.got - 2010.06.26 19:32:48.
