data_PCOD8215240
_publ_section_title
;
Structure prediction by ZEFSAII (Michael W. Deem and Ramdas Pophale) SiO2 
 PCOD8215240
Probable space group: P N N A
;
_chemical_formula_sum "Si O2"
_cell_formula_units_Z 36
_cell_length_a 12.365128
_cell_length_b 15.338882
_cell_length_c 8.444763
_cell_angle_alpha 90.000000
_cell_angle_beta 90.000000
_cell_angle_gamma 90.000000
_cell_volume 1601.694885
_symmetry_space_group_name_H-M "P N N A"
_symmetry_group_IT_number 52
_symmetry_cell_setting 'orthorhombic'
loop_
_space_group_symop_operation_xyz
x,y,z
1/2-x,-y,z
x,1/2-y,1/2-z
1/2-x,1/2+y,1/2-z
-x,-y,-z
1/2+x,y,-z
-x,1/2+y,1/2+z
1/2+x,1/2-y,1/2+z
loop_
_atom_site_type_symbol
_atom_site_label
_atom_site_fract_x
_atom_site_fract_y
_atom_site_fract_z
Si Si1 0.750000 0.000000 0.390413
Si Si2 0.575269 0.574482 0.888154
Si Si3 0.201280 0.657452 0.680588
Si Si4 0.980492 0.603236 0.801980
Si Si5 0.752634 0.604099 0.663447
O O1 0.647263 0.991540 0.504081
O O2 0.764442 0.914881 0.281702
O O3 0.508016 0.503159 0.785868
O O4 0.652589 0.633208 0.777555
O O5 0.505381 0.631910 0.013196
O O6 0.235790 0.750000 0.750000
O O7 0.239794 0.653938 0.500314
O O8 0.071492 0.644203 0.688490
O O9 0.863816 0.636495 0.744237
O O10 0.750000 0.500000 0.638013
#
# Coordination Sequence:
#
# PCOD8215240 Si02
#       5
#     4   8   8   8   8
#     4  10  18  40  64  86 128 174 216 282 326 382
#     4   9  17  35  66  97 120 170 223 271 331 398
#     4  11  24  41  60  97 137 172 225 280 330 402
#     4   9  19  37  61  93 128 164 217 271 329 392
#     4  10  19  39  66  96 130 177 218 267 341 401
#
# _framework density 22.476192000000001
#
# number of rings (size 3 to 8) (size 9 to 14) (size 15 to 20)
#    0.000    2.222    4.444    0.000    0.000    3.556 
#    8.000    4.444    0.000    0.000    0.000    0.000 
#    0.000    0.000    0.000    0.000    0.000    0.000 
#
# Total GULP energy -446106.025381 kJ/mol
# GULP energy per Si atom -12391.834038 kJ/mol
# Density = 2.242503 g / cm^3
# Si number density = 22.476192 Si / 1000 Ang^3
#
#
#
# Elastic Constant Matrix: (Units=GPa)
#
#
# Indices 1 2 3 4 5 6 
#
# 1 54.1558 33.6402 52.9436 0.0000 0.0000 0.0000
# 2 33.6402 86.5630 56.7355 0.0000 0.0000 0.0000
# 3 52.9436 56.7355 160.6005 0.0000 0.0000 0.0000
# 4 0.0000 0.0000 0.0000 25.1648 0.0000 0.0000
# 5 0.0000 0.0000 0.0000 0.0000 44.8272 0.0000
# 6 0.0000 0.0000 0.0000 0.0000 0.0000 11.1805
#
#
#
# Elastic Compliance Matrix: (Units=1/GPa)
#
#
# Indices 1 2 3 4 5 6 
#
# 1 0.029986 -0.006733 -0.007507 0.000000 0.000000 0.000000
# 2 -0.006733 0.016545 -0.003625 0.000000 0.000000 0.000000
# 3 -0.007507 -0.003625 0.009982 0.000000 0.000000 0.000000
# 4 0.000000 0.000000 0.000000 0.039738 0.000000 0.000000
# 5 0.000000 0.000000 0.000000 0.000000 0.022308 0.000000
# 6 0.000000 0.000000 0.000000 0.000000 0.000000 0.089441
#
#
# Mechanical properties :
#
#
# Convention : Reuss Voigt Hill
#
# Bulk Modulus (GPa) = 48.11593 65.32864 56.72228
# Shear Modulus (GPa) = 19.94744 26.76784 23.35764
#
# Velocity S-wave (km/s) = 2.98231 3.45475 3.22719
# Velocity P-wave (km/s) = 5.77173 6.71137 6.25921
#
# Compressibility (1/GPa) = 0.02078314
#
# Stress axis : x y z
#
# Youngs Moduli (GPa) = 33.34838 60.44115 100.18092
#
# Poissons Ratio (x) = 0.40697 0.75202
# Poissons Ratio (y) = 0.22455 0.36317
# Poissons Ratio (z) = 0.25033 0.21911
#
# Static dielectric constant tensor:
#      x y z
#    x 4.399230 0.000000 0.000000 
#    y 0.000000 3.498390 0.000000 
#    z 0.000000 0.000000 4.227050 
# 
# 
# High freq. dielectric constant tensor:
#      x y z
#    x 1.893240 0.000000 0.000000 
#    y 0.000000 1.833930 0.000000 
#    z 0.000000 0.000000 1.886810 
# 
# From -- ./inp_files/10179.got.cif
#   From: 2010.06.25/outbox.cif.g09.slc.cpg/sg52_6_cif.got.tgz:10179.got - 2010.06.26 19:32:48.
