data_PCOD8215204
_publ_section_title
;
Structure prediction by ZEFSAII (Michael W. Deem and Ramdas Pophale) SiO2 
 PCOD8215204
Probable space group: P N N A
;
_chemical_formula_sum "Si O2"
_cell_formula_units_Z 52
_cell_length_a 8.714468
_cell_length_b 29.569530
_cell_length_c 10.986473
_cell_angle_alpha 90.000000
_cell_angle_beta 90.000000
_cell_angle_gamma 90.000000
_cell_volume 2831.024278
_symmetry_space_group_name_H-M "P N N A"
_symmetry_group_IT_number 52
_symmetry_cell_setting 'orthorhombic'
loop_
_space_group_symop_operation_xyz
x,y,z
1/2-x,-y,z
x,1/2-y,1/2-z
1/2-x,1/2+y,1/2-z
-x,-y,-z
1/2+x,y,-z
-x,1/2+y,1/2+z
1/2+x,1/2-y,1/2+z
loop_
_atom_site_type_symbol
_atom_site_label
_atom_site_fract_x
_atom_site_fract_y
_atom_site_fract_z
Si Si1 0.710653 0.703888 0.898832
Si Si2 0.972075 0.157274 0.391863
Si Si3 0.362065 0.305506 0.370765
Si Si4 0.025154 0.556884 0.880737
Si Si5 0.250000 0.500000 0.044103
Si Si6 0.615271 0.140432 0.010934
Si Si7 0.126349 0.608628 0.667817
O O1 0.622375 0.691208 0.774856
O O2 0.690197 0.757002 0.921027
O O3 0.888953 0.692288 0.884104
O O4 0.650223 0.676104 0.013126
O O5 0.897211 0.152600 0.256639
O O6 0.021434 0.106440 0.434320
O O7 0.527653 0.317775 0.425564
O O8 0.236939 0.341471 0.413964
O O9 0.156415 0.535025 0.962462
O O10 0.098655 0.562835 0.745692
O O11 0.871093 0.526916 0.872194
O O12 0.702158 0.110667 0.113597
O O13 0.496627 0.108358 0.941060
#
# Coordination Sequence:
#
# PCOD8215204 Si02
#       7
#     8   8   8   8   4   8   8
#     4  11  21  34  52  78 117 140 190 242 278 327
#     4  10  21  36  54  84 109 143 189 232 277 340
#     4  10  21  34  52  76 109 154 188 231 290 309
#     4   9  20  34  57  90 109 153 172 227 289 342
#     4  10  18  36  60  86 130 130 172 232 292 352
#     4  10  19  39  54  75 109 153 197 233 263 336
#     4   9  21  36  60  80 107 146 200 224 282 330
#
# _framework density 18.367909999999998
#
# number of rings (size 3 to 8) (size 9 to 14) (size 15 to 20)
#    0.923    1.231    1.538    1.846    2.154    0.000 
#    0.000    4.615    0.000    2.769    0.000    0.000 
#    0.000    0.000    0.000    0.000    0.000    0.000 
#
# Total GULP energy -644529.104012 kJ/mol
# GULP energy per Si atom -12394.790462 kJ/mol
# Density = 1.832610 g / cm^3
# Si number density = 18.367910 Si / 1000 Ang^3
#
#
#
# Elastic Constant Matrix: (Units=GPa)
#
#
# Indices 1 2 3 4 5 6 
#
# 1 77.6765 23.1591 30.0171 0.0000 0.0000 0.0000
# 2 23.1591 63.5999 17.1371 0.0000 0.0000 0.0000
# 3 30.0171 17.1371 81.0271 0.0000 0.0000 0.0000
# 4 0.0000 0.0000 0.0000 21.9549 0.0000 0.0000
# 5 0.0000 0.0000 0.0000 0.0000 32.5530 0.0000
# 6 0.0000 0.0000 0.0000 0.0000 0.0000 29.3552
#
#
#
# Elastic Compliance Matrix: (Units=1/GPa)
#
#
# Indices 1 2 3 4 5 6 
#
# 1 0.016170 -0.004532 -0.005032 0.000000 0.000000 0.000000
# 2 -0.004532 0.017944 -0.002116 0.000000 0.000000 0.000000
# 3 -0.005032 -0.002116 0.014653 0.000000 0.000000 0.000000
# 4 0.000000 0.000000 0.000000 0.045548 0.000000 0.000000
# 5 0.000000 0.000000 0.000000 0.000000 0.030719 0.000000
# 6 0.000000 0.000000 0.000000 0.000000 0.000000 0.034066
#
#
# Mechanical properties :
#
#
# Convention : Reuss Voigt Hill
#
# Bulk Modulus (GPa) = 39.35964 40.32556 39.84260
# Shear Modulus (GPa) = 26.18792 26.90529 26.54661
#
# Velocity S-wave (km/s) = 3.78000 3.83142 3.80580
# Velocity P-wave (km/s) = 6.36602 6.44787 6.40708
#
# Compressibility (1/GPa) = 0.02540673
#
# Stress axis : x y z
#
# Youngs Moduli (GPa) = 61.84462 55.72950 68.24498
#
# Poissons Ratio (x) = 0.25258 0.34338
# Poissons Ratio (y) = 0.28029 0.14441
# Poissons Ratio (z) = 0.31118 0.11793
#
# Static dielectric constant tensor:
#      x y z
#    x 3.367030 0.000000 0.000000 
#    y 0.000000 3.185400 0.000000 
#    z 0.000000 0.000000 3.401680 
# 
# 
# High freq. dielectric constant tensor:
#      x y z
#    x 1.717360 0.000000 0.000000 
#    y 0.000000 1.688970 0.000000 
#    z 0.000000 0.000000 1.711700 
# 
# From -- ./inp_files/17196.got.cif
#   From: 2010.06.25/outbox.cif.g09.slc.cpg/sg52_9_cif.got.tgz:17196.got - 2010.06.26 19:32:48.
