data_PCOD8215972
_publ_section_title
;
Structure prediction by ZEFSAII (Michael W. Deem and Ramdas Pophale) SiO2 
 PCOD8215972
Probable space group: P N N A
;
_chemical_formula_sum "Si O2"
_cell_formula_units_Z 64
_cell_length_a 15.955859
_cell_length_b 21.716751
_cell_length_c 8.941623
_cell_angle_alpha 90.000000
_cell_angle_beta 90.000000
_cell_angle_gamma 90.000000
_cell_volume 3098.356572
_symmetry_space_group_name_H-M "P N N A"
_symmetry_group_IT_number 52
_symmetry_cell_setting 'orthorhombic'
loop_
_space_group_symop_operation_xyz
x,y,z
1/2-x,-y,z
x,1/2-y,1/2-z
1/2-x,1/2+y,1/2-z
-x,-y,-z
1/2+x,y,-z
-x,1/2+y,1/2+z
1/2+x,1/2-y,1/2+z
loop_
_atom_site_type_symbol
_atom_site_label
_atom_site_fract_x
_atom_site_fract_y
_atom_site_fract_z
Si Si1 0.840779 0.492249 0.578735
Si Si2 0.991007 0.293692 0.107308
Si Si3 0.196277 0.603265 0.667682
Si Si4 0.379405 0.889400 0.914007
Si Si5 0.516104 0.550658 0.781899
Si Si6 0.439930 0.076269 0.616982
Si Si7 0.151529 0.238352 0.072912
Si Si8 0.823535 0.264208 0.419779
O O1 0.750000 0.500000 0.658837
O O2 0.827132 0.456314 0.425683
O O3 0.882679 0.556951 0.537241
O O4 0.901010 0.454873 0.685280
O O5 0.992628 0.250000 0.250000
O O6 0.993958 0.364082 0.163905
O O7 0.904607 0.274415 0.020633
O O8 0.075909 0.282154 0.011107
O O9 0.295975 0.608933 0.688224
O O10 0.155015 0.592711 0.831238
O O11 0.160287 0.662251 0.575847
O O12 0.456432 0.898544 0.797621
O O13 0.378724 0.828499 0.015685
O O14 0.470398 0.484941 0.799176
O O15 0.550862 0.573423 0.939637
O O16 0.156274 0.250000 0.250000
O O17 0.242752 0.256789 0.013786
O O18 0.800452 0.250000 0.250000
#
# Coordination Sequence:
#
# PCOD8215972 Si02
#       8
#     8   8   8   8   8   8   8   8
#     4  10  22  40  61  91 123 169 215 264 321 386
#     4  10  21  39  65  86 122 173 210 249 326 387
#     4  10  20  40  66  87 127 168 218 259 325 392
#     4  10  22  40  68  94 126 175 221 265 327 397
#     4  11  25  40  64  97 131 163 219 275 331 386
#     4  11  23  43  61  97 127 165 217 270 327 391
#     4  10  24  40  64  99 128 162 217 268 321 385
#     4  10  20  40  64  90 121 172 214 258 321 393
#
# _framework density 20.656110999999999
#
# number of rings (size 3 to 8) (size 9 to 14) (size 15 to 20)
#    0.000    1.750    3.750    0.375    5.250    2.000 
#   11.250    0.625    0.000    0.000    0.000    0.000 
#    0.000    0.000    0.000    0.000    0.000    0.000 
#
# Total GULP energy -792931.091318 kJ/mol
# GULP energy per Si atom -12389.548302 kJ/mol
# Density = 2.060910 g / cm^3
# Si number density = 20.656111 Si / 1000 Ang^3
#
#
#
# Elastic Constant Matrix: (Units=GPa)
#
#
# Indices 1 2 3 4 5 6 
#
# 1 159.5078 23.9781 68.4755 0.0000 0.0000 0.0000
# 2 23.9781 78.1178 26.3523 0.0000 0.0000 0.0000
# 3 68.4755 26.3523 86.3349 0.0000 0.0000 0.0000
# 4 0.0000 0.0000 0.0000 27.8113 0.0000 0.0000
# 5 0.0000 0.0000 0.0000 0.0000 28.0364 0.0000
# 6 0.0000 0.0000 0.0000 0.0000 0.0000 21.6192
#
#
#
# Elastic Compliance Matrix: (Units=1/GPa)
#
#
# Indices 1 2 3 4 5 6 
#
# 1 0.009518 -0.000418 -0.007422 0.000000 0.000000 0.000000
# 2 -0.000418 0.014289 -0.004030 0.000000 0.000000 0.000000
# 3 -0.007422 -0.004030 0.018699 0.000000 0.000000 0.000000
# 4 0.000000 0.000000 0.000000 0.035957 0.000000 0.000000
# 5 0.000000 0.000000 0.000000 0.000000 0.035668 0.000000
# 6 0.000000 0.000000 0.000000 0.000000 0.000000 0.046255
#
#
# Mechanical properties :
#
#
# Convention : Reuss Voigt Hill
#
# Bulk Modulus (GPa) = 53.28433 62.39692 57.84062
# Shear Modulus (GPa) = 26.26315 29.17037 27.71676
#
# Velocity S-wave (km/s) = 3.56960 3.76199 3.66706
# Velocity P-wave (km/s) = 6.54533 7.01022 6.78176
#
# Compressibility (1/GPa) = 0.01876724
#
# Stress axis : x y z
#
# Youngs Moduli (GPa) = 105.06222 69.98422 53.47805
#
# Poissons Ratio (x) = 0.02925 0.39690
# Poissons Ratio (y) = 0.04391 0.21551
# Poissons Ratio (z) = 0.77973 0.28203
#
# Static dielectric constant tensor:
#      x y z
#    x 4.483190 0.000000 0.000000 
#    y 0.000000 4.207470 0.000000 
#    z 0.000000 0.000000 3.409540 
# 
# 
# High freq. dielectric constant tensor:
#      x y z
#    x 1.822700 0.000000 0.000000 
#    y 0.000000 1.820090 0.000000 
#    z 0.000000 0.000000 1.774690 
# 
# From -- ./inp_files/12591.got.cif
#   From: 2010.06.25/outbox.cif.g09.slc.cpg/sg52_7_cif.got.tgz:12591.got - 2010.06.26 19:32:48.
