data_PCOD8215996
_publ_section_title
;
Structure prediction by ZEFSAII (Michael W. Deem and Ramdas Pophale) SiO2 
 PCOD8215996
Probable space group: P N N A
;
_chemical_formula_sum "Si O2"
_cell_formula_units_Z 36
_cell_length_a 14.861091
_cell_length_b 13.140472
_cell_length_c 8.674345
_cell_angle_alpha 90.000000
_cell_angle_beta 90.000000
_cell_angle_gamma 90.000000
_cell_volume 1693.941273
_symmetry_space_group_name_H-M "P N N A"
_symmetry_group_IT_number 52
_symmetry_cell_setting 'orthorhombic'
loop_
_space_group_symop_operation_xyz
x,y,z
1/2-x,-y,z
x,1/2-y,1/2-z
1/2-x,1/2+y,1/2-z
-x,-y,-z
1/2+x,y,-z
-x,1/2+y,1/2+z
1/2+x,1/2-y,1/2+z
loop_
_atom_site_type_symbol
_atom_site_label
_atom_site_fract_x
_atom_site_fract_y
_atom_site_fract_z
Si Si1 0.468036 0.884123 0.494587
Si Si2 0.244247 0.387193 0.473568
Si Si3 0.627477 0.760640 0.419983
Si Si4 0.291246 0.894345 0.676735
Si Si5 0.872908 0.750000 0.750000
O O1 0.558740 0.819816 0.531587
O O2 0.391772 0.870960 0.621710
O O3 0.431011 0.838762 0.333066
O O4 0.500000 0.000000 0.500000
O O5 0.250000 0.500000 0.398747
O O6 0.347142 0.346273 0.498451
O O7 0.197506 0.394218 0.640125
O O8 0.189019 0.310813 0.368174
O O9 0.582671 0.750000 0.250000
O O10 0.725138 0.811515 0.395282
O O11 0.250000 0.000000 0.616383
#
# Coordination Sequence:
#
# PCOD8215996 Si02
#       5
#     8   8   8   8   4
#     4  12  24  40  72 106 136 181 229 284 348 415
#     4  10  24  44  70  95 137 184 228 284 349 409
#     4  10  20  40  69  96 134 178 220 274 342 412
#     4  10  20  41  72  99 136 180 220 269 349 421
#     4  12  26  44  66 100 140 176 240 296 330 410
#
# _framework density 21.252213000000001
#
# number of rings (size 3 to 8) (size 9 to 14) (size 15 to 20)
#    0.000    1.333    5.556    0.000    0.000    2.667 
#    0.000    8.889    0.000    0.000    0.000    0.000 
#    0.000    0.000    0.000    0.000    0.000    0.000 
#
# Total GULP energy -446024.099616 kJ/mol
# GULP energy per Si atom -12389.558323 kJ/mol
# Density = 2.120384 g / cm^3
# Si number density = 21.252213 Si / 1000 Ang^3
#
#
#
# Elastic Constant Matrix: (Units=GPa)
#
#
# Indices 1 2 3 4 5 6 
#
# 1 129.3109 64.6228 46.3835 0.0000 0.0000 0.0000
# 2 64.6228 152.4839 44.2061 0.0000 0.0000 0.0000
# 3 46.3835 44.2061 72.0824 0.0000 0.0000 0.0000
# 4 0.0000 0.0000 0.0000 32.5357 0.0000 0.0000
# 5 0.0000 0.0000 0.0000 0.0000 19.5211 0.0000
# 6 0.0000 0.0000 0.0000 0.0000 0.0000 25.0396
#
#
#
# Elastic Compliance Matrix: (Units=1/GPa)
#
#
# Indices 1 2 3 4 5 6 
#
# 1 0.011233 -0.003241 -0.005240 0.000000 0.000000 0.000000
# 2 -0.003241 0.008911 -0.003379 0.000000 0.000000 0.000000
# 3 -0.005240 -0.003379 0.019318 0.000000 0.000000 0.000000
# 4 0.000000 0.000000 0.000000 0.030735 0.000000 0.000000
# 5 0.000000 0.000000 0.000000 0.000000 0.051227 0.000000
# 6 0.000000 0.000000 0.000000 0.000000 0.000000 0.039937
#
#
# Mechanical properties :
#
#
# Convention : Reuss Voigt Hill
#
# Bulk Modulus (GPa) = 63.53332 73.81134 68.67233
# Shear Modulus (GPa) = 26.27027 28.66360 27.46694
#
# Velocity S-wave (km/s) = 3.51966 3.67650 3.59893
# Velocity P-wave (km/s) = 6.81742 7.26834 7.04648
#
# Compressibility (1/GPa) = 0.01573977
#
# Stress axis : x y z
#
# Youngs Moduli (GPa) = 89.02511 112.21518 51.76645
#
# Poissons Ratio (x) = 0.36372 0.27127
# Poissons Ratio (y) = 0.28855 0.17494
# Poissons Ratio (z) = 0.46652 0.37923
#
# Static dielectric constant tensor:
#      x y z
#    x 3.991230 0.000000 0.000000 
#    y 0.000000 4.639680 0.000000 
#    z 0.000000 0.000000 3.705430 
# 
# 
# High freq. dielectric constant tensor:
#      x y z
#    x 1.836410 0.000000 0.000000 
#    y 0.000000 1.852530 0.000000 
#    z 0.000000 0.000000 1.810390 
# 
# From -- ./inp_files/9911.got.cif
#   From: 2010.06.25/outbox.cif.g09.slc.cpg/sg52_5_cif.got.tgz:9911.got - 2010.06.26 19:32:48.
