data_PCOD8215050
_publ_section_title
;
Structure prediction by ZEFSAII (Michael W. Deem and Ramdas Pophale) SiO2 
 PCOD8215050
Probable space group: P N N A
;
_chemical_formula_sum "Si O2"
_cell_formula_units_Z 40
_cell_length_a 18.437586
_cell_length_b 7.815614
_cell_length_c 15.700476
_cell_angle_alpha 90.000000
_cell_angle_beta 90.000000
_cell_angle_gamma 90.000000
_cell_volume 2262.455160
_symmetry_space_group_name_H-M "P N N A"
_symmetry_group_IT_number 52
_symmetry_cell_setting 'orthorhombic'
loop_
_space_group_symop_operation_xyz
x,y,z
1/2-x,-y,z
x,1/2-y,1/2-z
1/2-x,1/2+y,1/2-z
-x,-y,-z
1/2+x,y,-z
-x,1/2+y,1/2+z
1/2+x,1/2-y,1/2+z
loop_
_atom_site_type_symbol
_atom_site_label
_atom_site_fract_x
_atom_site_fract_y
_atom_site_fract_z
Si Si1 0.522054 0.422238 0.208229
Si Si2 0.627153 0.262716 0.071617
Si Si3 0.533484 0.127027 0.567502
Si Si4 0.078670 0.602231 0.627605
Si Si5 0.232568 0.696338 0.655371
O O1 0.488703 0.250000 0.250000
O O2 0.585691 0.374297 0.142688
O O3 0.458933 0.525636 0.157298
O O4 0.554255 0.551413 0.277459
O O5 0.712768 0.290650 0.089519
O O6 0.600259 0.066994 0.076403
O O7 0.610544 0.318981 0.973946
O O8 0.484023 0.296018 0.578655
O O9 0.500000 0.000000 0.500000
O O10 0.148378 0.729803 0.633285
O O11 0.250000 0.500000 0.646809
O O12 0.253484 0.750000 0.750000
#
# Coordination Sequence:
#
# PCOD8215050 Si02
#       5
#     8   8   8   8   8
#     4   9  17  30  46  65  90 122 160 195 227 272
#     4   9  18  30  44  67 100 125 151 189 229 276
#     4  10  19  30  43  64  96 127 155 190 230 274
#     4  10  18  30  48  69  95 128 157 184 225 279
#     4  10  18  28  45  69  96 126 154 182 221 275
#
# _framework density 17.679908999999999
#
# number of rings (size 3 to 8) (size 9 to 14) (size 15 to 20)
#    0.000    2.400    0.000    5.400    0.000    1.600 
#    0.000    0.000    0.000    0.000    0.000    0.000 
#    0.000  121.600    0.000    0.000    0.000    0.000 
#
# Total GULP energy -495608.500029 kJ/mol
# GULP energy per Si atom -12390.212501 kJ/mol
# Density = 1.763967 g / cm^3
# Si number density = 17.679909 Si / 1000 Ang^3
#
#
#
# Elastic Constant Matrix: (Units=GPa)
#
#
# Indices 1 2 3 4 5 6 
#
# 1 87.0746 26.2045 62.1083 0.0000 0.0000 0.0000
# 2 26.2045 60.5314 38.4034 0.0000 0.0000 0.0000
# 3 62.1083 38.4034 94.3781 0.0000 0.0000 0.0000
# 4 0.0000 0.0000 0.0000 37.1329 0.0000 0.0000
# 5 0.0000 0.0000 0.0000 0.0000 16.1110 0.0000
# 6 0.0000 0.0000 0.0000 0.0000 0.0000 22.6798
#
#
#
# Elastic Compliance Matrix: (Units=1/GPa)
#
#
# Indices 1 2 3 4 5 6 
#
# 1 0.021653 -0.000449 -0.014067 0.000000 0.000000 0.000000
# 2 -0.000449 0.022279 -0.008770 0.000000 0.000000 0.000000
# 3 -0.014067 -0.008770 0.023421 0.000000 0.000000 0.000000
# 4 0.000000 0.000000 0.000000 0.026930 0.000000 0.000000
# 5 0.000000 0.000000 0.000000 0.000000 0.062069 0.000000
# 6 0.000000 0.000000 0.000000 0.000000 0.000000 0.044092
#
#
# Mechanical properties :
#
#
# Convention : Reuss Voigt Hill
#
# Bulk Modulus (GPa) = 48.11966 55.04629 51.58297
# Shear Modulus (GPa) = 19.68945 22.86926 21.27935
#
# Velocity S-wave (km/s) = 3.34078 3.60045 3.47304
# Velocity P-wave (km/s) = 6.49286 6.96325 6.73217
#
# Compressibility (1/GPa) = 0.02078153
#
# Stress axis : x y z
#
# Youngs Moduli (GPa) = 46.18300 44.88581 42.69659
#
# Poissons Ratio (x) = 0.02017 0.60059
# Poissons Ratio (y) = 0.02075 0.37444
# Poissons Ratio (z) = 0.64964 0.39364
#
# Static dielectric constant tensor:
#      x y z
#    x 3.441800 0.000000 0.000000 
#    y 0.000000 3.607940 0.000000 
#    z 0.000000 0.000000 3.513990 
# 
# 
# High freq. dielectric constant tensor:
#      x y z
#    x 1.639560 0.000000 0.000000 
#    y 0.000000 1.705480 0.000000 
#    z 0.000000 0.000000 1.666630 
# 
# From -- ./inp_files/26872.got.cif
#   From: 2010.06.25/outbox.cif.g09.slc.cpg/sg52_14_cif.got.tgz:26872.got - 2010.06.26 19:32:48.
