data_PCOD8215428
_publ_section_title
;
Structure prediction by ZEFSAII (Michael W. Deem and Ramdas Pophale) SiO2 
 PCOD8215428
Probable space group: P N N A
;
_chemical_formula_sum "Si O2"
_cell_formula_units_Z 48
_cell_length_a 28.185616
_cell_length_b 5.753721
_cell_length_c 13.863529
_cell_angle_alpha 90.000000
_cell_angle_beta 90.000000
_cell_angle_gamma 90.000000
_cell_volume 2248.278591
_symmetry_space_group_name_H-M "P N N A"
_symmetry_group_IT_number 52
_symmetry_cell_setting 'orthorhombic'
loop_
_space_group_symop_operation_xyz
x,y,z
1/2-x,-y,z
x,1/2-y,1/2-z
1/2-x,1/2+y,1/2-z
-x,-y,-z
1/2+x,y,-z
-x,1/2+y,1/2+z
1/2+x,1/2-y,1/2+z
loop_
_atom_site_type_symbol
_atom_site_label
_atom_site_fract_x
_atom_site_fract_y
_atom_site_fract_z
Si Si1 0.116721 0.783237 0.861309
Si Si2 0.970843 0.997761 0.193250
Si Si3 0.427482 0.892304 0.150852
Si Si4 0.840757 0.286850 0.645909
Si Si5 0.127187 0.092616 0.495053
Si Si6 0.696186 0.022351 0.027864
O O1 0.128467 0.750000 0.750000
O O2 0.076206 0.985105 0.874877
O O3 0.166279 0.839975 0.910964
O O4 0.100619 0.551708 0.919990
O O5 0.968580 0.750000 0.250000
O O6 0.966165 0.250000 0.250000
O O7 0.019643 0.005237 0.134035
O O8 0.425934 0.750000 0.250000
O O9 0.413197 0.748294 0.055801
O O10 0.392930 0.108677 0.161801
O O11 0.816408 0.250000 0.750000
O O12 0.807052 0.459678 0.585734
O O13 0.847435 0.048039 0.590142
O O14 0.171213 0.229832 0.544103
O O15 0.750000 0.000000 0.063906
#
# Coordination Sequence:
#
# PCOD8215428 Si02
#       6
#     8   8   8   8   8   8
#     4  10  24  44  66  92 129 180 226 289 347 397
#     4  10  23  39  66 101 139 184 232 282 334 407
#     4  10  19  35  65  96 137 182 224 266 330 403
#     4  10  19  37  62  95 135 176 215 261 331 402
#     4  10  22  40  66  95 134 173 220 282 331 411
#     4  10  24  44  63  97 127 167 223 289 343 411
#
# _framework density 21.349667
#
# number of rings (size 3 to 8) (size 9 to 14) (size 15 to 20)
#    0.000    2.000    1.667    0.500    7.000    3.333 
#    6.000    7.500    0.000    0.000    0.000    0.000 
#    0.000    0.000    0.000    0.000    0.000    0.000 
#
# Total GULP energy -594669.813471 kJ/mol
# GULP energy per Si atom -12388.954447 kJ/mol
# Density = 2.130107 g / cm^3
# Si number density = 21.349667 Si / 1000 Ang^3
#
#
#
# Elastic Constant Matrix: (Units=GPa)
#
#
# Indices 1 2 3 4 5 6 
#
# 1 155.9127 37.1113 25.0654 0.0000 0.0000 0.0000
# 2 37.1113 114.0905 36.6671 0.0000 0.0000 0.0000
# 3 25.0654 36.6671 113.4860 0.0000 0.0000 0.0000
# 4 0.0000 0.0000 0.0000 34.1740 0.0000 0.0000
# 5 0.0000 0.0000 0.0000 0.0000 18.3942 0.0000
# 6 0.0000 0.0000 0.0000 0.0000 0.0000 18.4271
#
#
#
# Elastic Compliance Matrix: (Units=1/GPa)
#
#
# Indices 1 2 3 4 5 6 
#
# 1 0.007035 -0.001996 -0.000909 0.000000 0.000000 0.000000
# 2 -0.001996 0.010347 -0.002902 0.000000 0.000000 0.000000
# 3 -0.000909 -0.002902 0.009950 0.000000 0.000000 0.000000
# 4 0.000000 0.000000 0.000000 0.029262 0.000000 0.000000
# 5 0.000000 0.000000 0.000000 0.000000 0.054365 0.000000
# 6 0.000000 0.000000 0.000000 0.000000 0.000000 0.054268
#
#
# Mechanical properties :
#
#
# Convention : Reuss Voigt Hill
#
# Bulk Modulus (GPa) = 63.62289 64.57520 64.09904
# Shear Modulus (GPa) = 27.46030 33.17541 30.31785
#
# Velocity S-wave (km/s) = 3.59028 3.94624 3.77246
# Velocity P-wave (km/s) = 6.85944 7.14674 7.00456
#
# Compressibility (1/GPa) = 0.01571761
#
# Stress axis : x y z
#
# Youngs Moduli (GPa) = 142.14385 96.64591 100.50168
#
# Poissons Ratio (x) = 0.19293 0.09134
# Poissons Ratio (y) = 0.28376 0.29168
# Poissons Ratio (z) = 0.12919 0.28049
#
# Static dielectric constant tensor:
#      x y z
#    x 3.863430 0.000000 0.000000 
#    y 0.000000 4.061130 0.000000 
#    z 0.000000 0.000000 3.975370 
# 
# 
# High freq. dielectric constant tensor:
#      x y z
#    x 1.823770 0.000000 0.000000 
#    y 0.000000 1.847400 0.000000 
#    z 0.000000 0.000000 1.830740 
# 
# From -- ./inp_files/29604.got.cif
#   From: 2010.06.25/outbox.cif.g09.slc.cpg/sg52_15_cif.got.tgz:29604.got - 2010.06.26 19:32:48.
