data_PCOD8215372
_publ_section_title
;
Structure prediction by ZEFSAII (Michael W. Deem and Ramdas Pophale) SiO2 
 PCOD8215372
Probable space group: P N N A
;
_chemical_formula_sum "Si O2"
_cell_formula_units_Z 64
_cell_length_a 19.218589
_cell_length_b 9.350889
_cell_length_c 18.455306
_cell_angle_alpha 90.000000
_cell_angle_beta 90.000000
_cell_angle_gamma 90.000000
_cell_volume 3316.619512
_symmetry_space_group_name_H-M "P N N A"
_symmetry_group_IT_number 52
_symmetry_cell_setting 'orthorhombic'
loop_
_space_group_symop_operation_xyz
x,y,z
1/2-x,-y,z
x,1/2-y,1/2-z
1/2-x,1/2+y,1/2-z
-x,-y,-z
1/2+x,y,-z
-x,1/2+y,1/2+z
1/2+x,1/2-y,1/2+z
loop_
_atom_site_type_symbol
_atom_site_label
_atom_site_fract_x
_atom_site_fract_y
_atom_site_fract_z
Si Si1 0.596610 0.478571 0.498928
Si Si2 0.695190 0.308771 0.573725
Si Si3 0.054816 0.634006 0.198007
Si Si4 0.903608 0.883110 0.797104
Si Si5 0.038699 0.985215 0.576041
Si Si6 0.853020 0.238149 0.917412
Si Si7 0.016290 0.658562 0.593902
Si Si8 0.327205 0.978304 0.503390
O O1 0.671394 0.397404 0.501195
O O2 0.596058 0.619783 0.549601
O O3 0.538944 0.365873 0.528196
O O4 0.577778 0.540311 0.418970
O O5 0.652115 0.386528 0.637748
O O6 0.775879 0.327631 0.590253
O O7 0.675009 0.142959 0.559558
O O8 0.016062 0.750000 0.250000
O O9 0.096600 0.518969 0.245451
O O10 0.117146 0.720335 0.160086
O O11 0.000810 0.567154 0.140711
O O12 0.881088 0.750000 0.750000
O O13 0.981475 0.869126 0.828587
O O14 0.116342 0.053870 0.566705
O O15 0.045149 0.818714 0.595406
O O16 0.000000 0.000000 0.500000
O O17 0.853666 0.376632 0.967642
O O18 0.250000 0.000000 0.537041
#
# Coordination Sequence:
#
# PCOD8215372 Si02
#       8
#     8   8   8   8   8   8   8   8
#     4  10  19  34  58  84 110 148 205 256 299 349
#     4  10  22  36  57  82 124 163 199 244 300 370
#     4  12  25  37  59  90 124 157 217 254 296 373
#     4  11  21  37  54  78 119 162 202 244 296 371
#     4  12  20  38  66  87 119 161 202 262 315 357
#     4  11  21  39  55  85 123 163 204 247 294 364
#     4  10  20  34  57  83 110 151 198 253 306 350
#     4  10  21  37  62  94 119 154 208 256 310 373
#
# _framework density 19.296755999999998
#
# number of rings (size 3 to 8) (size 9 to 14) (size 15 to 20)
#    0.000    1.250    3.750    4.125    0.000    3.500 
#    0.000    2.500    0.000    0.000    3.250    0.000 
#    0.000    0.000    0.000    0.000    0.000    0.000 
#
# Total GULP energy -793137.660267 kJ/mol
# GULP energy per Si atom -12392.775942 kJ/mol
# Density = 1.925284 g / cm^3
# Si number density = 19.296756 Si / 1000 Ang^3
#
#
#
# Elastic Constant Matrix: (Units=GPa)
#
#
# Indices 1 2 3 4 5 6 
#
# 1 110.0339 21.4266 45.4278 0.0000 0.0000 0.0000
# 2 21.4266 62.2578 15.5537 0.0000 0.0000 0.0000
# 3 45.4278 15.5537 53.0161 0.0000 0.0000 0.0000
# 4 0.0000 0.0000 0.0000 37.8538 0.0000 0.0000
# 5 0.0000 0.0000 0.0000 0.0000 11.0871 0.0000
# 6 0.0000 0.0000 0.0000 0.0000 0.0000 33.7817
#
#
#
# Elastic Compliance Matrix: (Units=1/GPa)
#
#
# Indices 1 2 3 4 5 6 
#
# 1 0.014292 -0.002006 -0.011657 0.000000 0.000000 0.000000
# 2 -0.002006 0.017614 -0.003449 0.000000 0.000000 0.000000
# 3 -0.011657 -0.003449 0.029863 0.000000 0.000000 0.000000
# 4 0.000000 0.000000 0.000000 0.026417 0.000000 0.000000
# 5 0.000000 0.000000 0.000000 0.000000 0.090195 0.000000
# 6 0.000000 0.000000 0.000000 0.000000 0.000000 0.029602
#
#
# Mechanical properties :
#
#
# Convention : Reuss Voigt Hill
#
# Bulk Modulus (GPa) = 36.30522 43.34711 39.82617
# Shear Modulus (GPa) = 19.88953 26.07117 22.98035
#
# Velocity S-wave (km/s) = 3.21396 3.67967 3.45467
# Velocity P-wave (km/s) = 5.71207 6.36910 6.04951
#
# Compressibility (1/GPa) = 0.02754424
#
# Stress axis : x y z
#
# Youngs Moduli (GPa) = 69.97131 56.77222 33.48654
#
# Poissons Ratio (x) = 0.11390 0.39037
# Poissons Ratio (y) = 0.14038 0.11548
# Poissons Ratio (z) = 0.81568 0.19578
#
# Static dielectric constant tensor:
#      x y z
#    x 3.873820 0.000000 0.000000 
#    y 0.000000 3.779090 0.000000 
#    z 0.000000 0.000000 3.443080 
# 
# 
# High freq. dielectric constant tensor:
#      x y z
#    x 1.737460 0.000000 0.000000 
#    y 0.000000 1.781130 0.000000 
#    z 0.000000 0.000000 1.712330 
# 
# From -- ./inp_files/38031.got.cif
#   From: 2010.06.25/outbox.cif.g09.slc.cpg/sg52_20_cif.got.tgz:38031.got - 2010.06.26 19:32:48.
