data_PCOD8215899
_publ_section_title
;
Structure prediction by ZEFSAII (Michael W. Deem and Ramdas Pophale) SiO2 
 PCOD8215899
Probable space group: P N N A
;
_chemical_formula_sum "Si O2"
_cell_formula_units_Z 48
_cell_length_a 14.809253
_cell_length_b 17.167001
_cell_length_c 8.669989
_cell_angle_alpha 90.000000
_cell_angle_beta 90.000000
_cell_angle_gamma 90.000000
_cell_volume 2204.175301
_symmetry_space_group_name_H-M "P N N A"
_symmetry_group_IT_number 52
_symmetry_cell_setting 'orthorhombic'
loop_
_space_group_symop_operation_xyz
x,y,z
1/2-x,-y,z
x,1/2-y,1/2-z
1/2-x,1/2+y,1/2-z
-x,-y,-z
1/2+x,y,-z
-x,1/2+y,1/2+z
1/2+x,1/2-y,1/2+z
loop_
_atom_site_type_symbol
_atom_site_label
_atom_site_fract_x
_atom_site_fract_y
_atom_site_fract_z
Si Si1 0.607577 0.194873 0.893301
Si Si2 0.551098 0.764277 0.572407
Si Si3 0.495595 0.435315 0.130485
Si Si4 0.310338 0.933348 0.585744
Si Si5 0.152202 0.027898 0.236193
Si Si6 0.764651 0.232607 0.423555
O O1 0.581843 0.250000 0.750000
O O2 0.614464 0.104158 0.849520
O O3 0.531790 0.208891 0.023661
O O4 0.703552 0.219462 0.959225
O O5 0.575188 0.750000 0.750000
O O6 0.532608 0.855338 0.548512
O O7 0.634131 0.741922 0.462761
O O8 0.599413 0.421827 0.190459
O O9 0.426793 0.460625 0.269666
O O10 0.500000 0.500000 0.000000
O O11 0.338460 0.958533 0.416152
O O12 0.248858 0.858787 0.557909
O O13 0.250000 0.000000 0.666695
O O14 0.250000 0.000000 0.167311
O O15 0.738121 0.250000 0.250000
#
# Coordination Sequence:
#
# PCOD8215899 Si02
#       6
#     8   8   8   8   8   8
#     4  12  23  43  69 102 139 177 228 290 344 411
#     4  12  26  43  73 100 134 180 233 288 344 405
#     4  10  20  39  66  97 133 180 232 271 332 423
#     4  10  20  38  66  97 130 178 231 277 328 416
#     4  10  21  38  68  98 135 179 230 274 345 411
#     4  12  25  42  67 100 137 177 229 279 344 411
#
# _framework density 21.776851000000001
#
# number of rings (size 3 to 8) (size 9 to 14) (size 15 to 20)
#    0.000    1.000    3.333    5.500    2.333    1.333 
#    0.000    1.667    3.667    0.000    0.000    0.000 
#    0.000    0.000    0.000    0.000    0.000    0.000 
#
# Total GULP energy -595016.617369 kJ/mol
# GULP energy per Si atom -12396.179529 kJ/mol
# Density = 2.172729 g / cm^3
# Si number density = 21.776851 Si / 1000 Ang^3
#
#
#
# Elastic Constant Matrix: (Units=GPa)
#
#
# Indices 1 2 3 4 5 6 
#
# 1 146.9766 53.9279 14.4341 0.0000 0.0000 0.0000
# 2 53.9279 98.8747 10.0175 0.0000 0.0000 0.0000
# 3 14.4341 10.0175 47.1078 0.0000 0.0000 0.0000
# 4 0.0000 0.0000 0.0000 54.3246 0.0000 0.0000
# 5 0.0000 0.0000 0.0000 0.0000 26.1208 0.0000
# 6 0.0000 0.0000 0.0000 0.0000 0.0000 34.4764
#
#
#
# Elastic Compliance Matrix: (Units=1/GPa)
#
#
# Indices 1 2 3 4 5 6 
#
# 1 0.008634 -0.004539 -0.001680 0.000000 0.000000 0.000000
# 2 -0.004539 0.012723 -0.001315 0.000000 0.000000 0.000000
# 3 -0.001680 -0.001315 0.022022 0.000000 0.000000 0.000000
# 4 0.000000 0.000000 0.000000 0.018408 0.000000 0.000000
# 5 0.000000 0.000000 0.000000 0.000000 0.038284 0.000000
# 6 0.000000 0.000000 0.000000 0.000000 0.000000 0.029005
#
#
# Mechanical properties :
#
#
# Convention : Reuss Voigt Hill
#
# Bulk Modulus (GPa) = 35.32184 49.96869 42.64526
# Shear Modulus (GPa) = 32.55603 37.28966 34.92285
#
# Velocity S-wave (km/s) = 3.87070 4.14255 4.00893
# Velocity P-wave (km/s) = 6.01926 6.77322 6.40734
#
# Compressibility (1/GPa) = 0.02831110
#
# Stress axis : x y z
#
# Youngs Moduli (GPa) = 115.81755 78.59979 45.40844
#
# Poissons Ratio (x) = 0.35677 0.07630
# Poissons Ratio (y) = 0.52570 0.05970
# Poissons Ratio (z) = 0.19462 0.10334
#
# Static dielectric constant tensor:
#      x y z
#    x 4.774580 0.000000 0.000000 
#    y 0.000000 4.033250 0.000000 
#    z 0.000000 0.000000 3.499680 
# 
# 
# High freq. dielectric constant tensor:
#      x y z
#    x 1.881500 0.000000 0.000000 
#    y 0.000000 1.863360 0.000000 
#    z 0.000000 0.000000 1.814670 
# 
# From -- ./inp_files/10487.got.cif
#   From: 2010.06.25/outbox.cif.g09.slc.cpg/sg52_6_cif.got.tgz:10487.got - 2010.06.26 19:32:48.
