data_PCOD8215497
_publ_section_title
;
Structure prediction by ZEFSAII (Michael W. Deem and Ramdas Pophale) SiO2 
 PCOD8215497
Probable space group: P N N A
;
_chemical_formula_sum "Si O2"
_cell_formula_units_Z 32
_cell_length_a 8.818478
_cell_length_b 17.345513
_cell_length_c 8.171212
_cell_angle_alpha 90.000000
_cell_angle_beta 90.000000
_cell_angle_gamma 90.000000
_cell_volume 1249.876961
_symmetry_space_group_name_H-M "P N N A"
_symmetry_group_IT_number 52
_symmetry_cell_setting 'orthorhombic'
loop_
_space_group_symop_operation_xyz
x,y,z
1/2-x,-y,z
x,1/2-y,1/2-z
1/2-x,1/2+y,1/2-z
-x,-y,-z
1/2+x,y,-z
-x,1/2+y,1/2+z
1/2+x,1/2-y,1/2+z
loop_
_atom_site_type_symbol
_atom_site_label
_atom_site_fract_x
_atom_site_fract_y
_atom_site_fract_z
Si Si1 0.426585 0.980671 0.171322
Si Si2 0.028147 0.317594 0.423337
Si Si3 0.220255 0.710311 0.999591
Si Si4 0.037421 0.127423 0.702807
O O1 0.250000 0.000000 0.166844
O O2 0.510898 0.034576 0.305203
O O3 0.453647 0.889345 0.204178
O O4 0.500000 0.000000 0.000000
O O5 0.158040 0.254979 0.388622
O O6 0.041316 0.344925 0.610665
O O7 0.868322 0.275150 0.392149
O O8 0.304384 0.648488 0.883099
O O9 0.103955 0.667924 0.117536
#
# Coordination Sequence:
#
# PCOD8215497 Si02
#       4
#     8   8   8   8
#     4  10  21  41  67  97 132 173 222 280 334 397
#     4  10  20  38  65  97 126 171 226 273 325 398
#     4  10  19  37  65  97 130 167 215 278 335 385
#     4  10  22  40  63  97 136 171 221 277 334 402
#
# _framework density 25.602522
#
# number of rings (size 3 to 8) (size 9 to 14) (size 15 to 20)
#    0.000    2.000    0.000    6.000    0.000    0.000 
#    0.000   41.250    0.000    1.500    0.000    1.750 
#    0.000    0.000    0.000    0.000    0.000    0.000 
#
# Total GULP energy -396667.568879 kJ/mol
# GULP energy per Si atom -12395.861527 kJ/mol
# Density = 2.554425 g / cm^3
# Si number density = 25.602522 Si / 1000 Ang^3
#
#
#
# Elastic Constant Matrix: (Units=GPa)
#
#
# Indices 1 2 3 4 5 6 
#
# 1 132.4842 52.4411 7.7762 0.0000 0.0000 0.0000
# 2 52.4411 194.5046 36.4610 0.0000 0.0000 0.0000
# 3 7.7762 36.4610 56.8314 0.0000 0.0000 0.0000
# 4 0.0000 0.0000 0.0000 47.0613 0.0000 0.0000
# 5 0.0000 0.0000 0.0000 0.0000 24.7209 0.0000
# 6 0.0000 0.0000 0.0000 0.0000 0.0000 44.1959
#
#
#
# Elastic Compliance Matrix: (Units=1/GPa)
#
#
# Indices 1 2 3 4 5 6 
#
# 1 0.008456 -0.002345 0.000347 0.000000 0.000000 0.000000
# 2 -0.002345 0.006494 -0.003846 0.000000 0.000000 0.000000
# 3 0.000347 -0.003846 0.020016 0.000000 0.000000 0.000000
# 4 0.000000 0.000000 0.000000 0.021249 0.000000 0.000000
# 5 0.000000 0.000000 0.000000 0.000000 0.040452 0.000000
# 6 0.000000 0.000000 0.000000 0.000000 0.000000 0.022627
#
#
# Mechanical properties :
#
#
# Convention : Reuss Voigt Hill
#
# Bulk Modulus (GPa) = 42.95638 64.13076 53.54357
# Shear Modulus (GPa) = 36.03884 42.33841 39.18863
#
# Velocity S-wave (km/s) = 3.75591 4.07096 3.91660
# Velocity P-wave (km/s) = 5.96856 6.87022 6.43520
#
# Compressibility (1/GPa) = 0.02327943
#
# Stress axis : x y z
#
# Youngs Moduli (GPa) = 118.26098 153.97888 49.96094
#
# Poissons Ratio (x) = 0.36107 -0.01736
# Poissons Ratio (y) = 0.27732 0.19214
# Poissons Ratio (z) = -0.04109 0.59216
#
# Static dielectric constant tensor:
#      x y z
#    x 4.847180 0.000000 0.000000 
#    y 0.000000 6.669880 0.000000 
#    z 0.000000 0.000000 4.311960 
# 
# 
# High freq. dielectric constant tensor:
#      x y z
#    x 2.035620 0.000000 0.000000 
#    y 0.000000 2.036290 0.000000 
#    z 0.000000 0.000000 2.009540 
# 
# From -- ./inp_files/7192.got.cif
#   From: 2010.06.25/outbox.cif.g09.slc.cpg/sg52_4_cif.got.tgz:7192.got - 2010.06.26 19:32:48.
