data_PCOD8215799
_publ_section_title
;
Structure prediction by ZEFSAII (Michael W. Deem and Ramdas Pophale) SiO2 
 PCOD8215799
Probable space group: P N N A
;
_chemical_formula_sum "Si O2"
_cell_formula_units_Z 60
_cell_length_a 5.430380
_cell_length_b 18.750378
_cell_length_c 26.046963
_cell_angle_alpha 90.000000
_cell_angle_beta 90.000000
_cell_angle_gamma 90.000000
_cell_volume 2652.145471
_symmetry_space_group_name_H-M "P N N A"
_symmetry_group_IT_number 52
_symmetry_cell_setting 'orthorhombic'
loop_
_space_group_symop_operation_xyz
x,y,z
1/2-x,-y,z
x,1/2-y,1/2-z
1/2-x,1/2+y,1/2-z
-x,-y,-z
1/2+x,y,-z
-x,1/2+y,1/2+z
1/2+x,1/2-y,1/2+z
loop_
_atom_site_type_symbol
_atom_site_label
_atom_site_fract_x
_atom_site_fract_y
_atom_site_fract_z
Si Si1 0.038973 0.138801 0.324140
Si Si2 0.048351 0.320811 0.867336
Si Si3 0.410724 0.069515 0.774171
Si Si4 0.292219 0.577475 0.376161
Si Si5 0.537174 0.305169 0.015619
Si Si6 0.346214 0.750000 0.250000
Si Si7 0.023878 0.326477 0.686757
Si Si8 0.036712 0.353048 0.474820
O O1 0.295699 0.135389 0.355995
O O2 0.004327 0.216968 0.297553
O O3 0.793648 0.130195 0.359749
O O4 0.047085 0.077330 0.280643
O O5 0.038212 0.289913 0.924430
O O6 0.074774 0.253303 0.830931
O O7 0.585454 0.059073 0.822183
O O8 0.256236 0.142047 0.783169
O O9 0.250000 0.000000 0.770075
O O10 0.250000 0.500000 0.402702
O O11 0.046712 0.622188 0.361496
O O12 0.456279 0.625946 0.414541
O O13 0.286693 0.347798 0.000329
O O14 0.534882 0.232206 0.982005
O O15 0.193528 0.681075 0.271178
O O16 0.285388 0.385508 0.500979
#
# Coordination Sequence:
#
# PCOD8215799 Si02
#       8
#     8   8   8   8   8   4   8   8
#     4  11  23  41  60  94 125 166 210 266 324 392
#     4  11  24  38  66  93 127 161 217 267 328 399
#     4  12  25  41  64  88 132 179 223 268 317 386
#     4  12  26  41  61  86 125 174 234 277 316 379
#     4  10  20  37  60  91 121 162 199 261 333 385
#     4  10  20  38  58  86 122 158 212 270 324 386
#     4  11  22  38  57  86 119 167 213 267 320 376
#     4  10  24  41  62  84 115 164 218 280 331 373
#
# _framework density 22.623193000000001
#
# number of rings (size 3 to 8) (size 9 to 14) (size 15 to 20)
#    0.000    1.067    2.667    4.800    7.467    1.067 
#    0.000    0.000    0.000    0.000    0.000    0.000 
#    0.000   10.667    0.000    0.000    0.000    0.000 
#
# Total GULP energy -743589.078372 kJ/mol
# GULP energy per Si atom -12393.151306 kJ/mol
# Density = 2.257170 g / cm^3
# Si number density = 22.623193 Si / 1000 Ang^3
#
#
#
# Elastic Constant Matrix: (Units=GPa)
#
#
# Indices 1 2 3 4 5 6 
#
# 1 168.8281 5.7767 34.4423 0.0000 0.0000 0.0000
# 2 5.7767 22.6473 15.6723 0.0000 0.0000 0.0000
# 3 34.4423 15.6723 88.2728 0.0000 0.0000 0.0000
# 4 0.0000 0.0000 0.0000 16.3111 0.0000 0.0000
# 5 0.0000 0.0000 0.0000 0.0000 35.6730 0.0000
# 6 0.0000 0.0000 0.0000 0.0000 0.0000 20.3583
#
#
#
# Elastic Compliance Matrix: (Units=1/GPa)
#
#
# Indices 1 2 3 4 5 6 
#
# 1 0.006436 0.000110 -0.002531 0.000000 0.000000 0.000000
# 2 0.000110 0.050342 -0.008981 0.000000 0.000000 0.000000
# 3 -0.002531 -0.008981 0.013910 0.000000 0.000000 0.000000
# 4 0.000000 0.000000 0.000000 0.061308 0.000000 0.000000
# 5 0.000000 0.000000 0.000000 0.000000 0.028032 0.000000
# 6 0.000000 0.000000 0.000000 0.000000 0.000000 0.049120
#
#
# Mechanical properties :
#
#
# Convention : Reuss Voigt Hill
#
# Bulk Modulus (GPa) = 20.88337 43.50341 32.19339
# Shear Modulus (GPa) = 20.16830 29.39226 24.78028
#
# Velocity S-wave (km/s) = 2.98902 3.60836 3.31320
# Velocity P-wave (km/s) = 4.60036 6.05241 5.37564
#
# Compressibility (1/GPa) = 0.04788500
#
# Stress axis : x y z
#
# Youngs Moduli (GPa) = 155.38362 19.86403 71.88893
#
# Poissons Ratio (x) = -0.00218 0.18192
# Poissons Ratio (y) = -0.01703 0.64561
# Poissons Ratio (z) = 0.39320 0.17839
#
# Static dielectric constant tensor:
#      x y z
#    x 4.822000 0.000000 0.000000 
#    y 0.000000 3.590810 0.000000 
#    z 0.000000 0.000000 4.008430 
# 
# 
# High freq. dielectric constant tensor:
#      x y z
#    x 1.913440 0.000000 0.000000 
#    y 0.000000 1.833520 0.000000 
#    z 0.000000 0.000000 1.888050 
# 
# From -- ./inp_files/38871.got.cif
#   From: 2010.06.25/outbox.cif.g09.slc.cpg/sg52_20_cif.got.tgz:38871.got - 2010.06.26 19:32:48.
