data_PCOD8215067
_publ_section_title
;
Structure prediction by ZEFSAII (Michael W. Deem and Ramdas Pophale) SiO2 
 PCOD8215067
Probable space group: P N N A
;
_chemical_formula_sum "Si O2"
_cell_formula_units_Z 64
_cell_length_a 14.794753
_cell_length_b 24.381831
_cell_length_c 9.099946
_cell_angle_alpha 90.000000
_cell_angle_beta 90.000000
_cell_angle_gamma 90.000000
_cell_volume 3282.561344
_symmetry_space_group_name_H-M "P N N A"
_symmetry_group_IT_number 52
_symmetry_cell_setting 'orthorhombic'
loop_
_space_group_symop_operation_xyz
x,y,z
1/2-x,-y,z
x,1/2-y,1/2-z
1/2-x,1/2+y,1/2-z
-x,-y,-z
1/2+x,y,-z
-x,1/2+y,1/2+z
1/2+x,1/2-y,1/2+z
loop_
_atom_site_type_symbol
_atom_site_label
_atom_site_fract_x
_atom_site_fract_y
_atom_site_fract_z
Si Si1 0.503641 0.057807 0.577833
Si Si2 0.346048 0.250000 0.077581
Si Si3 0.147309 0.642288 0.579755
Si Si4 0.003641 0.442193 0.422167
Si Si5 0.357223 0.869187 0.583379
Si Si6 0.663391 0.250000 0.083625
Si Si7 0.357223 0.630813 0.583379
Si Si8 0.647309 0.642288 0.079755
O O1 0.511412 0.048086 0.750000
O O2 0.591254 0.091415 0.527115
O O3 0.412839 0.090262 0.534272
O O4 0.500000 0.000000 0.500000
O O5 0.362176 0.250000 0.250000
O O6 0.389327 0.194754 0.010431
O O7 0.240529 0.250000 0.038351
O O8 0.389327 0.305246 0.010431
O O9 0.251216 0.628527 0.542980
O O10 0.135068 0.656501 0.750000
O O11 0.087161 0.590262 0.534272
O O12 0.091254 0.408585 0.472885
O O13 0.000000 0.500000 0.500000
O O14 0.393739 0.806131 0.564748
O O15 0.373248 0.889594 0.750000
O O16 0.251216 0.871473 0.542980
O O17 0.706354 0.250000 0.250000
O O18 0.606261 0.193869 0.064748
#
# Coordination Sequence:
#
# PCOD8215067 Si02
#       8
#     8   8   8   8   8   8   8   8
#     4  11  24  40  57  79 108 144 188 233 274 322
#     4  10  18  29  54  89 116 138 176 229 271 311
#     4   9  20  39  59  79 111 152 182 212 271 341
#     4  11  24  40  57  79 108 144 188 233 274 322
#     4   9  18  36  60  83 110 145 183 221 266 324
#     4   8  16  33  56  81 114 152 180 209 267 341
#     4   9  18  36  60  83 110 145 183 221 266 324
#     4   9  20  39  59  79 111 152 182 212 271 341
#
# _framework density 19.496970999999998
#
# number of rings (size 3 to 8) (size 9 to 14) (size 15 to 20)
#    0.000    2.500    0.000    3.375    0.000    8.000 
#    0.000    7.500    0.000    0.000    0.000    0.000 
#    0.000    0.000    0.000    0.000    0.000    0.000 
#
# Total GULP energy -793401.143286 kJ/mol
# GULP energy per Si atom -12396.892864 kJ/mol
# Density = 1.945259 g / cm^3
# Si number density = 19.496971 Si / 1000 Ang^3
#
#
#
# Elastic Constant Matrix: (Units=GPa)
#
#
# Indices 1 2 3 4 5 6 
#
# 1 81.3775 69.0802 47.3159 0.0000 0.0000 0.0000
# 2 69.0802 190.3169 86.6811 0.0000 0.0000 0.0000
# 3 47.3159 86.6811 101.5373 0.0000 0.0000 0.0000
# 4 0.0000 0.0000 0.0000 38.7314 0.0000 0.0000
# 5 0.0000 0.0000 0.0000 0.0000 28.2639 0.0000
# 6 0.0000 0.0000 0.0000 0.0000 0.0000 29.6938
#
#
#
# Elastic Compliance Matrix: (Units=1/GPa)
#
#
# Indices 1 2 3 4 5 6 
#
# 1 0.019137 -0.004720 -0.004889 0.000000 0.000000 0.000000
# 2 -0.004720 0.009761 -0.006134 0.000000 0.000000 0.000000
# 3 -0.004889 -0.006134 0.017363 0.000000 0.000000 0.000000
# 4 0.000000 0.000000 0.000000 0.025819 0.000000 0.000000
# 5 0.000000 0.000000 0.000000 0.000000 0.035381 0.000000
# 6 0.000000 0.000000 0.000000 0.000000 0.000000 0.033677
#
#
# Mechanical properties :
#
#
# Convention : Reuss Voigt Hill
#
# Bulk Modulus (GPa) = 67.67141 86.59846 77.13493
# Shear Modulus (GPa) = 28.16138 30.68145 29.42141
#
# Velocity S-wave (km/s) = 3.80465 3.97123 3.88883
# Velocity P-wave (km/s) = 7.35421 8.09570 7.73385
#
# Compressibility (1/GPa) = 0.01477729
#
# Stress axis : x y z
#
# Youngs Moduli (GPa) = 52.25352 102.44708 57.59424
#
# Poissons Ratio (x) = 0.48353 0.28156
# Poissons Ratio (y) = 0.24663 0.35326
# Poissons Ratio (z) = 0.25545 0.62836
#
# Static dielectric constant tensor:
#      x y z
#    x 3.375180 0.000000 0.000000 
#    y 0.000000 3.718530 0.000000 
#    z 0.000000 0.000000 3.452440 
# 
# 
# High freq. dielectric constant tensor:
#      x y z
#    x 1.741100 0.000000 0.000000 
#    y 0.000000 1.768460 0.000000 
#    z 0.000000 0.000000 1.754740 
# 
# From -- ./inp_files/10998.got.cif
#   From: 2010.06.25/outbox.cif.g09.slc.cpg/sg52_6_cif.got.tgz:10998.got - 2010.06.26 19:32:48.
