data_PCOD8215519
_publ_section_title
;
Structure prediction by ZEFSAII (Michael W. Deem and Ramdas Pophale) SiO2 
 PCOD8215519
Probable space group: P N N A
;
_chemical_formula_sum "Si O2"
_cell_formula_units_Z 64
_cell_length_a 14.376497
_cell_length_b 11.849193
_cell_length_c 17.792217
_cell_angle_alpha 90.000000
_cell_angle_beta 90.000000
_cell_angle_gamma 90.000000
_cell_volume 3030.902166
_symmetry_space_group_name_H-M "P N N A"
_symmetry_group_IT_number 52
_symmetry_cell_setting 'orthorhombic'
loop_
_space_group_symop_operation_xyz
x,y,z
1/2-x,-y,z
x,1/2-y,1/2-z
1/2-x,1/2+y,1/2-z
-x,-y,-z
1/2+x,y,-z
-x,1/2+y,1/2+z
1/2+x,1/2-y,1/2+z
loop_
_atom_site_type_symbol
_atom_site_label
_atom_site_fract_x
_atom_site_fract_y
_atom_site_fract_z
Si Si1 0.623256 0.912637 0.537323
Si Si2 0.797768 0.208677 0.044869
Si Si3 0.571637 0.762076 0.663820
Si Si4 0.037262 0.548501 0.578897
Si Si5 0.570613 0.149742 0.529877
Si Si6 0.612241 0.311466 0.400286
Si Si7 0.769286 0.123666 0.890225
Si Si8 0.412840 0.788171 0.166206
O O1 0.692761 0.835245 0.488672
O O2 0.616910 0.873598 0.625337
O O3 0.521474 0.897277 0.505332
O O4 0.647313 0.046391 0.530962
O O5 0.896003 0.157033 0.069355
O O6 0.723000 0.209670 0.114530
O O7 0.752925 0.129898 0.979803
O O8 0.597465 0.750000 0.750000
O O9 0.459510 0.757140 0.652637
O O10 0.622307 0.656548 0.622977
O O11 0.092971 0.443450 0.613660
O O12 0.000000 0.500000 0.500000
O O13 0.958651 0.592769 0.637488
O O14 0.601830 0.262563 0.485458
O O15 0.551103 0.185553 0.615143
O O16 0.698855 0.204300 0.844254
O O17 0.750000 0.000000 0.859902
O O18 0.439904 0.750000 0.250000
#
# Coordination Sequence:
#
# PCOD8215519 Si02
#       8
#     8   8   8   8   8   8   8   8
#     4   9  20  36  63  83 121 165 208 264 313 381
#     4  11  20  36  62  98 120 159 219 270 313 384
#     4  10  22  40  57  86 122 168 213 255 323 398
#     4  12  20  38  64  92 128 164 212 273 318 387
#     4  10  19  39  56  88 123 163 212 256 320 382
#     4  11  21  36  63  89 116 165 215 264 314 376
#     4  11  21  36  60  91 124 161 210 268 329 395
#     4  12  24  38  59  95 133 167 207 275 349 397
#
# _framework density 21.115826999999999
#
# number of rings (size 3 to 8) (size 9 to 14) (size 15 to 20)
#    0.000    1.250    3.750    4.500    0.000    2.500 
#    0.000    0.625    0.000    0.000    0.000    0.000 
#    0.000    0.000    0.000    0.000    0.000    0.000 
#
# Total GULP energy -792884.012091 kJ/mol
# GULP energy per Si atom -12388.812689 kJ/mol
# Density = 2.106777 g / cm^3
# Si number density = 21.115827 Si / 1000 Ang^3
#
#
#
# Elastic Constant Matrix: (Units=GPa)
#
#
# Indices 1 2 3 4 5 6 
#
# 1 83.6770 11.7075 5.5573 0.0000 0.0000 0.0000
# 2 11.7075 112.3302 19.4827 0.0000 0.0000 0.0000
# 3 5.5573 19.4827 65.8940 0.0000 0.0000 0.0000
# 4 0.0000 0.0000 0.0000 15.8339 0.0000 0.0000
# 5 0.0000 0.0000 0.0000 0.0000 30.3504 0.0000
# 6 0.0000 0.0000 0.0000 0.0000 0.0000 28.1931
#
#
#
# Elastic Compliance Matrix: (Units=1/GPa)
#
#
# Indices 1 2 3 4 5 6 
#
# 1 0.012157 -0.001148 -0.000686 0.000000 0.000000 0.000000
# 2 -0.001148 0.009492 -0.002710 0.000000 0.000000 0.000000
# 3 -0.000686 -0.002710 0.016035 0.000000 0.000000 0.000000
# 4 0.000000 0.000000 0.000000 0.063156 0.000000 0.000000
# 5 0.000000 0.000000 0.000000 0.000000 0.032948 0.000000
# 6 0.000000 0.000000 0.000000 0.000000 0.000000 0.035470
#
#
# Mechanical properties :
#
#
# Convention : Reuss Voigt Hill
#
# Bulk Modulus (GPa) = 34.96915 37.26624 36.11769
# Shear Modulus (GPa) = 26.61317 29.88573 28.24945
#
# Velocity S-wave (km/s) = 3.55398 3.76616 3.66161
# Velocity P-wave (km/s) = 5.78253 6.04969 5.91762
#
# Compressibility (1/GPa) = 0.02859664
#
# Stress axis : x y z
#
# Youngs Moduli (GPa) = 82.25779 105.35247 62.36411
#
# Poissons Ratio (x) = 0.12095 0.04277
# Poissons Ratio (y) = 0.09444 0.16898
# Poissons Ratio (z) = 0.05641 0.28547
#
# Static dielectric constant tensor:
#      x y z
#    x 3.990620 0.000000 0.000000 
#    y 0.000000 4.220380 0.000000 
#    z 0.000000 0.000000 3.396980 
# 
# 
# High freq. dielectric constant tensor:
#      x y z
#    x 1.839500 0.000000 0.000000 
#    y 0.000000 1.833170 0.000000 
#    z 0.000000 0.000000 1.774010 
# 
# From -- ./inp_files/33293.got.cif
#   From: 2010.06.25/outbox.cif.g09.slc.cpg/sg52_17_cif.got.tgz:33293.got - 2010.06.26 19:32:48.
