data_PCOD8215630
_publ_section_title
;
Structure prediction by ZEFSAII (Michael W. Deem and Ramdas Pophale) SiO2 
 PCOD8215630
Probable space group: P N N A
;
_chemical_formula_sum "Si O2"
_cell_formula_units_Z 40
_cell_length_a 9.636144
_cell_length_b 15.283312
_cell_length_c 13.917530
_cell_angle_alpha 90.000000
_cell_angle_beta 90.000000
_cell_angle_gamma 90.000000
_cell_volume 2049.665195
_symmetry_space_group_name_H-M "P N N A"
_symmetry_group_IT_number 52
_symmetry_cell_setting 'orthorhombic'
loop_
_space_group_symop_operation_xyz
x,y,z
1/2-x,-y,z
x,1/2-y,1/2-z
1/2-x,1/2+y,1/2-z
-x,-y,-z
1/2+x,y,-z
-x,1/2+y,1/2+z
1/2+x,1/2-y,1/2+z
loop_
_atom_site_type_symbol
_atom_site_label
_atom_site_fract_x
_atom_site_fract_y
_atom_site_fract_z
Si Si1 0.057840 0.896626 0.834693
Si Si2 0.722608 0.156955 0.300924
Si Si3 0.230012 0.214322 0.951612
Si Si4 0.021654 0.093256 0.842719
Si Si5 0.261281 0.681171 0.332083
O O1 0.906225 0.863436 0.807007
O O2 0.144046 0.898481 0.734278
O O3 0.131636 0.836009 0.914883
O O4 0.050369 0.994453 0.876908
O O5 0.734859 0.250000 0.250000
O O6 0.722182 0.184285 0.413043
O O7 0.583388 0.108612 0.264890
O O8 0.095639 0.158073 0.918765
O O9 0.230119 0.227940 0.064958
O O10 0.857753 0.108020 0.837512
O O11 0.221427 0.750000 0.250000
#
# Coordination Sequence:
#
# PCOD8215630 Si02
#       5
#     8   8   8   8   8
#     4  10  20  34  55  81 104 129 166 215 264 301
#     4   8  16  35  55  74  99 133 174 205 244 306
#     4  10  20  35  56  76 100 139 176 205 246 307
#     4  10  20  34  55  81 104 129 166 215 264 301
#     4  12  23  34  50  76 110 140 168 208 255 303
#
# _framework density 19.515383
#
# number of rings (size 3 to 8) (size 9 to 14) (size 15 to 20)
#    0.000    2.400    0.000    7.800    0.000    4.800 
#    0.000    0.000    0.000    7.200    0.000    0.000 
#    0.000    0.000    0.000    0.000    0.000    0.000 
#
# Total GULP energy -495718.044356 kJ/mol
# GULP energy per Si atom -12392.951109 kJ/mol
# Density = 1.947097 g / cm^3
# Si number density = 19.515383 Si / 1000 Ang^3
#
#
#
# Elastic Constant Matrix: (Units=GPa)
#
#
# Indices 1 2 3 4 5 6 
#
# 1 114.5962 -3.1312 9.8793 0.0000 0.0000 0.0000
# 2 -3.1312 32.3165 28.0372 0.0000 0.0000 0.0000
# 3 9.8793 28.0372 109.1717 0.0000 0.0000 0.0000
# 4 0.0000 0.0000 0.0000 12.5072 0.0000 0.0000
# 5 0.0000 0.0000 0.0000 0.0000 12.4997 0.0000
# 6 0.0000 0.0000 0.0000 0.0000 0.0000 29.1703
#
#
#
# Elastic Compliance Matrix: (Units=1/GPa)
#
#
# Indices 1 2 3 4 5 6 
#
# 1 0.008895 0.002007 -0.001320 0.000000 0.000000 0.000000
# 2 0.002007 0.040268 -0.010523 0.000000 0.000000 0.000000
# 3 -0.001320 -0.010523 0.011982 0.000000 0.000000 0.000000
# 4 0.000000 0.000000 0.000000 0.079954 0.000000 0.000000
# 5 0.000000 0.000000 0.000000 0.000000 0.080002 0.000000
# 6 0.000000 0.000000 0.000000 0.000000 0.000000 0.034281
#
#
# Mechanical properties :
#
#
# Convention : Reuss Voigt Hill
#
# Bulk Modulus (GPa) = 24.11228 36.18388 30.14808
# Shear Modulus (GPa) = 17.30827 25.58872 21.44849
#
# Velocity S-wave (km/s) = 2.98132 3.62499 3.31880
# Velocity P-wave (km/s) = 4.92274 6.00851 5.49252
#
# Compressibility (1/GPa) = 0.04147264
#
# Stress axis : x y z
#
# Youngs Moduli (GPa) = 112.42297 24.83348 83.45908
#
# Poissons Ratio (x) = -0.04985 0.11021
# Poissons Ratio (y) = -0.22569 0.87826
# Poissons Ratio (z) = 0.14845 0.26133
#
# Static dielectric constant tensor:
#      x y z
#    x 3.717340 0.000000 0.000000 
#    y 0.000000 3.788430 0.000000 
#    z 0.000000 0.000000 4.143510 
# 
# 
# High freq. dielectric constant tensor:
#      x y z
#    x 1.774880 0.000000 0.000000 
#    y 0.000000 1.738000 0.000000 
#    z 0.000000 0.000000 1.734050 
# 
# From -- ./inp_files/24426.got.cif
#   From: 2010.06.25/outbox.cif.g09.slc.cpg/sg52_13_cif.got.tgz:24426.got - 2010.06.26 19:32:48.
