data_PCOD8215687
_publ_section_title
;
Structure prediction by ZEFSAII (Michael W. Deem and Ramdas Pophale) SiO2 
 PCOD8215687
Probable space group: P N N A
;
_chemical_formula_sum "Si O2"
_cell_formula_units_Z 64
_cell_length_a 10.527773
_cell_length_b 8.826480
_cell_length_c 36.497314
_cell_angle_alpha 90.000000
_cell_angle_beta 90.000000
_cell_angle_gamma 90.000000
_cell_volume 3391.446399
_symmetry_space_group_name_H-M "P N N A"
_symmetry_group_IT_number 52
_symmetry_cell_setting 'orthorhombic'
loop_
_space_group_symop_operation_xyz
x,y,z
1/2-x,-y,z
x,1/2-y,1/2-z
1/2-x,1/2+y,1/2-z
-x,-y,-z
1/2+x,y,-z
-x,1/2+y,1/2+z
1/2+x,1/2-y,1/2+z
loop_
_atom_site_type_symbol
_atom_site_label
_atom_site_fract_x
_atom_site_fract_y
_atom_site_fract_z
Si Si1 0.095518 0.168178 0.713488
Si Si2 0.526104 0.678732 0.648064
Si Si3 0.029862 0.347431 0.355401
Si Si4 0.750871 0.677826 0.893609
Si Si5 0.984058 0.838945 0.017909
Si Si6 0.388735 0.536070 0.591244
Si Si7 0.750068 0.320192 0.977667
Si Si8 0.886551 0.187213 0.288844
O O1 0.046543 0.250000 0.750000
O O2 0.238144 0.223361 0.705467
O O3 0.996996 0.218327 0.682719
O O4 0.085932 0.989261 0.714485
O O5 0.578964 0.511400 0.659542
O O6 0.616960 0.758926 0.619204
O O7 0.392348 0.651062 0.626146
O O8 0.145350 0.241313 0.365930
O O9 0.949979 0.378247 0.393233
O O10 0.953830 0.263394 0.323339
O O11 0.750000 0.500000 0.889677
O O12 0.777492 0.725061 0.935576
O O13 0.968709 0.877504 0.060487
O O14 0.110845 0.740694 0.010660
O O15 0.860343 0.752418 0.002478
O O16 0.000000 0.000000 0.000000
O O17 0.250000 0.500000 0.576185
O O18 0.750000 0.500000 0.983710
O O19 0.935870 0.250000 0.250000
#
# Coordination Sequence:
#
# PCOD8215687 Si02
#       8
#     8   8   8   8   8   8   8   8
#     4  10  20  35  58  87 120 162 202 251 306 364
#     4  10  21  36  60  82 123 149 208 247 308 355
#     4  10  21  35  60  84 120 153 203 245 309 353
#     4  11  22  40  61  86 118 164 206 251 306 376
#     4  12  23  40  65  93 123 163 215 265 315 384
#     4  10  21  36  60  88 120 153 201 254 310 363
#     4  11  24  42  64  91 127 167 210 264 329 384
#     4  10  20  35  57  88 122 158 202 248 307 364
#
# _framework density 18.871003999999999
#
# number of rings (size 3 to 8) (size 9 to 14) (size 15 to 20)
#    0.750    0.750    1.250    4.875    0.000    2.000 
#    0.000    0.625    2.750    0.000    0.000    0.000 
#    0.000    0.000    0.000    0.000    0.000    0.000 
#
# Total GULP energy -793036.348896 kJ/mol
# GULP energy per Si atom -12391.192952 kJ/mol
# Density = 1.882805 g / cm^3
# Si number density = 18.871004 Si / 1000 Ang^3
#
#
#
# Elastic Constant Matrix: (Units=GPa)
#
#
# Indices 1 2 3 4 5 6 
#
# 1 98.2455 43.8064 44.5978 0.0000 0.0000 0.0000
# 2 43.8064 100.3339 54.6547 0.0000 0.0000 0.0000
# 3 44.5978 54.6547 121.4897 0.0000 0.0000 0.0000
# 4 0.0000 0.0000 0.0000 59.4416 0.0000 0.0000
# 5 0.0000 0.0000 0.0000 0.0000 33.2087 0.0000
# 6 0.0000 0.0000 0.0000 0.0000 0.0000 34.2294
#
#
#
# Elastic Compliance Matrix: (Units=1/GPa)
#
#
# Indices 1 2 3 4 5 6 
#
# 1 0.013435 -0.004211 -0.003037 0.000000 0.000000 0.000000
# 2 -0.004211 0.014522 -0.004987 0.000000 0.000000 0.000000
# 3 -0.003037 -0.004987 0.011590 0.000000 0.000000 0.000000
# 4 0.000000 0.000000 0.000000 0.016823 0.000000 0.000000
# 5 0.000000 0.000000 0.000000 0.000000 0.030113 0.000000
# 6 0.000000 0.000000 0.000000 0.000000 0.000000 0.029215
#
#
# Mechanical properties :
#
#
# Convention : Reuss Voigt Hill
#
# Bulk Modulus (GPa) = 66.33379 67.35412 66.84395
# Shear Modulus (GPa) = 34.43669 37.17663 35.80666
#
# Velocity S-wave (km/s) = 4.27646 4.44333 4.36069
# Velocity P-wave (km/s) = 7.72085 7.87995 7.80081
#
# Compressibility (1/GPa) = 0.01507527
#
# Stress axis : x y z
#
# Youngs Moduli (GPa) = 74.43162 68.86093 86.28357
#
# Poissons Ratio (x) = 0.29000 0.26208
# Poissons Ratio (y) = 0.31346 0.43030
# Poissons Ratio (z) = 0.22608 0.34342
#
# Static dielectric constant tensor:
#      x y z
#    x 3.436570 0.000000 0.000000 
#    y 0.000000 3.485010 0.000000 
#    z 0.000000 0.000000 3.326150 
# 
# 
# High freq. dielectric constant tensor:
#      x y z
#    x 1.721960 0.000000 0.000000 
#    y 0.000000 1.742490 0.000000 
#    z 0.000000 0.000000 1.740630 
# 
# From -- ./inp_files/44847.got.cif
#   From: 2010.06.25/outbox.cif.g09.slc.cpg/sg52_23_cif.got.tgz:44847.got - 2010.06.26 19:32:48.
