data_PCOD8215691
_publ_section_title
;
Structure prediction by ZEFSAII (Michael W. Deem and Ramdas Pophale) SiO2 
 PCOD8215691
Probable space group: P N N A
;
_chemical_formula_sum "Si O2"
_cell_formula_units_Z 64
_cell_length_a 13.637938
_cell_length_b 21.743212
_cell_length_c 9.556467
_cell_angle_alpha 90.000000
_cell_angle_beta 90.000000
_cell_angle_gamma 90.000000
_cell_volume 2833.803788
_symmetry_space_group_name_H-M "P N N A"
_symmetry_group_IT_number 52
_symmetry_cell_setting 'orthorhombic'
loop_
_space_group_symop_operation_xyz
x,y,z
1/2-x,-y,z
x,1/2-y,1/2-z
1/2-x,1/2+y,1/2-z
-x,-y,-z
1/2+x,y,-z
-x,1/2+y,1/2+z
1/2+x,1/2-y,1/2+z
loop_
_atom_site_type_symbol
_atom_site_label
_atom_site_fract_x
_atom_site_fract_y
_atom_site_fract_z
Si Si1 0.763159 0.156115 0.560998
Si Si2 0.948386 0.700697 0.867121
Si Si3 0.445830 0.718231 0.609229
Si Si4 0.582507 0.089208 0.005602
Si Si5 0.617217 0.961082 0.073639
Si Si6 0.359508 0.365504 0.799485
Si Si7 0.778893 0.382855 0.630637
Si Si8 0.715930 0.721405 0.423661
O O1 0.646864 0.165304 0.574234
O O2 0.797534 0.110912 0.435820
O O3 0.804923 0.131653 0.708443
O O4 0.821106 0.215996 0.497849
O O5 0.914935 0.750000 0.750000
O O6 0.024593 0.647520 0.822554
O O7 0.998974 0.744533 0.984298
O O8 0.484868 0.750000 0.750000
O O9 0.463124 0.644215 0.600955
O O10 0.331265 0.728085 0.589381
O O11 0.632532 0.034577 0.099017
O O12 0.497412 0.055629 0.920726
O O13 0.660980 0.115072 0.893367
O O14 0.665457 0.921826 0.196927
O O15 0.667066 0.944744 0.922725
O O16 0.320893 0.300537 0.731269
O O17 0.822209 0.328922 0.534373
#
# Coordination Sequence:
#
# PCOD8215691 Si02
#       8
#     8   8   8   8   8   8   8   8
#     4  11  20  33  56  87 123 155 193 253 308 354
#     4  11  21  36  58  86 124 163 195 236 303 367
#     4  10  20  35  59  90 116 144 190 247 301 347
#     4  10  21  40  64  85 115 156 204 249 289 357
#     4  10  22  40  63  85 112 160 208 240 286 358
#     4  11  22  37  59  89 123 161 203 246 299 366
#     4  10  20  35  58  86 116 152 198 249 298 348
#     4   9  18  34  55  82 118 157 195 237 293 360
#
# _framework density 22.584486999999999
#
# number of rings (size 3 to 8) (size 9 to 14) (size 15 to 20)
#    0.000    1.750    0.000    7.125    0.000    2.000 
#    0.000    0.625    0.000   23.250    0.000    0.000 
#    0.000    0.000    0.000    0.000    0.000    0.000 
#
# Total GULP energy -792973.095727 kJ/mol
# GULP energy per Si atom -12390.204621 kJ/mol
# Density = 2.253308 g / cm^3
# Si number density = 22.584487 Si / 1000 Ang^3
#
#
#
# Elastic Constant Matrix: (Units=GPa)
#
#
# Indices 1 2 3 4 5 6 
#
# 1 59.1683 -1.1136 20.9001 0.0000 0.0000 0.0000
# 2 -1.1136 84.1353 38.8996 0.0000 0.0000 0.0000
# 3 20.9001 38.8996 161.0887 0.0000 0.0000 0.0000
# 4 0.0000 0.0000 0.0000 21.6260 0.0000 0.0000
# 5 0.0000 0.0000 0.0000 0.0000 26.4548 0.0000
# 6 0.0000 0.0000 0.0000 0.0000 0.0000 23.3468
#
#
#
# Elastic Compliance Matrix: (Units=1/GPa)
#
#
# Indices 1 2 3 4 5 6 
#
# 1 0.017873 0.001473 -0.002675 0.000000 0.000000 0.000000
# 2 0.001473 0.013501 -0.003451 0.000000 0.000000 0.000000
# 3 -0.002675 -0.003451 0.007388 0.000000 0.000000 0.000000
# 4 0.000000 0.000000 0.000000 0.046241 0.000000 0.000000
# 5 0.000000 0.000000 0.000000 0.000000 0.037800 0.000000
# 6 0.000000 0.000000 0.000000 0.000000 0.000000 0.042832
#
#
# Mechanical properties :
#
#
# Convention : Reuss Voigt Hill
#
# Bulk Modulus (GPa) = 33.94792 46.86272 40.40532
# Shear Modulus (GPa) = 27.06208 30.66593 28.86401
#
# Velocity S-wave (km/s) = 3.46534 3.68887 3.57885
# Velocity P-wave (km/s) = 5.57455 6.24009 5.91669
#
# Compressibility (1/GPa) = 0.02945688
#
# Stress axis : x y z
#
# Youngs Moduli (GPa) = 55.94885 74.06956 135.35085
#
# Poissons Ratio (x) = -0.10912 0.36202
# Poissons Ratio (y) = -0.08242 0.46714
# Poissons Ratio (z) = 0.14965 0.25564
#
# Static dielectric constant tensor:
#      x y z
#    x 3.887990 0.000000 0.000000 
#    y 0.000000 4.269770 0.000000 
#    z 0.000000 0.000000 4.210690 
# 
# 
# High freq. dielectric constant tensor:
#      x y z
#    x 1.896710 0.000000 0.000000 
#    y 0.000000 1.873930 0.000000 
#    z 0.000000 0.000000 1.878400 
# 
# From -- ./inp_files/11027.got.cif
#   From: 2010.06.25/outbox.cif.g09.slc.cpg/sg52_6_cif.got.tgz:11027.got - 2010.06.26 19:32:48.
