data_PCOD8215525
_publ_section_title
;
Structure prediction by ZEFSAII (Michael W. Deem and Ramdas Pophale) SiO2 
 PCOD8215525
Probable space group: P N N A
;
_chemical_formula_sum "Si O2"
_cell_formula_units_Z 60
_cell_length_a 8.726307
_cell_length_b 27.076352
_cell_length_c 11.295808
_cell_angle_alpha 90.000000
_cell_angle_beta 90.000000
_cell_angle_gamma 90.000000
_cell_volume 2668.934657
_symmetry_space_group_name_H-M "P N N A"
_symmetry_group_IT_number 52
_symmetry_cell_setting 'orthorhombic'
loop_
_space_group_symop_operation_xyz
x,y,z
1/2-x,-y,z
x,1/2-y,1/2-z
1/2-x,1/2+y,1/2-z
-x,-y,-z
1/2+x,y,-z
-x,1/2+y,1/2+z
1/2+x,1/2-y,1/2+z
loop_
_atom_site_type_symbol
_atom_site_label
_atom_site_fract_x
_atom_site_fract_y
_atom_site_fract_z
Si Si1 0.750000 0.500000 0.827749
Si Si2 0.388827 0.170687 0.184406
Si Si3 0.180951 0.117897 0.761107
Si Si4 0.902661 0.449972 0.396653
Si Si5 0.285513 0.286936 0.851594
Si Si6 0.260096 0.572334 0.378440
Si Si7 0.559250 0.726621 0.912215
Si Si8 0.587669 0.482556 0.169448
O O1 0.764787 0.450959 0.750376
O O2 0.577548 0.499840 0.892767
O O3 0.557161 0.147928 0.163416
O O4 0.271531 0.130370 0.136066
O O5 0.364080 0.220254 0.109885
O O6 0.371781 0.184925 0.323832
O O7 0.298833 0.094138 0.850618
O O8 0.277922 0.155754 0.682898
O O9 0.096080 0.076712 0.678728
O O10 0.840892 0.460711 0.529367
O O11 0.904796 0.495834 0.304803
O O12 0.068243 0.429206 0.421738
O O13 0.346242 0.250000 0.750000
O O14 0.121455 0.267289 0.893773
O O15 0.410569 0.288130 0.954176
O O16 0.750000 0.500000 0.104259
#
# Coordination Sequence:
#
# PCOD8215525 Si02
#       8
#     4   8   8   8   8   8   8   8
#     4  10  20  30  50  86 114 168 212 254 324 390
#     4  10  20  41  62  85 127 168 209 261 327 385
#     4  10  19  39  60  81 120 168 204 255 326 384
#     4  10  23  33  51  87 122 164 210 261 317 399
#     4  11  23  44  67  95 128 168 218 275 333 389
#     4  11  22  32  53  82 126 164 210 255 322 396
#     4  10  23  43  65  92 126 165 217 271 322 393
#     4   9  19  34  53  81 123 161 212 261 321 393
#
# _framework density 22.480881
#
# number of rings (size 3 to 8) (size 9 to 14) (size 15 to 20)
#    0.000    1.867    4.000    0.800    6.533    3.200 
#    2.400    0.000    0.000    0.000    5.200   18.667 
#    0.000    0.000    0.000    0.000    0.000    0.000 
#
# Total GULP energy -743429.373744 kJ/mol
# GULP energy per Si atom -12390.489562 kJ/mol
# Density = 2.242971 g / cm^3
# Si number density = 22.480881 Si / 1000 Ang^3
#
#
#
# Elastic Constant Matrix: (Units=GPa)
#
#
# Indices 1 2 3 4 5 6 
#
# 1 121.0155 14.8302 19.5288 0.0000 0.0000 0.0000
# 2 14.8302 115.6592 6.7401 0.0000 0.0000 0.0000
# 3 19.5288 6.7401 27.5963 0.0000 0.0000 0.0000
# 4 0.0000 0.0000 0.0000 17.3022 0.0000 0.0000
# 5 0.0000 0.0000 0.0000 0.0000 38.7087 0.0000
# 6 0.0000 0.0000 0.0000 0.0000 0.0000 31.3956
#
#
#
# Elastic Compliance Matrix: (Units=1/GPa)
#
#
# Indices 1 2 3 4 5 6 
#
# 1 0.009407 -0.000830 -0.006454 0.000000 0.000000 0.000000
# 2 -0.000830 0.008844 -0.001573 0.000000 0.000000 0.000000
# 3 -0.006454 -0.001573 0.041188 0.000000 0.000000 0.000000
# 4 0.000000 0.000000 0.000000 0.057796 0.000000 0.000000
# 5 0.000000 0.000000 0.000000 0.000000 0.025834 0.000000
# 6 0.000000 0.000000 0.000000 0.000000 0.000000 0.031852
#
#
# Mechanical properties :
#
#
# Convention : Reuss Voigt Hill
#
# Bulk Modulus (GPa) = 23.96622 38.49659 31.23140
# Shear Modulus (GPa) = 24.20810 32.35942 28.28376
#
# Velocity S-wave (km/s) = 3.28507 3.79808 3.55085
# Velocity P-wave (km/s) = 5.00727 6.03285 5.54383
#
# Compressibility (1/GPa) = 0.04172539
#
# Stress axis : x y z
#
# Youngs Moduli (GPa) = 106.30801 113.06879 24.27891
#
# Poissons Ratio (x) = 0.09385 0.15670
# Poissons Ratio (y) = 0.08824 0.03818
# Poissons Ratio (z) = 0.68611 0.17782
#
# Static dielectric constant tensor:
#      x y z
#    x 4.451460 0.000000 0.000000 
#    y 0.000000 4.162090 0.000000 
#    z 0.000000 0.000000 3.768710 
# 
# 
# High freq. dielectric constant tensor:
#      x y z
#    x 1.896120 0.000000 0.000000 
#    y 0.000000 1.893650 0.000000 
#    z 0.000000 0.000000 1.854490 
# 
# From -- ./inp_files/17119.got.cif
#   From: 2010.06.25/outbox.cif.g09.slc.cpg/sg52_9_cif.got.tgz:17119.got - 2010.06.26 19:32:48.
