data_PCOD8215885
_publ_section_title
;
Structure prediction by ZEFSAII (Michael W. Deem and Ramdas Pophale) SiO2 
 PCOD8215885
Probable space group: P N N A
;
_chemical_formula_sum "Si O2"
_cell_formula_units_Z 48
_cell_length_a 13.171150
_cell_length_b 7.773938
_cell_length_c 20.549554
_cell_angle_alpha 90.000000
_cell_angle_beta 90.000000
_cell_angle_gamma 90.000000
_cell_volume 2104.103840
_symmetry_space_group_name_H-M "P N N A"
_symmetry_group_IT_number 52
_symmetry_cell_setting 'orthorhombic'
loop_
_space_group_symop_operation_xyz
x,y,z
1/2-x,-y,z
x,1/2-y,1/2-z
1/2-x,1/2+y,1/2-z
-x,-y,-z
1/2+x,y,-z
-x,1/2+y,1/2+z
1/2+x,1/2-y,1/2+z
loop_
_atom_site_type_symbol
_atom_site_label
_atom_site_fract_x
_atom_site_fract_y
_atom_site_fract_z
Si Si1 0.889972 0.615578 0.919112
Si Si2 0.084485 0.652628 0.577958
Si Si3 0.683256 0.842062 0.312098
Si Si4 0.973774 0.488844 0.793918
Si Si5 0.961869 0.378000 0.654805
Si Si6 0.823298 0.246867 0.948960
O O1 0.877847 0.433421 0.956265
O O2 0.797764 0.737286 0.941162
O O3 0.995456 0.708515 0.935511
O O4 0.889562 0.576842 0.840976
O O5 0.171721 0.717425 0.626672
O O6 0.143725 0.627779 0.509959
O O7 0.041491 0.475332 0.607644
O O8 0.736651 0.750000 0.250000
O O9 0.750000 0.000000 0.336261
O O10 0.572727 0.896555 0.288431
O O11 0.931316 0.480685 0.720319
O O12 0.008684 0.305156 0.823888
O O13 0.858323 0.351517 0.615694
#
# Coordination Sequence:
#
# PCOD8215885 Si02
#       6
#     8   8   8   8   8   8
#     4   9  21  39  63  87 127 174 221 271 325 402
#     4  11  22  40  65  91 131 171 213 274 335 394
#     4  11  24  39  64  96 127 170 219 269 323 398
#     4   9  20  42  63  87 130 173 217 275 337 377
#     4  10  20  38  64  90 128 172 216 275 330 391
#     4  10  21  40  61  94 132 168 221 266 334 404
#
# _framework density 22.812560999999999
#
# number of rings (size 3 to 8) (size 9 to 14) (size 15 to 20)
#    0.000    2.000    1.667    1.000    4.667    0.667 
#    0.000   13.333    0.000    0.000    0.000    0.000 
#    0.000    0.000    0.000    0.000    0.000    0.000 
#
# Total GULP energy -595016.537853 kJ/mol
# GULP energy per Si atom -12396.177872 kJ/mol
# Density = 2.276064 g / cm^3
# Si number density = 22.812561 Si / 1000 Ang^3
#
#
#
# Elastic Constant Matrix: (Units=GPa)
#
#
# Indices 1 2 3 4 5 6 
#
# 1 66.7329 18.4587 43.8808 0.0000 0.0000 0.0000
# 2 18.4587 59.0153 27.6983 0.0000 0.0000 0.0000
# 3 43.8808 27.6983 148.4193 0.0000 0.0000 0.0000
# 4 0.0000 0.0000 0.0000 31.1315 0.0000 0.0000
# 5 0.0000 0.0000 0.0000 0.0000 21.1885 0.0000
# 6 0.0000 0.0000 0.0000 0.0000 0.0000 37.0869
#
#
#
# Elastic Compliance Matrix: (Units=1/GPa)
#
#
# Indices 1 2 3 4 5 6 
#
# 1 0.019305 -0.003682 -0.005020 0.000000 0.000000 0.000000
# 2 -0.003682 0.019274 -0.002508 0.000000 0.000000 0.000000
# 3 -0.005020 -0.002508 0.008690 0.000000 0.000000 0.000000
# 4 0.000000 0.000000 0.000000 0.032122 0.000000 0.000000
# 5 0.000000 0.000000 0.000000 0.000000 0.047195 0.000000
# 6 0.000000 0.000000 0.000000 0.000000 0.000000 0.026964
#
#
# Mechanical properties :
#
#
# Convention : Reuss Voigt Hill
#
# Bulk Modulus (GPa) = 40.24580 50.47146 45.35863
# Shear Modulus (GPa) = 27.13661 30.15668 28.64665
#
# Velocity S-wave (km/s) = 3.45272 3.63978 3.54749
# Velocity P-wave (km/s) = 5.79442 6.31162 6.05854
#
# Compressibility (1/GPa) = 0.02484731
#
# Stress axis : x y z
#
# Youngs Moduli (GPa) = 51.80075 51.88439 115.07356
#
# Poissons Ratio (x) = 0.19103 0.57772
# Poissons Ratio (y) = 0.19072 0.28864
# Poissons Ratio (z) = 0.26006 0.13014
#
# Static dielectric constant tensor:
#      x y z
#    x 3.735420 0.000000 0.000000 
#    y 0.000000 4.182610 0.000000 
#    z 0.000000 0.000000 4.249120 
# 
# 
# High freq. dielectric constant tensor:
#      x y z
#    x 1.872420 0.000000 0.000000 
#    y 0.000000 1.902930 0.000000 
#    z 0.000000 0.000000 1.908860 
# 
# From -- ./inp_files/37199.got.cif
#   From: 2010.06.25/outbox.cif.g09.slc.cpg/sg52_19_cif.got.tgz:37199.got - 2010.06.26 19:32:48.
