data_PCOD8215493
_publ_section_title
;
Structure prediction by ZEFSAII (Michael W. Deem and Ramdas Pophale) SiO2 
 PCOD8215493
Probable space group: P N N A
;
_chemical_formula_sum "Si O2"
_cell_formula_units_Z 60
_cell_length_a 20.374987
_cell_length_b 9.071825
_cell_length_c 16.969832
_cell_angle_alpha 90.000000
_cell_angle_beta 90.000000
_cell_angle_gamma 90.000000
_cell_volume 3136.675177
_symmetry_space_group_name_H-M "P N N A"
_symmetry_group_IT_number 52
_symmetry_cell_setting 'orthorhombic'
loop_
_space_group_symop_operation_xyz
x,y,z
1/2-x,-y,z
x,1/2-y,1/2-z
1/2-x,1/2+y,1/2-z
-x,-y,-z
1/2+x,y,-z
-x,1/2+y,1/2+z
1/2+x,1/2-y,1/2+z
loop_
_atom_site_type_symbol
_atom_site_label
_atom_site_fract_x
_atom_site_fract_y
_atom_site_fract_z
Si Si1 0.395950 0.626987 0.601538
Si Si2 0.733604 0.340023 0.322543
Si Si3 0.250000 0.000000 0.106905
Si Si4 0.533358 0.646286 0.675610
Si Si5 0.877870 0.634049 0.679201
Si Si6 0.064856 0.321478 0.038057
Si Si7 0.322070 0.150927 0.969817
Si Si8 0.073730 0.654806 0.032004
O O1 0.344291 0.681323 0.666840
O O2 0.464032 0.584034 0.643719
O O3 0.404521 0.764794 0.543385
O O4 0.368044 0.485911 0.554865
O O5 0.750000 0.500000 0.293272
O O6 0.761893 0.250000 0.250000
O O7 0.768720 0.306445 0.404936
O O8 0.196723 0.084799 0.160708
O O9 0.285689 0.118394 0.051576
O O10 0.520412 0.750000 0.750000
O O11 0.579241 0.509847 0.701027
O O12 0.568362 0.741630 0.608194
O O13 0.876198 0.750000 0.750000
O O14 0.913364 0.710876 0.605892
O O15 0.087583 0.487103 0.057976
O O16 0.986655 0.326312 0.027875
O O17 0.364297 0.296439 0.981042
#
# Coordination Sequence:
#
# PCOD8215493 Si02
#       8
#     8   8   4   8   8   8   8   8
#     4  10  19  37  64  86 119 160 203 247 305 380
#     4  10  21  36  56  86 125 157 196 245 301 365
#     4  12  22  44  66  86 120 170 224 256 306 392
#     4  11  22  38  61  89 121 159 201 256 326 373
#     4  12  25  42  63  87 125 160 211 270 317 368
#     4  10  20  39  60  94 117 155 203 259 309 370
#     4  11  19  40  64  87 119 170 212 246 302 381
#     4  10  21  36  64  90 123 156 205 254 307 377
#
# _framework density 19.128536
#
# number of rings (size 3 to 8) (size 9 to 14) (size 15 to 20)
#    0.000    1.333    4.667    2.000    0.000    3.733 
#    2.400   11.333    0.000    0.000    0.000    0.000 
#    0.000    0.000    0.000    0.000    0.000    0.000 
#
# Total GULP energy -743965.910809 kJ/mol
# GULP energy per Si atom -12399.431847 kJ/mol
# Density = 1.908500 g / cm^3
# Si number density = 19.128536 Si / 1000 Ang^3
#
#
#
# Elastic Constant Matrix: (Units=GPa)
#
#
# Indices 1 2 3 4 5 6 
#
# 1 110.4623 55.0112 42.3876 0.0000 0.0000 0.0000
# 2 55.0112 88.4684 47.1927 0.0000 0.0000 0.0000
# 3 42.3876 47.1927 87.4085 0.0000 0.0000 0.0000
# 4 0.0000 0.0000 0.0000 35.4037 0.0000 0.0000
# 5 0.0000 0.0000 0.0000 0.0000 16.9129 0.0000
# 6 0.0000 0.0000 0.0000 0.0000 0.0000 24.5124
#
#
#
# Elastic Compliance Matrix: (Units=1/GPa)
#
#
# Indices 1 2 3 4 5 6 
#
# 1 0.013601 -0.006937 -0.002850 0.000000 0.000000 0.000000
# 2 -0.006937 0.019414 -0.007118 0.000000 0.000000 0.000000
# 3 -0.002850 -0.007118 0.016666 0.000000 0.000000 0.000000
# 4 0.000000 0.000000 0.000000 0.028246 0.000000 0.000000
# 5 0.000000 0.000000 0.000000 0.000000 0.059126 0.000000
# 6 0.000000 0.000000 0.000000 0.000000 0.000000 0.040796
#
#
# Mechanical properties :
#
#
# Convention : Reuss Voigt Hill
#
# Bulk Modulus (GPa) = 63.00948 63.94692 63.47820
# Shear Modulus (GPa) = 23.04685 24.81565 23.93125
#
# Velocity S-wave (km/s) = 3.47485 3.60573 3.54089
# Velocity P-wave (km/s) = 7.00792 7.13006 7.06925
#
# Compressibility (1/GPa) = 0.01587063
#
# Stress axis : x y z
#
# Youngs Moduli (GPa) = 73.52208 51.50936 60.00324
#
# Poissons Ratio (x) = 0.35732 0.17104
# Poissons Ratio (y) = 0.51002 0.42709
# Poissons Ratio (z) = 0.20957 0.36663
#
# Static dielectric constant tensor:
#      x y z
#    x 3.695670 0.000000 0.000000 
#    y 0.000000 3.624420 0.000000 
#    z 0.000000 0.000000 3.467230 
# 
# 
# High freq. dielectric constant tensor:
#      x y z
#    x 1.754070 0.000000 0.000000 
#    y 0.000000 1.743510 0.000000 
#    z 0.000000 0.000000 1.741800 
# 
# From -- ./inp_files/33788.got.cif
#   From: 2010.06.25/outbox.cif.g09.slc.cpg/sg52_17_cif.got.tgz:33788.got - 2010.06.26 19:32:48.
