data_PCOD8215467
_publ_section_title
;
Structure prediction by ZEFSAII (Michael W. Deem and Ramdas Pophale) SiO2 
 PCOD8215467
Probable space group: P N N A
;
_chemical_formula_sum "Si O2"
_cell_formula_units_Z 64
_cell_length_a 18.976659
_cell_length_b 9.363804
_cell_length_c 17.509097
_cell_angle_alpha 90.000000
_cell_angle_beta 90.000000
_cell_angle_gamma 90.000000
_cell_volume 3111.256500
_symmetry_space_group_name_H-M "P N N A"
_symmetry_group_IT_number 52
_symmetry_cell_setting 'orthorhombic'
loop_
_space_group_symop_operation_xyz
x,y,z
1/2-x,-y,z
x,1/2-y,1/2-z
1/2-x,1/2+y,1/2-z
-x,-y,-z
1/2+x,y,-z
-x,1/2+y,1/2+z
1/2+x,1/2-y,1/2+z
loop_
_atom_site_type_symbol
_atom_site_label
_atom_site_fract_x
_atom_site_fract_y
_atom_site_fract_z
Si Si1 0.426577 0.019031 0.840236
Si Si2 0.931578 0.219894 0.026632
Si Si3 0.916952 0.807080 0.029199
Si Si4 0.078509 0.006852 0.592883
Si Si5 0.971220 0.087018 0.724427
Si Si6 0.329967 0.478493 0.438716
Si Si7 0.182721 0.586407 0.261224
Si Si8 0.818993 0.409354 0.218701
O O1 0.429133 0.167201 0.885725
O O2 0.364665 0.009916 0.780288
O O3 0.403683 0.889114 0.892924
O O4 0.500279 0.006200 0.795182
O O5 0.940914 0.391055 0.027786
O O6 0.864334 0.160001 0.980082
O O7 0.001453 0.161493 0.987124
O O8 0.894896 0.643675 0.044933
O O9 0.871100 0.875670 0.960718
O O10 0.012133 0.052149 0.645882
O O11 0.139989 0.923916 0.638540
O O12 0.982145 0.250000 0.750000
O O13 0.888283 0.051600 0.712995
O O14 0.250000 0.500000 0.467182
O O15 0.332952 0.452786 0.348730
O O16 0.250000 0.500000 0.229261
O O17 0.203462 0.750000 0.250000
O O18 0.750000 0.500000 0.207254
O O19 0.804006 0.250000 0.250000
#
# Coordination Sequence:
#
# PCOD8215467 Si02
#       8
#     8   8   8   8   8   8   8   8
#     4  10  20  38  61  89 121 163 213 250 302 368
#     4  11  22  40  63  92 127 159 208 264 312 364
#     4  11  22  39  66  90 124 169 207 251 309 383
#     4  11  24  40  59  99 129 156 215 258 311 368
#     4  10  19  36  65  87 125 164 203 256 311 361
#     4  10  23  43  66  90 124 167 212 248 309 387
#     4  10  22  44  66  94 123 158 210 258 319 379
#     4  11  25  41  62  91 130 171 209 263 307 365
#
# _framework density 20.570466
#
# number of rings (size 3 to 8) (size 9 to 14) (size 15 to 20)
#    0.000    1.500    2.500    3.375    3.500    3.000 
#    6.750    0.000    0.000    0.000    0.000    0.000 
#    0.000    0.000    0.000    0.000    0.000    0.000 
#
# Total GULP energy -793348.497263 kJ/mol
# GULP energy per Si atom -12396.070270 kJ/mol
# Density = 2.052365 g / cm^3
# Si number density = 20.570466 Si / 1000 Ang^3
#
#
#
# Elastic Constant Matrix: (Units=GPa)
#
#
# Indices 1 2 3 4 5 6 
#
# 1 134.7967 52.0863 15.9984 0.0000 0.0000 0.0000
# 2 52.0863 140.3165 31.2414 0.0000 0.0000 0.0000
# 3 15.9984 31.2414 50.8675 0.0000 0.0000 0.0000
# 4 0.0000 0.0000 0.0000 31.1983 0.0000 0.0000
# 5 0.0000 0.0000 0.0000 0.0000 13.9475 0.0000
# 6 0.0000 0.0000 0.0000 0.0000 0.0000 48.2413
#
#
#
# Elastic Compliance Matrix: (Units=1/GPa)
#
#
# Indices 1 2 3 4 5 6 
#
# 1 0.008694 -0.003033 -0.000871 0.000000 0.000000 0.000000
# 2 -0.003033 0.009314 -0.004766 0.000000 0.000000 0.000000
# 3 -0.000871 -0.004766 0.022860 0.000000 0.000000 0.000000
# 4 0.000000 0.000000 0.000000 0.032053 0.000000 0.000000
# 5 0.000000 0.000000 0.000000 0.000000 0.071697 0.000000
# 6 0.000000 0.000000 0.000000 0.000000 0.000000 0.020729
#
#
# Mechanical properties :
#
#
# Convention : Reuss Voigt Hill
#
# Bulk Modulus (GPa) = 42.50574 58.29255 50.39915
# Shear Modulus (GPa) = 26.24228 33.78774 30.01501
#
# Velocity S-wave (km/s) = 3.57561 4.05722 3.82400
# Velocity P-wave (km/s) = 6.14451 7.09560 6.63711
#
# Compressibility (1/GPa) = 0.02352623
#
# Stress axis : x y z
#
# Youngs Moduli (GPa) = 115.02087 107.36595 43.74386
#
# Poissons Ratio (x) = 0.32567 0.03812
# Poissons Ratio (y) = 0.34889 0.20850
# Poissons Ratio (z) = 0.10023 0.51175
#
# Static dielectric constant tensor:
#      x y z
#    x 3.851130 0.000000 0.000000 
#    y 0.000000 4.103620 0.000000 
#    z 0.000000 0.000000 3.697750 
# 
# 
# High freq. dielectric constant tensor:
#      x y z
#    x 1.803890 0.000000 0.000000 
#    y 0.000000 1.809280 0.000000 
#    z 0.000000 0.000000 1.802640 
# 
# From -- ./inp_files/34138.got.cif
#   From: 2010.06.25/outbox.cif.g09.slc.cpg/sg52_18_cif.got.tgz:34138.got - 2010.06.26 19:32:48.
