data_PCOD8215437
_publ_section_title
;
Structure prediction by ZEFSAII (Michael W. Deem and Ramdas Pophale) SiO2 
 PCOD8215437
Probable space group: P N N A
;
_chemical_formula_sum "Si O2"
_cell_formula_units_Z 44
_cell_length_a 10.037446
_cell_length_b 17.287582
_cell_length_c 12.324595
_cell_angle_alpha 90.000000
_cell_angle_beta 90.000000
_cell_angle_gamma 90.000000
_cell_volume 2138.602803
_symmetry_space_group_name_H-M "P N N A"
_symmetry_group_IT_number 52
_symmetry_cell_setting 'orthorhombic'
loop_
_space_group_symop_operation_xyz
x,y,z
1/2-x,-y,z
x,1/2-y,1/2-z
1/2-x,1/2+y,1/2-z
-x,-y,-z
1/2+x,y,-z
-x,1/2+y,1/2+z
1/2+x,1/2-y,1/2+z
loop_
_atom_site_type_symbol
_atom_site_label
_atom_site_fract_x
_atom_site_fract_y
_atom_site_fract_z
Si Si1 0.388779 0.039252 0.277238
Si Si2 0.692442 0.267125 0.020770
Si Si3 0.441897 0.134029 0.482636
Si Si4 0.195189 0.750000 0.750000
Si Si5 0.264586 0.179094 0.185901
Si Si6 0.995265 0.885363 0.716626
O O1 0.461041 0.078862 0.379899
O O2 0.362558 0.104596 0.185137
O O3 0.250000 0.000000 0.315230
O O4 0.483174 0.970817 0.226974
O O5 0.537865 0.290700 0.019188
O O6 0.716972 0.241032 0.143406
O O7 0.789264 0.337679 0.987886
O O8 0.718793 0.196751 0.936788
O O9 0.484557 0.089716 0.591431
O O10 0.113441 0.830025 0.753986
O O11 0.337024 0.250000 0.250000
O O12 0.139100 0.162522 0.264095
#
# Coordination Sequence:
#
# PCOD8215437 Si02
#       6
#     8   8   8   4   8   8
#     4  10  21  33  59  93 123 156 205 255 300 363
#     4  11  22  36  62  86 117 162 201 250 294 367
#     4  11  20  36  59  89 122 156 196 252 308 358
#     4  10  22  38  56  84 120 158 204 252 320 352
#     4  11  17  36  58  85 118 157 205 238 292 370
#     4  10  19  36  57  84 120 159 196 247 311 371
#
# _framework density 20.574180999999999
#
# number of rings (size 3 to 8) (size 9 to 14) (size 15 to 20)
#    0.000    1.455    4.545    2.727    0.000    1.455 
#    0.000    3.636    0.000    4.364    0.000    0.000 
#    0.000    0.000    0.000    0.000    0.000    0.000 
#
# Total GULP energy -545212.237097 kJ/mol
# GULP energy per Si atom -12391.187207 kJ/mol
# Density = 2.052735 g / cm^3
# Si number density = 20.574181 Si / 1000 Ang^3
#
#
#
# Elastic Constant Matrix: (Units=GPa)
#
#
# Indices 1 2 3 4 5 6 
#
# 1 41.1316 13.5257 12.2068 0.0000 0.0000 0.0000
# 2 13.5257 116.0493 37.7413 0.0000 0.0000 0.0000
# 3 12.2068 37.7413 84.5652 0.0000 0.0000 0.0000
# 4 0.0000 0.0000 0.0000 30.5677 0.0000 0.0000
# 5 0.0000 0.0000 0.0000 0.0000 15.4353 0.0000
# 6 0.0000 0.0000 0.0000 0.0000 0.0000 13.6066
#
#
#
# Elastic Compliance Matrix: (Units=1/GPa)
#
#
# Indices 1 2 3 4 5 6 
#
# 1 0.025832 -0.002103 -0.002790 0.000000 0.000000 0.000000
# 2 -0.002103 0.010251 -0.004272 0.000000 0.000000 0.000000
# 3 -0.002790 -0.004272 0.014134 0.000000 0.000000 0.000000
# 4 0.000000 0.000000 0.000000 0.032714 0.000000 0.000000
# 5 0.000000 0.000000 0.000000 0.000000 0.064787 0.000000
# 6 0.000000 0.000000 0.000000 0.000000 0.000000 0.073494
#
#
# Mechanical properties :
#
#
# Convention : Reuss Voigt Hill
#
# Bulk Modulus (GPa) = 31.36013 40.96598 36.16306
# Shear Modulus (GPa) = 19.98629 23.80674 21.89651
#
# Velocity S-wave (km/s) = 3.12015 3.40533 3.26586
# Velocity P-wave (km/s) = 5.31564 5.95116 5.64235
#
# Compressibility (1/GPa) = 0.03188762
#
# Stress axis : x y z
#
# Youngs Moduli (GPa) = 38.71185 97.54800 70.74977
#
# Poissons Ratio (x) = 0.20518 0.19740
# Poissons Ratio (y) = 0.08143 0.30221
# Poissons Ratio (z) = 0.10801 0.41668
#
# Static dielectric constant tensor:
#      x y z
#    x 3.558630 0.000000 0.000000 
#    y 0.000000 3.925850 0.000000 
#    z 0.000000 0.000000 3.703730 
# 
# 
# High freq. dielectric constant tensor:
#      x y z
#    x 1.786060 0.000000 0.000000 
#    y 0.000000 1.806410 0.000000 
#    z 0.000000 0.000000 1.788260 
# 
# From -- ./inp_files/18127.got.cif
#   From: 2010.06.25/outbox.cif.g09.slc.cpg/sg52_10_cif.got.tgz:18127.got - 2010.06.26 19:32:48.
