data_PCOD8215327
_publ_section_title
;
Structure prediction by ZEFSAII (Michael W. Deem and Ramdas Pophale) SiO2 
 PCOD8215327
Probable space group: P N N A
;
_chemical_formula_sum "Si O2"
_cell_formula_units_Z 40
_cell_length_a 16.413841
_cell_length_b 9.206715
_cell_length_c 14.301475
_cell_angle_alpha 90.000000
_cell_angle_beta 90.000000
_cell_angle_gamma 90.000000
_cell_volume 2161.203951
_symmetry_space_group_name_H-M "P N N A"
_symmetry_group_IT_number 52
_symmetry_cell_setting 'orthorhombic'
loop_
_space_group_symop_operation_xyz
x,y,z
1/2-x,-y,z
x,1/2-y,1/2-z
1/2-x,1/2+y,1/2-z
-x,-y,-z
1/2+x,y,-z
-x,1/2+y,1/2+z
1/2+x,1/2-y,1/2+z
loop_
_atom_site_type_symbol
_atom_site_label
_atom_site_fract_x
_atom_site_fract_y
_atom_site_fract_z
Si Si1 0.446402 0.585145 0.072469
Si Si2 0.226270 0.662784 0.654719
Si Si3 0.477885 0.585099 0.775347
Si Si4 0.452346 0.331077 0.652293
Si Si5 0.173085 0.102981 0.582788
O O1 0.447270 0.490522 0.167987
O O2 0.481708 0.749610 0.086961
O O3 0.500000 0.500000 0.000000
O O4 0.357936 0.591514 0.024412
O O5 0.250000 0.500000 0.677287
O O6 0.227536 0.750000 0.750000
O O7 0.137431 0.676466 0.605496
O O8 0.295761 0.731511 0.589223
O O9 0.498732 0.750000 0.750000
O O10 0.471321 0.499947 0.676205
O O11 0.395683 0.569360 0.838195
O O12 0.449400 0.250000 0.750000
O O13 0.250000 0.000000 0.600670
#
# Coordination Sequence:
#
# PCOD8215327 Si02
#       5
#     8   8   8   8   8
#     4   9  19  34  49  72 104 139 171 206 259 312
#     4  11  19  29  48  76 106 135 168 209 259 312
#     4  10  19  33  55  79 101 132 174 215 253 306
#     4   9  17  31  51  72  99 134 170 207 248 302
#     4  11  20  33  52  77 109 136 164 209 266 316
#
# _framework density 18.508202000000001
#
# number of rings (size 3 to 8) (size 9 to 14) (size 15 to 20)
#    0.000    2.000    0.000    8.400    0.000    0.000 
#    0.000   11.000    0.000    3.600    0.000    0.000 
#    0.000    0.000    0.000    0.000    0.000    0.000 
#
# Total GULP energy -495566.912413 kJ/mol
# GULP energy per Si atom -12389.172810 kJ/mol
# Density = 1.846608 g / cm^3
# Si number density = 18.508202 Si / 1000 Ang^3
#
#
#
# Elastic Constant Matrix: (Units=GPa)
#
#
# Indices 1 2 3 4 5 6 
#
# 1 58.4880 41.3138 37.5932 0.0000 0.0000 0.0000
# 2 41.3138 152.9022 40.9060 0.0000 0.0000 0.0000
# 3 37.5932 40.9060 60.2303 0.0000 0.0000 0.0000
# 4 0.0000 0.0000 0.0000 30.9433 0.0000 0.0000
# 5 0.0000 0.0000 0.0000 0.0000 31.9121 0.0000
# 6 0.0000 0.0000 0.0000 0.0000 0.0000 21.3548
#
#
#
# Elastic Compliance Matrix: (Units=1/GPa)
#
#
# Indices 1 2 3 4 5 6 
#
# 1 0.030272 -0.003818 -0.016301 0.000000 0.000000 0.000000
# 2 -0.003818 0.008474 -0.003372 0.000000 0.000000 0.000000
# 3 -0.016301 -0.003372 0.029068 0.000000 0.000000 0.000000
# 4 0.000000 0.000000 0.000000 0.032317 0.000000 0.000000
# 5 0.000000 0.000000 0.000000 0.000000 0.031336 0.000000
# 6 0.000000 0.000000 0.000000 0.000000 0.000000 0.046828
#
#
# Mechanical properties :
#
#
# Convention : Reuss Voigt Hill
#
# Bulk Modulus (GPa) = 48.00639 56.80516 52.40577
# Shear Modulus (GPa) = 21.53112 26.96255 24.24683
#
# Velocity S-wave (km/s) = 3.41446 3.82093 3.62340
# Velocity P-wave (km/s) = 6.44507 7.08693 6.77361
#
# Compressibility (1/GPa) = 0.02083056
#
# Stress axis : x y z
#
# Youngs Moduli (GPa) = 33.03333 118.00898 34.40256
#
# Poissons Ratio (x) = 0.45061 0.56081
# Poissons Ratio (y) = 0.12614 0.11600
# Poissons Ratio (z) = 0.53849 0.39791
#
# Static dielectric constant tensor:
#      x y z
#    x 3.954800 0.000000 0.000000 
#    y 0.000000 3.710380 0.000000 
#    z 0.000000 0.000000 3.743140 
# 
# 
# High freq. dielectric constant tensor:
#      x y z
#    x 1.692720 0.000000 0.000000 
#    y 0.000000 1.736420 0.000000 
#    z 0.000000 0.000000 1.679520 
# 
# From -- ./inp_files/26925.got.cif
#   From: 2010.06.25/outbox.cif.g09.slc.cpg/sg52_14_cif.got.tgz:26925.got - 2010.06.26 19:32:48.
