data_PCOD8215848
_publ_section_title
;
Structure prediction by ZEFSAII (Michael W. Deem and Ramdas Pophale) SiO2 
 PCOD8215848
Probable space group: P N N A
;
_chemical_formula_sum "Si O2"
_cell_formula_units_Z 40
_cell_length_a 12.999681
_cell_length_b 12.325909
_cell_length_c 11.690261
_cell_angle_alpha 90.000000
_cell_angle_beta 90.000000
_cell_angle_gamma 90.000000
_cell_volume 1873.164247
_symmetry_space_group_name_H-M "P N N A"
_symmetry_group_IT_number 52
_symmetry_cell_setting 'orthorhombic'
loop_
_space_group_symop_operation_xyz
x,y,z
1/2-x,-y,z
x,1/2-y,1/2-z
1/2-x,1/2+y,1/2-z
-x,-y,-z
1/2+x,y,-z
-x,1/2+y,1/2+z
1/2+x,1/2-y,1/2+z
loop_
_atom_site_type_symbol
_atom_site_label
_atom_site_fract_x
_atom_site_fract_y
_atom_site_fract_z
Si Si1 0.918789 0.023854 0.844434
Si Si2 0.401506 0.634009 0.011289
Si Si3 0.934568 0.446040 0.160722
Si Si4 0.104823 0.125015 0.947136
Si Si5 0.750000 0.500000 0.828011
Si Si6 0.250000 0.500000 0.720374
O O1 0.829546 0.064505 0.756576
O O2 0.998521 0.950726 0.774986
O O3 0.871527 0.947140 0.941735
O O4 0.984971 0.119854 0.905129
O O5 0.511056 0.642125 0.079112
O O6 0.312497 0.582792 0.091716
O O7 0.426833 0.563204 0.900468
O O8 0.365264 0.752023 0.974117
O O9 0.818347 0.418962 0.199420
O O10 0.179727 0.081900 0.849556
#
# Coordination Sequence:
#
# PCOD8215848 Si02
#       6
#     8   8   8   8   4   4
#     4   9  20  39  58  83 121 156 194 245 294 350
#     4  10  21  40  62  87 121 159 200 247 299 355
#     4   9  20  39  58  83 121 156 194 245 294 350
#     4  10  21  40  62  87 121 159 200 247 299 355
#     4  10  20  38  60  88 122 156 202 250 294 354
#     4  10  20  38  60  88 122 156 202 250 294 354
#
# _framework density 21.354240999999998
#
# number of rings (size 3 to 8) (size 9 to 14) (size 15 to 20)
#    0.000    2.400    0.000    1.200    0.000    6.400 
#    0.000   48.000    0.000    0.000    0.000    0.000 
#    0.000    0.000    0.000    0.000    0.000    0.000 
#
# Total GULP energy -495573.788825 kJ/mol
# GULP energy per Si atom -12389.344721 kJ/mol
# Density = 2.130564 g / cm^3
# Si number density = 21.354241 Si / 1000 Ang^3
#
#
#
# Elastic Constant Matrix: (Units=GPa)
#
#
# Indices 1 2 3 4 5 6 
#
# 1 115.5911 33.0386 37.4072 0.0000 0.0000 0.0000
# 2 33.0386 92.5892 25.9938 0.0000 0.0000 0.0000
# 3 37.4072 25.9938 95.1575 0.0000 0.0000 0.0000
# 4 0.0000 0.0000 0.0000 5.7702 0.0000 0.0000
# 5 0.0000 0.0000 0.0000 0.0000 53.4323 0.0000
# 6 0.0000 0.0000 0.0000 0.0000 0.0000 19.0724
#
#
#
# Elastic Compliance Matrix: (Units=1/GPa)
#
#
# Indices 1 2 3 4 5 6 
#
# 1 0.010549 -0.002816 -0.003378 0.000000 0.000000 0.000000
# 2 -0.002816 0.012449 -0.002294 0.000000 0.000000 0.000000
# 3 -0.003378 -0.002294 0.012463 0.000000 0.000000 0.000000
# 4 0.000000 0.000000 0.000000 0.173304 0.000000 0.000000
# 5 0.000000 0.000000 0.000000 0.000000 0.018715 0.000000
# 6 0.000000 0.000000 0.000000 0.000000 0.000000 0.052432
#
#
# Mechanical properties :
#
#
# Convention : Reuss Voigt Hill
#
# Bulk Modulus (GPa) = 54.09278 55.13523 54.61400
# Shear Modulus (GPa) = 16.49895 29.44820 22.97358
#
# Velocity S-wave (km/s) = 2.78264 3.71756 3.28355
# Velocity P-wave (km/s) = 5.97581 6.65601 6.32506
#
# Compressibility (1/GPa) = 0.01848676
#
# Stress axis : x y z
#
# Youngs Moduli (GPa) = 94.79436 80.32671 80.23584
#
# Poissons Ratio (x) = 0.22620 0.27101
# Poissons Ratio (y) = 0.26694 0.18404
# Poissons Ratio (z) = 0.32019 0.18425
#
# Static dielectric constant tensor:
#      x y z
#    x 4.362780 0.000000 0.000000 
#    y 0.000000 3.201100 0.000000 
#    z 0.000000 0.000000 4.290000 
# 
# 
# High freq. dielectric constant tensor:
#      x y z
#    x 1.855190 0.000000 0.000000 
#    y 0.000000 1.772800 0.000000 
#    z 0.000000 0.000000 1.870650 
# 
# From -- ./inp_files/18031.got.cif
#   From: 2010.06.25/outbox.cif.g09.slc.cpg/sg52_10_cif.got.tgz:18031.got - 2010.06.26 19:32:48.
