data_PCOD8215704
_publ_section_title
;
Structure prediction by ZEFSAII (Michael W. Deem and Ramdas Pophale) SiO2 
 PCOD8215704
Probable space group: P N N A
;
_chemical_formula_sum "Si O2"
_cell_formula_units_Z 40
_cell_length_a 9.218725
_cell_length_b 21.136480
_cell_length_c 8.586564
_cell_angle_alpha 90.000000
_cell_angle_beta 90.000000
_cell_angle_gamma 90.000000
_cell_volume 1673.103987
_symmetry_space_group_name_H-M "P N N A"
_symmetry_group_IT_number 52
_symmetry_cell_setting 'orthorhombic'
loop_
_space_group_symop_operation_xyz
x,y,z
1/2-x,-y,z
x,1/2-y,1/2-z
1/2-x,1/2+y,1/2-z
-x,-y,-z
1/2+x,y,-z
-x,1/2+y,1/2+z
1/2+x,1/2-y,1/2+z
loop_
_atom_site_type_symbol
_atom_site_label
_atom_site_fract_x
_atom_site_fract_y
_atom_site_fract_z
Si Si1 0.329334 0.331412 0.594296
Si Si2 0.476421 0.854523 0.379382
Si Si3 0.675226 0.787665 0.599859
Si Si4 0.554668 0.410844 0.418153
Si Si5 0.593122 0.020264 0.762045
O O1 0.431792 0.322427 0.742155
O O2 0.283314 0.262511 0.533923
O O3 0.413957 0.368780 0.457567
O O4 0.185064 0.368253 0.646813
O O5 0.546730 0.834658 0.543995
O O6 0.314225 0.829375 0.359682
O O7 0.477471 0.930765 0.361311
O O8 0.618388 0.750000 0.750000
O O9 0.612851 0.446457 0.570841
O O10 0.513446 0.460294 0.281901
O O11 0.750000 0.000000 0.699130
#
# Coordination Sequence:
#
# PCOD8215704 Si02
#       5
#     8   8   8   8   8
#     4  11  22  43  73 111 138 179 248 292 354 425
#     4  11  27  46  72 107 139 183 244 298 353 432
#     4  12  25  46  70 100 144 188 231 301 368 426
#     4  10  20  35  72 110 141 191 229 293 354 421
#     4  10  20  41  69 106 151 186 240 290 349 430
#
# _framework density 23.907658999999999
#
# number of rings (size 3 to 8) (size 9 to 14) (size 15 to 20)
#    0.000    1.200    2.000    5.400    0.000    3.200 
#    0.000    1.000    0.000    0.000    0.000    0.000 
#    0.000    0.000    0.000    0.000    0.000    0.000 
#
# Total GULP energy -496241.426344 kJ/mol
# GULP energy per Si atom -12406.035659 kJ/mol
# Density = 2.385324 g / cm^3
# Si number density = 23.907659 Si / 1000 Ang^3
#
#
#
# Elastic Constant Matrix: (Units=GPa)
#
#
# Indices 1 2 3 4 5 6 
#
# 1 115.6287 59.9819 46.1200 0.0000 0.0000 0.0000
# 2 59.9819 130.7179 39.4098 0.0000 0.0000 0.0000
# 3 46.1200 39.4098 75.1494 0.0000 0.0000 0.0000
# 4 0.0000 0.0000 0.0000 37.1210 0.0000 0.0000
# 5 0.0000 0.0000 0.0000 0.0000 38.4887 0.0000
# 6 0.0000 0.0000 0.0000 0.0000 0.0000 49.0978
#
#
#
# Elastic Compliance Matrix: (Units=1/GPa)
#
#
# Indices 1 2 3 4 5 6 
#
# 1 0.013213 -0.004298 -0.005855 0.000000 0.000000 0.000000
# 2 -0.004298 0.010485 -0.002861 0.000000 0.000000 0.000000
# 3 -0.005855 -0.002861 0.018401 0.000000 0.000000 0.000000
# 4 0.000000 0.000000 0.000000 0.026939 0.000000 0.000000
# 5 0.000000 0.000000 0.000000 0.000000 0.025982 0.000000
# 6 0.000000 0.000000 0.000000 0.000000 0.000000 0.020367
#
#
# Mechanical properties :
#
#
# Convention : Reuss Voigt Hill
#
# Bulk Modulus (GPa) = 62.22478 68.05773 65.14126
# Shear Modulus (GPa) = 34.06662 36.67378 35.37020
#
# Velocity S-wave (km/s) = 3.77891 3.92085 3.85054
# Velocity P-wave (km/s) = 6.71743 7.00187 6.86112
#
# Compressibility (1/GPa) = 0.01607077
#
# Stress axis : x y z
#
# Youngs Moduli (GPa) = 75.68120 95.37737 54.34634
#
# Poissons Ratio (x) = 0.40992 0.31821
# Poissons Ratio (y) = 0.32527 0.15547
# Poissons Ratio (z) = 0.44314 0.27285
#
# Static dielectric constant tensor:
#      x y z
#    x 4.166900 0.000000 0.000000 
#    y 0.000000 4.611430 0.000000 
#    z 0.000000 0.000000 4.022570 
# 
# 
# High freq. dielectric constant tensor:
#      x y z
#    x 1.947830 0.000000 0.000000 
#    y 0.000000 1.964240 0.000000 
#    z 0.000000 0.000000 1.920590 
# 
# From -- ./inp_files/7438.got.cif
#   From: 2010.06.25/outbox.cif.g09.slc.cpg/sg52_4_cif.got.tgz:7438.got - 2010.06.26 19:32:48.
