data_PCOD8215023
_publ_section_title
;
Structure prediction by ZEFSAII (Michael W. Deem and Ramdas Pophale) SiO2 
 PCOD8215023
Probable space group: P N N A
;
_chemical_formula_sum "Si O2"
_cell_formula_units_Z 48
_cell_length_a 12.657979
_cell_length_b 15.306087
_cell_length_c 13.157209
_cell_angle_alpha 90.000000
_cell_angle_beta 90.000000
_cell_angle_gamma 90.000000
_cell_volume 2549.131982
_symmetry_space_group_name_H-M "P N N A"
_symmetry_group_IT_number 52
_symmetry_cell_setting 'orthorhombic'
loop_
_space_group_symop_operation_xyz
x,y,z
1/2-x,-y,z
x,1/2-y,1/2-z
1/2-x,1/2+y,1/2-z
-x,-y,-z
1/2+x,y,-z
-x,1/2+y,1/2+z
1/2+x,1/2-y,1/2+z
loop_
_atom_site_type_symbol
_atom_site_label
_atom_site_fract_x
_atom_site_fract_y
_atom_site_fract_z
Si Si1 0.105723 0.243278 0.365952
Si Si2 0.371422 0.496278 0.675487
Si Si3 0.249958 0.752205 0.548368
Si Si4 0.946249 0.680027 0.330422
Si Si5 0.096838 0.836820 0.679542
Si Si6 0.447991 0.131239 0.969175
O O1 0.146382 0.250000 0.250000
O O2 0.208193 0.224892 0.435494
O O3 0.018244 0.165840 0.375176
O O4 0.045597 0.331205 0.402741
O O5 0.250000 0.500000 0.647062
O O6 0.408415 0.589527 0.720395
O O7 0.395479 0.425588 0.760435
O O8 0.432752 0.469145 0.570077
O O9 0.348538 0.727798 0.617720
O O10 0.191111 0.836578 0.596308
O O11 0.165180 0.674744 0.553328
O O12 0.994620 0.750000 0.250000
O O13 0.032923 0.648782 0.412148
O O14 0.105848 0.750000 0.750000
#
# Coordination Sequence:
#
# PCOD8215023 Si02
#       6
#     8   8   8   8   8   8
#     4   9  17  32  55  81 113 156 183 223 291 343
#     4  12  19  33  62  87 113 148 196 247 290 338
#     4  10  18  33  57  85 111 148 189 229 288 341
#     4  11  23  36  55  84 120 149 187 241 300 339
#     4  10  17  34  56  85 113 144 193 238 278 345
#     4  10  20  35  55  86 115 146 191 245 282 343
#
# _framework density 18.829939
#
# number of rings (size 3 to 8) (size 9 to 14) (size 15 to 20)
#    0.000    1.667    6.667    2.000    0.000    0.667 
#    0.000    0.000    0.000   18.000    0.000    0.000 
#    0.000    0.000    0.000    0.000    0.000    0.000 
#
# Total GULP energy -594682.516196 kJ/mol
# GULP energy per Si atom -12389.219087 kJ/mol
# Density = 1.878708 g / cm^3
# Si number density = 18.829939 Si / 1000 Ang^3
#
#
#
# Elastic Constant Matrix: (Units=GPa)
#
#
# Indices 1 2 3 4 5 6 
#
# 1 46.1896 8.8831 22.1556 0.0000 0.0000 0.0000
# 2 8.8831 102.7978 44.9817 0.0000 0.0000 0.0000
# 3 22.1556 44.9817 92.7450 0.0000 0.0000 0.0000
# 4 0.0000 0.0000 0.0000 28.4825 0.0000 0.0000
# 5 0.0000 0.0000 0.0000 0.0000 34.2250 0.0000
# 6 0.0000 0.0000 0.0000 0.0000 0.0000 9.4427
#
#
#
# Elastic Compliance Matrix: (Units=1/GPa)
#
#
# Indices 1 2 3 4 5 6 
#
# 1 0.024477 0.000563 -0.006120 0.000000 0.000000 0.000000
# 2 0.000563 0.012361 -0.006130 0.000000 0.000000 0.000000
# 3 -0.006120 -0.006130 0.015217 0.000000 0.000000 0.000000
# 4 0.000000 0.000000 0.000000 0.035109 0.000000 0.000000
# 5 0.000000 0.000000 0.000000 0.000000 0.029218 0.000000
# 6 0.000000 0.000000 0.000000 0.000000 0.000000 0.105902
#
#
# Mechanical properties :
#
#
# Convention : Reuss Voigt Hill
#
# Bulk Modulus (GPa) = 34.86553 43.75256 39.30904
# Shear Modulus (GPa) = 19.59090 25.47752 22.53421
#
# Velocity S-wave (km/s) = 3.22904 3.68235 3.46312
# Velocity P-wave (km/s) = 5.69723 6.43162 6.07553
#
# Compressibility (1/GPa) = 0.02868163
#
# Stress axis : x y z
#
# Youngs Moduli (GPa) = 40.85413 80.89665 65.71459
#
# Poissons Ratio (x) = -0.04554 0.40220
# Poissons Ratio (y) = -0.02300 0.40282
# Poissons Ratio (z) = 0.25004 0.49588
#
# Static dielectric constant tensor:
#      x y z
#    x 3.660230 0.000000 0.000000 
#    y 0.000000 3.370150 0.000000 
#    z 0.000000 0.000000 3.666490 
# 
# 
# High freq. dielectric constant tensor:
#      x y z
#    x 1.729010 0.000000 0.000000 
#    y 0.000000 1.704250 0.000000 
#    z 0.000000 0.000000 1.725780 
# 
# From -- ./inp_files/19549.got.cif
#   From: 2010.06.25/outbox.cif.g09.slc.cpg/sg52_10_cif.got.tgz:19549.got - 2010.06.26 19:32:48.
