data_PCOD8215833
_publ_section_title
;
Structure prediction by ZEFSAII (Michael W. Deem and Ramdas Pophale) SiO2 
 PCOD8215833
Probable space group: P N N A
;
_chemical_formula_sum "Si O2"
_cell_formula_units_Z 36
_cell_length_a 15.703319
_cell_length_b 14.659480
_cell_length_c 8.362986
_cell_angle_alpha 90.000000
_cell_angle_beta 90.000000
_cell_angle_gamma 90.000000
_cell_volume 1925.180208
_symmetry_space_group_name_H-M "P N N A"
_symmetry_group_IT_number 52
_symmetry_cell_setting 'orthorhombic'
loop_
_space_group_symop_operation_xyz
x,y,z
1/2-x,-y,z
x,1/2-y,1/2-z
1/2-x,1/2+y,1/2-z
-x,-y,-z
1/2+x,y,-z
-x,1/2+y,1/2+z
1/2+x,1/2-y,1/2+z
loop_
_atom_site_type_symbol
_atom_site_label
_atom_site_fract_x
_atom_site_fract_y
_atom_site_fract_z
Si Si1 0.995723 0.911347 0.889948
Si Si2 0.014096 0.271803 0.932722
Si Si3 0.573507 0.934032 0.437159
Si Si4 0.750000 0.000000 0.547529
Si Si5 0.650989 0.156449 0.678744
O O1 0.903851 0.899997 0.807850
O O2 0.065736 0.916115 0.751211
O O3 0.016486 0.822621 0.992373
O O4 0.000000 0.000000 0.000000
O O5 0.037829 0.250000 0.750000
O O6 0.094919 0.317669 0.022375
O O7 0.934988 0.341624 0.956799
O O8 0.665604 0.979958 0.446949
O O9 0.500000 0.000000 0.500000
O O10 0.768579 0.908210 0.646782
O O11 0.687714 0.250000 0.750000
#
# Coordination Sequence:
#
# PCOD8215833 Si02
#       5
#     8   8   8   4   8
#     4  10  20  38  66  89 119 160 206 249 304 367
#     4  10  20  37  67  89 119 165 202 250 309 358
#     4  11  21  39  62  90 121 161 202 249 307 362
#     4  12  22  38  68  88 130 158 204 252 312 366
#     4   9  21  40  59  93 126 157 205 257 303 357
#
# _framework density 18.699548
#
# number of rings (size 3 to 8) (size 9 to 14) (size 15 to 20)
#    0.000    1.778    4.444    3.333    0.000    0.889 
#    0.000    3.333    0.000    0.000    0.000    0.000 
#    0.000    0.000    0.000    0.000    0.000    0.000 
#
# Total GULP energy -446166.091414 kJ/mol
# GULP energy per Si atom -12393.502539 kJ/mol
# Density = 1.865699 g / cm^3
# Si number density = 18.699548 Si / 1000 Ang^3
#
#
#
# Elastic Constant Matrix: (Units=GPa)
#
#
# Indices 1 2 3 4 5 6 
#
# 1 102.3572 61.3140 33.8076 0.0000 0.0000 0.0000
# 2 61.3140 172.1489 69.4474 0.0000 0.0000 0.0000
# 3 33.8076 69.4474 129.3609 0.0000 0.0000 0.0000
# 4 0.0000 0.0000 0.0000 41.6119 0.0000 0.0000
# 5 0.0000 0.0000 0.0000 0.0000 11.9980 0.0000
# 6 0.0000 0.0000 0.0000 0.0000 0.0000 35.7393
#
#
#
# Elastic Compliance Matrix: (Units=1/GPa)
#
#
# Indices 1 2 3 4 5 6 
#
# 1 0.012546 -0.004015 -0.001123 0.000000 0.000000 0.000000
# 2 -0.004015 0.008700 -0.003621 0.000000 0.000000 0.000000
# 3 -0.001123 -0.003621 0.009968 0.000000 0.000000 0.000000
# 4 0.000000 0.000000 0.000000 0.024032 0.000000 0.000000
# 5 0.000000 0.000000 0.000000 0.000000 0.083347 0.000000
# 6 0.000000 0.000000 0.000000 0.000000 0.000000 0.027980
#
#
# Mechanical properties :
#
#
# Convention : Reuss Voigt Hill
#
# Bulk Modulus (GPa) = 73.02274 81.44499 77.23386
# Shear Modulus (GPa) = 26.50311 33.82306 30.16308
#
# Velocity S-wave (km/s) = 3.76881 4.25757 4.02062
# Velocity P-wave (km/s) = 7.62062 8.23519 7.93386
#
# Compressibility (1/GPa) = 0.01369436
#
# Stress axis : x y z
#
# Youngs Moduli (GPa) = 79.70693 114.94383 100.32249
#
# Poissons Ratio (x) = 0.46154 0.11268
# Poissons Ratio (y) = 0.32005 0.36328
# Poissons Ratio (z) = 0.08952 0.41623
#
# Static dielectric constant tensor:
#      x y z
#    x 3.223430 0.000000 0.000000 
#    y 0.000000 3.909380 0.000000 
#    z 0.000000 0.000000 3.262380 
# 
# 
# High freq. dielectric constant tensor:
#      x y z
#    x 1.691070 0.000000 0.000000 
#    y 0.000000 1.758870 0.000000 
#    z 0.000000 0.000000 1.723230 
# 
# From -- ./inp_files/9929.got.cif
#   From: 2010.06.25/outbox.cif.g09.slc.cpg/sg52_5_cif.got.tgz:9929.got - 2010.06.26 19:32:48.
