data_PCOD8215685
_publ_section_title
;
Structure prediction by ZEFSAII (Michael W. Deem and Ramdas Pophale) SiO2 
 PCOD8215685
Probable space group: P N N A
;
_chemical_formula_sum "Si O2"
_cell_formula_units_Z 64
_cell_length_a 19.421957
_cell_length_b 7.506598
_cell_length_c 19.424413
_cell_angle_alpha 90.000000
_cell_angle_beta 90.000000
_cell_angle_gamma 90.000000
_cell_volume 2831.940018
_symmetry_space_group_name_H-M "P N N A"
_symmetry_group_IT_number 52
_symmetry_cell_setting 'orthorhombic'
loop_
_space_group_symop_operation_xyz
x,y,z
1/2-x,-y,z
x,1/2-y,1/2-z
1/2-x,1/2+y,1/2-z
-x,-y,-z
1/2+x,y,-z
-x,1/2+y,1/2+z
1/2+x,1/2-y,1/2+z
loop_
_atom_site_type_symbol
_atom_site_label
_atom_site_fract_x
_atom_site_fract_y
_atom_site_fract_z
Si Si1 0.072548 0.990030 0.699045
Si Si2 0.017477 0.838701 0.074609
Si Si3 0.424224 0.370276 0.189975
Si Si4 0.690952 0.356827 0.819472
Si Si5 0.368127 0.298803 0.521434
Si Si6 0.888684 0.604282 0.057859
Si Si7 0.271221 0.794950 0.464782
Si Si8 0.077945 0.599211 0.654801
O O1 0.050477 0.794853 0.673232
O O2 0.108391 0.989078 0.774876
O O3 0.120754 0.085842 0.641483
O O4 0.002642 0.095637 0.710797
O O5 0.960762 0.702835 0.044541
O O6 0.075874 0.734028 0.118169
O O7 0.066704 0.907888 0.012264
O O8 0.986314 0.992264 0.122738
O O9 0.389658 0.250000 0.250000
O O10 0.383459 0.552567 0.179613
O O11 0.750000 0.500000 0.820474
O O12 0.699483 0.250000 0.750000
O O13 0.699233 0.238272 0.889505
O O14 0.295119 0.327346 0.483376
O O15 0.361365 0.382079 0.598204
O O16 0.388732 0.089951 0.523082
O O17 0.828578 0.726849 0.024927
O O18 0.250000 0.000000 0.463261
#
# Coordination Sequence:
#
# PCOD8215685 Si02
#       8
#     8   8   8   8   8   8   8   8
#     4   9  20  37  58  88 119 156 194 253 317 376
#     4  11  20  34  58  90 119 155 205 251 309 377
#     4  11  21  36  59  86 118 156 204 253 312 370
#     4  11  24  40  58  85 122 169 215 256 310 374
#     4  10  20  36  59  86 118 159 202 257 308 368
#     4   9  19  35  60  84 115 159 206 250 306 371
#     4   9  19  40  62  83 118 164 214 250 301 370
#     4  10  20  35  57  87 124 153 196 253 321 370
#
# _framework density 22.599347999999999
#
# number of rings (size 3 to 8) (size 9 to 14) (size 15 to 20)
#    0.000    2.000    1.250    3.375    1.750    2.000 
#    0.000    1.875    0.000   15.000    0.000    0.000 
#    0.000    0.000    0.000    0.000    0.000    0.000 
#
# Total GULP energy -793152.031624 kJ/mol
# GULP energy per Si atom -12393.000494 kJ/mol
# Density = 2.254791 g / cm^3
# Si number density = 22.599348 Si / 1000 Ang^3
#
#
#
# Elastic Constant Matrix: (Units=GPa)
#
#
# Indices 1 2 3 4 5 6 
#
# 1 99.5856 15.2216 79.1861 0.0000 0.0000 0.0000
# 2 15.2216 22.0147 37.0827 0.0000 0.0000 0.0000
# 3 79.1861 37.0827 203.0450 0.0000 0.0000 0.0000
# 4 0.0000 0.0000 0.0000 34.6495 0.0000 0.0000
# 5 0.0000 0.0000 0.0000 0.0000 33.5793 0.0000
# 6 0.0000 0.0000 0.0000 0.0000 0.0000 19.3158
#
#
#
# Elastic Compliance Matrix: (Units=1/GPa)
#
#
# Indices 1 2 3 4 5 6 
#
# 1 0.014563 -0.000726 -0.005547 0.000000 0.000000 0.000000
# 2 -0.000726 0.065644 -0.011706 0.000000 0.000000 0.000000
# 3 -0.005547 -0.011706 0.009226 0.000000 0.000000 0.000000
# 4 0.000000 0.000000 0.000000 0.028860 0.000000 0.000000
# 5 0.000000 0.000000 0.000000 0.000000 0.029780 0.000000
# 6 0.000000 0.000000 0.000000 0.000000 0.000000 0.051771
#
#
# Mechanical properties :
#
#
# Convention : Reuss Voigt Hill
#
# Bulk Modulus (GPa) = 18.69993 65.29179 41.99586
# Shear Modulus (GPa) = 19.71397 30.38590 25.04994
#
# Velocity S-wave (km/s) = 2.95672 3.67079 3.33293
# Velocity P-wave (km/s) = 4.46640 6.84981 5.78224
#
# Compressibility (1/GPa) = 0.05347613
#
# Stress axis : x y z
#
# Youngs Moduli (GPa) = 68.66569 15.23379 108.38760
#
# Poissons Ratio (x) = 0.01106 0.60123
# Poissons Ratio (y) = 0.04984 1.26874
# Poissons Ratio (z) = 0.38089 0.17832
#
# Static dielectric constant tensor:
#      x y z
#    x 3.729950 0.000000 0.000000 
#    y 0.000000 3.560580 0.000000 
#    z 0.000000 0.000000 4.803170 
# 
# 
# High freq. dielectric constant tensor:
#      x y z
#    x 1.854820 0.000000 0.000000 
#    y 0.000000 1.879490 0.000000 
#    z 0.000000 0.000000 1.917150 
# 
# From -- ./inp_files/34125.got.cif
#   From: 2010.06.25/outbox.cif.g09.slc.cpg/sg52_18_cif.got.tgz:34125.got - 2010.06.26 19:32:48.
