data_PCOD8215147
_publ_section_title
;
Structure prediction by ZEFSAII (Michael W. Deem and Ramdas Pophale) SiO2 
 PCOD8215147
Probable space group: P N N A
;
_chemical_formula_sum "Si O2"
_cell_formula_units_Z 36
_cell_length_a 14.667153
_cell_length_b 8.531103
_cell_length_c 15.386359
_cell_angle_alpha 90.000000
_cell_angle_beta 90.000000
_cell_angle_gamma 90.000000
_cell_volume 1925.248834
_symmetry_space_group_name_H-M "P N N A"
_symmetry_group_IT_number 52
_symmetry_cell_setting 'orthorhombic'
loop_
_space_group_symop_operation_xyz
x,y,z
1/2-x,-y,z
x,1/2-y,1/2-z
1/2-x,1/2+y,1/2-z
-x,-y,-z
1/2+x,y,-z
-x,1/2+y,1/2+z
1/2+x,1/2-y,1/2+z
loop_
_atom_site_type_symbol
_atom_site_label
_atom_site_fract_x
_atom_site_fract_y
_atom_site_fract_z
Si Si1 0.079169 0.133557 0.819355
Si Si2 0.496762 0.619894 0.422638
Si Si3 0.837114 0.349910 0.061145
Si Si4 0.750000 0.000000 0.278030
Si Si5 0.645628 0.302199 0.009786
O O1 0.030974 0.250000 0.750000
O O2 0.095796 0.228246 0.907221
O O3 0.012771 0.982437 0.834728
O O4 0.177135 0.083039 0.782982
O O5 0.500000 0.500000 0.500000
O O6 0.579575 0.735965 0.436526
O O7 0.402990 0.722557 0.424965
O O8 0.800993 0.376539 0.159170
O O9 0.754118 0.268577 0.007310
O O10 0.868340 0.510391 0.014157
#
# Coordination Sequence:
#
# PCOD8215147 Si02
#       5
#     8   8   8   4   8
#     4  11  18  31  47  74 116 139 177 217 278 341
#     4  10  22  32  48  75 115 150 178 218 270 339
#     4  10  18  33  56  74 114 145 181 232 272 333
#     4  10  20  30  54  86 108 142 170 224 294 332
#     4   9  19  34  49  79 110 147 182 221 278 332
#
# _framework density 18.698879999999999
#
# number of rings (size 3 to 8) (size 9 to 14) (size 15 to 20)
#    0.000    2.222    4.444    2.000    0.000    2.667 
#    0.000    0.000    0.000    0.000    0.000    0.000 
#   80.000    0.000    0.000    0.000    0.000    0.000 
#
# Total GULP energy -446015.692798 kJ/mol
# GULP energy per Si atom -12389.324800 kJ/mol
# Density = 1.865632 g / cm^3
# Si number density = 18.698880 Si / 1000 Ang^3
#
#
#
# Elastic Constant Matrix: (Units=GPa)
#
#
# Indices 1 2 3 4 5 6 
#
# 1 93.3957 54.2708 33.4840 0.0000 0.0000 0.0000
# 2 54.2708 90.9489 32.4679 0.0000 0.0000 0.0000
# 3 33.4840 32.4679 43.3713 0.0000 0.0000 0.0000
# 4 0.0000 0.0000 0.0000 13.7395 0.0000 0.0000
# 5 0.0000 0.0000 0.0000 0.0000 22.4895 0.0000
# 6 0.0000 0.0000 0.0000 0.0000 0.0000 19.7164
#
#
#
# Elastic Compliance Matrix: (Units=1/GPa)
#
#
# Indices 1 2 3 4 5 6 
#
# 1 0.018266 -0.008005 -0.008110 0.000000 0.000000 0.000000
# 2 -0.008005 0.018513 -0.007679 0.000000 0.000000 0.000000
# 3 -0.008110 -0.007679 0.035066 0.000000 0.000000 0.000000
# 4 0.000000 0.000000 0.000000 0.072783 0.000000 0.000000
# 5 0.000000 0.000000 0.000000 0.000000 0.044465 0.000000
# 6 0.000000 0.000000 0.000000 0.000000 0.000000 0.050719
#
#
# Mechanical properties :
#
#
# Convention : Reuss Voigt Hill
#
# Bulk Modulus (GPa) = 41.22260 52.01793 46.62026
# Shear Modulus (GPa) = 16.92130 18.35527 17.63829
#
# Velocity S-wave (km/s) = 3.01148 3.13649 3.07462
# Velocity P-wave (km/s) = 5.84682 6.40280 6.13112
#
# Compressibility (1/GPa) = 0.02425854
#
# Stress axis : x y z
#
# Youngs Moduli (GPa) = 54.74696 54.01602 28.51743
#
# Poissons Ratio (x) = 0.43237 0.23126
# Poissons Ratio (y) = 0.43822 0.21899
# Poissons Ratio (z) = 0.44398 0.41480
#
# Static dielectric constant tensor:
#      x y z
#    x 3.513010 0.000000 0.000000 
#    y 0.000000 3.992160 0.000000 
#    z 0.000000 0.000000 3.582370 
# 
# 
# High freq. dielectric constant tensor:
#      x y z
#    x 1.708260 0.000000 0.000000 
#    y 0.000000 1.750660 0.000000 
#    z 0.000000 0.000000 1.684540 
# 
# From -- ./inp_files/27803.got.cif
#   From: 2010.06.25/outbox.cif.g09.slc.cpg/sg52_14_cif.got.tgz:27803.got - 2010.06.26 19:32:48.
