data_PCOD8215078
_publ_section_title
;
Structure prediction by ZEFSAII (Michael W. Deem and Ramdas Pophale) SiO2 
 PCOD8215078
Probable space group: P N N A
;
_chemical_formula_sum "Si O2"
_cell_formula_units_Z 48
_cell_length_a 8.641909
_cell_length_b 25.838518
_cell_length_c 11.262624
_cell_angle_alpha 90.000000
_cell_angle_beta 90.000000
_cell_angle_gamma 90.000000
_cell_volume 2514.877729
_symmetry_space_group_name_H-M "P N N A"
_symmetry_group_IT_number 52
_symmetry_cell_setting 'orthorhombic'
loop_
_space_group_symop_operation_xyz
x,y,z
1/2-x,-y,z
x,1/2-y,1/2-z
1/2-x,1/2+y,1/2-z
-x,-y,-z
1/2+x,y,-z
-x,1/2+y,1/2+z
1/2+x,1/2-y,1/2+z
loop_
_atom_site_type_symbol
_atom_site_label
_atom_site_fract_x
_atom_site_fract_y
_atom_site_fract_z
Si Si1 0.907941 0.886884 0.886223
Si Si2 0.487063 0.697850 0.827138
Si Si3 0.742301 0.270610 0.979019
Si Si4 0.962452 0.218268 0.141638
Si Si5 0.929479 0.502113 0.627549
Si Si6 0.956654 0.390770 0.647510
O O1 0.966803 0.940293 0.821086
O O2 0.724460 0.879136 0.872201
O O3 0.003469 0.840948 0.822825
O O4 0.948253 0.884773 0.025867
O O5 0.490451 0.750000 0.750000
O O6 0.644451 0.692165 0.904082
O O7 0.470450 0.648481 0.742080
O O8 0.341450 0.697125 0.916805
O O9 0.623710 0.245153 0.889343
O O10 0.843293 0.222978 0.032572
O O11 0.887231 0.250000 0.250000
O O12 0.750000 0.500000 0.605659
O O13 0.981525 0.450131 0.698380
O O14 0.000000 0.500000 0.500000
#
# Coordination Sequence:
#
# PCOD8215078 Si02
#       6
#     8   8   8   8   8   8
#     4  10  18  30  50  78 108 135 169 211 254 315
#     4  11  21  35  52  73 103 140 172 210 261 308
#     4  10  22  34  47  74 104 131 173 210 245 308
#     4  11  20  32  49  72  99 131 163 203 254 299
#     4   8  16  29  46  73 104 134 164 202 252 305
#     4  10  19  32  52  76 107 141 169 206 260 313
#
# _framework density 19.086414000000001
#
# number of rings (size 3 to 8) (size 9 to 14) (size 15 to 20)
#    0.000    2.000    0.000    6.000    0.000    1.333 
#    0.000    0.000    0.000    0.000    0.000   31.500 
#    0.000    0.000    0.000    0.000    0.000    0.000 
#
# Total GULP energy -594677.542419 kJ/mol
# GULP energy per Si atom -12389.115467 kJ/mol
# Density = 1.904297 g / cm^3
# Si number density = 19.086414 Si / 1000 Ang^3
#
#
#
# Elastic Constant Matrix: (Units=GPa)
#
#
# Indices 1 2 3 4 5 6 
#
# 1 39.7584 9.1656 13.2126 0.0000 0.0000 0.0000
# 2 9.1656 154.8428 42.8286 0.0000 0.0000 0.0000
# 3 13.2126 42.8286 63.7206 0.0000 0.0000 0.0000
# 4 0.0000 0.0000 0.0000 25.4852 0.0000 0.0000
# 5 0.0000 0.0000 0.0000 0.0000 27.0899 0.0000
# 6 0.0000 0.0000 0.0000 0.0000 0.0000 16.6887
#
#
#
# Elastic Compliance Matrix: (Units=1/GPa)
#
#
# Indices 1 2 3 4 5 6 
#
# 1 0.027014 -0.000061 -0.005560 0.000000 0.000000 0.000000
# 2 -0.000061 0.007933 -0.005319 0.000000 0.000000 0.000000
# 3 -0.005560 -0.005319 0.020422 0.000000 0.000000 0.000000
# 4 0.000000 0.000000 0.000000 0.039238 0.000000 0.000000
# 5 0.000000 0.000000 0.000000 0.000000 0.036914 0.000000
# 6 0.000000 0.000000 0.000000 0.000000 0.000000 0.059921
#
#
# Mechanical properties :
#
#
# Convention : Reuss Voigt Hill
#
# Bulk Modulus (GPa) = 29.86226 43.19283 36.52755
# Shear Modulus (GPa) = 22.27310 26.72709 24.50009
#
# Velocity S-wave (km/s) = 3.41979 3.74615 3.58668
# Velocity P-wave (km/s) = 5.59223 6.43356 6.02759
#
# Compressibility (1/GPa) = 0.03348708
#
# Stress axis : x y z
#
# Youngs Moduli (GPa) = 37.01805 126.05426 48.96730
#
# Poissons Ratio (x) = 0.00770 0.27227
# Poissons Ratio (y) = 0.00226 0.26048
# Poissons Ratio (z) = 0.20583 0.67053
#
# Static dielectric constant tensor:
#      x y z
#    x 3.540900 0.000000 0.000000 
#    y 0.000000 4.152850 0.000000 
#    z 0.000000 0.000000 3.229570 
# 
# 
# High freq. dielectric constant tensor:
#      x y z
#    x 1.756770 0.000000 0.000000 
#    y 0.000000 1.743790 0.000000 
#    z 0.000000 0.000000 1.698440 
# 
# From -- ./inp_files/16946.got.cif
#   From: 2010.06.25/outbox.cif.g09.slc.cpg/sg52_9_cif.got.tgz:16946.got - 2010.06.26 19:32:48.
