data_PCOD8215094
_publ_section_title
;
Structure prediction by ZEFSAII (Michael W. Deem and Ramdas Pophale) SiO2 
 PCOD8215094
Probable space group: P N N A
;
_chemical_formula_sum "Si O2"
_cell_formula_units_Z 56
_cell_length_a 14.746228
_cell_length_b 16.927674
_cell_length_c 12.461698
_cell_angle_alpha 90.000000
_cell_angle_beta 90.000000
_cell_angle_gamma 90.000000
_cell_volume 3110.680834
_symmetry_space_group_name_H-M "P N N A"
_symmetry_group_IT_number 52
_symmetry_cell_setting 'orthorhombic'
loop_
_space_group_symop_operation_xyz
x,y,z
1/2-x,-y,z
x,1/2-y,1/2-z
1/2-x,1/2+y,1/2-z
-x,-y,-z
1/2+x,y,-z
-x,1/2+y,1/2+z
1/2+x,1/2-y,1/2+z
loop_
_atom_site_type_symbol
_atom_site_label
_atom_site_fract_x
_atom_site_fract_y
_atom_site_fract_z
Si Si1 0.387936 0.866238 0.621541
Si Si2 0.585009 0.918736 0.606670
Si Si3 0.747412 0.914554 0.206629
Si Si4 0.090785 0.401074 0.120993
Si Si5 0.606097 0.866208 0.372014
Si Si6 0.743588 0.692616 0.841986
Si Si7 0.252007 0.740630 0.572790
O O1 0.495474 0.869512 0.642817
O O2 0.332564 0.913683 0.711574
O O3 0.374016 0.901150 0.502213
O O4 0.343724 0.778392 0.623397
O O5 0.601858 0.921324 0.478387
O O6 0.668651 0.874421 0.656367
O O7 0.578502 0.007304 0.653346
O O8 0.654178 0.910829 0.274304
O O9 0.750007 0.849424 0.112517
O O10 0.750000 0.000000 0.149055
O O11 0.165625 0.354804 0.189167
O O12 0.000062 0.351592 0.150296
O O13 0.660504 0.784324 0.386865
O O14 0.713253 0.750000 0.750000
O O15 0.754290 0.749099 0.945441
#
# Coordination Sequence:
#
# PCOD8215094 Si02
#       7
#     8   8   8   8   8   8   8
#     4   9  17  30  51  77 103 124 152 198 254 302
#     4  10  18  31  51  77  99 123 160 207 248 288
#     4  11  19  30  49  76 105 135 163 195 240 298
#     4  10  18  31  51  77  99 123 160 207 248 288
#     4   9  17  30  51  77 103 124 152 198 254 302
#     4  10  22  36  49  67  95 133 172 205 243 290
#     4   9  20  34  49  73 100 128 163 202 247 298
#
# _framework density 18.002489000000001
#
# number of rings (size 3 to 8) (size 9 to 14) (size 15 to 20)
#    0.000    2.286    0.000    6.429    0.000    2.286 
#    0.000    1.429    0.000    0.000    0.000   20.000 
#    0.000    0.000    0.000    0.000    0.000    0.000 
#
# Total GULP energy -693843.828748 kJ/mol
# GULP energy per Si atom -12390.068370 kJ/mol
# Density = 1.796151 g / cm^3
# Si number density = 18.002489 Si / 1000 Ang^3
#
#
#
# Elastic Constant Matrix: (Units=GPa)
#
#
# Indices 1 2 3 4 5 6 
#
# 1 123.6643 33.5528 26.3596 0.0000 0.0000 0.0000
# 2 33.5528 114.1136 34.4497 0.0000 0.0000 0.0000
# 3 26.3596 34.4497 42.4759 0.0000 0.0000 0.0000
# 4 0.0000 0.0000 0.0000 19.9142 0.0000 0.0000
# 5 0.0000 0.0000 0.0000 0.0000 4.8068 0.0000
# 6 0.0000 0.0000 0.0000 0.0000 0.0000 9.1346
#
#
#
# Elastic Compliance Matrix: (Units=1/GPa)
#
#
# Indices 1 2 3 4 5 6 
#
# 1 0.009471 -0.001338 -0.004792 0.000000 0.000000 0.000000
# 2 -0.001338 0.011794 -0.008735 0.000000 0.000000 0.000000
# 3 -0.004792 -0.008735 0.033601 0.000000 0.000000 0.000000
# 4 0.000000 0.000000 0.000000 0.050215 0.000000 0.000000
# 5 0.000000 0.000000 0.000000 0.000000 0.208039 0.000000
# 6 0.000000 0.000000 0.000000 0.000000 0.000000 0.109474
#
#
# Mechanical properties :
#
#
# Convention : Reuss Voigt Hill
#
# Bulk Modulus (GPa) = 39.78444 52.10866 45.94655
# Shear Modulus (GPa) = 10.85301 19.16391 15.00846
#
# Velocity S-wave (km/s) = 2.45799 3.26623 2.89050
# Velocity P-wave (km/s) = 5.49572 6.57514 6.05951
#
# Compressibility (1/GPa) = 0.02513545
#
# Stress axis : x y z
#
# Youngs Moduli (GPa) = 105.58618 84.79232 29.76102
#
# Poissons Ratio (x) = 0.11345 0.14262
# Poissons Ratio (y) = 0.14127 0.25995
# Poissons Ratio (z) = 0.50600 0.74064
#
# Static dielectric constant tensor:
#      x y z
#    x 3.632350 0.000000 0.000000 
#    y 0.000000 3.291030 0.000000 
#    z 0.000000 0.000000 2.969150 
# 
# 
# High freq. dielectric constant tensor:
#      x y z
#    x 1.711460 0.000000 0.000000 
#    y 0.000000 1.687160 0.000000 
#    z 0.000000 0.000000 1.653650 
# 
# From -- ./inp_files/27385.got.cif
#   From: 2010.06.25/outbox.cif.g09.slc.cpg/sg52_14_cif.got.tgz:27385.got - 2010.06.26 19:32:48.
