data_PCOD8215831
_publ_section_title
;
Structure prediction by ZEFSAII (Michael W. Deem and Ramdas Pophale) SiO2 
 PCOD8215831
Probable space group: P N N A
;
_chemical_formula_sum "Si O2"
_cell_formula_units_Z 32
_cell_length_a 8.415864
_cell_length_b 11.967651
_cell_length_c 14.511288
_cell_angle_alpha 90.000000
_cell_angle_beta 90.000000
_cell_angle_gamma 90.000000
_cell_volume 1461.549693
_symmetry_space_group_name_H-M "P N N A"
_symmetry_group_IT_number 52
_symmetry_cell_setting 'orthorhombic'
loop_
_space_group_symop_operation_xyz
x,y,z
1/2-x,-y,z
x,1/2-y,1/2-z
1/2-x,1/2+y,1/2-z
-x,-y,-z
1/2+x,y,-z
-x,1/2+y,1/2+z
1/2+x,1/2-y,1/2+z
loop_
_atom_site_type_symbol
_atom_site_label
_atom_site_fract_x
_atom_site_fract_y
_atom_site_fract_z
Si Si1 0.860154 0.396424 0.561700
Si Si2 0.567158 0.465574 0.902297
Si Si3 0.552460 0.207221 0.893578
Si Si4 0.935048 0.011514 0.213680
O O1 0.750000 0.500000 0.529527
O O2 0.743005 0.299214 0.595814
O O3 0.965110 0.353868 0.478036
O O4 0.974292 0.428358 0.645473
O O5 0.750000 0.500000 0.896398
O O6 0.518267 0.337005 0.888937
O O7 0.477209 0.526413 0.817933
O O8 0.500000 0.500000 0.000000
O O9 0.494201 0.139753 0.802906
O O10 0.750000 0.000000 0.195693
#
# Coordination Sequence:
#
# PCOD8215831 Si02
#       4
#     8   8   8   8
#     4  10  20  37  66  96 124 155 203 261 308 361
#     4  12  26  44  62  88 127 168 207 251 304 367
#     4  11  21  40  65  93 124 164 204 251 308 367
#     4  11  23  41  65  93 124 159 206 259 309 363
#
# _framework density 21.894569000000001
#
# number of rings (size 3 to 8) (size 9 to 14) (size 15 to 20)
#    0.000    1.000    0.000   10.500    0.000    0.000 
#    0.000   11.250    0.000    0.000    0.000    0.000 
#    0.000    0.000    0.000    0.000    0.000    0.000 
#
# Total GULP energy -396750.291155 kJ/mol
# GULP energy per Si atom -12398.446599 kJ/mol
# Density = 2.184474 g / cm^3
# Si number density = 21.894569 Si / 1000 Ang^3
#
#
#
# Elastic Constant Matrix: (Units=GPa)
#
#
# Indices 1 2 3 4 5 6 
#
# 1 158.6554 15.2101 59.9528 0.0000 0.0000 0.0000
# 2 15.2101 49.2245 27.0891 0.0000 0.0000 0.0000
# 3 59.9528 27.0891 155.7250 0.0000 0.0000 0.0000
# 4 0.0000 0.0000 0.0000 36.0263 0.0000 0.0000
# 5 0.0000 0.0000 0.0000 0.0000 44.8709 0.0000
# 6 0.0000 0.0000 0.0000 0.0000 0.0000 24.5810
#
#
#
# Elastic Compliance Matrix: (Units=1/GPa)
#
#
# Indices 1 2 3 4 5 6 
#
# 1 0.007404 -0.000795 -0.002712 0.000000 0.000000 0.000000
# 2 -0.000795 0.022551 -0.003617 0.000000 0.000000 0.000000
# 3 -0.002712 -0.003617 0.008095 0.000000 0.000000 0.000000
# 4 0.000000 0.000000 0.000000 0.027757 0.000000 0.000000
# 5 0.000000 0.000000 0.000000 0.000000 0.022286 0.000000
# 6 0.000000 0.000000 0.000000 0.000000 0.000000 0.040682
#
#
# Mechanical properties :
#
#
# Convention : Reuss Voigt Hill
#
# Bulk Modulus (GPa) = 42.01357 63.12319 52.56838
# Shear Modulus (GPa) = 33.12185 38.51918 35.82051
#
# Velocity S-wave (km/s) = 3.89368 4.19895 4.04919
# Velocity P-wave (km/s) = 6.28052 7.23888 6.77667
#
# Compressibility (1/GPa) = 0.02380183
#
# Stress axis : x y z
#
# Youngs Moduli (GPa) = 135.06056 44.34365 123.53486
#
# Poissons Ratio (x) = 0.03526 0.33505
# Poissons Ratio (y) = 0.10741 0.44679
# Poissons Ratio (z) = 0.36631 0.16038
#
# Static dielectric constant tensor:
#      x y z
#    x 4.267170 0.000000 0.000000 
#    y 0.000000 3.889610 0.000000 
#    z 0.000000 0.000000 4.230920 
# 
# 
# High freq. dielectric constant tensor:
#      x y z
#    x 1.876140 0.000000 0.000000 
#    y 0.000000 1.846420 0.000000 
#    z 0.000000 0.000000 1.877450 
# 
# From -- ./inp_files/24085.got.cif
#   From: 2010.06.25/outbox.cif.g09.slc.cpg/sg52_13_cif.got.tgz:24085.got - 2010.06.26 19:32:48.
