data_PCOD8215890
_publ_section_title
;
Structure prediction by ZEFSAII (Michael W. Deem and Ramdas Pophale) SiO2 
 PCOD8215890
Probable space group: P N N A
;
_chemical_formula_sum "Si O2"
_cell_formula_units_Z 48
_cell_length_a 20.927665
_cell_length_b 14.375327
_cell_length_c 7.994950
_cell_angle_alpha 90.000000
_cell_angle_beta 90.000000
_cell_angle_gamma 90.000000
_cell_volume 2405.216970
_symmetry_space_group_name_H-M "P N N A"
_symmetry_group_IT_number 52
_symmetry_cell_setting 'orthorhombic'
loop_
_space_group_symop_operation_xyz
x,y,z
1/2-x,-y,z
x,1/2-y,1/2-z
1/2-x,1/2+y,1/2-z
-x,-y,-z
1/2+x,y,-z
-x,1/2+y,1/2+z
1/2+x,1/2-y,1/2+z
loop_
_atom_site_type_symbol
_atom_site_label
_atom_site_fract_x
_atom_site_fract_y
_atom_site_fract_z
Si Si1 0.982683 0.603643 0.051496
Si Si2 0.803180 0.750000 0.750000
Si Si3 0.629087 0.427734 0.824696
Si Si4 0.911180 0.249786 0.550849
Si Si5 0.724683 0.700781 0.081115
Si Si6 0.538515 0.936887 0.880174
Si Si7 0.250000 0.000000 0.504966
O O1 0.033171 0.680451 0.985808
O O2 0.987070 0.609662 0.252912
O O3 0.912139 0.619631 0.976053
O O4 0.000000 0.500000 0.000000
O O5 0.846302 0.659040 0.715114
O O6 0.761686 0.764712 0.583382
O O7 0.590348 0.501002 0.715034
O O8 0.687970 0.487473 0.890708
O O9 0.898484 0.250000 0.750000
O O10 0.849627 0.220459 0.446838
O O11 0.929044 0.356365 0.508019
O O12 0.749014 0.750000 0.250000
O O13 0.737639 0.591569 0.115521
O O14 0.500000 0.000000 0.000000
#
# Coordination Sequence:
#
# PCOD8215890 Si02
#       7
#     8   4   8   8   8   8   4
#     4   9  19  37  60  85 121 165 203 256 328 383
#     4  10  24  44  64  90 138 172 222 268 328 400
#     4  10  22  40  66  85 128 180 209 263 341 390
#     4  10  20  38  65  89 130 165 210 271 327 387
#     4  11  23  43  67  99 124 176 226 267 325 396
#     4  10  22  37  59  99 125 160 216 274 326 387
#     4  10  22  44  66  90 134 172 218 268 324 398
#
# _framework density 19.956619
#
# number of rings (size 3 to 8) (size 9 to 14) (size 15 to 20)
#    0.000    2.000    0.833    3.000    4.667    4.000 
#    9.000    0.833    0.000    0.000    0.000    0.000 
#    0.000    0.000    0.000    0.000    0.000    0.000 
#
# Total GULP energy -594915.792310 kJ/mol
# GULP energy per Si atom -12394.079006 kJ/mol
# Density = 1.991120 g / cm^3
# Si number density = 19.956619 Si / 1000 Ang^3
#
#
#
# Elastic Constant Matrix: (Units=GPa)
#
#
# Indices 1 2 3 4 5 6 
#
# 1 123.8209 62.2765 49.4949 0.0000 0.0000 0.0000
# 2 62.2765 174.8867 55.1367 0.0000 0.0000 0.0000
# 3 49.4949 55.1367 82.7222 0.0000 0.0000 0.0000
# 4 0.0000 0.0000 0.0000 31.7950 0.0000 0.0000
# 5 0.0000 0.0000 0.0000 0.0000 14.5292 0.0000
# 6 0.0000 0.0000 0.0000 0.0000 0.0000 39.3117
#
#
#
# Elastic Compliance Matrix: (Units=1/GPa)
#
#
# Indices 1 2 3 4 5 6 
#
# 1 0.011364 -0.002409 -0.005193 0.000000 0.000000 0.000000
# 2 -0.002409 0.007750 -0.003724 0.000000 0.000000 0.000000
# 3 -0.005193 -0.003724 0.017678 0.000000 0.000000 0.000000
# 4 0.000000 0.000000 0.000000 0.031452 0.000000 0.000000
# 5 0.000000 0.000000 0.000000 0.000000 0.068827 0.000000
# 6 0.000000 0.000000 0.000000 0.000000 0.000000 0.025438
#
#
# Mechanical properties :
#
#
# Convention : Reuss Voigt Hill
#
# Bulk Modulus (GPa) = 70.72875 79.47178 75.10026
# Shear Modulus (GPa) = 26.33311 31.42862 28.88086
#
# Velocity S-wave (km/s) = 3.63646 3.97274 3.80831
# Velocity P-wave (km/s) = 7.29040 7.80719 7.55322
#
# Compressibility (1/GPa) = 0.01413852
#
# Stress axis : x y z
#
# Youngs Moduli (GPa) = 87.99764 129.03194 56.56668
#
# Poissons Ratio (x) = 0.31088 0.29378
# Poissons Ratio (y) = 0.21201 0.21066
# Poissons Ratio (z) = 0.45701 0.48052
#
# Static dielectric constant tensor:
#      x y z
#    x 3.912550 0.000000 0.000000 
#    y 0.000000 3.996650 0.000000 
#    z 0.000000 0.000000 3.476090 
# 
# 
# High freq. dielectric constant tensor:
#      x y z
#    x 1.782260 0.000000 0.000000 
#    y 0.000000 1.800930 0.000000 
#    z 0.000000 0.000000 1.754130 
# 
# From -- ./inp_files/12128.got.cif
#   From: 2010.06.25/outbox.cif.g09.slc.cpg/sg52_7_cif.got.tgz:12128.got - 2010.06.26 19:32:48.
