data_PCOD8215166
_publ_section_title
;
Structure prediction by ZEFSAII (Michael W. Deem and Ramdas Pophale) SiO2 
 PCOD8215166
Probable space group: P N N A
;
_chemical_formula_sum "Si O2"
_cell_formula_units_Z 40
_cell_length_a 27.944068
_cell_length_b 8.870527
_cell_length_c 8.658861
_cell_angle_alpha 90.000000
_cell_angle_beta 90.000000
_cell_angle_gamma 90.000000
_cell_volume 2146.346426
_symmetry_space_group_name_H-M "P N N A"
_symmetry_group_IT_number 52
_symmetry_cell_setting 'orthorhombic'
loop_
_space_group_symop_operation_xyz
x,y,z
1/2-x,-y,z
x,1/2-y,1/2-z
1/2-x,1/2+y,1/2-z
-x,-y,-z
1/2+x,y,-z
-x,1/2+y,1/2+z
1/2+x,1/2-y,1/2+z
loop_
_atom_site_type_symbol
_atom_site_label
_atom_site_fract_x
_atom_site_fract_y
_atom_site_fract_z
Si Si1 0.404902 0.750000 0.250000
Si Si2 0.879880 0.090049 0.277487
Si Si3 0.211271 0.750000 0.750000
Si Si4 0.853914 0.508157 0.556448
Si Si5 0.445410 0.495865 0.045619
Si Si6 0.250000 0.000000 0.958549
Si Si7 0.901724 0.250000 0.750000
O O1 0.372058 0.661653 0.369914
O O2 0.438448 0.636960 0.157039
O O3 0.907657 0.250000 0.250000
O O4 0.825798 0.134276 0.339396
O O5 0.909461 0.990442 0.399151
O O6 0.874484 0.999433 0.117389
O O7 0.245548 0.846665 0.858973
O O8 0.796648 0.516539 0.563178
O O9 0.868518 0.362004 0.653482
O O10 0.435683 0.340032 0.133464
O O11 0.500000 0.500000 0.000000
#
# Coordination Sequence:
#
# PCOD8215166 Si02
#       7
#     4   8   4   8   8   4   4
#     4  10  26  38  52  92 118 146 178 248 296 312
#     4   9  18  38  60  81 105 156 187 223 281 335
#     4   8  18  31  56  85 110 139 194 233 276 324
#     4  10  21  38  60  81 121 148 192 228 289 335
#     4  11  23  38  62  83 114 149 196 231 282 344
#     4  10  18  34  56  86 106 152 192 230 270 346
#     4  10  20  41  56  81 120 159 174 237 294 344
#
# _framework density 18.636320000000001
#
# number of rings (size 3 to 8) (size 9 to 14) (size 15 to 20)
#    0.600    1.600    2.000    0.000    1.400    6.400 
#    0.000    4.000    0.000    1.200    0.000    0.000 
#    0.000    0.000    0.000    0.000    0.000    0.000 
#
# Total GULP energy -495741.366486 kJ/mol
# GULP energy per Si atom -12393.534162 kJ/mol
# Density = 1.859390 g / cm^3
# Si number density = 18.636320 Si / 1000 Ang^3
#
#
#
# Elastic Constant Matrix: (Units=GPa)
#
#
# Indices 1 2 3 4 5 6 
#
# 1 141.1545 48.5657 58.9060 0.0000 0.0000 0.0000
# 2 48.5657 94.9942 42.3382 0.0000 0.0000 0.0000
# 3 58.9060 42.3382 104.8100 0.0000 0.0000 0.0000
# 4 0.0000 0.0000 0.0000 26.9860 0.0000 0.0000
# 5 0.0000 0.0000 0.0000 0.0000 25.3262 0.0000
# 6 0.0000 0.0000 0.0000 0.0000 0.0000 20.1112
#
#
#
# Elastic Compliance Matrix: (Units=1/GPa)
#
#
# Indices 1 2 3 4 5 6 
#
# 1 0.009983 -0.003175 -0.004328 0.000000 0.000000 0.000000
# 2 -0.003175 0.013848 -0.003810 0.000000 0.000000 0.000000
# 3 -0.004328 -0.003810 0.013513 0.000000 0.000000 0.000000
# 4 0.000000 0.000000 0.000000 0.037056 0.000000 0.000000
# 5 0.000000 0.000000 0.000000 0.000000 0.039485 0.000000
# 6 0.000000 0.000000 0.000000 0.000000 0.000000 0.049723
#
#
# Mechanical properties :
#
#
# Convention : Reuss Voigt Hill
#
# Bulk Modulus (GPa) = 67.94269 71.17540 69.55904
# Shear Modulus (GPa) = 26.15890 27.22792 26.69341
#
# Velocity S-wave (km/s) = 3.75060 3.82647 3.78872
# Velocity P-wave (km/s) = 7.43588 7.60244 7.51962
#
# Compressibility (1/GPa) = 0.01471829
#
# Stress axis : x y z
#
# Youngs Moduli (GPa) = 100.17039 72.21282 74.00507
#
# Poissons Ratio (x) = 0.22926 0.32031
# Poissons Ratio (y) = 0.31801 0.28193
# Poissons Ratio (z) = 0.43357 0.27510
#
# Static dielectric constant tensor:
#      x y z
#    x 3.259120 0.000000 0.000000 
#    y 0.000000 3.713620 0.000000 
#    z 0.000000 0.000000 3.429580 
# 
# 
# High freq. dielectric constant tensor:
#      x y z
#    x 1.714590 0.000000 0.000000 
#    y 0.000000 1.727680 0.000000 
#    z 0.000000 0.000000 1.718840 
# 
# From -- ./inp_files/14899.got.cif
#   From: 2010.06.25/outbox.cif.g09.slc.cpg/sg52_8_cif.got.tgz:14899.got - 2010.06.26 19:32:48.
