data_PCOD8215323
_publ_section_title
;
Structure prediction by ZEFSAII (Michael W. Deem and Ramdas Pophale) SiO2 
 PCOD8215323
Probable space group: P N N A
;
_chemical_formula_sum "Si O2"
_cell_formula_units_Z 64
_cell_length_a 24.530641
_cell_length_b 14.746996
_cell_length_c 8.572874
_cell_angle_alpha 90.000000
_cell_angle_beta 90.000000
_cell_angle_gamma 90.000000
_cell_volume 3101.265157
_symmetry_space_group_name_H-M "P N N A"
_symmetry_group_IT_number 52
_symmetry_cell_setting 'orthorhombic'
loop_
_space_group_symop_operation_xyz
x,y,z
1/2-x,-y,z
x,1/2-y,1/2-z
1/2-x,1/2+y,1/2-z
-x,-y,-z
1/2+x,y,-z
-x,1/2+y,1/2+z
1/2+x,1/2-y,1/2+z
loop_
_atom_site_type_symbol
_atom_site_label
_atom_site_fract_x
_atom_site_fract_y
_atom_site_fract_z
Si Si1 0.752353 0.160500 0.138898
Si Si2 0.750483 0.401974 0.045356
Si Si3 0.140776 0.401744 0.085209
Si Si4 0.062147 0.754633 0.935329
Si Si5 0.647069 0.393685 0.547600
Si Si6 0.139949 0.888977 0.410648
Si Si7 0.439582 0.750558 0.434543
Si Si8 0.857172 0.103236 0.957314
O O1 0.751741 0.250000 0.250000
O O2 0.753761 0.081892 0.268436
O O3 0.699939 0.151636 0.029305
O O4 0.805300 0.153734 0.030838
O O5 0.750000 0.500000 0.961411
O O6 0.693462 0.355708 0.997963
O O7 0.803354 0.348912 0.980792
O O8 0.152508 0.389430 0.267131
O O9 0.130822 0.506440 0.038050
O O10 0.089431 0.345321 0.019990
O O11 0.064753 0.750000 0.750000
O O12 0.000570 0.752914 0.001772
O O13 0.091775 0.670175 0.017164
O O14 0.088048 0.850738 0.980402
O O15 0.593961 0.335565 0.497919
O O16 0.641018 0.497824 0.494088
O O17 0.143670 0.880552 0.226390
O O18 0.442302 0.750000 0.250000
#
# Coordination Sequence:
#
# PCOD8215323 Si02
#       8
#     8   8   8   8   8   8   8   8
#     4  12  23  35  56  88 122 153 187 233 294 352
#     4  10  19  33  54  83 116 145 181 229 283 344
#     4   9  19  38  63  87 115 155 198 242 294 357
#     4  11  23  39  58  82 114 153 197 247 299 349
#     4  10  21  39  61  85 116 155 196 238 292 355
#     4  10  21  37  60  88 117 155 199 242 294 355
#     4   9  20  39  60  82 112 151 197 246 296 350
#     4  11  22  38  60  85 117 156 196 240 291 353
#
# _framework density 20.636738999999999
#
# number of rings (size 3 to 8) (size 9 to 14) (size 15 to 20)
#    0.000    1.750    0.000    4.875    0.000    4.000 
#    0.000    7.500    0.000    0.000    0.000    0.000 
#    0.000    0.000    0.000    0.000    0.000    0.000 
#
# Total GULP energy -793252.560780 kJ/mol
# GULP energy per Si atom -12394.571262 kJ/mol
# Density = 2.058977 g / cm^3
# Si number density = 20.636739 Si / 1000 Ang^3
#
#
#
# Elastic Constant Matrix: (Units=GPa)
#
#
# Indices 1 2 3 4 5 6 
#
# 1 201.6711 76.9148 46.9949 0.0000 0.0000 0.0000
# 2 76.9148 138.5274 33.3878 0.0000 0.0000 0.0000
# 3 46.9949 33.3878 74.5302 0.0000 0.0000 0.0000
# 4 0.0000 0.0000 0.0000 29.4313 0.0000 0.0000
# 5 0.0000 0.0000 0.0000 0.0000 29.6879 0.0000
# 6 0.0000 0.0000 0.0000 0.0000 0.0000 27.3784
#
#
#
# Elastic Compliance Matrix: (Units=1/GPa)
#
#
# Indices 1 2 3 4 5 6 
#
# 1 0.006813 -0.003080 -0.002916 0.000000 0.000000 0.000000
# 2 -0.003080 0.009485 -0.002307 0.000000 0.000000 0.000000
# 3 -0.002916 -0.002307 0.016290 0.000000 0.000000 0.000000
# 4 0.000000 0.000000 0.000000 0.033977 0.000000 0.000000
# 5 0.000000 0.000000 0.000000 0.000000 0.033684 0.000000
# 6 0.000000 0.000000 0.000000 0.000000 0.000000 0.036525
#
#
# Mechanical properties :
#
#
# Convention : Reuss Voigt Hill
#
# Bulk Modulus (GPa) = 62.57288 81.03596 71.80442
# Shear Modulus (GPa) = 31.50472 34.46158 32.98315
#
# Velocity S-wave (km/s) = 3.91145 4.09089 4.00218
# Velocity P-wave (km/s) = 7.12645 7.85283 7.49844
#
# Compressibility (1/GPa) = 0.01598136
#
# Stress axis : x y z
#
# Youngs Moduli (GPa) = 146.78501 105.43154 61.38890
#
# Poissons Ratio (x) = 0.32471 0.17901
# Poissons Ratio (y) = 0.45207 0.14163
# Poissons Ratio (z) = 0.42803 0.24323
#
# Static dielectric constant tensor:
#      x y z
#    x 3.983860 0.000000 0.000000 
#    y 0.000000 4.037060 0.000000 
#    z 0.000000 0.000000 3.806450 
# 
# 
# High freq. dielectric constant tensor:
#      x y z
#    x 1.806410 0.000000 0.000000 
#    y 0.000000 1.821450 0.000000 
#    z 0.000000 0.000000 1.802900 
# 
# From -- ./inp_files/14478.got.cif
#   From: 2010.06.25/outbox.cif.g09.slc.cpg/sg52_8_cif.got.tgz:14478.got - 2010.06.26 19:32:48.
