data_PCOD8215326
_publ_section_title
;
Structure prediction by ZEFSAII (Michael W. Deem and Ramdas Pophale) SiO2 
 PCOD8215326
Probable space group: P N N A
;
_chemical_formula_sum "Si O2"
_cell_formula_units_Z 44
_cell_length_a 15.092518
_cell_length_b 7.674998
_cell_length_c 17.777086
_cell_angle_alpha 90.000000
_cell_angle_beta 90.000000
_cell_angle_gamma 90.000000
_cell_volume 2059.209565
_symmetry_space_group_name_H-M "P N N A"
_symmetry_group_IT_number 52
_symmetry_cell_setting 'orthorhombic'
loop_
_space_group_symop_operation_xyz
x,y,z
1/2-x,-y,z
x,1/2-y,1/2-z
1/2-x,1/2+y,1/2-z
-x,-y,-z
1/2+x,y,-z
-x,1/2+y,1/2+z
1/2+x,1/2-y,1/2+z
loop_
_atom_site_type_symbol
_atom_site_label
_atom_site_fract_x
_atom_site_fract_y
_atom_site_fract_z
Si Si1 0.355503 0.250000 0.250000
Si Si2 0.417083 0.659088 0.449754
Si Si3 0.605317 0.692058 0.472602
Si Si4 0.668477 0.877368 0.184996
Si Si5 0.736740 0.792812 0.904349
Si Si6 0.973626 0.564002 0.711759
O O1 0.288985 0.259923 0.179522
O O2 0.418723 0.417592 0.244260
O O3 0.504440 0.768787 0.474101
O O4 0.397064 0.517978 0.515031
O O5 0.332424 0.784041 0.431749
O O6 0.439494 0.553752 0.373442
O O7 0.647004 0.730549 0.390996
O O8 0.662895 0.780495 0.538249
O O9 0.701829 0.750000 0.250000
O O10 0.579107 0.976240 0.213028
O O11 0.750000 0.000000 0.165950
O O12 0.750000 0.000000 0.910735
O O13 0.954063 0.750000 0.750000
#
# Coordination Sequence:
#
# PCOD8215326 Si02
#       6
#     4   8   8   8   8   8
#     4  12  22  36  60  90 128 168 204 254 318 380
#     4   9  17  33  57  83 117 160 201 252 302 367
#     4   9  17  34  57  86 116 158 211 251 308 371
#     4  10  21  37  61  89 117 160 207 263 316 370
#     4  10  19  33  54  92 116 155 215 252 297 384
#     4  10  22  38  57  89 128 160 200 259 312 369
#
# _framework density 21.367421
#
# number of rings (size 3 to 8) (size 9 to 14) (size 15 to 20)
#    0.000    2.182    3.636    1.636    2.545    0.000 
#    0.000    0.000    0.000   15.273    0.000    0.000 
#    0.000    0.000    0.000    0.000    0.000    0.000 
#
# Total GULP energy -545266.839514 kJ/mol
# GULP energy per Si atom -12392.428171 kJ/mol
# Density = 2.131879 g / cm^3
# Si number density = 21.367421 Si / 1000 Ang^3
#
#
#
# Elastic Constant Matrix: (Units=GPa)
#
#
# Indices 1 2 3 4 5 6 
#
# 1 199.1352 26.3000 58.3487 0.0000 0.0000 0.0000
# 2 26.3000 44.6256 13.3740 0.0000 0.0000 0.0000
# 3 58.3487 13.3740 133.2899 0.0000 0.0000 0.0000
# 4 0.0000 0.0000 0.0000 23.4655 0.0000 0.0000
# 5 0.0000 0.0000 0.0000 0.0000 90.3838 0.0000
# 6 0.0000 0.0000 0.0000 0.0000 0.0000 10.8711
#
#
#
# Elastic Compliance Matrix: (Units=1/GPa)
#
#
# Indices 1 2 3 4 5 6 
#
# 1 0.006100 -0.002881 -0.002381 0.000000 0.000000 0.000000
# 2 -0.002881 0.024464 -0.001193 0.000000 0.000000 0.000000
# 3 -0.002381 -0.001193 0.008665 0.000000 0.000000 0.000000
# 4 0.000000 0.000000 0.000000 0.042616 0.000000 0.000000
# 5 0.000000 0.000000 0.000000 0.000000 0.011064 0.000000
# 6 0.000000 0.000000 0.000000 0.000000 0.000000 0.091987
#
#
# Mechanical properties :
#
#
# Convention : Reuss Voigt Hill
#
# Bulk Modulus (GPa) = 37.99810 63.67737 50.83773
# Shear Modulus (GPa) = 24.20373 43.54596 33.87485
#
# Velocity S-wave (km/s) = 3.36927 4.51928 3.98597
# Velocity P-wave (km/s) = 5.74089 7.55630 6.71027
#
# Compressibility (1/GPa) = 0.02631711
#
# Stress axis : x y z
#
# Youngs Moduli (GPa) = 163.93501 40.87563 115.41252
#
# Poissons Ratio (x) = 0.11778 0.27482
# Poissons Ratio (y) = 0.47236 0.13773
# Poissons Ratio (z) = 0.39036 0.04878
#
# Static dielectric constant tensor:
#      x y z
#    x 4.773620 0.000000 0.000000 
#    y 0.000000 3.127720 0.000000 
#    z 0.000000 0.000000 3.912510 
# 
# 
# High freq. dielectric constant tensor:
#      x y z
#    x 1.873390 0.000000 0.000000 
#    y 0.000000 1.757230 0.000000 
#    z 0.000000 0.000000 1.849010 
# 
# From -- ./inp_files/32965.got.cif
#   From: 2010.06.25/outbox.cif.g09.slc.cpg/sg52_17_cif.got.tgz:32965.got - 2010.06.26 19:32:48.
