data_PCOD8215345
_publ_section_title
;
Structure prediction by ZEFSAII (Michael W. Deem and Ramdas Pophale) SiO2 
 PCOD8215345
Probable space group: P N N A
;
_chemical_formula_sum "Si O2"
_cell_formula_units_Z 52
_cell_length_a 17.318008
_cell_length_b 11.518592
_cell_length_c 14.847940
_cell_angle_alpha 90.000000
_cell_angle_beta 90.000000
_cell_angle_gamma 90.000000
_cell_volume 2961.853239
_symmetry_space_group_name_H-M "P N N A"
_symmetry_group_IT_number 52
_symmetry_cell_setting 'orthorhombic'
loop_
_space_group_symop_operation_xyz
x,y,z
1/2-x,-y,z
x,1/2-y,1/2-z
1/2-x,1/2+y,1/2-z
-x,-y,-z
1/2+x,y,-z
-x,1/2+y,1/2+z
1/2+x,1/2-y,1/2+z
loop_
_atom_site_type_symbol
_atom_site_label
_atom_site_fract_x
_atom_site_fract_y
_atom_site_fract_z
Si Si1 0.181832 0.420425 0.380469
Si Si2 0.123698 0.772160 0.889217
Si Si3 0.435027 0.639327 0.691898
Si Si4 0.095626 0.250000 0.250000
Si Si5 0.219435 0.125888 0.921159
Si Si6 0.452910 0.399465 0.778178
Si Si7 0.054329 0.910640 0.050675
O O1 0.250000 0.500000 0.336891
O O2 0.152429 0.314682 0.319206
O O3 0.208783 0.358020 0.472245
O O4 0.116105 0.513014 0.398464
O O5 0.216909 0.781184 0.886528
O O6 0.098712 0.639251 0.865417
O O7 0.082922 0.849119 0.813404
O O8 0.092753 0.815721 0.985442
O O9 0.422456 0.750000 0.750000
O O10 0.360225 0.630431 0.630430
O O11 0.450335 0.536660 0.764025
O O12 0.507377 0.657968 0.626383
O O13 0.040005 0.349453 0.206697
O O14 0.250000 0.000000 0.898440
O O15 0.000000 0.000000 0.000000
#
# Coordination Sequence:
#
# PCOD8215345 Si02
#       7
#     8   8   8   4   8   8   8
#     4  11  20  35  61  89 115 145 202 248 289 346
#     4  10  19  33  61  85 112 148 197 248 282 351
#     4  12  25  35  56  90 124 151 192 250 295 351
#     4  10  20  36  62  88 114 148 200 246 286 352
#     4  11  19  34  59  91 113 147 194 238 300 346
#     4  10  20  36  59  89 114 156 192 237 306 347
#     4  12  17  37  59  83 111 149 202 240 273 346
#
# _framework density 17.556577000000001
#
# number of rings (size 3 to 8) (size 9 to 14) (size 15 to 20)
#    0.000    1.231    9.231    0.923    2.154    0.000 
#    1.385    0.769    0.000    0.000    0.000    0.000 
#    0.000    0.000    0.000    0.000    0.000    0.000 
#
# Total GULP energy -644385.926918 kJ/mol
# GULP energy per Si atom -12392.037056 kJ/mol
# Density = 1.751662 g / cm^3
# Si number density = 17.556577 Si / 1000 Ang^3
#
#
#
# Elastic Constant Matrix: (Units=GPa)
#
#
# Indices 1 2 3 4 5 6 
#
# 1 115.2803 32.7011 34.2142 0.0000 0.0000 0.0000
# 2 32.7011 81.7960 37.7081 0.0000 0.0000 0.0000
# 3 34.2142 37.7081 65.8335 0.0000 0.0000 0.0000
# 4 0.0000 0.0000 0.0000 37.0937 0.0000 0.0000
# 5 0.0000 0.0000 0.0000 0.0000 22.2620 0.0000
# 6 0.0000 0.0000 0.0000 0.0000 0.0000 19.7931
#
#
#
# Elastic Compliance Matrix: (Units=1/GPa)
#
#
# Indices 1 2 3 4 5 6 
#
# 1 0.010566 -0.002300 -0.004174 0.000000 0.000000 0.000000
# 2 -0.002300 0.017113 -0.008606 0.000000 0.000000 0.000000
# 3 -0.004174 -0.008606 0.022289 0.000000 0.000000 0.000000
# 4 0.000000 0.000000 0.000000 0.026959 0.000000 0.000000
# 5 0.000000 0.000000 0.000000 0.000000 0.044920 0.000000
# 6 0.000000 0.000000 0.000000 0.000000 0.000000 0.050523
#
#
# Mechanical properties :
#
#
# Convention : Reuss Voigt Hill
#
# Bulk Modulus (GPa) = 50.48817 52.46183 51.47500
# Shear Modulus (GPa) = 23.90857 26.38221 25.14539
#
# Velocity S-wave (km/s) = 3.69426 3.88067 3.78861
# Velocity P-wave (km/s) = 6.85687 7.07290 6.96572
#
# Compressibility (1/GPa) = 0.01980662
#
# Stress axis : x y z
#
# Youngs Moduli (GPa) = 94.64647 58.43636 44.86610
#
# Poissons Ratio (x) = 0.13440 0.18726
# Poissons Ratio (y) = 0.21768 0.38614
# Poissons Ratio (z) = 0.39502 0.50293
#
# Static dielectric constant tensor:
#      x y z
#    x 4.007050 0.000000 0.000000 
#    y 0.000000 3.381810 0.000000 
#    z 0.000000 0.000000 4.563130 
# 
# 
# High freq. dielectric constant tensor:
#      x y z
#    x 1.698750 0.000000 0.000000 
#    y 0.000000 1.653030 0.000000 
#    z 0.000000 0.000000 1.662200 
# 
# From -- ./inp_files/33232.got.cif
#   From: 2010.06.25/outbox.cif.g09.slc.cpg/sg52_17_cif.got.tgz:33232.got - 2010.06.26 19:32:48.
