data_PCOD8215553
_publ_section_title
;
Structure prediction by ZEFSAII (Michael W. Deem and Ramdas Pophale) SiO2 
 PCOD8215553
Probable space group: P N N A
;
_chemical_formula_sum "Si O2"
_cell_formula_units_Z 32
_cell_length_a 8.243553
_cell_length_b 8.675352
_cell_length_c 21.687055
_cell_angle_alpha 90.000000
_cell_angle_beta 90.000000
_cell_angle_gamma 90.000000
_cell_volume 1550.965440
_symmetry_space_group_name_H-M "P N N A"
_symmetry_group_IT_number 52
_symmetry_cell_setting 'orthorhombic'
loop_
_space_group_symop_operation_xyz
x,y,z
1/2-x,-y,z
x,1/2-y,1/2-z
1/2-x,1/2+y,1/2-z
-x,-y,-z
1/2+x,y,-z
-x,1/2+y,1/2+z
1/2+x,1/2-y,1/2+z
loop_
_atom_site_type_symbol
_atom_site_label
_atom_site_fract_x
_atom_site_fract_y
_atom_site_fract_z
Si Si1 0.750000 0.000000 0.120284
Si Si2 0.439664 0.261995 0.948831
Si Si3 0.032851 0.242972 0.820439
Si Si4 0.750000 0.500000 0.125875
Si Si5 0.706999 0.821520 0.575826
O O1 0.667547 0.877195 0.075633
O O2 0.884927 0.920733 0.163588
O O3 0.385395 0.422101 0.917318
O O4 0.627082 0.226983 0.934500
O O5 0.420482 0.279629 0.022228
O O6 0.976499 0.250000 0.750000
O O7 0.164361 0.376489 0.830722
O O8 0.871083 0.268656 0.860117
O O9 0.750000 0.000000 0.576099
#
# Coordination Sequence:
#
# PCOD8215553 Si02
#       5
#     4   8   8   4   8
#     4  10  25  44  66 100 127 168 210 272 336 364
#     4  11  22  40  68  97 128 160 210 273 321 377
#     4  11  24  43  64  93 130 173 217 258 315 388
#     4  10  19  40  68  88 123 164 216 256 312 378
#     4  12  23  41  68  99 127 171 217 261 321 382
#
# _framework density 20.632307999999998
#
# number of rings (size 3 to 8) (size 9 to 14) (size 15 to 20)
#    0.000    1.000    3.750    4.500    0.000    5.000 
#    4.500    1.250    0.000    0.000    0.000    0.000 
#    0.000    0.000    0.000    0.000    0.000    0.000 
#
# Total GULP energy -397042.603217 kJ/mol
# GULP energy per Si atom -12407.581351 kJ/mol
# Density = 2.058535 g / cm^3
# Si number density = 20.632308 Si / 1000 Ang^3
#
#
#
# Elastic Constant Matrix: (Units=GPa)
#
#
# Indices 1 2 3 4 5 6 
#
# 1 132.7388 19.8912 63.3859 0.0000 0.0000 0.0000
# 2 19.8912 85.6050 38.8447 0.0000 0.0000 0.0000
# 3 63.3859 38.8447 182.3286 0.0000 0.0000 0.0000
# 4 0.0000 0.0000 0.0000 17.3427 0.0000 0.0000
# 5 0.0000 0.0000 0.0000 0.0000 32.9807 0.0000
# 6 0.0000 0.0000 0.0000 0.0000 0.0000 13.7955
#
#
#
# Elastic Compliance Matrix: (Units=1/GPa)
#
#
# Indices 1 2 3 4 5 6 
#
# 1 0.009076 -0.000750 -0.002996 0.000000 0.000000 0.000000
# 2 -0.000750 0.012994 -0.002508 0.000000 0.000000 0.000000
# 3 -0.002996 -0.002508 0.007060 0.000000 0.000000 0.000000
# 4 0.000000 0.000000 0.000000 0.057661 0.000000 0.000000
# 5 0.000000 0.000000 0.000000 0.000000 0.030321 0.000000
# 6 0.000000 0.000000 0.000000 0.000000 0.000000 0.072487
#
#
# Mechanical properties :
#
#
# Convention : Reuss Voigt Hill
#
# Bulk Modulus (GPa) = 60.15262 71.65735 65.90498
# Shear Modulus (GPa) = 24.07932 31.39382 27.73657
#
# Velocity S-wave (km/s) = 3.41994 3.90498 3.67048
# Velocity P-wave (km/s) = 6.69422 7.42549 7.06932
#
# Compressibility (1/GPa) = 0.01662438
#
# Stress axis : x y z
#
# Youngs Moduli (GPa) = 110.17540 76.96075 141.63734
#
# Poissons Ratio (x) = 0.05770 0.42430
# Poissons Ratio (y) = 0.08259 0.35518
# Poissons Ratio (z) = 0.33005 0.19299
#
# Static dielectric constant tensor:
#      x y z
#    x 3.862140 0.000000 0.000000 
#    y 0.000000 3.867750 0.000000 
#    z 0.000000 0.000000 3.563100 
# 
# 
# High freq. dielectric constant tensor:
#      x y z
#    x 1.814830 0.000000 0.000000 
#    y 0.000000 1.812450 0.000000 
#    z 0.000000 0.000000 1.799810 
# 
# From -- ./inp_files/35485.got.cif
#   From: 2010.06.25/outbox.cif.g09.slc.cpg/sg52_18_cif.got.tgz:35485.got - 2010.06.26 19:32:48.
