data_PCOD8215649
_publ_section_title
;
Structure prediction by ZEFSAII (Michael W. Deem and Ramdas Pophale) SiO2 
 PCOD8215649
Probable space group: P N N A
;
_chemical_formula_sum "Si O2"
_cell_formula_units_Z 40
_cell_length_a 8.865546
_cell_length_b 10.893518
_cell_length_c 20.420306
_cell_angle_alpha 90.000000
_cell_angle_beta 90.000000
_cell_angle_gamma 90.000000
_cell_volume 1972.131585
_symmetry_space_group_name_H-M "P N N A"
_symmetry_group_IT_number 52
_symmetry_cell_setting 'orthorhombic'
loop_
_space_group_symop_operation_xyz
x,y,z
1/2-x,-y,z
x,1/2-y,1/2-z
1/2-x,1/2+y,1/2-z
-x,-y,-z
1/2+x,y,-z
-x,1/2+y,1/2+z
1/2+x,1/2-y,1/2+z
loop_
_atom_site_type_symbol
_atom_site_label
_atom_site_fract_x
_atom_site_fract_y
_atom_site_fract_z
Si Si1 0.005933 0.327273 0.184000
Si Si2 0.250000 0.000000 0.272732
Si Si3 0.080797 0.845673 0.934006
Si Si4 0.071687 0.134679 0.933352
Si Si5 0.750000 0.500000 0.226446
Si Si6 0.999081 0.359972 0.706150
O O1 0.990611 0.250000 0.250000
O O2 0.169793 0.395919 0.181898
O O3 0.996621 0.235943 0.122203
O O4 0.869511 0.427058 0.180869
O O5 0.120969 0.964434 0.221074
O O6 0.257395 0.821306 0.937545
O O7 0.049240 0.989081 0.923192
O O8 0.011842 0.809276 0.004148
O O9 0.997293 0.189890 0.867968
O O10 0.833105 0.595261 0.274802
O O11 0.943322 0.250000 0.750000
#
# Coordination Sequence:
#
# PCOD8215649 Si02
#       6
#     8   4   8   8   4   8
#     4  11  21  38  61  87 122 158 195 247 299 349
#     4  10  24  36  56  90 118 152 200 238 288 360
#     4  10  21  37  59  85 118 152 186 245 303 347
#     4  10  21  36  58  89 114 145 195 239 298 362
#     4  10  20  34  60  90 114 148 200 238 290 366
#     4  11  21  36  58  83 113 148 189 241 289 340
#
# _framework density 20.282623999999998
#
# number of rings (size 3 to 8) (size 9 to 14) (size 15 to 20)
#    0.000    1.600    0.000    7.200    0.000    6.400 
#    0.000    0.000    0.000   20.400    0.000    0.000 
#    0.000    0.000    0.000    0.000    0.000    0.000 
#
# Total GULP energy -495915.591113 kJ/mol
# GULP energy per Si atom -12397.889778 kJ/mol
# Density = 2.023646 g / cm^3
# Si number density = 20.282624 Si / 1000 Ang^3
#
#
#
# Elastic Constant Matrix: (Units=GPa)
#
#
# Indices 1 2 3 4 5 6 
#
# 1 112.3321 33.6718 57.9537 0.0000 0.0000 0.0000
# 2 33.6718 64.2492 50.5396 0.0000 0.0000 0.0000
# 3 57.9537 50.5396 184.6982 0.0000 0.0000 0.0000
# 4 0.0000 0.0000 0.0000 34.2712 0.0000 0.0000
# 5 0.0000 0.0000 0.0000 0.0000 25.3072 0.0000
# 6 0.0000 0.0000 0.0000 0.0000 0.0000 32.5895
#
#
#
# Elastic Compliance Matrix: (Units=1/GPa)
#
#
# Indices 1 2 3 4 5 6 
#
# 1 0.011383 -0.004022 -0.002471 0.000000 0.000000 0.000000
# 2 -0.004022 0.021254 -0.004554 0.000000 0.000000 0.000000
# 3 -0.002471 -0.004554 0.007436 0.000000 0.000000 0.000000
# 4 0.000000 0.000000 0.000000 0.029179 0.000000 0.000000
# 5 0.000000 0.000000 0.000000 0.000000 0.039514 0.000000
# 6 0.000000 0.000000 0.000000 0.000000 0.000000 0.030685
#
#
# Mechanical properties :
#
#
# Convention : Reuss Voigt Hill
#
# Bulk Modulus (GPa) = 55.61987 71.73443 63.67715
# Shear Modulus (GPa) = 29.84412 33.04121 31.44266
#
# Velocity S-wave (km/s) = 3.84006 4.04052 3.94156
# Velocity P-wave (km/s) = 6.86610 7.56385 7.22341
#
# Compressibility (1/GPa) = 0.01797919
#
# Stress axis : x y z
#
# Youngs Moduli (GPa) = 87.85392 47.04932 134.48537
#
# Poissons Ratio (x) = 0.18921 0.33233
# Poissons Ratio (y) = 0.35331 0.61245
# Poissons Ratio (z) = 0.21710 0.21426
#
# Static dielectric constant tensor:
#      x y z
#    x 3.826400 0.000000 0.000000 
#    y 0.000000 3.582180 0.000000 
#    z 0.000000 0.000000 3.652790 
# 
# 
# High freq. dielectric constant tensor:
#      x y z
#    x 1.807180 0.000000 0.000000 
#    y 0.000000 1.775850 0.000000 
#    z 0.000000 0.000000 1.779970 
# 
# From -- ./inp_files/30952.got.cif
#   From: 2010.06.25/outbox.cif.g09.slc.cpg/sg52_16_cif.got.tgz:30952.got - 2010.06.26 19:32:48.
