data_PCOD8215500
_publ_section_title
;
Structure prediction by ZEFSAII (Michael W. Deem and Ramdas Pophale) SiO2 
 PCOD8215500
Probable space group: P N N A
;
_chemical_formula_sum "Si O2"
_cell_formula_units_Z 64
_cell_length_a 14.917274
_cell_length_b 17.093804
_cell_length_c 12.133667
_cell_angle_alpha 90.000000
_cell_angle_beta 90.000000
_cell_angle_gamma 90.000000
_cell_volume 3093.999639
_symmetry_space_group_name_H-M "P N N A"
_symmetry_group_IT_number 52
_symmetry_cell_setting 'orthorhombic'
loop_
_space_group_symop_operation_xyz
x,y,z
1/2-x,-y,z
x,1/2-y,1/2-z
1/2-x,1/2+y,1/2-z
-x,-y,-z
1/2+x,y,-z
-x,1/2+y,1/2+z
1/2+x,1/2-y,1/2+z
loop_
_atom_site_type_symbol
_atom_site_label
_atom_site_fract_x
_atom_site_fract_y
_atom_site_fract_z
Si Si1 0.621902 0.847990 0.076940
Si Si2 0.646311 0.836851 0.714260
Si Si3 0.746919 0.407728 0.606653
Si Si4 0.367496 0.786263 0.635960
Si Si5 0.031602 0.080361 0.754142
Si Si6 0.317813 0.321721 0.959337
Si Si7 0.340438 0.052279 0.714867
Si Si8 0.067966 0.140823 0.985458
O O1 0.631081 0.754569 0.085647
O O2 0.665217 0.887940 0.183490
O O3 0.673488 0.880364 0.971827
O O4 0.517648 0.869155 0.063762
O O5 0.612940 0.750000 0.750000
O O6 0.737050 0.862097 0.778066
O O7 0.574492 0.904250 0.747706
O O8 0.664373 0.837268 0.586110
O O9 0.750000 0.500000 0.624167
O O10 0.652639 0.380414 0.558998
O O11 0.329330 0.750000 0.750000
O O12 0.427551 0.859152 0.667410
O O13 0.287678 0.811629 0.557353
O O14 0.428988 0.727763 0.565384
O O15 0.065210 0.084024 0.880212
O O16 0.066842 0.996008 0.716489
O O17 0.349781 0.398479 0.896003
O O18 0.250000 0.000000 0.717004
#
# Coordination Sequence:
#
# PCOD8215500 Si02
#       8
#     8   8   8   8   8   8   8   8
#     4  12  23  44  73 100 141 174 238 294 349 413
#     4  12  24  48  71  97 137 190 234 280 344 434
#     4  12  26  42  68 106 137 174 229 289 352 405
#     4  10  19  37  68 100 128 175 236 275 333 418
#     4  11  22  40  70 101 136 176 239 278 340 427
#     4  12  24  44  69  97 143 186 230 286 347 419
#     4  12  26  42  66 107 141 180 228 297 360 408
#     4  11  22  41  72 104 133 182 228 292 350 412
#
# _framework density 20.685200999999999
#
# number of rings (size 3 to 8) (size 9 to 14) (size 15 to 20)
#    0.000    0.500    5.000    4.875    1.750    2.000 
#    0.000    5.000    0.000    0.000    0.000    0.000 
#    0.000    0.000    0.000    0.000    0.000    0.000 
#
# Total GULP energy -793733.601478 kJ/mol
# GULP energy per Si atom -12402.087523 kJ/mol
# Density = 2.063812 g / cm^3
# Si number density = 20.685201 Si / 1000 Ang^3
#
#
#
# Elastic Constant Matrix: (Units=GPa)
#
#
# Indices 1 2 3 4 5 6 
#
# 1 107.4569 40.1538 47.7625 0.0000 0.0000 0.0000
# 2 40.1538 111.2850 73.0796 0.0000 0.0000 0.0000
# 3 47.7625 73.0796 140.2238 0.0000 0.0000 0.0000
# 4 0.0000 0.0000 0.0000 31.2486 0.0000 0.0000
# 5 0.0000 0.0000 0.0000 0.0000 39.5141 0.0000
# 6 0.0000 0.0000 0.0000 0.0000 0.0000 10.5322
#
#
#
# Elastic Compliance Matrix: (Units=1/GPa)
#
#
# Indices 1 2 3 4 5 6 
#
# 1 0.011363 -0.002369 -0.002636 0.000000 0.000000 0.000000
# 2 -0.002369 0.014155 -0.006570 0.000000 0.000000 0.000000
# 3 -0.002636 -0.006570 0.011453 0.000000 0.000000 0.000000
# 4 0.000000 0.000000 0.000000 0.032001 0.000000 0.000000
# 5 0.000000 0.000000 0.000000 0.000000 0.025307 0.000000
# 6 0.000000 0.000000 0.000000 0.000000 0.000000 0.094947
#
#
# Mechanical properties :
#
#
# Convention : Reuss Voigt Hill
#
# Bulk Modulus (GPa) = 72.35133 75.66194 74.00664
# Shear Modulus (GPa) = 23.04305 29.45696 26.25001
#
# Velocity S-wave (km/s) = 3.34127 3.77777 3.56620
# Velocity P-wave (km/s) = 7.06673 7.46230 7.26721
#
# Compressibility (1/GPa) = 0.01382145
#
# Stress axis : x y z
#
# Youngs Moduli (GPa) = 88.00622 70.64426 87.31006
#
# Poissons Ratio (x) = 0.16736 0.23012
# Poissons Ratio (y) = 0.20850 0.57366
# Poissons Ratio (z) = 0.23196 0.46416
#
# Static dielectric constant tensor:
#      x y z
#    x 3.917700 0.000000 0.000000 
#    y 0.000000 3.944800 0.000000 
#    z 0.000000 0.000000 3.820830 
# 
# 
# High freq. dielectric constant tensor:
#      x y z
#    x 1.808790 0.000000 0.000000 
#    y 0.000000 1.815110 0.000000 
#    z 0.000000 0.000000 1.809270 
# 
# From -- ./inp_files/19861.got.cif
#   From: 2010.06.25/outbox.cif.g09.slc.cpg/sg52_10_cif.got.tgz:19861.got - 2010.06.26 19:32:48.
