data_PCOD8215636
_publ_section_title
;
Structure prediction by ZEFSAII (Michael W. Deem and Ramdas Pophale) SiO2 
 PCOD8215636
Probable space group: P N N A
;
_chemical_formula_sum "Si O2"
_cell_formula_units_Z 52
_cell_length_a 25.621115
_cell_length_b 12.331545
_cell_length_c 8.476675
_cell_angle_alpha 90.000000
_cell_angle_beta 90.000000
_cell_angle_gamma 90.000000
_cell_volume 2678.187941
_symmetry_space_group_name_H-M "P N N A"
_symmetry_group_IT_number 52
_symmetry_cell_setting 'orthorhombic'
loop_
_space_group_symop_operation_xyz
x,y,z
1/2-x,-y,z
x,1/2-y,1/2-z
1/2-x,1/2+y,1/2-z
-x,-y,-z
1/2+x,y,-z
-x,1/2+y,1/2+z
1/2+x,1/2-y,1/2+z
loop_
_atom_site_type_symbol
_atom_site_label
_atom_site_fract_x
_atom_site_fract_y
_atom_site_fract_z
Si Si1 0.862026 0.685496 0.979145
Si Si2 0.896572 0.602708 0.664205
Si Si3 0.174867 0.750000 0.750000
Si Si4 0.934134 0.750000 0.250000
Si Si5 0.245775 0.872551 0.502090
Si Si6 0.815023 0.250000 0.750000
Si Si7 0.886850 0.130885 0.996702
Si Si8 0.503836 0.126537 0.997809
O O1 0.882089 0.595405 0.850179
O O2 0.859578 0.806505 0.909914
O O3 0.803693 0.667495 0.033164
O O4 0.899332 0.678241 0.131129
O O5 0.887344 0.493868 0.562288
O O6 0.956106 0.649840 0.646940
O O7 0.209750 0.820552 0.634339
O O8 0.140308 0.843279 0.836078
O O9 0.970816 0.834312 0.160427
O O10 0.222672 0.838431 0.331857
O O11 0.250000 0.000000 0.514494
O O12 0.853984 0.304704 0.629586
O O13 0.945961 0.176892 0.016797
O O14 0.500000 0.000000 0.000000
#
# Coordination Sequence:
#
# PCOD8215636 Si02
#       8
#     8   8   4   4   8   4   8   8
#     4  10  20  36  58  84 112 143 186 237 283 332
#     4   9  19  36  59  84 111 148 186 227 282 338
#     4  10  25  38  56  82 110 152 191 226 284 330
#     4  10  20  34  56  84 112 142 184 232 276 328
#     4  11  23  39  57  82 111 144 186 232 277 330
#     4  10  21  36  56  80 108 146 189 222 276 334
#     4  10  20  38  55  79 115 149 185 232 273 330
#     4   9  19  35  56  82 112 146 184 225 277 334
#
# _framework density 19.416112999999999
#
# number of rings (size 3 to 8) (size 9 to 14) (size 15 to 20)
#    0.000    2.154    0.000    2.769    0.000    7.385 
#    0.000    6.154    0.000    0.000    0.000    0.000 
#    0.000    0.000    0.000    0.000    0.000    0.000 
#
# Total GULP energy -644288.050733 kJ/mol
# GULP energy per Si atom -12390.154822 kJ/mol
# Density = 1.937192 g / cm^3
# Si number density = 19.416113 Si / 1000 Ang^3
#
#
#
# Elastic Constant Matrix: (Units=GPa)
#
#
# Indices 1 2 3 4 5 6 
#
# 1 162.2536 57.7489 73.1261 0.0000 0.0000 0.0000
# 2 57.7489 100.9425 39.7498 0.0000 0.0000 0.0000
# 3 73.1261 39.7498 120.1714 0.0000 0.0000 0.0000
# 4 0.0000 0.0000 0.0000 31.3409 0.0000 0.0000
# 5 0.0000 0.0000 0.0000 0.0000 22.2068 0.0000
# 6 0.0000 0.0000 0.0000 0.0000 0.0000 29.4121
#
#
#
# Elastic Compliance Matrix: (Units=1/GPa)
#
#
# Indices 1 2 3 4 5 6 
#
# 1 0.009530 -0.003643 -0.004594 0.000000 0.000000 0.000000
# 2 -0.003643 0.012783 -0.002011 0.000000 0.000000 0.000000
# 3 -0.004594 -0.002011 0.011782 0.000000 0.000000 0.000000
# 4 0.000000 0.000000 0.000000 0.031907 0.000000 0.000000
# 5 0.000000 0.000000 0.000000 0.000000 0.045031 0.000000
# 6 0.000000 0.000000 0.000000 0.000000 0.000000 0.034000
#
#
# Mechanical properties :
#
#
# Convention : Reuss Voigt Hill
#
# Bulk Modulus (GPa) = 73.53961 80.51301 77.02631
# Shear Modulus (GPa) = 29.40061 30.77480 30.08771
#
# Velocity S-wave (km/s) = 3.89554 3.98554 3.94080
# Velocity P-wave (km/s) = 7.62833 7.92064 7.77586
#
# Compressibility (1/GPa) = 0.01359811
#
# Stress axis : x y z
#
# Youngs Moduli (GPa) = 104.92633 78.22934 84.87166
#
# Poissons Ratio (x) = 0.28500 0.38993
# Poissons Ratio (y) = 0.38226 0.17071
# Poissons Ratio (z) = 0.48207 0.15735
#
# Static dielectric constant tensor:
#      x y z
#    x 3.931290 0.000000 0.000000 
#    y 0.000000 3.590130 0.000000 
#    z 0.000000 0.000000 3.656390 
# 
# 
# High freq. dielectric constant tensor:
#      x y z
#    x 1.777020 0.000000 0.000000 
#    y 0.000000 1.746360 0.000000 
#    z 0.000000 0.000000 1.757180 
# 
# From -- ./inp_files/15027.got.cif
#   From: 2010.06.25/outbox.cif.g09.slc.cpg/sg52_8_cif.got.tgz:15027.got - 2010.06.26 19:32:48.
