data_PCOD8215991
_publ_section_title
;
Structure prediction by ZEFSAII (Michael W. Deem and Ramdas Pophale) SiO2 
 PCOD8215991
Probable space group: P N N A
;
_chemical_formula_sum "Si O2"
_cell_formula_units_Z 48
_cell_length_a 9.266701
_cell_length_b 16.228016
_cell_length_c 15.018902
_cell_angle_alpha 90.000000
_cell_angle_beta 90.000000
_cell_angle_gamma 90.000000
_cell_volume 2258.545067
_symmetry_space_group_name_H-M "P N N A"
_symmetry_group_IT_number 52
_symmetry_cell_setting 'orthorhombic'
loop_
_space_group_symop_operation_xyz
x,y,z
1/2-x,-y,z
x,1/2-y,1/2-z
1/2-x,1/2+y,1/2-z
-x,-y,-z
1/2+x,y,-z
-x,1/2+y,1/2+z
1/2+x,1/2-y,1/2+z
loop_
_atom_site_type_symbol
_atom_site_label
_atom_site_fract_x
_atom_site_fract_y
_atom_site_fract_z
Si Si1 0.560981 0.764046 0.428318
Si Si2 0.192307 0.165495 0.995479
Si Si3 0.606932 0.250000 0.750000
Si Si4 0.275275 0.385671 0.316374
Si Si5 0.092012 0.542180 0.923551
Si Si6 0.750000 0.500000 0.397583
Si Si7 0.489333 0.993075 0.225712
O O1 0.458639 0.714775 0.498035
O O2 0.715506 0.721025 0.428881
O O3 0.498041 0.746587 0.332510
O O4 0.588946 0.860790 0.447119
O O5 0.180245 0.072386 0.957200
O O6 0.276821 0.161083 0.089347
O O7 0.714212 0.326631 0.760652
O O8 0.438188 0.411393 0.285911
O O9 0.151009 0.454564 0.320120
O O10 0.250000 0.500000 0.921947
O O11 0.016232 0.529118 0.828123
O O12 0.000000 0.500000 0.000000
O O13 0.625424 0.534042 0.332953
#
# Coordination Sequence:
#
# PCOD8215991 Si02
#       7
#     8   8   4   8   8   4   8
#     4  11  24  44  65  99 134 181 227 286 339 404
#     4  11  24  40  69 101 138 176 226 279 347 415
#     4  10  20  40  68  90 136 180 226 276 344 398
#     4  10  22  39  65  98 130 181 221 266 341 414
#     4  12  27  45  70  98 132 183 234 283 339 404
#     4  12  22  42  66 102 138 170 218 290 346 414
#     4  11  23  41  67  97 132 173 225 276 340 408
#
# _framework density 21.252621000000001
#
# number of rings (size 3 to 8) (size 9 to 14) (size 15 to 20)
#    0.000    1.000    2.500    5.000    2.333    4.667 
#    0.000    1.667    0.000    1.000    0.000    0.000 
#    0.000    0.000    0.000    0.000    0.000    0.000 
#
# Total GULP energy -594707.216600 kJ/mol
# GULP energy per Si atom -12389.733679 kJ/mol
# Density = 2.120425 g / cm^3
# Si number density = 21.252621 Si / 1000 Ang^3
#
#
#
# Elastic Constant Matrix: (Units=GPa)
#
#
# Indices 1 2 3 4 5 6 
#
# 1 96.1923 39.2205 23.8921 0.0000 0.0000 0.0000
# 2 39.2205 129.7526 25.4858 0.0000 0.0000 0.0000
# 3 23.8921 25.4858 83.8185 0.0000 0.0000 0.0000
# 4 0.0000 0.0000 0.0000 30.9362 0.0000 0.0000
# 5 0.0000 0.0000 0.0000 0.0000 47.2866 0.0000
# 6 0.0000 0.0000 0.0000 0.0000 0.0000 46.4529
#
#
#
# Elastic Compliance Matrix: (Units=1/GPa)
#
#
# Indices 1 2 3 4 5 6 
#
# 1 0.012344 -0.003233 -0.002535 0.000000 0.000000 0.000000
# 2 -0.003233 0.009043 -0.001828 0.000000 0.000000 0.000000
# 3 -0.002535 -0.001828 0.013209 0.000000 0.000000 0.000000
# 4 0.000000 0.000000 0.000000 0.032325 0.000000 0.000000
# 5 0.000000 0.000000 0.000000 0.000000 0.021148 0.000000
# 6 0.000000 0.000000 0.000000 0.000000 0.000000 0.021527
#
#
# Mechanical properties :
#
#
# Convention : Reuss Voigt Hill
#
# Bulk Modulus (GPa) = 51.53901 54.10669 52.82285
# Shear Modulus (GPa) = 38.09322 39.67946 38.88634
#
# Velocity S-wave (km/s) = 4.23827 4.32561 4.28216
# Velocity P-wave (km/s) = 6.94650 7.10366 7.02552
#
# Compressibility (1/GPa) = 0.01940278
#
# Stress axis : x y z
#
# Youngs Moduli (GPa) = 81.01188 110.57850 75.70527
#
# Poissons Ratio (x) = 0.35752 0.19195
# Poissons Ratio (y) = 0.26193 0.13840
# Poissons Ratio (z) = 0.20540 0.20215
#
# Static dielectric constant tensor:
#      x y z
#    x 4.012960 0.000000 0.000000 
#    y 0.000000 4.505240 0.000000 
#    z 0.000000 0.000000 3.880060 
# 
# 
# High freq. dielectric constant tensor:
#      x y z
#    x 1.837870 0.000000 0.000000 
#    y 0.000000 1.845990 0.000000 
#    z 0.000000 0.000000 1.829810 
# 
# From -- ./inp_files/24752.got.cif
#   From: 2010.06.25/outbox.cif.g09.slc.cpg/sg52_13_cif.got.tgz:24752.got - 2010.06.26 19:32:48.
