data_PCOD8215782
_publ_section_title
;
Structure prediction by ZEFSAII (Michael W. Deem and Ramdas Pophale) SiO2 
 PCOD8215782
Probable space group: P N N A
;
_chemical_formula_sum "Si O2"
_cell_formula_units_Z 40
_cell_length_a 9.682780
_cell_length_b 12.963203
_cell_length_c 14.654546
_cell_angle_alpha 90.000000
_cell_angle_beta 90.000000
_cell_angle_gamma 90.000000
_cell_volume 1839.436309
_symmetry_space_group_name_H-M "P N N A"
_symmetry_group_IT_number 52
_symmetry_cell_setting 'orthorhombic'
loop_
_space_group_symop_operation_xyz
x,y,z
1/2-x,-y,z
x,1/2-y,1/2-z
1/2-x,1/2+y,1/2-z
-x,-y,-z
1/2+x,y,-z
-x,1/2+y,1/2+z
1/2+x,1/2-y,1/2+z
loop_
_atom_site_type_symbol
_atom_site_label
_atom_site_fract_x
_atom_site_fract_y
_atom_site_fract_z
Si Si1 0.492932 0.927904 0.587835
Si Si2 0.629680 0.681941 0.390900
Si Si3 0.620528 0.223813 0.003139
Si Si4 0.251615 0.822376 0.331272
Si Si5 0.553972 0.607370 0.201901
O O1 0.416378 0.823829 0.562716
O O2 0.640581 0.905000 0.633881
O O3 0.500000 0.000000 0.500000
O O4 0.406372 0.995537 0.661223
O O5 0.780996 0.656056 0.431196
O O6 0.515227 0.662103 0.470242
O O7 0.607879 0.608282 0.305011
O O8 0.618401 0.801897 0.360236
O O9 0.712302 0.250349 0.916127
O O10 0.191851 0.750000 0.250000
O O11 0.388106 0.880380 0.295995
#
# Coordination Sequence:
#
# PCOD8215782 Si02
#       5
#     8   8   8   8   8
#     4  12  22  34  65 102 125 154 214 275 310 366
#     4  10  20  37  59  87 126 172 199 255 318 384
#     4  11  20  36  60  90 125 163 210 250 314 379
#     4  11  20  36  60  91 127 172 209 250 324 393
#     4  10  20  37  57  90 132 164 204 264 328 368
#
# _framework density 21.745792999999999
#
# number of rings (size 3 to 8) (size 9 to 14) (size 15 to 20)
#    0.000    1.200   10.000    0.600    0.000    2.400 
#    3.600    0.000    0.000    1.200    5.200    0.000 
#    0.000    0.200    0.000    0.000    0.000    0.000 
#
# Total GULP energy -495832.796130 kJ/mol
# GULP energy per Si atom -12395.819903 kJ/mol
# Density = 2.169630 g / cm^3
# Si number density = 21.745793 Si / 1000 Ang^3
#
#
#
# Elastic Constant Matrix: (Units=GPa)
#
#
# Indices 1 2 3 4 5 6 
#
# 1 82.9518 -5.4452 59.9493 0.0000 0.0000 0.0000
# 2 -5.4452 20.3706 31.1094 0.0000 0.0000 0.0000
# 3 59.9493 31.1094 140.0966 0.0000 0.0000 0.0000
# 4 0.0000 0.0000 0.0000 44.6634 0.0000 0.0000
# 5 0.0000 0.0000 0.0000 0.0000 32.4957 0.0000
# 6 0.0000 0.0000 0.0000 0.0000 0.0000 17.3619
#
#
#
# Elastic Compliance Matrix: (Units=1/GPa)
#
#
# Indices 1 2 3 4 5 6 
#
# 1 0.032088 0.044709 -0.023659 0.000000 0.000000 0.000000
# 2 0.044709 0.136573 -0.049459 0.000000 0.000000 0.000000
# 3 -0.023659 -0.049459 0.028245 0.000000 0.000000 0.000000
# 4 0.000000 0.000000 0.000000 0.022390 0.000000 0.000000
# 5 0.000000 0.000000 0.000000 0.000000 0.030773 0.000000
# 6 0.000000 0.000000 0.000000 0.000000 0.000000 0.057597
#
#
# Mechanical properties :
#
#
# Convention : Reuss Voigt Hill
#
# Bulk Modulus (GPa) = 7.13834 46.07179 26.60507
# Shear Modulus (GPa) = 12.16013 29.42457 20.79235
#
# Velocity S-wave (km/s) = 2.36729 3.68246 3.09553
# Velocity P-wave (km/s) = 3.28053 6.27003 5.00375
#
# Compressibility (1/GPa) = 0.14008855
#
# Stress axis : x y z
#
# Youngs Moduli (GPa) = 31.16401 7.32208 35.40510
#
# Poissons Ratio (x) = -0.32736 0.83765
# Poissons Ratio (y) = -1.39330 1.75108
# Poissons Ratio (z) = 0.73731 0.36214
#
# Static dielectric constant tensor:
#      x y z
#    x 4.016800 0.000000 0.000000 
#    y 0.000000 3.558510 0.000000 
#    z 0.000000 0.000000 4.249230 
# 
# 
# High freq. dielectric constant tensor:
#      x y z
#    x 1.853090 0.000000 0.000000 
#    y 0.000000 1.806430 0.000000 
#    z 0.000000 0.000000 1.865210 
# 
# From -- ./inp_files/24404.got.cif
#   From: 2010.06.25/outbox.cif.g09.slc.cpg/sg52_13_cif.got.tgz:24404.got - 2010.06.26 19:32:48.
