data_PCOD8215537
_publ_section_title
;
Structure prediction by ZEFSAII (Michael W. Deem and Ramdas Pophale) SiO2 
 PCOD8215537
Probable space group: P N N A
;
_chemical_formula_sum "Si O2"
_cell_formula_units_Z 48
_cell_length_a 10.881469
_cell_length_b 8.806786
_cell_length_c 22.584324
_cell_angle_alpha 90.000000
_cell_angle_beta 90.000000
_cell_angle_gamma 90.000000
_cell_volume 2164.273133
_symmetry_space_group_name_H-M "P N N A"
_symmetry_group_IT_number 52
_symmetry_cell_setting 'orthorhombic'
loop_
_space_group_symop_operation_xyz
x,y,z
1/2-x,-y,z
x,1/2-y,1/2-z
1/2-x,1/2+y,1/2-z
-x,-y,-z
1/2+x,y,-z
-x,1/2+y,1/2+z
1/2+x,1/2-y,1/2+z
loop_
_atom_site_type_symbol
_atom_site_label
_atom_site_fract_x
_atom_site_fract_y
_atom_site_fract_z
Si Si1 0.411669 0.747440 0.101834
Si Si2 0.195399 0.147318 0.798657
Si Si3 0.189276 0.163420 0.985617
Si Si4 0.998858 0.414099 0.607225
Si Si5 0.214503 0.674227 0.312005
Si Si6 0.825601 0.155229 0.388733
O O1 0.329804 0.732327 0.161165
O O2 0.526301 0.630603 0.107236
O O3 0.456164 0.918803 0.092961
O O4 0.329614 0.727036 0.042668
O O5 0.125305 0.250000 0.750000
O O6 0.299453 0.252527 0.828579
O O7 0.108519 0.075182 0.846833
O O8 0.250000 0.000000 0.765429
O O9 0.288467 0.245848 0.945062
O O10 0.055759 0.155296 0.952945
O O11 0.250000 0.000000 0.002946
O O12 0.892030 0.313896 0.637920
O O13 0.250000 0.500000 0.299926
O O14 0.174143 0.750000 0.250000
O O15 0.750000 0.000000 0.388557
#
# Coordination Sequence:
#
# PCOD8215537 Si02
#       6
#     8   8   8   8   8   8
#     4  11  22  39  67  92 126 169 216 269 332 396
#     4  11  21  39  63  92 121 166 213 273 327 387
#     4  11  21  38  70  96 122 164 218 278 334 393
#     4  10  19  39  64  94 125 158 216 272 323 400
#     4  10  23  42  61  93 128 172 218 267 329 405
#     4  11  24  42  58  91 132 164 214 267 329 398
#
# _framework density 22.178346000000001
#
# number of rings (size 3 to 8) (size 9 to 14) (size 15 to 20)
#    0.000    1.333    3.333    4.000    2.333    1.333 
#   12.000    0.833    0.000    0.000    0.000    0.000 
#    0.000    0.000    0.000    0.000    0.000    0.000 
#
# Total GULP energy -594921.182169 kJ/mol
# GULP energy per Si atom -12394.191295 kJ/mol
# Density = 2.212787 g / cm^3
# Si number density = 22.178346 Si / 1000 Ang^3
#
#
#
# Elastic Constant Matrix: (Units=GPa)
#
#
# Indices 1 2 3 4 5 6 
#
# 1 109.6894 21.3348 20.8255 0.0000 0.0000 0.0000
# 2 21.3348 66.1393 15.0374 0.0000 0.0000 0.0000
# 3 20.8255 15.0374 89.3549 0.0000 0.0000 0.0000
# 4 0.0000 0.0000 0.0000 23.4190 0.0000 0.0000
# 5 0.0000 0.0000 0.0000 0.0000 1.3416 0.0000
# 6 0.0000 0.0000 0.0000 0.0000 0.0000 35.4057
#
#
#
# Elastic Compliance Matrix: (Units=1/GPa)
#
#
# Indices 1 2 3 4 5 6 
#
# 1 0.010016 -0.002808 -0.001862 0.000000 0.000000 0.000000
# 2 -0.002808 0.016508 -0.002124 0.000000 0.000000 0.000000
# 3 -0.001862 -0.002124 0.011983 0.000000 0.000000 0.000000
# 4 0.000000 0.000000 0.000000 0.042700 0.000000 0.000000
# 5 0.000000 0.000000 0.000000 0.000000 0.745381 0.000000
# 6 0.000000 0.000000 0.000000 0.000000 0.000000 0.028244
#
#
# Mechanical properties :
#
#
# Convention : Reuss Voigt Hill
#
# Bulk Modulus (GPa) = 40.12783 42.17545 41.15164
# Shear Modulus (GPa) = 5.70304 25.89900 15.80102
#
# Velocity S-wave (km/s) = 1.60531 3.42096 2.67208
# Velocity P-wave (km/s) = 4.64420 5.88742 5.30237
#
# Compressibility (1/GPa) = 0.02492036
#
# Stress axis : x y z
#
# Youngs Moduli (GPa) = 99.83780 60.57616 83.45378
#
# Poissons Ratio (x) = 0.17008 0.15539
# Poissons Ratio (y) = 0.28031 0.17724
# Poissons Ratio (z) = 0.18589 0.12865
#
# Static dielectric constant tensor:
#      x y z
#    x 4.265430 0.000000 0.000000 
#    y 0.000000 3.732170 0.000000 
#    z 0.000000 0.000000 4.032210 
# 
# 
# High freq. dielectric constant tensor:
#      x y z
#    x 1.875880 0.000000 0.000000 
#    y 0.000000 1.838820 0.000000 
#    z 0.000000 0.000000 1.883970 
# 
# From -- ./inp_files/40125.got.cif
#   From: 2010.06.25/outbox.cif.g09.slc.cpg/sg52_21_cif.got.tgz:40125.got - 2010.06.26 19:32:48.
