data_PCOD8215803
_publ_section_title
;
Structure prediction by ZEFSAII (Michael W. Deem and Ramdas Pophale) SiO2 
 PCOD8215803
Probable space group: P N N A
;
_chemical_formula_sum "Si O2"
_cell_formula_units_Z 64
_cell_length_a 18.135984
_cell_length_b 20.524316
_cell_length_c 8.888553
_cell_angle_alpha 90.000000
_cell_angle_beta 90.000000
_cell_angle_gamma 90.000000
_cell_volume 3308.574231
_symmetry_space_group_name_H-M "P N N A"
_symmetry_group_IT_number 52
_symmetry_cell_setting 'orthorhombic'
loop_
_space_group_symop_operation_xyz
x,y,z
1/2-x,-y,z
x,1/2-y,1/2-z
1/2-x,1/2+y,1/2-z
-x,-y,-z
1/2+x,y,-z
-x,1/2+y,1/2+z
1/2+x,1/2-y,1/2+z
loop_
_atom_site_type_symbol
_atom_site_label
_atom_site_fract_x
_atom_site_fract_y
_atom_site_fract_z
Si Si1 0.044694 0.063982 0.323833
Si Si2 0.037241 0.682901 0.322302
Si Si3 0.704949 0.683746 0.323139
Si Si4 0.204949 0.683746 0.323139
Si Si5 0.537241 0.817099 0.177698
Si Si6 0.455306 0.563982 0.823833
Si Si7 0.198852 0.438057 0.326303
Si Si8 0.698852 0.438057 0.326303
O O1 0.037858 0.077847 0.500000
O O2 0.128907 0.052753 0.279238
O O3 0.013776 0.125082 0.233924
O O4 1.000000 1.000000 0.275740
O O5 0.008565 0.750000 0.250000
O O6 0.121296 0.669224 0.270643
O O7 0.030065 0.688548 0.500000
O O8 0.986224 0.625082 0.266076
O O9 0.735152 0.750000 0.250000
O O10 0.707844 0.692495 0.500000
O O11 0.621296 0.669224 0.270643
O O12 0.756499 0.624985 0.269633
O O13 0.235152 0.750000 0.250000
O O14 0.256499 0.624985 0.269633
O O15 0.508565 0.750000 0.250000
O O16 0.371093 0.552754 0.779238
O O17 0.250000 0.500000 0.304089
O O18 0.174340 0.430903 0.500000
O O19 0.750000 0.500000 0.304089
#
# Coordination Sequence:
#
# PCOD8215803 Si02
#       8
#     8   8   8   8   8   8   8   8
#     4  11  24  39  56  82 115 150 190 235 282 333
#     4  10  20  37  61  86 114 148 186 229 279 334
#     4   9  19  35  57  84 111 142 180 224 274 330
#     4   9  19  35  57  84 111 142 180 224 274 330
#     4  10  20  37  61  86 114 148 186 229 279 334
#     4  11  24  39  56  82 115 150 190 235 282 333
#     4  10  21  38  59  82 109 144 188 234 281 334
#     4  10  21  38  59  82 109 144 188 234 281 334
#
# _framework density 19.343679000000002
#
# number of rings (size 3 to 8) (size 9 to 14) (size 15 to 20)
#    0.000    2.000    0.000    3.000    0.000    7.500 
#    0.000    2.500    0.000    0.000    0.000    0.000 
#    0.000    0.000    0.000    0.000    0.000    0.000 
#
# Total GULP energy -793924.799953 kJ/mol
# GULP energy per Si atom -12405.074999 kJ/mol
# Density = 1.929965 g / cm^3
# Si number density = 19.343679 Si / 1000 Ang^3
#
#
#
# Elastic Constant Matrix: (Units=GPa)
#
#
# Indices 1 2 3 4 5 6 
#
# 1 91.0553 56.8457 29.9376 0.0000 0.0000 0.0000
# 2 56.8457 146.1999 42.7947 0.0000 0.0000 0.0000
# 3 29.9376 42.7947 55.1182 0.0000 0.0000 0.0000
# 4 0.0000 0.0000 0.0000 33.1225 0.0000 0.0000
# 5 0.0000 0.0000 0.0000 0.0000 31.1492 0.0000
# 6 0.0000 0.0000 0.0000 0.0000 0.0000 33.8363
#
#
#
# Elastic Compliance Matrix: (Units=1/GPa)
#
#
# Indices 1 2 3 4 5 6 
#
# 1 0.015432 -0.004590 -0.004818 0.000000 0.000000 0.000000
# 2 -0.004590 0.010217 -0.005439 0.000000 0.000000 0.000000
# 3 -0.004818 -0.005439 0.024983 0.000000 0.000000 0.000000
# 4 0.000000 0.000000 0.000000 0.030191 0.000000 0.000000
# 5 0.000000 0.000000 0.000000 0.000000 0.032104 0.000000
# 6 0.000000 0.000000 0.000000 0.000000 0.000000 0.029554
#
#
# Mechanical properties :
#
#
# Convention : Reuss Voigt Hill
#
# Bulk Modulus (GPa) = 47.76303 61.28104 54.52203
# Shear Modulus (GPa) = 27.90885 30.47463 29.19174
#
# Velocity S-wave (km/s) = 3.80253 3.97348 3.88894
# Velocity P-wave (km/s) = 6.63509 7.26638 6.95790
#
# Compressibility (1/GPa) = 0.02093669
#
# Stress axis : x y z
#
# Youngs Moduli (GPa) = 64.80043 97.87779 40.02700
#
# Poissons Ratio (x) = 0.44925 0.19286
# Poissons Ratio (y) = 0.29743 0.21773
# Poissons Ratio (z) = 0.31222 0.53240
#
# Static dielectric constant tensor:
#      x y z
#    x 3.544600 0.000000 0.000000 
#    y 0.000000 3.696900 0.000000 
#    z 0.000000 0.000000 3.483480 
# 
# 
# High freq. dielectric constant tensor:
#      x y z
#    x 1.752570 0.000000 0.000000 
#    y 0.000000 1.769000 0.000000 
#    z 0.000000 0.000000 1.751580 
# 
# From -- ./inp_files/13607.got.cif
#   From: 2010.06.25/outbox.cif.g09.slc.cpg/sg52_7_cif.got.tgz:13607.got - 2010.06.26 19:32:48.
