data_PCOD8215000
_publ_section_title
;
Structure prediction by ZEFSAII (Michael W. Deem and Ramdas Pophale) SiO2 
 PCOD8215000
Probable space group: P N N A
;
_chemical_formula_sum "Si O2"
_cell_formula_units_Z 40
_cell_length_a 9.516615
_cell_length_b 21.520421
_cell_length_c 7.086526
_cell_angle_alpha 90.000000
_cell_angle_beta 90.000000
_cell_angle_gamma 90.000000
_cell_volume 1451.331589
_symmetry_space_group_name_H-M "P N N A"
_symmetry_group_IT_number 52
_symmetry_cell_setting 'orthorhombic'
loop_
_space_group_symop_operation_xyz
x,y,z
1/2-x,-y,z
x,1/2-y,1/2-z
1/2-x,1/2+y,1/2-z
-x,-y,-z
1/2+x,y,-z
-x,1/2+y,1/2+z
1/2+x,1/2-y,1/2+z
loop_
_atom_site_type_symbol
_atom_site_label
_atom_site_fract_x
_atom_site_fract_y
_atom_site_fract_z
Si Si1 0.988502 0.196521 0.519631
Si Si2 0.402270 0.483971 0.279184
Si Si3 0.880513 0.423707 0.126326
Si Si4 0.384921 0.611918 0.665273
Si Si5 0.238099 0.228384 0.967449
O O1 0.028374 0.159485 0.706914
O O2 0.124585 0.228125 0.426029
O O3 0.915513 0.149904 0.371511
O O4 0.885284 0.254887 0.565899
O O5 0.250000 0.500000 0.376521
O O6 0.492519 0.545262 0.240179
O O7 0.499420 0.438380 0.412974
O O8 0.367479 0.449485 0.084303
O O9 0.726387 0.430593 0.218811
O O10 0.302025 0.654495 0.511548
O O11 0.241209 0.250000 0.750000
#
# Coordination Sequence:
#
# PCOD8215000 Si02
#       5
#     8   8   8   8   8
#     4  10  18  32  54  76 110 145 180 229 266 329
#     4  10  19  28  50  84 111 142 176 224 288 340
#     4  10  17  30  51  78 114 142 171 222 292 337
#     4  10  20  34  52  76 116 150 179 222 281 341
#     4  10  20  36  52  76 113 149 187 220 276 333
#
# _framework density 27.560898000000002
#
# number of rings (size 3 to 8) (size 9 to 14) (size 15 to 20)
#    0.000    2.000    4.000    4.200    2.800    0.000 
#    0.000    5.000    0.000    0.000    0.000    9.800 
#    0.000    0.000    0.000    0.000    0.000    0.000 
#
# Total GULP energy -495701.471217 kJ/mol
# GULP energy per Si atom -12392.536780 kJ/mol
# Density = 2.749817 g / cm^3
# Si number density = 27.560898 Si / 1000 Ang^3
#
#
#
# Elastic Constant Matrix: (Units=GPa)
#
#
# Indices 1 2 3 4 5 6 
#
# 1 201.3453 60.7285 9.9083 0.0000 0.0000 0.0000
# 2 60.7285 133.9197 8.8129 0.0000 0.0000 0.0000
# 3 9.9083 8.8129 29.8392 0.0000 0.0000 0.0000
# 4 0.0000 0.0000 0.0000 -1.4164 0.0000 0.0000
# 5 0.0000 0.0000 0.0000 0.0000 -265.2633 0.0000
# 6 0.0000 0.0000 0.0000 0.0000 0.0000 76.0204
#
#
#
# Elastic Compliance Matrix: (Units=1/GPa)
#
#
# Indices 1 2 3 4 5 6 
#
# 1 0.005793 -0.002550 -0.001171 0.000000 0.000000 0.000000
# 2 -0.002550 0.008738 -0.001734 0.000000 0.000000 0.000000
# 3 -0.001171 -0.001734 0.034414 0.000000 0.000000 0.000000
# 4 0.000000 0.000000 0.000000 -0.706017 0.000000 0.000000
# 5 0.000000 0.000000 0.000000 0.000000 -0.003770 0.000000
# 6 0.000000 0.000000 0.000000 0.000000 0.000000 0.013154
#
#
# Mechanical properties :
#
#
# Convention : Reuss Voigt Hill
#
# Bulk Modulus (GPa) = 26.29106 58.22260 42.25683
# Shear Modulus (GPa) = -8.01154 -19.08821 -13.54987
#
# Velocity S-wave (km/s) = -1.70680 -2.63455 -2.21969
# Velocity P-wave (km/s) = 2.38238 3.45202 2.96582
#
# Compressibility (1/GPa) = 0.03803574
#
# Stress axis : x y z
#
# Youngs Moduli (GPa) = 172.61229 114.44744 29.05817
#
# Poissons Ratio (x) = 0.29185 0.03401
# Poissons Ratio (y) = 0.44017 0.05038
# Poissons Ratio (z) = 0.20205 0.19844
#
# Static dielectric constant tensor:
#      x y z
#    x 5.655740 0.000000 0.000000 
#    y 0.000000 5.651490 0.000000 
#    z 0.000000 0.000000 4.189530 
# 
# 
# High freq. dielectric constant tensor:
#      x y z
#    x 2.131130 0.000000 0.000000 
#    y 0.000000 2.130330 0.000000 
#    z 0.000000 0.000000 2.060720 
# 
# From -- ./inp_files/7399.got.cif
#   From: 2010.06.25/outbox.cif.g09.slc.cpg/sg52_4_cif.got.tgz:7399.got - 2010.06.26 19:32:48.
