data_PCOD8215492
_publ_section_title
;
Structure prediction by ZEFSAII (Michael W. Deem and Ramdas Pophale) SiO2 
 PCOD8215492
Probable space group: P N N A
;
_chemical_formula_sum "Si O2"
_cell_formula_units_Z 52
_cell_length_a 9.555409
_cell_length_b 24.094246
_cell_length_c 10.716425
_cell_angle_alpha 90.000000
_cell_angle_beta 90.000000
_cell_angle_gamma 90.000000
_cell_volume 2467.246547
_symmetry_space_group_name_H-M "P N N A"
_symmetry_group_IT_number 52
_symmetry_cell_setting 'orthorhombic'
loop_
_space_group_symop_operation_xyz
x,y,z
1/2-x,-y,z
x,1/2-y,1/2-z
1/2-x,1/2+y,1/2-z
-x,-y,-z
1/2+x,y,-z
-x,1/2+y,1/2+z
1/2+x,1/2-y,1/2+z
loop_
_atom_site_type_symbol
_atom_site_label
_atom_site_fract_x
_atom_site_fract_y
_atom_site_fract_z
Si Si1 0.508161 0.939371 0.237072
Si Si2 0.202888 0.750000 0.750000
Si Si3 0.611253 0.593849 0.515737
Si Si4 0.145115 0.353258 0.644639
Si Si5 0.335417 0.612580 0.923411
Si Si6 0.447356 0.339926 0.900295
Si Si7 0.750000 0.000000 0.816803
Si Si8 0.250000 0.500000 0.883038
O O1 0.496947 0.876092 0.284109
O O2 0.366146 0.971786 0.271678
O O3 0.641863 0.967979 0.296302
O O4 0.519727 0.938289 0.087491
O O5 0.309274 0.709756 0.675821
O O6 0.096658 0.720311 0.847768
O O7 0.510115 0.638523 0.586549
O O8 0.739643 0.625178 0.451782
O O9 0.671887 0.547498 0.605914
O O10 0.147115 0.386934 0.773934
O O11 0.185794 0.633731 0.966709
O O12 0.337221 0.546763 0.962816
O O13 0.439792 0.655872 0.989472
#
# Coordination Sequence:
#
# PCOD8215492 Si02
#       8
#     8   4   8   8   8   8   4   4
#     4  11  22  39  59  99 128 177 215 266 323 404
#     4  10  22  48  70  92 122 180 214 300 336 380
#     4  12  22  41  63 100 135 176 216 275 322 416
#     4  11  24  41  68  95 134 168 234 275 336 390
#     4  10  22  40  61  96 128 176 213 269 313 410
#     4  10  23  42  66  87 130 166 227 268 335 379
#     4  12  25  33  68 100 142 171 213 268 350 392
#     4  10  19  37  64  84 146 175 209 250 334 386
#
# _framework density 21.076125999999999
#
# number of rings (size 3 to 8) (size 9 to 14) (size 15 to 20)
#    0.000    1.231    6.154    1.846    0.000    8.000 
#    0.000    0.000    0.000    7.385    0.000    0.000 
#    0.000    0.000    0.000    0.000    0.000    0.000 
#
# Total GULP energy -644227.901308 kJ/mol
# GULP energy per Si atom -12388.998102 kJ/mol
# Density = 2.102816 g / cm^3
# Si number density = 21.076126 Si / 1000 Ang^3
#
#
#
# Elastic Constant Matrix: (Units=GPa)
#
#
# Indices 1 2 3 4 5 6 
#
# 1 120.3282 50.0333 51.7801 0.0000 0.0000 0.0000
# 2 50.0333 140.4319 37.8513 0.0000 0.0000 0.0000
# 3 51.7801 37.8513 59.1355 0.0000 0.0000 0.0000
# 4 0.0000 0.0000 0.0000 15.9804 0.0000 0.0000
# 5 0.0000 0.0000 0.0000 0.0000 24.3088 0.0000
# 6 0.0000 0.0000 0.0000 0.0000 0.0000 40.7734
#
#
#
# Elastic Compliance Matrix: (Units=1/GPa)
#
#
# Indices 1 2 3 4 5 6 
#
# 1 0.013787 -0.002004 -0.010789 0.000000 0.000000 0.000000
# 2 -0.002004 0.008897 -0.003940 0.000000 0.000000 0.000000
# 3 -0.010789 -0.003940 0.028879 0.000000 0.000000 0.000000
# 4 0.000000 0.000000 0.000000 0.062576 0.000000 0.000000
# 5 0.000000 0.000000 0.000000 0.000000 0.041137 0.000000
# 6 0.000000 0.000000 0.000000 0.000000 0.000000 0.024526
#
#
# Mechanical properties :
#
#
# Convention : Reuss Voigt Hill
#
# Bulk Modulus (GPa) = 55.25867 66.58056 60.91962
# Shear Modulus (GPa) = 22.79971 28.22794 25.51382
#
# Velocity S-wave (km/s) = 3.29261 3.66366 3.48308
# Velocity P-wave (km/s) = 6.38205 7.03958 6.71886
#
# Compressibility (1/GPa) = 0.01809671
#
# Stress axis : x y z
#
# Youngs Moduli (GPa) = 72.53364 112.39991 34.62665
#
# Poissons Ratio (x) = 0.22523 0.37360
# Poissons Ratio (y) = 0.14535 0.13643
# Poissons Ratio (z) = 0.78258 0.44286
#
# Static dielectric constant tensor:
#      x y z
#    x 4.099140 0.000000 0.000000 
#    y 0.000000 4.045240 0.000000 
#    z 0.000000 0.000000 3.650940 
# 
# 
# High freq. dielectric constant tensor:
#      x y z
#    x 1.836970 0.000000 0.000000 
#    y 0.000000 1.822120 0.000000 
#    z 0.000000 0.000000 1.813320 
# 
# From -- ./inp_files/17108.got.cif
#   From: 2010.06.25/outbox.cif.g09.slc.cpg/sg52_9_cif.got.tgz:17108.got - 2010.06.26 19:32:48.
