data_PCOD8215966
_publ_section_title
;
Structure prediction by ZEFSAII (Michael W. Deem and Ramdas Pophale) SiO2 
 PCOD8215966
Probable space group: P N N A
;
_chemical_formula_sum "Si O2"
_cell_formula_units_Z 48
_cell_length_a 17.308441
_cell_length_b 9.287121
_cell_length_c 15.194819
_cell_angle_alpha 90.000000
_cell_angle_beta 90.000000
_cell_angle_gamma 90.000000
_cell_volume 2442.500083
_symmetry_space_group_name_H-M "P N N A"
_symmetry_group_IT_number 52
_symmetry_cell_setting 'orthorhombic'
loop_
_space_group_symop_operation_xyz
x,y,z
1/2-x,-y,z
x,1/2-y,1/2-z
1/2-x,1/2+y,1/2-z
-x,-y,-z
1/2+x,y,-z
-x,1/2+y,1/2+z
1/2+x,1/2-y,1/2+z
loop_
_atom_site_type_symbol
_atom_site_label
_atom_site_fract_x
_atom_site_fract_y
_atom_site_fract_z
Si Si1 0.834845 0.284169 0.482542
Si Si2 0.929677 0.510367 0.568751
Si Si3 0.669719 0.009920 0.167184
Si Si4 0.985416 0.416891 0.255693
Si Si5 0.063393 0.981408 0.571405
Si Si6 0.162158 0.244456 0.967733
O O1 0.877916 0.364316 0.564297
O O2 0.817326 0.412599 0.417344
O O3 0.891952 0.169827 0.437574
O O4 0.749206 0.224363 0.504715
O O5 0.882608 0.655555 0.544253
O O6 0.000000 0.500000 0.500000
O O7 0.960146 0.514555 0.669348
O O8 0.654813 0.168198 0.127943
O O9 0.750000 0.000000 0.222860
O O10 0.603904 0.944888 0.225927
O O11 0.005536 0.250000 0.250000
O O12 0.989622 0.489611 0.159775
O O13 0.126038 0.103431 0.555854
O O14 0.000000 0.000000 0.500000
#
# Coordination Sequence:
#
# PCOD8215966 Si02
#       6
#     8   8   8   8   8   8
#     4  10  20  40  63  87 124 165 202 254 311 376
#     4  11  19  39  65  87 122 162 212 248 303 388
#     4   9  19  36  58  87 119 155 200 237 301 386
#     4  12  22  38  61  89 126 169 204 254 317 376
#     4  12  25  39  59  91 126 160 207 263 323 367
#     4  10  21  38  63  92 120 161 205 259 314 364
#
# _framework density 19.651996
#
# number of rings (size 3 to 8) (size 9 to 14) (size 15 to 20)
#    0.000    1.333    5.000    4.000    0.000    2.000 
#    0.000    0.000    0.000   10.000    0.000    0.000 
#    0.000    0.000    0.000    0.000    0.000    0.000 
#
# Total GULP energy -594684.077717 kJ/mol
# GULP energy per Si atom -12389.251619 kJ/mol
# Density = 1.960727 g / cm^3
# Si number density = 19.651996 Si / 1000 Ang^3
#
#
#
# Elastic Constant Matrix: (Units=GPa)
#
#
# Indices 1 2 3 4 5 6 
#
# 1 90.1159 25.1776 51.5209 0.0000 0.0000 0.0000
# 2 25.1776 90.3157 28.8832 0.0000 0.0000 0.0000
# 3 51.5209 28.8832 123.5784 0.0000 0.0000 0.0000
# 4 0.0000 0.0000 0.0000 21.8252 0.0000 0.0000
# 5 0.0000 0.0000 0.0000 0.0000 25.7293 0.0000
# 6 0.0000 0.0000 0.0000 0.0000 0.0000 21.7773
#
#
#
# Elastic Compliance Matrix: (Units=1/GPa)
#
#
# Indices 1 2 3 4 5 6 
#
# 1 0.015021 -0.002361 -0.005711 0.000000 0.000000 0.000000
# 2 -0.002361 0.012338 -0.001899 0.000000 0.000000 0.000000
# 3 -0.005711 -0.001899 0.010917 0.000000 0.000000 0.000000
# 4 0.000000 0.000000 0.000000 0.045819 0.000000 0.000000
# 5 0.000000 0.000000 0.000000 0.000000 0.038866 0.000000
# 6 0.000000 0.000000 0.000000 0.000000 0.000000 0.045919
#
#
# Mechanical properties :
#
#
# Convention : Reuss Voigt Hill
#
# Bulk Modulus (GPa) = 54.54427 57.24149 55.89288
# Shear Modulus (GPa) = 25.64971 27.09491 26.37231
#
# Velocity S-wave (km/s) = 3.61667 3.71716 3.66726
# Velocity P-wave (km/s) = 6.72724 6.90028 6.81431
#
# Compressibility (1/GPa) = 0.01833373
#
# Stress axis : x y z
#
# Youngs Moduli (GPa) = 66.57153 81.05104 91.60229
#
# Poissons Ratio (x) = 0.19138 0.52311
# Poissons Ratio (y) = 0.15719 0.17397
# Poissons Ratio (z) = 0.38017 0.15393
#
# Static dielectric constant tensor:
#      x y z
#    x 4.234930 0.000000 0.000000 
#    y 0.000000 3.588890 0.000000 
#    z 0.000000 0.000000 3.447710 
# 
# 
# High freq. dielectric constant tensor:
#      x y z
#    x 1.778170 0.000000 0.000000 
#    y 0.000000 1.771440 0.000000 
#    z 0.000000 0.000000 1.735800 
# 
# From -- ./inp_files/28065.got.cif
#   From: 2010.06.25/outbox.cif.g09.slc.cpg/sg52_15_cif.got.tgz:28065.got - 2010.06.26 19:32:48.
