data_PCOD8215818
_publ_section_title
;
Structure prediction by ZEFSAII (Michael W. Deem and Ramdas Pophale) SiO2 
 PCOD8215818
Probable space group: P N N A
;
_chemical_formula_sum "Si O2"
_cell_formula_units_Z 36
_cell_length_a 13.205627
_cell_length_b 11.304378
_cell_length_c 10.667188
_cell_angle_alpha 90.000000
_cell_angle_beta 90.000000
_cell_angle_gamma 90.000000
_cell_volume 1592.412752
_symmetry_space_group_name_H-M "P N N A"
_symmetry_group_IT_number 52
_symmetry_cell_setting 'orthorhombic'
loop_
_space_group_symop_operation_xyz
x,y,z
1/2-x,-y,z
x,1/2-y,1/2-z
1/2-x,1/2+y,1/2-z
-x,-y,-z
1/2+x,y,-z
-x,1/2+y,1/2+z
1/2+x,1/2-y,1/2+z
loop_
_atom_site_type_symbol
_atom_site_label
_atom_site_fract_x
_atom_site_fract_y
_atom_site_fract_z
Si Si1 0.034435 0.595831 0.340658
Si Si2 0.750000 0.000000 0.580548
Si Si3 0.347396 0.577497 0.502327
Si Si4 0.071080 0.845467 0.441576
Si Si5 0.392641 0.806109 0.375230
O O1 0.089911 0.479664 0.388779
O O2 0.087563 0.706205 0.413655
O O3 0.041449 0.597699 0.191639
O O4 0.915395 0.587339 0.372787
O O5 0.670213 0.915900 0.503863
O O6 0.814460 0.909284 0.665556
O O7 0.250000 0.500000 0.536434
O O8 0.326513 0.710938 0.454839
O O9 0.982122 0.863034 0.542281
O O10 0.440139 0.750000 0.250000
#
# Coordination Sequence:
#
# PCOD8215818 Si02
#       5
#     8   4   8   8   8
#     4   9  20  38  64  92 131 165 215 279 316 389
#     4  12  24  38  66  96 126 170 218 264 330 406
#     4  10  20  37  62  95 126 173 223 261 328 390
#     4  10  22  41  63  94 130 168 211 273 337 384
#     4  11  25  40  63  94 130 173 218 276 331 393
#
# _framework density 22.607202000000001
#
# number of rings (size 3 to 8) (size 9 to 14) (size 15 to 20)
#    0.000    1.778    0.000    3.333    9.333    0.000 
#    2.000    0.000    9.778    0.000    0.000    0.000 
#    0.000    0.000    0.000    0.000    0.000    0.000 
#
# Total GULP energy -446052.122809 kJ/mol
# GULP energy per Si atom -12390.336745 kJ/mol
# Density = 2.255575 g / cm^3
# Si number density = 22.607202 Si / 1000 Ang^3
#
#
#
# Elastic Constant Matrix: (Units=GPa)
#
#
# Indices 1 2 3 4 5 6 
#
# 1 133.2523 73.0050 44.8528 0.0000 0.0000 0.0000
# 2 73.0050 117.1955 33.8380 0.0000 0.0000 0.0000
# 3 44.8528 33.8380 77.2443 0.0000 0.0000 0.0000
# 4 0.0000 0.0000 0.0000 24.0915 0.0000 0.0000
# 5 0.0000 0.0000 0.0000 0.0000 8.9627 0.0000
# 6 0.0000 0.0000 0.0000 0.0000 0.0000 57.6883
#
#
#
# Elastic Compliance Matrix: (Units=1/GPa)
#
#
# Indices 1 2 3 4 5 6 
#
# 1 0.012595 -0.006564 -0.004438 0.000000 0.000000 0.000000
# 2 -0.006564 0.013190 -0.001966 0.000000 0.000000 0.000000
# 3 -0.004438 -0.001966 0.016384 0.000000 0.000000 0.000000
# 4 0.000000 0.000000 0.000000 0.041508 0.000000 0.000000
# 5 0.000000 0.000000 0.000000 0.000000 0.111574 0.000000
# 6 0.000000 0.000000 0.000000 0.000000 0.000000 0.017335
#
#
# Mechanical properties :
#
#
# Convention : Reuss Voigt Hill
#
# Bulk Modulus (GPa) = 61.60717 70.12042 65.86380
# Shear Modulus (GPa) = 20.49747 29.88158 25.18953
#
# Velocity S-wave (km/s) = 3.01438 3.63956 3.34162
# Velocity P-wave (km/s) = 6.27898 6.98184 6.63972
#
# Compressibility (1/GPa) = 0.01623188
#
# Stress axis : x y z
#
# Youngs Moduli (GPa) = 79.39843 75.81705 61.03504
#
# Poissons Ratio (x) = 0.49769 0.27085
# Poissons Ratio (y) = 0.52120 0.12001
# Poissons Ratio (z) = 0.35234 0.14907
#
# Static dielectric constant tensor:
#      x y z
#    x 4.089260 0.000000 0.000000 
#    y 0.000000 4.628390 0.000000 
#    z 0.000000 0.000000 3.607990 
# 
# 
# High freq. dielectric constant tensor:
#      x y z
#    x 1.880010 0.000000 0.000000 
#    y 0.000000 1.930570 0.000000 
#    z 0.000000 0.000000 1.851390 
# 
# From -- ./inp_files/17777.got.cif
#   From: 2010.06.25/outbox.cif.g09.slc.cpg/sg52_9_cif.got.tgz:17777.got - 2010.06.26 19:32:48.
