data_PCOD8215774
_publ_section_title
;
Structure prediction by ZEFSAII (Michael W. Deem and Ramdas Pophale) SiO2 
 PCOD8215774
Probable space group: P N N A
;
_chemical_formula_sum "Si O2"
_cell_formula_units_Z 40
_cell_length_a 9.491675
_cell_length_b 13.180856
_cell_length_c 15.485667
_cell_angle_alpha 90.000000
_cell_angle_beta 90.000000
_cell_angle_gamma 90.000000
_cell_volume 1937.387043
_symmetry_space_group_name_H-M "P N N A"
_symmetry_group_IT_number 52
_symmetry_cell_setting 'orthorhombic'
loop_
_space_group_symop_operation_xyz
x,y,z
1/2-x,-y,z
x,1/2-y,1/2-z
1/2-x,1/2+y,1/2-z
-x,-y,-z
1/2+x,y,-z
-x,1/2+y,1/2+z
1/2+x,1/2-y,1/2+z
loop_
_atom_site_type_symbol
_atom_site_label
_atom_site_fract_x
_atom_site_fract_y
_atom_site_fract_z
Si Si1 0.159064 0.750000 0.250000
Si Si2 0.843999 0.312154 0.174539
Si Si3 0.226806 0.885582 0.399131
Si Si4 0.750000 0.000000 0.230320
Si Si5 0.084695 0.326184 0.643138
Si Si6 0.481092 0.802826 0.497055
O O1 0.255713 0.815445 0.315227
O O2 0.060499 0.673993 0.304199
O O3 0.923213 0.250000 0.250000
O O4 0.840431 0.429594 0.204477
O O5 0.684042 0.270045 0.167282
O O6 0.927881 0.290469 0.088223
O O7 0.334369 0.857990 0.476029
O O8 0.067507 0.870685 0.433618
O O9 0.250000 0.000000 0.369601
O O10 0.657303 0.066838 0.164067
O O11 0.049152 0.307741 0.540985
#
# Coordination Sequence:
#
# PCOD8215774 Si02
#       6
#     4   8   8   4   8   8
#     4  10  22  42  62  90 138 164 208 274 334 370
#     4  10  21  37  62  91 124 163 214 260 310 383
#     4  11  25  40  67  93 128 168 214 265 329 387
#     4  10  20  36  70  90 120 174 224 248 324 398
#     4  10  20  42  60  93 127 171 207 273 322 378
#     4  11  23  40  64  93 133 163 214 272 320 377
#
# _framework density 20.646363999999998
#
# number of rings (size 3 to 8) (size 9 to 14) (size 15 to 20)
#    0.000    1.600    5.000    0.600    5.600    0.000 
#    0.000    4.000    2.200    0.000    0.000    0.000 
#    0.000    0.000    0.000    0.000    0.000    0.000 
#
# Total GULP energy -495773.511215 kJ/mol
# GULP energy per Si atom -12394.337780 kJ/mol
# Density = 2.059937 g / cm^3
# Si number density = 20.646364 Si / 1000 Ang^3
#
#
#
# Elastic Constant Matrix: (Units=GPa)
#
#
# Indices 1 2 3 4 5 6 
#
# 1 67.4787 33.3545 34.6605 0.0000 0.0000 0.0000
# 2 33.3545 131.5194 73.6977 0.0000 0.0000 0.0000
# 3 34.6605 73.6977 142.6247 0.0000 0.0000 0.0000
# 4 0.0000 0.0000 0.0000 29.5388 0.0000 0.0000
# 5 0.0000 0.0000 0.0000 0.0000 26.8455 0.0000
# 6 0.0000 0.0000 0.0000 0.0000 0.0000 24.1441
#
#
#
# Elastic Compliance Matrix: (Units=1/GPa)
#
#
# Indices 1 2 3 4 5 6 
#
# 1 0.017698 -0.002925 -0.002789 0.000000 0.000000 0.000000
# 2 -0.002925 0.011186 -0.005069 0.000000 0.000000 0.000000
# 3 -0.002789 -0.005069 0.010309 0.000000 0.000000 0.000000
# 4 0.000000 0.000000 0.000000 0.033854 0.000000 0.000000
# 5 0.000000 0.000000 0.000000 0.000000 0.037250 0.000000
# 6 0.000000 0.000000 0.000000 0.000000 0.000000 0.041418
#
#
# Mechanical properties :
#
#
# Convention : Reuss Voigt Hill
#
# Bulk Modulus (GPa) = 56.73759 69.44978 63.09368
# Shear Modulus (GPa) = 27.90843 29.43302 28.67072
#
# Velocity S-wave (km/s) = 3.68058 3.77978 3.73051
# Velocity P-wave (km/s) = 6.75297 7.26359 7.01293
#
# Compressibility (1/GPa) = 0.01762500
#
# Stress axis : x y z
#
# Youngs Moduli (GPa) = 56.50274 89.39891 97.00648
#
# Poissons Ratio (x) = 0.26153 0.27059
# Poissons Ratio (y) = 0.16529 0.49173
# Poissons Ratio (z) = 0.15761 0.45317
#
# Static dielectric constant tensor:
#      x y z
#    x 3.744130 0.000000 0.000000 
#    y 0.000000 3.504150 0.000000 
#    z 0.000000 0.000000 4.139060 
# 
# 
# High freq. dielectric constant tensor:
#      x y z
#    x 1.803640 0.000000 0.000000 
#    y 0.000000 1.779760 0.000000 
#    z 0.000000 0.000000 1.824030 
# 
# From -- ./inp_files/30924.got.cif
#   From: 2010.06.25/outbox.cif.g09.slc.cpg/sg52_16_cif.got.tgz:30924.got - 2010.06.26 19:32:48.
