data_PCOD8215668
_publ_section_title
;
Structure prediction by ZEFSAII (Michael W. Deem and Ramdas Pophale) SiO2 
 PCOD8215668
Probable space group: P N N A
;
_chemical_formula_sum "Si O2"
_cell_formula_units_Z 48
_cell_length_a 9.182128
_cell_length_b 14.088637
_cell_length_c 19.890958
_cell_angle_alpha 90.000000
_cell_angle_beta 90.000000
_cell_angle_gamma 90.000000
_cell_volume 2573.167292
_symmetry_space_group_name_H-M "P N N A"
_symmetry_group_IT_number 52
_symmetry_cell_setting 'orthorhombic'
loop_
_space_group_symop_operation_xyz
x,y,z
1/2-x,-y,z
x,1/2-y,1/2-z
1/2-x,1/2+y,1/2-z
-x,-y,-z
1/2+x,y,-z
-x,1/2+y,1/2+z
1/2+x,1/2-y,1/2+z
loop_
_atom_site_type_symbol
_atom_site_label
_atom_site_fract_x
_atom_site_fract_y
_atom_site_fract_z
Si Si1 0.237516 0.654758 0.041331
Si Si2 0.766791 0.642391 0.266893
Si Si3 0.944290 0.487491 0.196885
Si Si4 0.750000 0.500000 0.072418
Si Si5 0.250000 0.500000 0.150743
Si Si6 0.013102 0.282959 0.495694
Si Si7 0.238945 0.890031 0.923436
O O1 0.214898 0.590521 0.105812
O O2 0.387191 0.713883 0.050125
O O3 0.247170 0.594246 0.972652
O O4 0.097257 0.722045 0.040813
O O5 0.804586 0.750000 0.250000
O O6 0.899869 0.576503 0.243001
O O7 0.623224 0.609414 0.226345
O O8 0.741638 0.629178 0.344999
O O9 0.892876 0.502248 0.119582
O O10 0.116566 0.477916 0.199699
O O11 0.916697 0.352339 0.449703
O O12 0.121861 0.339635 0.543971
O O13 0.250000 0.000000 0.941133
#
# Coordination Sequence:
#
# PCOD8215668 Si02
#       7
#     8   8   8   4   4   8   8
#     4  10  20  35  53  96 117 161 175 242 284 349
#     4  10  23  40  66  79 111 159 206 235 277 356
#     4  10  22  39  58  92 109 163 194 236 290 356
#     4   9  18  34  62  78 132 155 194 212 288 361
#     4  11  22  34  58  84 142 137 184 238 306 337
#     4  10  23  33  64  86 114 146 202 237 289 342
#     4  11  22  44  60  85 112 148 198 250 295 335
#
# _framework density 18.654053000000001
#
# number of rings (size 3 to 8) (size 9 to 14) (size 15 to 20)
#    0.000    2.000    1.667    2.500   14.000    2.667 
#    0.000    4.167    0.000    0.000    0.000    0.000 
#    0.000    0.000    0.000    0.000    0.000    0.000 
#
# Total GULP energy -595236.493356 kJ/mol
# GULP energy per Si atom -12400.760278 kJ/mol
# Density = 1.861160 g / cm^3
# Si number density = 18.654053 Si / 1000 Ang^3
#
#
#
# Elastic Constant Matrix: (Units=GPa)
#
#
# Indices 1 2 3 4 5 6 
#
# 1 115.4551 12.1347 27.8693 0.0000 0.0000 0.0000
# 2 12.1347 90.9284 13.9936 0.0000 0.0000 0.0000
# 3 27.8693 13.9936 85.0654 0.0000 0.0000 0.0000
# 4 0.0000 0.0000 0.0000 22.0608 0.0000 0.0000
# 5 0.0000 0.0000 0.0000 0.0000 -12.8885 0.0000
# 6 0.0000 0.0000 0.0000 0.0000 0.0000 20.0387
#
#
#
# Elastic Compliance Matrix: (Units=1/GPa)
#
#
# Indices 1 2 3 4 5 6 
#
# 1 0.009462 -0.000806 -0.002967 0.000000 0.000000 0.000000
# 2 -0.000806 0.011352 -0.001603 0.000000 0.000000 0.000000
# 3 -0.002967 -0.001603 0.012992 0.000000 0.000000 0.000000
# 4 0.000000 0.000000 0.000000 0.045329 0.000000 0.000000
# 5 0.000000 0.000000 0.000000 0.000000 -0.077588 0.000000
# 6 0.000000 0.000000 0.000000 0.000000 0.000000 0.049903
#
#
# Mechanical properties :
#
#
# Convention : Reuss Voigt Hill
#
# Bulk Modulus (GPa) = 43.37990 44.38268 43.88129
# Shear Modulus (GPa) = 71.54260 21.67227 46.60743
#
# Velocity S-wave (km/s) = 6.19964 3.41222 5.00394
# Velocity P-wave (km/s) = 8.63440 6.27443 7.54723
#
# Compressibility (1/GPa) = 0.02305215
#
# Stress axis : x y z
#
# Youngs Moduli (GPa) = 105.68129 88.09030 76.97260
#
# Poissons Ratio (x) = 0.07101 0.22842
# Poissons Ratio (y) = 0.08519 0.12341
# Poissons Ratio (z) = 0.31361 0.14124
#
# Static dielectric constant tensor:
#      x y z
#    x 3.516310 0.000000 0.000000 
#    y 0.000000 3.770370 0.000000 
#    z 0.000000 0.000000 3.191240 
# 
# 
# High freq. dielectric constant tensor:
#      x y z
#    x 1.728600 0.000000 0.000000 
#    y 0.000000 1.736350 0.000000 
#    z 0.000000 0.000000 1.712480 
# 
# From -- ./inp_files/35927.got.cif
#   From: 2010.06.25/outbox.cif.g09.slc.cpg/sg52_18_cif.got.tgz:35927.got - 2010.06.26 19:32:48.
