data_PCOD8215098
_publ_section_title
;
Structure prediction by ZEFSAII (Michael W. Deem and Ramdas Pophale) SiO2 
 PCOD8215098
Probable space group: P N N A
;
_chemical_formula_sum "Si O2"
_cell_formula_units_Z 48
_cell_length_a 17.428190
_cell_length_b 18.620107
_cell_length_c 8.178065
_cell_angle_alpha 90.000000
_cell_angle_beta 90.000000
_cell_angle_gamma 90.000000
_cell_volume 2653.902822
_symmetry_space_group_name_H-M "P N N A"
_symmetry_group_IT_number 52
_symmetry_cell_setting 'orthorhombic'
loop_
_space_group_symop_operation_xyz
x,y,z
1/2-x,-y,z
x,1/2-y,1/2-z
1/2-x,1/2+y,1/2-z
-x,-y,-z
1/2+x,y,-z
-x,1/2+y,1/2+z
1/2+x,1/2-y,1/2+z
loop_
_atom_site_type_symbol
_atom_site_label
_atom_site_fract_x
_atom_site_fract_y
_atom_site_fract_z
Si Si1 0.566809 0.308245 0.615886
Si Si2 0.066809 0.691755 0.384114
Si Si3 0.337162 0.670331 0.684005
Si Si4 0.473441 0.417056 0.816136
Si Si5 0.473441 0.917056 0.683864
Si Si6 0.662838 0.829669 0.184005
O O1 0.591572 0.250000 0.750000
O O2 0.500000 0.274623 0.500000
O O3 0.640000 0.330054 0.507498
O O4 0.535483 0.380525 0.698240
O O5 0.091572 0.750000 0.250000
O O6 0.140000 0.669946 0.492502
O O7 0.035483 0.619475 0.301761
O O8 0.348618 0.750000 0.750000
O O9 0.389636 0.617546 0.791211
O O10 0.250000 0.643687 0.700955
O O11 0.468934 0.500000 0.768039
O O12 0.389635 0.382454 0.791211
O O13 0.500000 0.405342 0.000000
O O14 0.651382 0.750000 0.250000
#
# Coordination Sequence:
#
# PCOD8215098 Si02
#       6
#     8   8   8   8   8   8
#     4  10  18  31  53  77 102 133 170 210 248 294
#     4  10  18  31  53  77 102 133 170 210 248 294
#     4  10  21  35  52  76 105 135 167 207 255 302
#     4  10  20  35  55  76 100 134 173 210 250 299
#     4  10  20  35  55  76 100 134 173 210 250 299
#     4  10  21  35  52  76 105 135 167 207 255 302
#
# _framework density 18.086570999999999
#
# number of rings (size 3 to 8) (size 9 to 14) (size 15 to 20)
#    0.000    2.000    0.000    7.000    0.000    7.333 
#    0.000    1.667    0.000    2.000    0.000    0.000 
#    0.000    0.000    0.000    0.000    0.000    0.000 
#
# Total GULP energy -595303.711669 kJ/mol
# GULP energy per Si atom -12402.160660 kJ/mol
# Density = 1.804541 g / cm^3
# Si number density = 18.086571 Si / 1000 Ang^3
#
#
#
# Elastic Constant Matrix: (Units=GPa)
#
#
# Indices 1 2 3 4 5 6 
#
# 1 127.4937 77.2531 63.6654 0.0000 0.0000 0.0000
# 2 77.2531 119.2964 57.2283 0.0000 0.0000 0.0000
# 3 63.6654 57.2283 108.6265 0.0000 0.0000 0.0000
# 4 0.0000 0.0000 0.0000 32.1230 0.0000 0.0000
# 5 0.0000 0.0000 0.0000 0.0000 21.3836 0.0000
# 6 0.0000 0.0000 0.0000 0.0000 0.0000 9.4712
#
#
#
# Elastic Compliance Matrix: (Units=1/GPa)
#
#
# Indices 1 2 3 4 5 6 
#
# 1 0.014546 -0.007133 -0.004768 0.000000 0.000000 0.000000
# 2 -0.007133 0.014715 -0.003572 0.000000 0.000000 0.000000
# 3 -0.004768 -0.003572 0.013882 0.000000 0.000000 0.000000
# 4 0.000000 0.000000 0.000000 0.031130 0.000000 0.000000
# 5 0.000000 0.000000 0.000000 0.000000 0.046765 0.000000
# 6 0.000000 0.000000 0.000000 0.000000 0.000000 0.105583
#
#
# Mechanical properties :
#
#
# Convention : Reuss Voigt Hill
#
# Bulk Modulus (GPa) = 81.97695 83.52338 82.75017
# Shear Modulus (GPa) = 19.11078 23.08022 21.09550
#
# Velocity S-wave (km/s) = 3.25411 3.57613 3.41891
# Velocity P-wave (km/s) = 7.71635 7.95811 7.83817
#
# Compressibility (1/GPa) = 0.01219855
#
# Stress axis : x y z
#
# Youngs Moduli (GPa) = 68.74617 67.95847 72.03543
#
# Poissons Ratio (x) = 0.48472 0.34345
# Poissons Ratio (y) = 0.49034 0.25731
# Poissons Ratio (z) = 0.32777 0.24274
#
# Static dielectric constant tensor:
#      x y z
#    x 3.277820 0.000000 0.000000 
#    y 0.000000 3.291850 0.000000 
#    z 0.000000 0.000000 3.648370 
# 
# 
# High freq. dielectric constant tensor:
#      x y z
#    x 1.684340 0.000000 0.000000 
#    y 0.000000 1.697800 0.000000 
#    z 0.000000 0.000000 1.715980 
# 
# From -- ./inp_files/12263.got.cif
#   From: 2010.06.25/outbox.cif.g09.slc.cpg/sg52_7_cif.got.tgz:12263.got - 2010.06.26 19:32:48.
