data_PCOD8215205
_publ_section_title
;
Structure prediction by ZEFSAII (Michael W. Deem and Ramdas Pophale) SiO2 
 PCOD8215205
Probable space group: P N N A
;
_chemical_formula_sum "Si O2"
_cell_formula_units_Z 40
_cell_length_a 14.227619
_cell_length_b 16.815969
_cell_length_c 8.580389
_cell_angle_alpha 90.000000
_cell_angle_beta 90.000000
_cell_angle_gamma 90.000000
_cell_volume 2052.868365
_symmetry_space_group_name_H-M "P N N A"
_symmetry_group_IT_number 52
_symmetry_cell_setting 'orthorhombic'
loop_
_space_group_symop_operation_xyz
x,y,z
1/2-x,-y,z
x,1/2-y,1/2-z
1/2-x,1/2+y,1/2-z
-x,-y,-z
1/2+x,y,-z
-x,1/2+y,1/2+z
1/2+x,1/2-y,1/2+z
loop_
_atom_site_type_symbol
_atom_site_label
_atom_site_fract_x
_atom_site_fract_y
_atom_site_fract_z
Si Si1 0.717116 0.270951 0.920000
Si Si2 0.750000 0.000000 0.676808
Si Si3 0.974186 0.665064 0.800348
Si Si4 0.342758 0.099677 0.568688
Si Si5 0.250000 0.500000 0.672133
Si Si6 0.841908 0.602418 0.570482
O O1 0.759112 0.250000 0.750000
O O2 0.619771 0.320108 0.902315
O O3 0.697239 0.185393 0.999775
O O4 0.790732 0.318935 0.022933
O O5 0.666078 0.967157 0.565916
O O6 0.781150 0.925637 0.779933
O O7 0.018229 0.750000 0.750000
O O8 0.946735 0.616169 0.641386
O O9 0.047522 0.616228 0.903965
O O10 0.296891 0.069147 0.728064
O O11 0.166143 0.463104 0.565278
#
# Coordination Sequence:
#
# PCOD8215205 Si02
#       6
#     8   4   8   8   4   8
#     4   9  18  39  64  79 117 161 196 250 296 353
#     4  10  18  36  60  88 116 156 194 238 314 354
#     4   9  20  37  61  86 113 159 208 242 295 357
#     4  11  21  35  62  92 114 153 209 250 288 356
#     4  10  24  34  56  94 124 160 192 246 314 342
#     4   9  19  40  58  79 124 166 184 239 310 360
#
# _framework density 19.484929999999999
#
# number of rings (size 3 to 8) (size 9 to 14) (size 15 to 20)
#    0.000    2.800    4.000    0.000    2.800    1.600 
#    0.000    0.000    8.800    0.000    0.000    0.000 
#    0.000    0.000    0.000    0.000    0.000    0.000 
#
# Total GULP energy -495629.971158 kJ/mol
# GULP energy per Si atom -12390.749279 kJ/mol
# Density = 1.944058 g / cm^3
# Si number density = 19.484930 Si / 1000 Ang^3
#
#
#
# Elastic Constant Matrix: (Units=GPa)
#
#
# Indices 1 2 3 4 5 6 
#
# 1 83.9915 52.8582 48.3269 0.0000 0.0000 0.0000
# 2 52.8582 108.7930 51.3545 0.0000 0.0000 0.0000
# 3 48.3269 51.3545 101.4432 0.0000 0.0000 0.0000
# 4 0.0000 0.0000 0.0000 36.7429 0.0000 0.0000
# 5 0.0000 0.0000 0.0000 0.0000 14.5780 0.0000
# 6 0.0000 0.0000 0.0000 0.0000 0.0000 23.9863
#
#
#
# Elastic Compliance Matrix: (Units=1/GPa)
#
#
# Indices 1 2 3 4 5 6 
#
# 1 0.019519 -0.006694 -0.005910 0.000000 0.000000 0.000000
# 2 -0.006694 0.014373 -0.004088 0.000000 0.000000 0.000000
# 3 -0.005910 -0.004088 0.014743 0.000000 0.000000 0.000000
# 4 0.000000 0.000000 0.000000 0.027216 0.000000 0.000000
# 5 0.000000 0.000000 0.000000 0.000000 0.068597 0.000000
# 6 0.000000 0.000000 0.000000 0.000000 0.000000 0.041690
#
#
# Mechanical properties :
#
#
# Convention : Reuss Voigt Hill
#
# Bulk Modulus (GPa) = 65.56407 66.58967 66.07687
# Shear Modulus (GPa) = 22.26127 24.50731 23.38429
#
# Velocity S-wave (km/s) = 3.38374 3.55033 3.46804
# Velocity P-wave (km/s) = 6.99913 7.14532 7.07261
#
# Compressibility (1/GPa) = 0.01525226
#
# Stress axis : x y z
#
# Youngs Moduli (GPa) = 51.23193 69.57263 67.83071
#
# Poissons Ratio (x) = 0.46570 0.40089
# Poissons Ratio (y) = 0.34293 0.27726
# Poissons Ratio (z) = 0.30279 0.28438
#
# Static dielectric constant tensor:
#      x y z
#    x 3.187790 0.000000 0.000000 
#    y 0.000000 3.822650 0.000000 
#    z 0.000000 0.000000 3.449420 
# 
# 
# High freq. dielectric constant tensor:
#      x y z
#    x 1.719980 0.000000 0.000000 
#    y 0.000000 1.782320 0.000000 
#    z 0.000000 0.000000 1.745920 
# 
# From -- ./inp_files/10282.got.cif
#   From: 2010.06.25/outbox.cif.g09.slc.cpg/sg52_6_cif.got.tgz:10282.got - 2010.06.26 19:32:48.
