data_PCOD8215642
_publ_section_title
;
Structure prediction by ZEFSAII (Michael W. Deem and Ramdas Pophale) SiO2 
 PCOD8215642
Probable space group: P N N A
;
_chemical_formula_sum "Si O2"
_cell_formula_units_Z 40
_cell_length_a 15.064320
_cell_length_b 5.060897
_cell_length_c 25.347984
_cell_angle_alpha 90.000000
_cell_angle_beta 90.000000
_cell_angle_gamma 90.000000
_cell_volume 1932.504240
_symmetry_space_group_name_H-M "P N N A"
_symmetry_group_IT_number 52
_symmetry_cell_setting 'orthorhombic'
loop_
_space_group_symop_operation_xyz
x,y,z
1/2-x,-y,z
x,1/2-y,1/2-z
1/2-x,1/2+y,1/2-z
-x,-y,-z
1/2+x,y,-z
-x,1/2+y,1/2+z
1/2+x,1/2-y,1/2+z
loop_
_atom_site_type_symbol
_atom_site_label
_atom_site_fract_x
_atom_site_fract_y
_atom_site_fract_z
Si Si1 0.407176 0.757292 0.644336
Si Si2 0.545077 0.461402 0.589125
Si Si3 0.107505 0.846201 0.550927
Si Si4 0.812014 0.750000 0.250000
Si Si5 0.145469 0.978616 0.440986
Si Si6 0.750000 0.500000 0.414118
O O1 0.497565 0.580171 0.642007
O O2 0.379566 0.837598 0.703306
O O3 0.326755 0.585482 0.624226
O O4 0.418035 0.005997 0.605249
O O5 0.465155 0.391321 0.547606
O O6 0.613836 0.679418 0.568404
O O7 0.601322 0.192201 0.598731
O O8 0.108245 0.041415 0.500337
O O9 0.208579 0.732371 0.550197
O O10 0.750000 0.500000 0.263971
O O11 0.250000 0.000000 0.434324
#
# Coordination Sequence:
#
# PCOD8215642 Si02
#       6
#     8   8   8   4   8   4
#     4  11  23  41  61  90 132 168 214 255 313 373
#     4  11  25  41  61  91 127 170 210 263 316 375
#     4  11  23  38  61  89 133 170 218 252 316 371
#     4  12  26  42  66  98 132 170 214 256 312 378
#     4  12  25  40  62  92 125 170 217 264 312 372
#     4  10  20  34  56  90 122 174 206 260 294 368
#
# _framework density 20.698530000000002
#
# number of rings (size 3 to 8) (size 9 to 14) (size 15 to 20)
#    0.000    0.800    3.000    4.800   11.200    0.000 
#    0.000    0.000    0.000    0.000    0.000    2.800 
#    0.000    0.000    0.000    0.000    0.000    0.000 
#
# Total GULP energy -495542.191884 kJ/mol
# GULP energy per Si atom -12388.554797 kJ/mol
# Density = 2.065142 g / cm^3
# Si number density = 20.698530 Si / 1000 Ang^3
#
#
#
# Elastic Constant Matrix: (Units=GPa)
#
#
# Indices 1 2 3 4 5 6 
#
# 1 126.9145 42.2718 32.6942 0.0000 0.0000 0.0000
# 2 42.2718 111.6442 20.7840 0.0000 0.0000 0.0000
# 3 32.6942 20.7840 62.2499 0.0000 0.0000 0.0000
# 4 0.0000 0.0000 0.0000 16.7736 0.0000 0.0000
# 5 0.0000 0.0000 0.0000 0.0000 20.7364 0.0000
# 6 0.0000 0.0000 0.0000 0.0000 0.0000 34.7103
#
#
#
# Elastic Compliance Matrix: (Units=1/GPa)
#
#
# Indices 1 2 3 4 5 6 
#
# 1 0.009965 -0.002984 -0.004237 0.000000 0.000000 0.000000
# 2 -0.002984 0.010444 -0.001920 0.000000 0.000000 0.000000
# 3 -0.004237 -0.001920 0.018931 0.000000 0.000000 0.000000
# 4 0.000000 0.000000 0.000000 0.059618 0.000000 0.000000
# 5 0.000000 0.000000 0.000000 0.000000 0.048224 0.000000
# 6 0.000000 0.000000 0.000000 0.000000 0.000000 0.028810
#
#
# Mechanical properties :
#
#
# Convention : Reuss Voigt Hill
#
# Bulk Modulus (GPa) = 47.48938 54.70097 51.09518
# Shear Modulus (GPa) = 24.83937 28.11463 26.47700
#
# Velocity S-wave (km/s) = 3.46794 3.68950 3.58043
# Velocity P-wave (km/s) = 6.24729 6.68092 6.46774
#
# Compressibility (1/GPa) = 0.02105734
#
# Stress axis : x y z
#
# Youngs Moduli (GPa) = 100.35307 95.74582 52.82415
#
# Poissons Ratio (x) = 0.28572 0.22383
# Poissons Ratio (y) = 0.29947 0.10141
# Poissons Ratio (z) = 0.42522 0.18382
#
# Static dielectric constant tensor:
#      x y z
#    x 4.165310 0.000000 0.000000 
#    y 0.000000 4.019140 0.000000 
#    z 0.000000 0.000000 3.576130 
# 
# 
# High freq. dielectric constant tensor:
#      x y z
#    x 1.821830 0.000000 0.000000 
#    y 0.000000 1.829150 0.000000 
#    z 0.000000 0.000000 1.745640 
# 
# From -- ./inp_files/40508.got.cif
#   From: 2010.06.25/outbox.cif.g09.slc.cpg/sg52_21_cif.got.tgz:40508.got - 2010.06.26 19:32:48.
