data_PCOD8215488
_publ_section_title
;
Structure prediction by ZEFSAII (Michael W. Deem and Ramdas Pophale) SiO2 
 PCOD8215488
Probable space group: P N N A
;
_chemical_formula_sum "Si O2"
_cell_formula_units_Z 40
_cell_length_a 14.483093
_cell_length_b 14.275788
_cell_length_c 9.375675
_cell_angle_alpha 90.000000
_cell_angle_beta 90.000000
_cell_angle_gamma 90.000000
_cell_volume 1938.491736
_symmetry_space_group_name_H-M "P N N A"
_symmetry_group_IT_number 52
_symmetry_cell_setting 'orthorhombic'
loop_
_space_group_symop_operation_xyz
x,y,z
1/2-x,-y,z
x,1/2-y,1/2-z
1/2-x,1/2+y,1/2-z
-x,-y,-z
1/2+x,y,-z
-x,1/2+y,1/2+z
1/2+x,1/2-y,1/2+z
loop_
_atom_site_type_symbol
_atom_site_label
_atom_site_fract_x
_atom_site_fract_y
_atom_site_fract_z
Si Si1 0.060673 0.104627 0.145226
Si Si2 0.294045 0.750000 0.250000
Si Si3 0.264388 0.305471 0.955492
Si Si4 0.250000 0.500000 0.834335
Si Si5 0.919553 0.250000 0.250000
Si Si6 0.431627 0.554592 0.681745
Si Si7 0.615988 0.250000 0.250000
O O1 0.146654 0.154641 0.223859
O O2 0.977527 0.177515 0.156892
O O3 0.082909 0.076808 0.984331
O O4 0.022803 0.007677 0.217299
O O5 0.226975 0.772792 0.381612
O O6 0.238426 0.413693 0.941402
O O7 0.359823 0.297269 0.872910
O O8 0.182894 0.241743 0.887780
O O9 0.340449 0.498742 0.733427
O O10 0.444875 0.655548 0.759414
#
# Coordination Sequence:
#
# PCOD8215488 Si02
#       7
#     8   4   8   4   4   8   4
#     4  10  21  36  61  94 127 158 204 267 311 364
#     4  11  22  39  59  93 134 164 202 261 322 361
#     4  10  20  38  62  86 123 168 206 254 301 385
#     4  10  20  38  66  92 122 170 216 252 312 390
#     4  10  20  40  62  89 123 170 212 250 312 380
#     4  10  19  37  62  95 121 162 211 254 315 370
#     4   9  18  35  61  88 113 162 208 245 304 369
#
# _framework density 20.634599999999999
#
# number of rings (size 3 to 8) (size 9 to 14) (size 15 to 20)
#    0.000    2.000    4.000    0.000    0.000    0.000 
#    0.000   12.000    0.000    0.000    0.000    0.000 
#    0.000    0.000    0.000    0.000    0.000    0.000 
#
# Total GULP energy -495602.872916 kJ/mol
# GULP energy per Si atom -12390.071823 kJ/mol
# Density = 2.058763 g / cm^3
# Si number density = 20.634600 Si / 1000 Ang^3
#
#
#
# Elastic Constant Matrix: (Units=GPa)
#
#
# Indices 1 2 3 4 5 6 
#
# 1 47.9318 23.2748 28.0099 0.0000 0.0000 0.0000
# 2 23.2748 101.4125 24.7269 0.0000 0.0000 0.0000
# 3 28.0099 24.7269 118.8192 0.0000 0.0000 0.0000
# 4 0.0000 0.0000 0.0000 33.7665 0.0000 0.0000
# 5 0.0000 0.0000 0.0000 0.0000 18.8334 0.0000
# 6 0.0000 0.0000 0.0000 0.0000 0.0000 27.2810
#
#
#
# Elastic Compliance Matrix: (Units=1/GPa)
#
#
# Indices 1 2 3 4 5 6 
#
# 1 0.026200 -0.004748 -0.005188 0.000000 0.000000 0.000000
# 2 -0.004748 0.011248 -0.001222 0.000000 0.000000 0.000000
# 3 -0.005188 -0.001222 0.009893 0.000000 0.000000 0.000000
# 4 0.000000 0.000000 0.000000 0.029615 0.000000 0.000000
# 5 0.000000 0.000000 0.000000 0.000000 0.053097 0.000000
# 6 0.000000 0.000000 0.000000 0.000000 0.000000 0.036656
#
#
# Mechanical properties :
#
#
# Convention : Reuss Voigt Hill
#
# Bulk Modulus (GPa) = 39.95798 46.68742 43.32270
# Shear Modulus (GPa) = 25.33339 28.78631 27.05985
#
# Velocity S-wave (km/s) = 3.50768 3.73909 3.62523
# Velocity P-wave (km/s) = 5.98428 6.42775 6.20998
#
# Compressibility (1/GPa) = 0.02502629
#
# Stress axis : x y z
#
# Youngs Moduli (GPa) = 38.16723 88.90242 101.07738
#
# Poissons Ratio (x) = 0.42212 0.52442
# Poissons Ratio (y) = 0.18122 0.12347
# Poissons Ratio (z) = 0.19802 0.10860
#
# Static dielectric constant tensor:
#      x y z
#    x 3.551650 0.000000 0.000000 
#    y 0.000000 4.180430 0.000000 
#    z 0.000000 0.000000 3.551800 
# 
# 
# High freq. dielectric constant tensor:
#      x y z
#    x 1.783370 0.000000 0.000000 
#    y 0.000000 1.825920 0.000000 
#    z 0.000000 0.000000 1.791350 
# 
# From -- ./inp_files/10091.got.cif
#   From: 2010.06.25/outbox.cif.g09.slc.cpg/sg52_6_cif.got.tgz:10091.got - 2010.06.26 19:32:48.
