data_PCOD8215292
_publ_section_title
;
Structure prediction by ZEFSAII (Michael W. Deem and Ramdas Pophale) SiO2 
 PCOD8215292
Probable space group: P N N A
;
_chemical_formula_sum "Si O2"
_cell_formula_units_Z 64
_cell_length_a 20.514132
_cell_length_b 17.989781
_cell_length_c 9.146238
_cell_angle_alpha 90.000000
_cell_angle_beta 90.000000
_cell_angle_gamma 90.000000
_cell_volume 3375.371044
_symmetry_space_group_name_H-M "P N N A"
_symmetry_group_IT_number 52
_symmetry_cell_setting 'orthorhombic'
loop_
_space_group_symop_operation_xyz
x,y,z
1/2-x,-y,z
x,1/2-y,1/2-z
1/2-x,1/2+y,1/2-z
-x,-y,-z
1/2+x,y,-z
-x,1/2+y,1/2+z
1/2+x,1/2-y,1/2+z
loop_
_atom_site_type_symbol
_atom_site_label
_atom_site_fract_x
_atom_site_fract_y
_atom_site_fract_z
Si Si1 0.127039 0.096552 0.921092
Si Si2 0.118109 0.575577 0.920339
Si Si3 0.745049 0.911805 0.585055
Si Si4 0.991497 0.835732 0.917094
Si Si5 0.508503 0.335732 0.917094
Si Si6 0.254951 0.411805 0.414945
Si Si7 0.881891 0.075577 0.079661
Si Si8 0.872961 0.596552 0.078908
O O1 0.135257 0.110054 0.750000
O O2 0.110409 0.011199 0.957611
O O3 0.069643 0.147724 0.980912
O O4 0.193872 0.122311 0.998159
O O5 0.132010 0.588409 0.750000
O O6 0.110409 0.488801 0.957611
O O7 0.052508 0.615916 0.972214
O O8 0.177998 0.612388 0.007715
O O9 0.745685 0.880926 0.750000
O O10 0.806128 0.877689 0.498159
O O11 0.750000 0.000000 0.581508
O O12 0.010935 0.750000 0.931707
O O13 0.973803 0.856519 0.750000
O O14 0.052508 0.884084 0.972214
O O15 0.569643 0.352276 0.019088
O O16 0.250000 0.500000 0.418492
O O17 0.322002 0.387612 0.492285
#
# Coordination Sequence:
#
# PCOD8215292 Si02
#       8
#     8   8   8   8   8   8   8   8
#     4  10  19  32  53  78 103 132 168 210 253 301
#     4   9  18  33  53  77 103 132 168 210 256 302
#     4   9  17  30  51  78 104 130 165 210 256 301
#     4  10  21  36  52  72 102 137 170 207 252 301
#     4  10  21  36  52  72 102 137 170 207 252 301
#     4   9  17  30  51  78 104 130 165 210 256 301
#     4   9  18  33  53  77 103 132 168 210 256 302
#     4  10  19  32  53  78 103 132 168 210 253 301
#
# _framework density 18.960877
#
# number of rings (size 3 to 8) (size 9 to 14) (size 15 to 20)
#    0.000    2.500    0.000    2.250    0.000    5.500 
#    0.000    1.250    0.000    4.500    0.000    0.000 
#    0.000    0.000    0.000    0.000    0.000    0.000 
#
# Total GULP energy -793809.975786 kJ/mol
# GULP energy per Si atom -12403.280872 kJ/mol
# Density = 1.891772 g / cm^3
# Si number density = 18.960877 Si / 1000 Ang^3
#
#
#
# Elastic Constant Matrix: (Units=GPa)
#
#
# Indices 1 2 3 4 5 6 
#
# 1 128.4192 19.6172 56.7494 0.0000 0.0000 0.0000
# 2 19.6172 33.5841 18.1199 0.0000 0.0000 0.0000
# 3 56.7494 18.1199 93.5245 0.0000 0.0000 0.0000
# 4 0.0000 0.0000 0.0000 18.4279 0.0000 0.0000
# 5 0.0000 0.0000 0.0000 0.0000 41.5556 0.0000
# 6 0.0000 0.0000 0.0000 0.0000 0.0000 6.9059
#
#
#
# Elastic Compliance Matrix: (Units=1/GPa)
#
#
# Indices 1 2 3 4 5 6 
#
# 1 0.010927 -0.003133 -0.006024 0.000000 0.000000 0.000000
# 2 -0.003133 0.034150 -0.004715 0.000000 0.000000 0.000000
# 3 -0.006024 -0.004715 0.015261 0.000000 0.000000 0.000000
# 4 0.000000 0.000000 0.000000 0.054266 0.000000 0.000000
# 5 0.000000 0.000000 0.000000 0.000000 0.024064 0.000000
# 6 0.000000 0.000000 0.000000 0.000000 0.000000 0.144803
#
#
# Mechanical properties :
#
#
# Convention : Reuss Voigt Hill
#
# Bulk Modulus (GPa) = 30.67982 49.38895 40.03439
# Shear Modulus (GPa) = 15.52409 24.11398 19.81903
#
# Velocity S-wave (km/s) = 2.86447 3.57006 3.23655
# Velocity P-wave (km/s) = 5.21114 6.56492 5.92681
#
# Compressibility (1/GPa) = 0.03259471
#
# Stress axis : x y z
#
# Youngs Moduli (GPa) = 91.51237 29.28241 65.52640
#
# Poissons Ratio (x) = 0.09174 0.39471
# Poissons Ratio (y) = 0.28671 0.30898
# Poissons Ratio (z) = 0.55124 0.13808
#
# Static dielectric constant tensor:
#      x y z
#    x 3.595540 0.000000 0.000000 
#    y 0.000000 3.120360 0.000000 
#    z 0.000000 0.000000 3.524960 
# 
# 
# High freq. dielectric constant tensor:
#      x y z
#    x 1.749290 0.000000 0.000000 
#    y 0.000000 1.700170 0.000000 
#    z 0.000000 0.000000 1.740790 
# 
# From -- ./inp_files/13600.got.cif
#   From: 2010.06.25/outbox.cif.g09.slc.cpg/sg52_7_cif.got.tgz:13600.got - 2010.06.26 19:32:48.
