data_PCOD8215896
_publ_section_title
;
Structure prediction by ZEFSAII (Michael W. Deem and Ramdas Pophale) SiO2 
 PCOD8215896
Probable space group: P N N A
;
_chemical_formula_sum "Si O2"
_cell_formula_units_Z 40
_cell_length_a 10.217080
_cell_length_b 20.470787
_cell_length_c 8.670157
_cell_angle_alpha 90.000000
_cell_angle_beta 90.000000
_cell_angle_gamma 90.000000
_cell_volume 1813.377802
_symmetry_space_group_name_H-M "P N N A"
_symmetry_group_IT_number 52
_symmetry_cell_setting 'orthorhombic'
loop_
_space_group_symop_operation_xyz
x,y,z
1/2-x,-y,z
x,1/2-y,1/2-z
1/2-x,1/2+y,1/2-z
-x,-y,-z
1/2+x,y,-z
-x,1/2+y,1/2+z
1/2+x,1/2-y,1/2+z
loop_
_atom_site_type_symbol
_atom_site_label
_atom_site_fract_x
_atom_site_fract_y
_atom_site_fract_z
Si Si1 0.646969 0.834932 0.088363
Si Si2 0.929239 0.804772 0.135144
Si Si3 0.503829 0.428015 0.165999
Si Si4 0.985367 0.422710 0.182813
Si Si5 0.752842 0.429491 0.665960
O O1 0.775178 0.788725 0.103729
O O2 0.623226 0.872817 0.250442
O O3 0.516803 0.798459 0.021810
O O4 0.680603 0.884866 0.956685
O O5 0.985844 0.750000 0.250000
O O6 0.933534 0.877058 0.213024
O O7 0.561395 0.501392 0.194059
O O8 0.346403 0.432170 0.183773
O O9 0.526352 0.404601 0.991204
O O10 0.109204 0.406358 0.289921
O O11 0.750000 0.500000 0.587036
#
# Coordination Sequence:
#
# PCOD8215896 Si02
#       5
#     8   8   8   8   8
#     4  11  23  42  68  93 126 171 214 271 322 380
#     4  11  26  46  64  93 128 170 225 259 319 391
#     4   9  22  38  63  96 134 167 208 271 320 389
#     4  10  20  38  65  99 130 167 210 265 339 373
#     4   9  19  35  58  95 130 160 208 260 318 382
#
# _framework density 22.058281000000001
#
# number of rings (size 3 to 8) (size 9 to 14) (size 15 to 20)
#    0.000    2.000    2.000    0.000    5.600    4.000 
#    3.600    1.000    0.000    0.000    0.000    0.000 
#    0.000    0.000    0.000    0.000    0.000    0.000 
#
# Total GULP energy -495699.996112 kJ/mol
# GULP energy per Si atom -12392.499903 kJ/mol
# Density = 2.200808 g / cm^3
# Si number density = 22.058281 Si / 1000 Ang^3
#
#
#
# Elastic Constant Matrix: (Units=GPa)
#
#
# Indices 1 2 3 4 5 6 
#
# 1 89.3710 14.0868 12.0243 0.0000 0.0000 0.0000
# 2 14.0868 46.5165 13.0720 0.0000 0.0000 0.0000
# 3 12.0243 13.0720 78.0036 0.0000 0.0000 0.0000
# 4 0.0000 0.0000 0.0000 28.1985 0.0000 0.0000
# 5 0.0000 0.0000 0.0000 0.0000 -2.6527 0.0000
# 6 0.0000 0.0000 0.0000 0.0000 0.0000 15.2374
#
#
#
# Elastic Compliance Matrix: (Units=1/GPa)
#
#
# Indices 1 2 3 4 5 6 
#
# 1 0.011872 -0.003233 -0.001288 0.000000 0.000000 0.000000
# 2 -0.003233 0.023441 -0.003430 0.000000 0.000000 0.000000
# 3 -0.001288 -0.003430 0.013593 0.000000 0.000000 0.000000
# 4 0.000000 0.000000 0.000000 0.035463 0.000000 0.000000
# 5 0.000000 0.000000 0.000000 0.000000 -0.376980 0.000000
# 6 0.000000 0.000000 0.000000 0.000000 0.000000 0.065628
#
#
# Mechanical properties :
#
#
# Convention : Reuss Voigt Hill
#
# Bulk Modulus (GPa) = 30.29984 32.47305 31.38645
# Shear Modulus (GPa) = -24.99017 19.80384 -2.59317
#
# Velocity S-wave (km/s) = -3.36953 2.99957 -1.08543
# Velocity P-wave (km/s) = 1.17143 5.17204 3.56215
#
# Compressibility (1/GPa) = 0.03300347
#
# Stress axis : x y z
#
# Youngs Moduli (GPa) = 84.22983 42.66076 73.56572
#
# Poissons Ratio (x) = 0.13794 0.09477
# Poissons Ratio (y) = 0.27234 0.25232
# Poissons Ratio (z) = 0.10851 0.14632
#
# Static dielectric constant tensor:
#      x y z
#    x 4.294440 0.000000 0.000000 
#    y 0.000000 3.771030 0.000000 
#    z 0.000000 0.000000 4.089250 
# 
# 
# High freq. dielectric constant tensor:
#      x y z
#    x 1.872270 0.000000 0.000000 
#    y 0.000000 1.842960 0.000000 
#    z 0.000000 0.000000 1.865170 
# 
# From -- ./inp_files/8493.got.cif
#   From: 2010.06.25/outbox.cif.g09.slc.cpg/sg52_5_cif.got.tgz:8493.got - 2010.06.26 19:32:48.
