data_PCOD8215114
_publ_section_title
;
Structure prediction by ZEFSAII (Michael W. Deem and Ramdas Pophale) SiO2 
 PCOD8215114
Probable space group: P N N A
;
_chemical_formula_sum "Si O2"
_cell_formula_units_Z 44
_cell_length_a 16.618737
_cell_length_b 21.775471
_cell_length_c 5.582177
_cell_angle_alpha 90.000000
_cell_angle_beta 90.000000
_cell_angle_gamma 90.000000
_cell_volume 2020.082821
_symmetry_space_group_name_H-M "P N N A"
_symmetry_group_IT_number 52
_symmetry_cell_setting 'orthorhombic'
loop_
_space_group_symop_operation_xyz
x,y,z
1/2-x,-y,z
x,1/2-y,1/2-z
1/2-x,1/2+y,1/2-z
-x,-y,-z
1/2+x,y,-z
-x,1/2+y,1/2+z
1/2+x,1/2-y,1/2+z
loop_
_atom_site_type_symbol
_atom_site_label
_atom_site_fract_x
_atom_site_fract_y
_atom_site_fract_z
Si Si1 0.750000 0.500000 0.090176
Si Si2 0.346579 0.277564 0.497423
Si Si3 0.472104 0.768941 0.501854
Si Si4 0.095264 0.996635 0.263639
Si Si5 0.988877 0.404093 0.080287
Si Si6 0.662097 0.910299 0.120857
O O1 0.740786 0.562618 0.246581
O O2 0.830135 0.508282 0.938275
O O3 0.311102 0.250000 0.750000
O O4 0.442542 0.267099 0.497257
O O5 0.319806 0.349337 0.468036
O O6 0.309733 0.250000 0.250000
O O7 0.426314 0.750000 0.750000
O O8 0.474385 0.841965 0.519094
O O9 0.428251 0.750000 0.250000
O O10 0.028382 0.949172 0.359368
O O11 0.127575 0.969576 0.017289
O O12 0.049831 0.062052 0.233103
O O13 0.904298 0.385796 0.195352
#
# Coordination Sequence:
#
# PCOD8215114 Si02
#       6
#     4   8   8   8   8   8
#     4  10  24  38  56  86 116 174 208 254 314 374
#     4  10  19  32  57  90 121 152 196 257 304 365
#     4  10  18  32  53  88 120 154 188 246 310 362
#     4  10  21  37  58  85 121 157 201 257 311 367
#     4  10  20  34  58  93 117 150 203 257 315 372
#     4  11  20  37  59  88 126 155 209 260 318 375
#
# _framework density 21.781286000000001
#
# number of rings (size 3 to 8) (size 9 to 14) (size 15 to 20)
#    0.000    1.818    3.636    3.273    2.545    0.000 
#    0.000    0.000    0.000    1.091    0.000    0.000 
#    0.000    0.000    0.000    0.000    0.000    0.000 
#
# Total GULP energy -545126.788624 kJ/mol
# GULP energy per Si atom -12389.245196 kJ/mol
# Density = 2.173171 g / cm^3
# Si number density = 21.781286 Si / 1000 Ang^3
#
#
#
# Elastic Constant Matrix: (Units=GPa)
#
#
# Indices 1 2 3 4 5 6 
#
# 1 28.9397 19.2128 -0.5984 0.0000 0.0000 0.0000
# 2 19.2128 122.4010 26.6269 0.0000 0.0000 0.0000
# 3 -0.5984 26.6269 132.2697 0.0000 0.0000 0.0000
# 4 0.0000 0.0000 0.0000 34.1854 0.0000 0.0000
# 5 0.0000 0.0000 0.0000 0.0000 5.7563 0.0000
# 6 0.0000 0.0000 0.0000 0.0000 0.0000 19.9021
#
#
#
# Elastic Compliance Matrix: (Units=1/GPa)
#
#
# Indices 1 2 3 4 5 6 
#
# 1 0.038845 -0.006417 0.001467 0.000000 0.000000 0.000000
# 2 -0.006417 0.009604 -0.001962 0.000000 0.000000 0.000000
# 3 0.001467 -0.001962 0.007962 0.000000 0.000000 0.000000
# 4 0.000000 0.000000 0.000000 0.029252 0.000000 0.000000
# 5 0.000000 0.000000 0.000000 0.000000 0.173724 0.000000
# 6 0.000000 0.000000 0.000000 0.000000 0.000000 0.050246
#
#
# Mechanical properties :
#
#
# Convention : Reuss Voigt Hill
#
# Bulk Modulus (GPa) = 23.48092 41.56589 32.52341
# Shear Modulus (GPa) = 14.80817 27.86002 21.33410
#
# Velocity S-wave (km/s) = 2.61024 3.58030 3.13304
# Velocity P-wave (km/s) = 4.45962 6.01799 5.29643
#
# Compressibility (1/GPa) = 0.04258777
#
# Stress axis : x y z
#
# Youngs Moduli (GPa) = 25.74347 104.12395 125.59678
#
# Poissons Ratio (x) = 0.66811 -0.18430
# Poissons Ratio (y) = 0.16518 0.24647
# Poissons Ratio (z) = -0.03778 0.20433
#
# Static dielectric constant tensor:
#      x y z
#    x 3.443910 0.000000 0.000000 
#    y 0.000000 4.034740 0.000000 
#    z 0.000000 0.000000 4.458180 
# 
# 
# High freq. dielectric constant tensor:
#      x y z
#    x 1.789090 0.000000 0.000000 
#    y 0.000000 1.866610 0.000000 
#    z 0.000000 0.000000 1.866700 
# 
# From -- ./inp_files/4309.got.cif
#   From: 2010.06.25/outbox.cif.g09.slc.cpg/sg52_3_cif.got.tgz:4309.got - 2010.06.26 19:32:48.
