data_PCOD8215956
_publ_section_title
;
Structure prediction by ZEFSAII (Michael W. Deem and Ramdas Pophale) SiO2 
 PCOD8215956
Probable space group: P N N A
;
_chemical_formula_sum "Si O2"
_cell_formula_units_Z 40
_cell_length_a 9.781528
_cell_length_b 7.878056
_cell_length_c 24.330088
_cell_angle_alpha 90.000000
_cell_angle_beta 90.000000
_cell_angle_gamma 90.000000
_cell_volume 1874.862600
_symmetry_space_group_name_H-M "P N N A"
_symmetry_group_IT_number 52
_symmetry_cell_setting 'orthorhombic'
loop_
_space_group_symop_operation_xyz
x,y,z
1/2-x,-y,z
x,1/2-y,1/2-z
1/2-x,1/2+y,1/2-z
-x,-y,-z
1/2+x,y,-z
-x,1/2+y,1/2+z
1/2+x,1/2-y,1/2+z
loop_
_atom_site_type_symbol
_atom_site_label
_atom_site_fract_x
_atom_site_fract_y
_atom_site_fract_z
Si Si1 0.514742 0.286050 0.877384
Si Si2 0.904879 0.061734 0.274179
Si Si3 0.295698 0.196373 0.089024
Si Si4 0.878100 0.118346 0.483707
Si Si5 0.594207 0.957567 0.814690
O O1 0.466188 0.434105 0.835821
O O2 0.667658 0.323252 0.900563
O O3 0.409428 0.278159 0.928169
O O4 0.517176 0.106838 0.847214
O O5 0.914263 0.250000 0.250000
O O6 0.750000 0.000000 0.274503
O O7 0.999547 0.929478 0.239002
O O8 0.397679 0.202654 0.142598
O O9 0.250000 0.000000 0.085271
O O10 0.365517 0.245341 0.032409
O O11 0.750000 0.000000 0.473324
O O12 0.000000 0.000000 0.500000
O O13 0.750000 0.000000 0.795447
#
# Coordination Sequence:
#
# PCOD8215956 Si02
#       5
#     8   8   8   8   8
#     4   9  19  39  62  82 124 160 200 250 305 356
#     4  10  20  40  60  87 124 153 198 255 309 364
#     4   9  20  41  65  89 118 162 217 251 300 374
#     4  12  23  40  59  92 128 161 201 253 313 369
#     4   8  18  39  64  86 113 156 212 252 293 358
#
# _framework density 21.334894999999999
#
# number of rings (size 3 to 8) (size 9 to 14) (size 15 to 20)
#    0.000    2.800    2.000    0.600    0.000    3.200 
#   14.400    4.000    0.000    0.000    0.000    0.000 
#    0.000    0.000    0.000    0.000    0.000    0.000 
#
# Total GULP energy -495572.461290 kJ/mol
# GULP energy per Si atom -12389.311532 kJ/mol
# Density = 2.128634 g / cm^3
# Si number density = 21.334895 Si / 1000 Ang^3
#
#
#
# Elastic Constant Matrix: (Units=GPa)
#
#
# Indices 1 2 3 4 5 6 
#
# 1 149.3599 39.3631 92.0134 0.0000 0.0000 0.0000
# 2 39.3631 32.6455 32.6472 0.0000 0.0000 0.0000
# 3 92.0134 32.6472 191.6794 0.0000 0.0000 0.0000
# 4 0.0000 0.0000 0.0000 15.1933 0.0000 0.0000
# 5 0.0000 0.0000 0.0000 0.0000 31.4510 0.0000
# 6 0.0000 0.0000 0.0000 0.0000 0.0000 33.6141
#
#
#
# Elastic Compliance Matrix: (Units=1/GPa)
#
#
# Indices 1 2 3 4 5 6 
#
# 1 0.011839 -0.010355 -0.003919 0.000000 0.000000 0.000000
# 2 -0.010355 0.045979 -0.002860 0.000000 0.000000 0.000000
# 3 -0.003919 -0.002860 0.007586 0.000000 0.000000 0.000000
# 4 0.000000 0.000000 0.000000 0.065819 0.000000 0.000000
# 5 0.000000 0.000000 0.000000 0.000000 0.031796 0.000000
# 6 0.000000 0.000000 0.000000 0.000000 0.000000 0.029749
#
#
# Mechanical properties :
#
#
# Convention : Reuss Voigt Hill
#
# Bulk Modulus (GPa) = 32.11997 77.97024 55.04511
# Shear Modulus (GPa) = 21.06021 30.02908 25.54465
#
# Velocity S-wave (km/s) = 3.14526 3.75575 3.46398
# Velocity P-wave (km/s) = 5.31771 7.44532 6.46958
#
# Compressibility (1/GPa) = 0.03113328
#
# Stress axis : x y z
#
# Youngs Moduli (GPa) = 84.46728 21.74919 131.82809
#
# Poissons Ratio (x) = 0.22522 0.51668
# Poissons Ratio (y) = 0.87470 0.37705
# Poissons Ratio (z) = 0.33106 0.06221
#
# Static dielectric constant tensor:
#      x y z
#    x 4.201150 0.000000 0.000000 
#    y 0.000000 3.557030 0.000000 
#    z 0.000000 0.000000 5.309860 
# 
# 
# High freq. dielectric constant tensor:
#      x y z
#    x 1.833120 0.000000 0.000000 
#    y 0.000000 1.809900 0.000000 
#    z 0.000000 0.000000 1.857030 
# 
# From -- ./inp_files/42115.got.cif
#   From: 2010.06.25/outbox.cif.g09.slc.cpg/sg52_22_cif.got.tgz:42115.got - 2010.06.26 19:32:48.
