data_PCOD8215847
_publ_section_title
;
Structure prediction by ZEFSAII (Michael W. Deem and Ramdas Pophale) SiO2 
 PCOD8215847
Probable space group: P N N A
;
_chemical_formula_sum "Si O2"
_cell_formula_units_Z 52
_cell_length_a 9.588651
_cell_length_b 11.745867
_cell_length_c 24.812313
_cell_angle_alpha 90.000000
_cell_angle_beta 90.000000
_cell_angle_gamma 90.000000
_cell_volume 2794.536857
_symmetry_space_group_name_H-M "P N N A"
_symmetry_group_IT_number 52
_symmetry_cell_setting 'orthorhombic'
loop_
_space_group_symop_operation_xyz
x,y,z
1/2-x,-y,z
x,1/2-y,1/2-z
1/2-x,1/2+y,1/2-z
-x,-y,-z
1/2+x,y,-z
-x,1/2+y,1/2+z
1/2+x,1/2-y,1/2+z
loop_
_atom_site_type_symbol
_atom_site_label
_atom_site_fract_x
_atom_site_fract_y
_atom_site_fract_z
Si Si1 0.089417 0.889392 0.388843
Si Si2 0.751486 0.369579 0.462932
Si Si3 0.853928 0.303789 0.347037
Si Si4 0.609686 0.330182 0.202385
Si Si5 0.992949 0.269382 0.991625
Si Si6 0.750000 0.000000 0.228905
Si Si7 0.407332 0.653866 0.107500
O O1 0.023770 0.868504 0.447629
O O2 0.241905 0.832021 0.386357
O O3 0.008659 0.825241 0.342063
O O4 0.068707 0.022600 0.376954
O O5 0.750000 0.500000 0.481569
O O6 0.806592 0.358510 0.402703
O O7 0.846642 0.294550 0.502056
O O8 0.595682 0.325113 0.468197
O O9 0.753388 0.204838 0.326520
O O10 0.840984 0.408153 0.304979
O O11 0.006962 0.243328 0.354211
O O12 0.558629 0.250000 0.250000
O O13 0.632846 0.449694 0.231728
O O14 0.046246 0.327054 0.046130
#
# Coordination Sequence:
#
# PCOD8215847 Si02
#       7
#     8   8   8   8   8   4   8
#     4  11  21  40  58  84 124 154 196 247 294 353
#     4  11  21  36  58  87 119 159 192 237 291 355
#     4  10  20  38  60  87 121 150 201 248 296 358
#     4  10  21  37  61  86 110 154 201 250 302 344
#     4  11  21  38  57  87 123 154 194 235 291 363
#     4  10  20  38  64  88 114 152 206 260 300 350
#     4  10  23  37  59  89 119 160 192 238 301 360
#
# _framework density 18.607735000000002
#
# number of rings (size 3 to 8) (size 9 to 14) (size 15 to 20)
#    0.000    1.538    3.846    1.846    0.000    0.000 
#    0.000    5.385    0.000    0.000    0.000    0.000 
#    0.000    0.000    0.000    0.000    0.000    0.000 
#
# Total GULP energy -644460.359801 kJ/mol
# GULP energy per Si atom -12393.468458 kJ/mol
# Density = 1.856538 g / cm^3
# Si number density = 18.607735 Si / 1000 Ang^3
#
#
#
# Elastic Constant Matrix: (Units=GPa)
#
#
# Indices 1 2 3 4 5 6 
#
# 1 99.8029 47.5341 62.1108 0.0000 0.0000 0.0000
# 2 47.5341 86.6462 35.2559 0.0000 0.0000 0.0000
# 3 62.1108 35.2559 81.8573 0.0000 0.0000 0.0000
# 4 0.0000 0.0000 0.0000 98.1203 0.0000 0.0000
# 5 0.0000 0.0000 0.0000 0.0000 12.1196 0.0000
# 6 0.0000 0.0000 0.0000 0.0000 0.0000 23.4557
#
#
#
# Elastic Compliance Matrix: (Units=1/GPa)
#
#
# Indices 1 2 3 4 5 6 
#
# 1 0.021445 -0.006237 -0.013586 0.000000 0.000000 0.000000
# 2 -0.006237 0.015807 -0.002076 0.000000 0.000000 0.000000
# 3 -0.013586 -0.002076 0.023419 0.000000 0.000000 0.000000
# 4 0.000000 0.000000 0.000000 0.010192 0.000000 0.000000
# 5 0.000000 0.000000 0.000000 0.000000 0.082511 0.000000
# 6 0.000000 0.000000 0.000000 0.000000 0.000000 0.042634
#
#
# Mechanical properties :
#
#
# Convention : Reuss Voigt Hill
#
# Bulk Modulus (GPa) = 59.26102 62.01200 60.63651
# Shear Modulus (GPa) = 20.37250 34.96615 27.66932
#
# Velocity S-wave (km/s) = 3.31243 4.33958 3.86032
# Velocity P-wave (km/s) = 6.82248 7.64902 7.24754
#
# Compressibility (1/GPa) = 0.01687450
#
# Stress axis : x y z
#
# Youngs Moduli (GPa) = 46.63087 63.26159 42.70064
#
# Poissons Ratio (x) = 0.39455 0.58012
# Poissons Ratio (y) = 0.29083 0.08864
# Poissons Ratio (z) = 0.63351 0.13133
#
# Static dielectric constant tensor:
#      x y z
#    x 3.416590 0.000000 0.000000 
#    y 0.000000 3.394040 0.000000 
#    z 0.000000 0.000000 3.495860 
# 
# 
# High freq. dielectric constant tensor:
#      x y z
#    x 1.715210 0.000000 0.000000 
#    y 0.000000 1.728020 0.000000 
#    z 0.000000 0.000000 1.729790 
# 
# From -- ./inp_files/42297.got.cif
#   From: 2010.06.25/outbox.cif.g09.slc.cpg/sg52_22_cif.got.tgz:42297.got - 2010.06.26 19:32:48.
