data_PCOD8215584
_publ_section_title
;
Structure prediction by ZEFSAII (Michael W. Deem and Ramdas Pophale) SiO2 
 PCOD8215584
Probable space group: P N N A
;
_chemical_formula_sum "Si O2"
_cell_formula_units_Z 44
_cell_length_a 11.037140
_cell_length_b 16.685692
_cell_length_c 12.151280
_cell_angle_alpha 90.000000
_cell_angle_beta 90.000000
_cell_angle_gamma 90.000000
_cell_volume 2237.807899
_symmetry_space_group_name_H-M "P N N A"
_symmetry_group_IT_number 52
_symmetry_cell_setting 'orthorhombic'
loop_
_space_group_symop_operation_xyz
x,y,z
1/2-x,-y,z
x,1/2-y,1/2-z
1/2-x,1/2+y,1/2-z
-x,-y,-z
1/2+x,y,-z
-x,1/2+y,1/2+z
1/2+x,1/2-y,1/2+z
loop_
_atom_site_type_symbol
_atom_site_label
_atom_site_fract_x
_atom_site_fract_y
_atom_site_fract_z
Si Si1 0.154472 0.239636 0.082742
Si Si2 0.093923 0.303000 0.651145
Si Si3 0.750000 0.500000 0.711189
Si Si4 0.066859 0.122181 0.260706
Si Si5 0.864574 0.129512 0.937023
Si Si6 0.186285 0.585347 0.680337
O O1 0.085014 0.166501 0.143201
O O2 0.121795 0.321588 0.143926
O O3 0.298183 0.216984 0.073513
O O4 0.110753 0.250848 0.957642
O O5 0.041247 0.250000 0.750000
O O6 0.215091 0.345003 0.695010
O O7 0.997385 0.369950 0.615608
O O8 0.862466 0.537569 0.778994
O O9 0.786536 0.427310 0.636691
O O10 0.922867 0.101901 0.267718
O O11 0.868847 0.091651 0.058222
O O12 0.250000 0.500000 0.701941
#
# Coordination Sequence:
#
# PCOD8215584 Si02
#       6
#     8   8   4   8   8   8
#     4   9  21  37  58  84 114 164 191 239 297 355
#     4  11  24  36  59  90 120 155 201 249 293 355
#     4  10  20  32  58  86 114 154 190 250 286 350
#     4  10  20  36  60  84 121 152 201 238 302 356
#     4  10  20  36  57  89 119 148 201 247 298 345
#     4  11  22  37  61  90 123 156 192 255 314 351
#
# _framework density 19.662098
#
# number of rings (size 3 to 8) (size 9 to 14) (size 15 to 20)
#    0.000    1.818    2.727    1.091    7.636    1.455 
#    0.000    0.000    2.000    2.182    0.000    0.000 
#    0.000    0.000    0.000    0.000    0.000    0.000 
#
# Total GULP energy -545146.770915 kJ/mol
# GULP energy per Si atom -12389.699339 kJ/mol
# Density = 1.961735 g / cm^3
# Si number density = 19.662098 Si / 1000 Ang^3
#
#
#
# Elastic Constant Matrix: (Units=GPa)
#
#
# Indices 1 2 3 4 5 6 
#
# 1 101.5726 27.0264 13.6052 0.0000 0.0000 0.0000
# 2 27.0264 77.4784 31.0344 0.0000 0.0000 0.0000
# 3 13.6052 31.0344 74.6317 0.0000 0.0000 0.0000
# 4 0.0000 0.0000 0.0000 16.8450 0.0000 0.0000
# 5 0.0000 0.0000 0.0000 0.0000 21.4886 0.0000
# 6 0.0000 0.0000 0.0000 0.0000 0.0000 27.7389
#
#
#
# Elastic Compliance Matrix: (Units=1/GPa)
#
#
# Indices 1 2 3 4 5 6 
#
# 1 0.010867 -0.003596 -0.000486 0.000000 0.000000 0.000000
# 2 -0.003596 0.016676 -0.006279 0.000000 0.000000 0.000000
# 3 -0.000486 -0.006279 0.016099 0.000000 0.000000 0.000000
# 4 0.000000 0.000000 0.000000 0.059365 0.000000 0.000000
# 5 0.000000 0.000000 0.000000 0.000000 0.046536 0.000000
# 6 0.000000 0.000000 0.000000 0.000000 0.000000 0.036050
#
#
# Mechanical properties :
#
#
# Convention : Reuss Voigt Hill
#
# Bulk Modulus (GPa) = 43.62914 44.11275 43.87094
# Shear Modulus (GPa) = 23.36936 25.34896 24.35916
#
# Velocity S-wave (km/s) = 3.45127 3.59448 3.52360
# Velocity P-wave (km/s) = 6.17409 6.30168 6.23821
#
# Compressibility (1/GPa) = 0.02292046
#
# Stress axis : x y z
#
# Youngs Moduli (GPa) = 92.02091 59.96514 62.11690
#
# Poissons Ratio (x) = 0.21565 0.03017
# Poissons Ratio (y) = 0.33092 0.39003
# Poissons Ratio (z) = 0.04469 0.37652
#
# Static dielectric constant tensor:
#      x y z
#    x 3.949800 0.000000 0.000000 
#    y 0.000000 3.350760 0.000000 
#    z 0.000000 0.000000 3.306690 
# 
# 
# High freq. dielectric constant tensor:
#      x y z
#    x 1.783300 0.000000 0.000000 
#    y 0.000000 1.749400 0.000000 
#    z 0.000000 0.000000 1.733570 
# 
# From -- ./inp_files/18148.got.cif
#   From: 2010.06.25/outbox.cif.g09.slc.cpg/sg52_10_cif.got.tgz:18148.got - 2010.06.26 19:32:48.
