data_PCOD8215328
_publ_section_title
;
Structure prediction by ZEFSAII (Michael W. Deem and Ramdas Pophale) SiO2 
 PCOD8215328
Probable space group: P N N A
;
_chemical_formula_sum "Si O2"
_cell_formula_units_Z 32
_cell_length_a 5.131998
_cell_length_b 8.052476
_cell_length_c 35.774146
_cell_angle_alpha 90.000000
_cell_angle_beta 90.000000
_cell_angle_gamma 90.000000
_cell_volume 1478.376984
_symmetry_space_group_name_H-M "P N N A"
_symmetry_group_IT_number 52
_symmetry_cell_setting 'orthorhombic'
loop_
_space_group_symop_operation_xyz
x,y,z
1/2-x,-y,z
x,1/2-y,1/2-z
1/2-x,1/2+y,1/2-z
-x,-y,-z
1/2+x,y,-z
-x,1/2+y,1/2+z
1/2+x,1/2-y,1/2+z
loop_
_atom_site_type_symbol
_atom_site_label
_atom_site_fract_x
_atom_site_fract_y
_atom_site_fract_z
Si Si1 0.706207 0.811922 0.358934
Si Si2 0.243347 0.695137 0.477517
Si Si3 0.989193 0.107396 0.278598
Si Si4 0.711259 0.807968 0.604487
O O1 0.629962 0.805992 0.315448
O O2 0.479866 0.720150 0.382601
O O3 0.979781 0.725349 0.370416
O O4 0.750000 0.000000 0.372775
O O5 0.250000 0.500000 0.470041
O O6 0.525284 0.750442 0.492528
O O7 0.167548 0.786063 0.439383
O O8 0.073656 0.250000 0.250000
O O9 0.750000 0.000000 0.261342
O O10 0.250000 0.000000 0.287664
O O11 0.750000 0.000000 0.615062
#
# Coordination Sequence:
#
# PCOD8215328 Si02
#       4
#     8   8   8   8
#     4   9  18  34  55  78 108 144 179 224 282 333
#     4  10  21  36  52  73 106 143 175 217 281 341
#     4  11  22  39  62  88 121 159 198 240 293 352
#     4  10  19  33  55  79 101 135 183 227 269 324
#
# _framework density 21.64536
#
# number of rings (size 3 to 8) (size 9 to 14) (size 15 to 20)
#    0.000    2.000    0.000    6.000    0.000    1.000 
#    0.000    3.750    0.000    0.000    0.000    0.000 
#    0.000    0.000    0.000    0.000    0.000    0.000 
#
# Total GULP energy -396567.800199 kJ/mol
# GULP energy per Si atom -12392.743756 kJ/mol
# Density = 2.159609 g / cm^3
# Si number density = 21.645360 Si / 1000 Ang^3
#
#
#
# Elastic Constant Matrix: (Units=GPa)
#
#
# Indices 1 2 3 4 5 6 
#
# 1 191.0980 22.4678 71.3868 0.0000 0.0000 0.0000
# 2 22.4678 18.6137 24.1519 0.0000 0.0000 0.0000
# 3 71.3868 24.1519 133.0234 0.0000 0.0000 0.0000
# 4 0.0000 0.0000 0.0000 18.2319 0.0000 0.0000
# 5 0.0000 0.0000 0.0000 0.0000 41.6616 0.0000
# 6 0.0000 0.0000 0.0000 0.0000 0.0000 15.6029
#
#
#
# Elastic Compliance Matrix: (Units=1/GPa)
#
#
# Indices 1 2 3 4 5 6 
#
# 1 0.006829 -0.004563 -0.002836 0.000000 0.000000 0.000000
# 2 -0.004563 0.073329 -0.010865 0.000000 0.000000 0.000000
# 3 -0.002836 -0.010865 0.011012 0.000000 0.000000 0.000000
# 4 0.000000 0.000000 0.000000 0.054849 0.000000 0.000000
# 5 0.000000 0.000000 0.000000 0.000000 0.024003 0.000000
# 6 0.000000 0.000000 0.000000 0.000000 0.000000 0.064091
#
#
# Mechanical properties :
#
#
# Convention : Reuss Voigt Hill
#
# Bulk Modulus (GPa) = 18.30094 64.30537 41.30315
# Shear Modulus (GPa) = 17.30972 30.08119 23.69546
#
# Velocity S-wave (km/s) = 2.83096 3.73195 3.31223
# Velocity P-wave (km/s) = 4.37710 6.95292 5.80956
#
# Compressibility (1/GPa) = 0.05464201
#
# Stress axis : x y z
#
# Youngs Moduli (GPa) = 146.43659 13.63713 90.80762
#
# Poissons Ratio (x) = 0.06222 0.25756
# Poissons Ratio (y) = 0.66814 0.98665
# Poissons Ratio (z) = 0.41534 0.14817
#
# Static dielectric constant tensor:
#      x y z
#    x 4.722920 0.000000 0.000000 
#    y 0.000000 3.389950 0.000000 
#    z 0.000000 0.000000 3.609060 
# 
# 
# High freq. dielectric constant tensor:
#      x y z
#    x 1.885460 0.000000 0.000000 
#    y 0.000000 1.793450 0.000000 
#    z 0.000000 0.000000 1.847690 
# 
# From -- ./inp_files/43450.got.cif
#   From: 2010.06.25/outbox.cif.g09.slc.cpg/sg52_22_cif.got.tgz:43450.got - 2010.06.26 19:32:48.
