data_PCOD8215978
_publ_section_title
;
Structure prediction by ZEFSAII (Michael W. Deem and Ramdas Pophale) SiO2 
 PCOD8215978
Probable space group: P N N A
;
_chemical_formula_sum "Si O2"
_cell_formula_units_Z 64
_cell_length_a 14.313352
_cell_length_b 25.382794
_cell_length_c 8.605761
_cell_angle_alpha 90.000000
_cell_angle_beta 90.000000
_cell_angle_gamma 90.000000
_cell_volume 3126.583687
_symmetry_space_group_name_H-M "P N N A"
_symmetry_group_IT_number 52
_symmetry_cell_setting 'orthorhombic'
loop_
_space_group_symop_operation_xyz
x,y,z
1/2-x,-y,z
x,1/2-y,1/2-z
1/2-x,1/2+y,1/2-z
-x,-y,-z
1/2+x,y,-z
-x,1/2+y,1/2+z
1/2+x,1/2-y,1/2+z
loop_
_atom_site_type_symbol
_atom_site_label
_atom_site_fract_x
_atom_site_fract_y
_atom_site_fract_z
Si Si1 0.974741 0.328745 0.590440
Si Si2 0.398500 0.508964 0.565036
Si Si3 0.643192 0.109677 0.216017
Si Si4 0.211649 0.445896 0.277913
Si Si5 0.644959 0.357883 0.930059
Si Si6 0.978109 0.275058 0.084995
Si Si7 0.175914 0.600915 0.531894
Si Si8 0.164475 0.801901 0.346931
O O1 0.908551 0.357026 0.462295
O O2 0.917468 0.330452 0.751054
O O3 0.068856 0.360430 0.610543
O O4 0.007862 0.270753 0.536479
O O5 0.500000 0.500000 0.500000
O O6 0.388184 0.547968 0.713047
O O7 0.343101 0.537813 0.430325
O O8 0.355016 0.453437 0.613583
O O9 0.646516 0.130462 0.389209
O O10 0.741685 0.123612 0.137399
O O11 0.250000 0.500000 0.195936
O O12 0.143213 0.413736 0.162273
O O13 0.295398 0.409668 0.349952
O O14 0.556453 0.320508 0.896113
O O15 0.739613 0.332075 0.869543
O O16 0.958120 0.250000 0.250000
O O17 0.878987 0.295504 0.019297
O O18 0.191409 0.750000 0.250000
#
# Coordination Sequence:
#
# PCOD8215978 Si02
#       8
#     8   8   8   8   8   8   8   8
#     4  11  22  44  67  93 132 173 213 274 338 388
#     4  10  20  40  65  95 127 170 225 271 328 399
#     4  11  24  38  67  99 130 169 222 279 325 392
#     4   9  21  39  64  92 125 174 222 262 325 404
#     4  12  24  43  67  95 138 170 217 277 343 392
#     4  11  27  41  64  98 128 164 227 275 319 407
#     4  10  21  40  68  91 128 175 221 264 326 400
#     4  10  23  46  65  91 131 179 215 269 342 397
#
# _framework density 20.469625000000001
#
# number of rings (size 3 to 8) (size 9 to 14) (size 15 to 20)
#    0.000    1.500    3.750    1.500    5.250    3.000 
#    0.000    0.625    0.000    0.000    0.000    0.000 
#    0.000    0.000    0.000    0.000    0.000    0.000 
#
# Total GULP energy -793195.997464 kJ/mol
# GULP energy per Si atom -12393.687460 kJ/mol
# Density = 2.042304 g / cm^3
# Si number density = 20.469625 Si / 1000 Ang^3
#
#
#
# Elastic Constant Matrix: (Units=GPa)
#
#
# Indices 1 2 3 4 5 6 
#
# 1 75.3269 24.8683 11.0872 0.0000 0.0000 0.0000
# 2 24.8683 87.5511 14.1105 0.0000 0.0000 0.0000
# 3 11.0872 14.1105 65.2513 0.0000 0.0000 0.0000
# 4 0.0000 0.0000 0.0000 33.6266 0.0000 0.0000
# 5 0.0000 0.0000 0.0000 0.0000 11.2933 0.0000
# 6 0.0000 0.0000 0.0000 0.0000 0.0000 36.7291
#
#
#
# Elastic Compliance Matrix: (Units=1/GPa)
#
#
# Indices 1 2 3 4 5 6 
#
# 1 0.014822 -0.003942 -0.001666 0.000000 0.000000 0.000000
# 2 -0.003942 0.012883 -0.002116 0.000000 0.000000 0.000000
# 3 -0.001666 -0.002116 0.016066 0.000000 0.000000 0.000000
# 4 0.000000 0.000000 0.000000 0.029738 0.000000 0.000000
# 5 0.000000 0.000000 0.000000 0.000000 0.088548 0.000000
# 6 0.000000 0.000000 0.000000 0.000000 0.000000 0.027226
#
#
# Mechanical properties :
#
#
# Convention : Reuss Voigt Hill
#
# Bulk Modulus (GPa) = 35.30699 36.47349 35.89024
# Shear Modulus (GPa) = 23.34570 28.20069 25.77319
#
# Velocity S-wave (km/s) = 3.38080 3.71574 3.55222
# Velocity P-wave (km/s) = 5.70313 6.02213 5.86480
#
# Compressibility (1/GPa) = 0.02832300
#
# Stress axis : x y z
#
# Youngs Moduli (GPa) = 67.46740 77.62458 62.24294
#
# Poissons Ratio (x) = 0.30596 0.10371
# Poissons Ratio (y) = 0.26593 0.13171
# Poissons Ratio (z) = 0.11241 0.16426
#
# Static dielectric constant tensor:
#      x y z
#    x 3.623470 0.000000 0.000000 
#    y 0.000000 4.123070 0.000000 
#    z 0.000000 0.000000 3.582210 
# 
# 
# High freq. dielectric constant tensor:
#      x y z
#    x 1.806250 0.000000 0.000000 
#    y 0.000000 1.812840 0.000000 
#    z 0.000000 0.000000 1.780290 
# 
# From -- ./inp_files/10988.got.cif
#   From: 2010.06.25/outbox.cif.g09.slc.cpg/sg52_6_cif.got.tgz:10988.got - 2010.06.26 19:32:48.
