data_PCOD8215928
_publ_section_title
;
Structure prediction by ZEFSAII (Michael W. Deem and Ramdas Pophale) SiO2 
 PCOD8215928
Probable space group: P N N A
;
_chemical_formula_sum "Si O2"
_cell_formula_units_Z 48
_cell_length_a 8.565816
_cell_length_b 16.998843
_cell_length_c 15.167794
_cell_angle_alpha 90.000000
_cell_angle_beta 90.000000
_cell_angle_gamma 90.000000
_cell_volume 2208.566730
_symmetry_space_group_name_H-M "P N N A"
_symmetry_group_IT_number 52
_symmetry_cell_setting 'orthorhombic'
loop_
_space_group_symop_operation_xyz
x,y,z
1/2-x,-y,z
x,1/2-y,1/2-z
1/2-x,1/2+y,1/2-z
-x,-y,-z
1/2+x,y,-z
-x,1/2+y,1/2+z
1/2+x,1/2-y,1/2+z
loop_
_atom_site_type_symbol
_atom_site_label
_atom_site_fract_x
_atom_site_fract_y
_atom_site_fract_z
Si Si1 0.750000 0.500000 0.116608
Si Si2 0.155376 0.256929 0.084115
Si Si3 0.390377 0.352125 0.980409
Si Si4 0.250000 0.500000 0.261023
Si Si5 0.487379 0.103287 0.329076
Si Si6 0.882654 0.250000 0.750000
Si Si7 0.953772 0.582324 0.594080
Si Si8 0.750000 0.500000 0.451609
O O1 0.671927 0.564901 0.054060
O O2 0.630901 0.456394 0.182550
O O3 0.270694 0.252535 0.166129
O O4 0.068558 0.174285 0.076622
O O5 0.013214 0.319502 0.092243
O O6 0.257354 0.285708 0.999273
O O7 0.483383 0.367902 0.070699
O O8 0.328146 0.439478 0.194946
O O9 0.129602 0.450005 0.318976
O O10 0.499130 0.175349 0.258747
O O11 0.874272 0.547361 0.507994
O O12 0.138424 0.559920 0.603491
#
# Coordination Sequence:
#
# PCOD8215928 Si02
#       8
#     4   8   8   4   8   4   8   4
#     4  12  25  43  65 109 130 176 242 286 343 417
#     4  11  22  42  68 100 136 181 232 283 356 415
#     4  11  24  41  71 102 134 184 231 298 338 422
#     4  11  23  40  68  95 135 188 224 290 366 416
#     4  11  24  44  67  97 140 182 231 287 356 426
#     4  10  24  44  68  98 142 184 222 286 364 426
#     4  10  20  39  63  96 131 177 231 283 357 416
#     4   9  20  37  63  94 127 172 232 290 329 427
#
# _framework density 21.733550999999999
#
# number of rings (size 3 to 8) (size 9 to 14) (size 15 to 20)
#    0.000    1.333    3.333    2.000    4.667    0.667 
#    0.000    2.500    0.000    0.000    0.000    0.000 
#    0.000    0.000    0.000    0.000    0.000    0.000 
#
# Total GULP energy -594754.406840 kJ/mol
# GULP energy per Si atom -12390.716809 kJ/mol
# Density = 2.168408 g / cm^3
# Si number density = 21.733551 Si / 1000 Ang^3
#
#
#
# Elastic Constant Matrix: (Units=GPa)
#
#
# Indices 1 2 3 4 5 6 
#
# 1 140.4125 75.8101 44.3175 0.0000 0.0000 0.0000
# 2 75.8101 170.1911 45.5451 0.0000 0.0000 0.0000
# 3 44.3175 45.5451 67.5994 0.0000 0.0000 0.0000
# 4 0.0000 0.0000 0.0000 30.5898 0.0000 0.0000
# 5 0.0000 0.0000 0.0000 0.0000 33.6252 0.0000
# 6 0.0000 0.0000 0.0000 0.0000 0.0000 53.8024
#
#
#
# Elastic Compliance Matrix: (Units=1/GPa)
#
#
# Indices 1 2 3 4 5 6 
#
# 1 0.010393 -0.003423 -0.004507 0.000000 0.000000 0.000000
# 2 -0.003423 0.008296 -0.003345 0.000000 0.000000 0.000000
# 3 -0.004507 -0.003345 0.020001 0.000000 0.000000 0.000000
# 4 0.000000 0.000000 0.000000 0.032691 0.000000 0.000000
# 5 0.000000 0.000000 0.000000 0.000000 0.029740 0.000000
# 6 0.000000 0.000000 0.000000 0.000000 0.000000 0.018587
#
#
# Mechanical properties :
#
#
# Convention : Reuss Voigt Hill
#
# Bulk Modulus (GPa) = 61.95982 78.83869 70.39926
# Shear Modulus (GPa) = 33.86695 37.77218 35.81956
#
# Velocity S-wave (km/s) = 3.95179 4.17342 4.06411
# Velocity P-wave (km/s) = 7.02801 7.71862 7.38139
#
# Compressibility (1/GPa) = 0.01613949
#
# Stress axis : x y z
#
# Youngs Moduli (GPa) = 96.22262 120.54368 49.99639
#
# Poissons Ratio (x) = 0.41264 0.22533
# Poissons Ratio (y) = 0.32939 0.16724
# Poissons Ratio (z) = 0.43367 0.40323
#
# Static dielectric constant tensor:
#      x y z
#    x 4.251180 0.000000 0.000000 
#    y 0.000000 4.658170 0.000000 
#    z 0.000000 0.000000 3.663670 
# 
# 
# High freq. dielectric constant tensor:
#      x y z
#    x 1.861790 0.000000 0.000000 
#    y 0.000000 1.871960 0.000000 
#    z 0.000000 0.000000 1.828650 
# 
# From -- ./inp_files/24798.got.cif
#   From: 2010.06.25/outbox.cif.g09.slc.cpg/sg52_13_cif.got.tgz:24798.got - 2010.06.26 19:32:48.
