data_PCOD8215380
_publ_section_title
;
Structure prediction by ZEFSAII (Michael W. Deem and Ramdas Pophale) SiO2 
 PCOD8215380
Probable space group: P N N A
;
_chemical_formula_sum "Si O2"
_cell_formula_units_Z 48
_cell_length_a 16.789375
_cell_length_b 17.387284
_cell_length_c 8.764498
_cell_angle_alpha 90.000000
_cell_angle_beta 90.000000
_cell_angle_gamma 90.000000
_cell_volume 2558.546554
_symmetry_space_group_name_H-M "P N N A"
_symmetry_group_IT_number 52
_symmetry_cell_setting 'orthorhombic'
loop_
_space_group_symop_operation_xyz
x,y,z
1/2-x,-y,z
x,1/2-y,1/2-z
1/2-x,1/2+y,1/2-z
-x,-y,-z
1/2+x,y,-z
-x,1/2+y,1/2+z
1/2+x,1/2-y,1/2+z
loop_
_atom_site_type_symbol
_atom_site_label
_atom_site_fract_x
_atom_site_fract_y
_atom_site_fract_z
Si Si1 0.716902 0.915590 0.436174
Si Si2 0.195041 0.161582 0.300446
Si Si3 0.444447 0.079818 0.381987
Si Si4 0.026540 0.091156 0.323213
Si Si5 0.149820 0.830084 0.163078
Si Si6 0.379744 0.333569 0.688931
O O1 0.778391 0.857722 0.523899
O O2 0.639674 0.931874 0.536776
O O3 0.692922 0.874044 0.278276
O O4 0.750000 0.000000 0.397527
O O5 0.181174 0.250000 0.250000
O O6 0.112648 0.118425 0.268511
O O7 0.266481 0.125498 0.196968
O O8 0.504566 0.120187 0.503938
O O9 0.429642 0.131034 0.231871
O O10 0.480642 0.000525 0.323481
O O11 0.961418 0.118982 0.201868
O O12 0.160894 0.750000 0.250000
O O13 0.143033 0.822262 0.984951
O O14 0.398176 0.250000 0.750000
#
# Coordination Sequence:
#
# PCOD8215380 Si02
#       6
#     8   8   8   8   8   8
#     4  10  19  37  59  83 113 156 192 235 287 342
#     4  10  19  34  59  86 113 147 195 238 280 336
#     4   9  19  35  58  83 114 152 187 230 285 350
#     4  10  19  34  59  86 113 150 188 232 289 336
#     4  10  21  38  57  81 114 153 193 233 284 344
#     4  11  22  38  59  83 115 152 191 232 288 347
#
# _framework density 18.760650999999999
#
# number of rings (size 3 to 8) (size 9 to 14) (size 15 to 20)
#    0.000    2.000    1.667    4.500    0.000    0.667 
#    3.000    1.667    0.000    6.000    0.000    0.000 
#    0.000    0.000    0.000    0.000    0.000    0.000 
#
# Total GULP energy -594775.324925 kJ/mol
# GULP energy per Si atom -12391.152603 kJ/mol
# Density = 1.871795 g / cm^3
# Si number density = 18.760651 Si / 1000 Ang^3
#
#
#
# Elastic Constant Matrix: (Units=GPa)
#
#
# Indices 1 2 3 4 5 6 
#
# 1 92.8702 26.4483 41.5072 0.0000 0.0000 0.0000
# 2 26.4483 71.2010 33.2878 0.0000 0.0000 0.0000
# 3 41.5072 33.2878 124.0325 0.0000 0.0000 0.0000
# 4 0.0000 0.0000 0.0000 30.4669 0.0000 0.0000
# 5 0.0000 0.0000 0.0000 0.0000 18.0036 0.0000
# 6 0.0000 0.0000 0.0000 0.0000 0.0000 31.6008
#
#
#
# Elastic Compliance Matrix: (Units=1/GPa)
#
#
# Indices 1 2 3 4 5 6 
#
# 1 0.013295 -0.003269 -0.003572 0.000000 0.000000 0.000000
# 2 -0.003269 0.016863 -0.003432 0.000000 0.000000 0.000000
# 3 -0.003572 -0.003432 0.010179 0.000000 0.000000 0.000000
# 4 0.000000 0.000000 0.000000 0.032823 0.000000 0.000000
# 5 0.000000 0.000000 0.000000 0.000000 0.055545 0.000000
# 6 0.000000 0.000000 0.000000 0.000000 0.000000 0.031645
#
#
# Mechanical properties :
#
#
# Convention : Reuss Voigt Hill
#
# Bulk Modulus (GPa) = 50.52486 54.51004 52.51745
# Shear Modulus (GPa) = 26.66788 28.47161 27.56975
#
# Velocity S-wave (km/s) = 3.77434 3.89990 3.83763
# Velocity P-wave (km/s) = 6.78115 7.02834 6.90585
#
# Compressibility (1/GPa) = 0.01979224
#
# Stress axis : x y z
#
# Youngs Moduli (GPa) = 75.21627 59.29995 98.24335
#
# Poissons Ratio (x) = 0.19383 0.35092
# Poissons Ratio (y) = 0.24585 0.33717
# Poissons Ratio (z) = 0.26867 0.20352
#
# Static dielectric constant tensor:
#      x y z
#    x 3.699050 0.000000 0.000000 
#    y 0.000000 3.455380 0.000000 
#    z 0.000000 0.000000 3.452110 
# 
# 
# High freq. dielectric constant tensor:
#      x y z
#    x 1.732720 0.000000 0.000000 
#    y 0.000000 1.726100 0.000000 
#    z 0.000000 0.000000 1.713030 
# 
# From -- ./inp_files/12059.got.cif
#   From: 2010.06.25/outbox.cif.g09.slc.cpg/sg52_7_cif.got.tgz:12059.got - 2010.06.26 19:32:48.
