data_PCOD8215850
_publ_section_title
;
Structure prediction by ZEFSAII (Michael W. Deem and Ramdas Pophale) SiO2 
 PCOD8215850
Probable space group: P N N A
;
_chemical_formula_sum "Si O2"
_cell_formula_units_Z 56
_cell_length_a 13.477813
_cell_length_b 8.101152
_cell_length_c 23.711668
_cell_angle_alpha 90.000000
_cell_angle_beta 90.000000
_cell_angle_gamma 90.000000
_cell_volume 2588.977718
_symmetry_space_group_name_H-M "P N N A"
_symmetry_group_IT_number 52
_symmetry_cell_setting 'orthorhombic'
loop_
_space_group_symop_operation_xyz
x,y,z
1/2-x,-y,z
x,1/2-y,1/2-z
1/2-x,1/2+y,1/2-z
-x,-y,-z
1/2+x,y,-z
-x,1/2+y,1/2+z
1/2+x,1/2-y,1/2+z
loop_
_atom_site_type_symbol
_atom_site_label
_atom_site_fract_x
_atom_site_fract_y
_atom_site_fract_z
Si Si1 0.981762 0.468572 0.085863
Si Si2 0.703057 0.160680 0.394876
Si Si3 0.881699 0.250582 0.592683
Si Si4 0.266212 0.805887 0.311146
Si Si5 0.376703 0.191366 0.967573
Si Si6 0.074063 0.060107 0.878086
Si Si7 0.996575 0.754676 0.813897
O O1 0.895636 0.600761 0.072127
O O2 0.972130 0.313614 0.042686
O O3 0.089136 0.557498 0.080856
O O4 0.967441 0.402784 0.150226
O O5 0.782041 0.221531 0.440166
O O6 0.665271 0.318518 0.357899
O O7 0.750000 0.000000 0.361894
O O8 0.792658 0.273561 0.636653
O O9 0.854772 0.336446 0.533442
O O10 0.974123 0.336965 0.621655
O O11 0.224328 0.750000 0.250000
O O12 0.377494 0.737846 0.318614
O O13 0.250000 0.000000 0.314534
O O14 0.398788 0.013416 0.939950
O O15 0.057078 0.912283 0.835385
O O16 0.031419 0.750000 0.750000
#
# Coordination Sequence:
#
# PCOD8215850 Si02
#       7
#     8   8   8   8   8   8   8
#     4   9  19  38  60  89 122 162 209 264 304 380
#     4   9  19  38  63  87 121 165 200 259 326 369
#     4  11  22  37  60  92 123 169 213 250 317 383
#     4  11  25  42  63  91 130 164 212 266 318 379
#     4  10  20  38  60  90 127 167 204 258 319 377
#     4  10  22  39  60  92 127 162 209 266 309 381
#     4  10  22  42  65  89 125 168 211 258 322 379
#
# _framework density 21.630158999999999
#
# number of rings (size 3 to 8) (size 9 to 14) (size 15 to 20)
#    0.000    2.000    1.429    1.286    4.000    1.714 
#   15.429    2.143    0.000   25.714    0.000    1.000 
#    0.000    0.000    0.000    0.000    0.000    0.000 
#
# Total GULP energy -693832.949032 kJ/mol
# GULP energy per Si atom -12389.874090 kJ/mol
# Density = 2.158093 g / cm^3
# Si number density = 21.630159 Si / 1000 Ang^3
#
#
#
# Elastic Constant Matrix: (Units=GPa)
#
#
# Indices 1 2 3 4 5 6 
#
# 1 74.9339 28.3197 32.5662 0.0000 0.0000 0.0000
# 2 28.3197 99.3707 23.0716 0.0000 0.0000 0.0000
# 3 32.5662 23.0716 132.4064 0.0000 0.0000 0.0000
# 4 0.0000 0.0000 0.0000 13.5288 0.0000 0.0000
# 5 0.0000 0.0000 0.0000 0.0000 22.4287 0.0000
# 6 0.0000 0.0000 0.0000 0.0000 0.0000 36.0030
#
#
#
# Elastic Compliance Matrix: (Units=1/GPa)
#
#
# Indices 1 2 3 4 5 6 
#
# 1 0.016248 -0.003859 -0.003324 0.000000 0.000000 0.000000
# 2 -0.003859 0.011404 -0.001038 0.000000 0.000000 0.000000
# 3 -0.003324 -0.001038 0.008551 0.000000 0.000000 0.000000
# 4 0.000000 0.000000 0.000000 0.073916 0.000000 0.000000
# 5 0.000000 0.000000 0.000000 0.000000 0.044586 0.000000
# 6 0.000000 0.000000 0.000000 0.000000 0.000000 0.027775
#
#
# Mechanical properties :
#
#
# Convention : Reuss Voigt Hill
#
# Bulk Modulus (GPa) = 50.60345 52.73621 51.66983
# Shear Modulus (GPa) = 24.32980 29.24233 26.78607
#
# Velocity S-wave (km/s) = 3.35746 3.68084 3.52286
# Velocity P-wave (km/s) = 6.20288 6.51909 6.36295
#
# Compressibility (1/GPa) = 0.01976150
#
# Stress axis : x y z
#
# Youngs Moduli (GPa) = 61.54596 87.68806 116.94647
#
# Poissons Ratio (x) = 0.33837 0.38872
# Poissons Ratio (y) = 0.23749 0.12140
# Poissons Ratio (z) = 0.20457 0.09102
#
# Static dielectric constant tensor:
#      x y z
#    x 4.022660 0.000000 0.000000 
#    y 0.000000 4.387540 0.000000 
#    z 0.000000 0.000000 3.707810 
# 
# 
# High freq. dielectric constant tensor:
#      x y z
#    x 1.851030 0.000000 0.000000 
#    y 0.000000 1.864960 0.000000 
#    z 0.000000 0.000000 1.813830 
# 
# From -- ./inp_files/37323.got.cif
#   From: 2010.06.25/outbox.cif.g09.slc.cpg/sg52_19_cif.got.tgz:37323.got - 2010.06.26 19:32:48.
