data_PCOD8215196
_publ_section_title
;
Structure prediction by ZEFSAII (Michael W. Deem and Ramdas Pophale) SiO2 
 PCOD8215196
Probable space group: P N N A
;
_chemical_formula_sum "Si O2"
_cell_formula_units_Z 52
_cell_length_a 18.576279
_cell_length_b 15.988959
_cell_length_c 8.926652
_cell_angle_alpha 90.000000
_cell_angle_beta 90.000000
_cell_angle_gamma 90.000000
_cell_volume 2651.352787
_symmetry_space_group_name_H-M "P N N A"
_symmetry_group_IT_number 52
_symmetry_cell_setting 'orthorhombic'
loop_
_space_group_symop_operation_xyz
x,y,z
1/2-x,-y,z
x,1/2-y,1/2-z
1/2-x,1/2+y,1/2-z
-x,-y,-z
1/2+x,y,-z
-x,1/2+y,1/2+z
1/2+x,1/2-y,1/2+z
loop_
_atom_site_type_symbol
_atom_site_label
_atom_site_fract_x
_atom_site_fract_y
_atom_site_fract_z
Si Si1 0.986909 0.177159 0.142424
Si Si2 0.414744 0.042014 0.360840
Si Si3 0.742289 0.750000 0.750000
Si Si4 0.859187 0.619472 0.695590
Si Si5 0.172413 0.491185 0.577911
Si Si6 0.934017 0.017584 0.314765
Si Si7 0.126439 0.845597 0.094307
O O1 0.959073 0.250000 0.250000
O O2 0.964467 0.089943 0.211475
O O3 0.074230 0.176919 0.136358
O O4 0.947731 0.190238 0.980126
O O5 0.394384 0.052832 0.535979
O O6 0.386093 0.119119 0.262625
O O7 0.384406 0.952580 0.308312
O O8 0.501427 0.044909 0.354915
O O9 0.796482 0.672010 0.780508
O O10 0.688954 0.774716 0.889052
O O11 0.824812 0.579229 0.548380
O O12 0.250000 0.500000 0.651855
O O13 0.120524 0.464284 0.713078
O O14 0.151281 0.580466 0.511614
#
# Coordination Sequence:
#
# PCOD8215196 Si02
#       7
#     8   8   4   8   8   8   8
#     4  10  20  36  58  85 113 154 189 237 289 346
#     4   9  19  38  59  83 107 148 195 238 278 337
#     4  12  22  36  56  90 116 150 188 244 290 348
#     4  10  20  37  62  80 113 153 196 233 285 349
#     4  10  18  36  55  82 112 149 190 231 284 341
#     4   9  19  35  59  83 110 141 197 240 277 341
#     4  10  22  35  56  84 115 151 190 233 285 345
#
# _framework density 19.612628999999998
#
# number of rings (size 3 to 8) (size 9 to 14) (size 15 to 20)
#    0.000    2.154    2.308    0.923    2.154    3.692 
#    2.769    0.000    0.000    0.000    0.000    0.000 
#    0.000    0.000    0.000    0.000    0.000    0.000 
#
# Total GULP energy -644321.687432 kJ/mol
# GULP energy per Si atom -12390.801681 kJ/mol
# Density = 1.956799 g / cm^3
# Si number density = 19.612629 Si / 1000 Ang^3
#
#
#
# Elastic Constant Matrix: (Units=GPa)
#
#
# Indices 1 2 3 4 5 6 
#
# 1 118.9652 34.1468 45.1064 0.0000 0.0000 0.0000
# 2 34.1468 51.2972 18.2128 0.0000 0.0000 0.0000
# 3 45.1064 18.2128 89.7141 0.0000 0.0000 0.0000
# 4 0.0000 0.0000 0.0000 14.1615 0.0000 0.0000
# 5 0.0000 0.0000 0.0000 0.0000 28.0629 0.0000
# 6 0.0000 0.0000 0.0000 0.0000 0.0000 25.5266
#
#
#
# Elastic Compliance Matrix: (Units=1/GPa)
#
#
# Indices 1 2 3 4 5 6 
#
# 1 0.012024 -0.006313 -0.004764 0.000000 0.000000 0.000000
# 2 -0.006313 0.024323 -0.001764 0.000000 0.000000 0.000000
# 3 -0.004764 -0.001764 0.013900 0.000000 0.000000 0.000000
# 4 0.000000 0.000000 0.000000 0.070614 0.000000 0.000000
# 5 0.000000 0.000000 0.000000 0.000000 0.035634 0.000000
# 6 0.000000 0.000000 0.000000 0.000000 0.000000 0.039175
#
#
# Mechanical properties :
#
#
# Convention : Reuss Voigt Hill
#
# Bulk Modulus (GPa) = 40.70726 50.54539 45.62633
# Shear Modulus (GPa) = 21.78285 24.38425 23.08355
#
# Velocity S-wave (km/s) = 3.33626 3.52986 3.43443
# Velocity P-wave (km/s) = 5.97006 6.51468 6.24830
#
# Compressibility (1/GPa) = 0.02456564
#
# Stress axis : x y z
#
# Youngs Moduli (GPa) = 83.16712 41.11416 71.94352
#
# Poissons Ratio (x) = 0.25954 0.34273
# Poissons Ratio (y) = 0.52500 0.12690
# Poissons Ratio (z) = 0.39620 0.07252
#
# Static dielectric constant tensor:
#      x y z
#    x 3.951710 0.000000 0.000000 
#    y 0.000000 3.395660 0.000000 
#    z 0.000000 0.000000 3.626790 
# 
# 
# High freq. dielectric constant tensor:
#      x y z
#    x 1.773480 0.000000 0.000000 
#    y 0.000000 1.745530 0.000000 
#    z 0.000000 0.000000 1.748540 
# 
# From -- ./inp_files/12354.got.cif
#   From: 2010.06.25/outbox.cif.g09.slc.cpg/sg52_7_cif.got.tgz:12354.got - 2010.06.26 19:32:48.
