data_PCOD8215144
_publ_section_title
;
Structure prediction by ZEFSAII (Michael W. Deem and Ramdas Pophale) SiO2 
 PCOD8215144
Probable space group: P N N A
;
_chemical_formula_sum "Si O2"
_cell_formula_units_Z 48
_cell_length_a 16.045997
_cell_length_b 11.346403
_cell_length_c 13.499176
_cell_angle_alpha 90.000000
_cell_angle_beta 90.000000
_cell_angle_gamma 90.000000
_cell_volume 2457.718684
_symmetry_space_group_name_H-M "P N N A"
_symmetry_group_IT_number 52
_symmetry_cell_setting 'orthorhombic'
loop_
_space_group_symop_operation_xyz
x,y,z
1/2-x,-y,z
x,1/2-y,1/2-z
1/2-x,1/2+y,1/2-z
-x,-y,-z
1/2+x,y,-z
-x,1/2+y,1/2+z
1/2+x,1/2-y,1/2+z
loop_
_atom_site_type_symbol
_atom_site_label
_atom_site_fract_x
_atom_site_fract_y
_atom_site_fract_z
Si Si1 0.546550 0.000202 0.830003
Si Si2 0.076450 0.705510 0.646699
Si Si3 0.050471 0.894164 0.377459
Si Si4 0.312977 0.814071 0.150341
Si Si5 0.564267 0.148764 0.548819
Si Si6 0.856085 0.321380 0.556473
O O1 0.463788 0.075420 0.848894
O O2 0.624830 0.085502 0.811496
O O3 0.529584 0.914972 0.736942
O O4 0.570166 0.916036 0.922250
O O5 0.117043 0.750000 0.750000
O O6 0.146905 0.700474 0.561935
O O7 0.007388 0.804207 0.622508
O O8 0.124956 0.800699 0.387131
O O9 0.968576 0.843900 0.435325
O O10 0.083941 0.013815 0.427010
O O11 0.283913 0.750000 0.250000
O O12 0.354511 0.728170 0.067866
O O13 0.232287 0.868806 0.096021
#
# Coordination Sequence:
#
# PCOD8215144 Si02
#       6
#     8   8   8   8   8   8
#     4  11  19  36  58  80 108 143 183 230 272 326
#     4  10  19  38  58  74 100 147 192 221 264 329
#     4  10  18  33  54  84 111 135 181 227 267 320
#     4  11  20  36  54  80 114 150 175 218 288 339
#     4   9  18  33  57  82 104 140 182 222 263 327
#     4  11  24  31  52  86 113 138 176 231 282 330
#
# _framework density 19.530306
#
# number of rings (size 3 to 8) (size 9 to 14) (size 15 to 20)
#    0.000    1.667    3.333    3.500    0.000    0.667 
#    0.000    0.000    0.000   10.000    0.000    0.000 
#    0.000    0.000    0.000    0.000    0.000    0.000 
#
# Total GULP energy -595108.178246 kJ/mol
# GULP energy per Si atom -12398.087047 kJ/mol
# Density = 1.948585 g / cm^3
# Si number density = 19.530306 Si / 1000 Ang^3
#
#
#
# Elastic Constant Matrix: (Units=GPa)
#
#
# Indices 1 2 3 4 5 6 
#
# 1 51.4130 7.3418 33.5033 0.0000 0.0000 0.0000
# 2 7.3418 69.5586 28.3930 0.0000 0.0000 0.0000
# 3 33.5033 28.3930 127.8966 0.0000 0.0000 0.0000
# 4 0.0000 0.0000 0.0000 33.0192 0.0000 0.0000
# 5 0.0000 0.0000 0.0000 0.0000 23.1238 0.0000
# 6 0.0000 0.0000 0.0000 0.0000 0.0000 16.0488
#
#
#
# Elastic Compliance Matrix: (Units=1/GPa)
#
#
# Indices 1 2 3 4 5 6 
#
# 1 0.023454 0.000036 -0.006152 0.000000 0.000000 0.000000
# 2 0.000036 0.015809 -0.003519 0.000000 0.000000 0.000000
# 3 -0.006152 -0.003519 0.010212 0.000000 0.000000 0.000000
# 4 0.000000 0.000000 0.000000 0.030285 0.000000 0.000000
# 5 0.000000 0.000000 0.000000 0.000000 0.043246 0.000000
# 6 0.000000 0.000000 0.000000 0.000000 0.000000 0.062310
#
#
# Mechanical properties :
#
#
# Convention : Reuss Voigt Hill
#
# Bulk Modulus (GPa) = 33.10794 43.03828 38.07311
# Shear Modulus (GPa) = 23.29330 26.41369 24.85350
#
# Velocity S-wave (km/s) = 3.45726 3.68155 3.57117
# Velocity P-wave (km/s) = 5.73810 6.33690 6.04492
#
# Compressibility (1/GPa) = 0.03020424
#
# Stress axis : x y z
#
# Youngs Moduli (GPa) = 42.63646 63.25513 97.92859
#
# Poissons Ratio (x) = -0.00225 0.60244
# Poissons Ratio (y) = -0.00152 0.34460
# Poissons Ratio (z) = 0.26229 0.22259
#
# Static dielectric constant tensor:
#      x y z
#    x 3.144480 0.000000 0.000000 
#    y 0.000000 3.728970 0.000000 
#    z 0.000000 0.000000 3.621600 
# 
# 
# High freq. dielectric constant tensor:
#      x y z
#    x 1.711260 0.000000 0.000000 
#    y 0.000000 1.776520 0.000000 
#    z 0.000000 0.000000 1.763590 
# 
# From -- ./inp_files/20596.got.cif
#   From: 2010.06.25/outbox.cif.g09.slc.cpg/sg52_11_cif.got.tgz:20596.got - 2010.06.26 19:32:48.
