data_PCOD8215869
_publ_section_title
;
Structure prediction by ZEFSAII (Michael W. Deem and Ramdas Pophale) SiO2 
 PCOD8215869
Probable space group: P N N A
;
_chemical_formula_sum "Si O2"
_cell_formula_units_Z 60
_cell_length_a 12.480462
_cell_length_b 19.333639
_cell_length_c 11.582547
_cell_angle_alpha 90.000000
_cell_angle_beta 90.000000
_cell_angle_gamma 90.000000
_cell_volume 2794.784581
_symmetry_space_group_name_H-M "P N N A"
_symmetry_group_IT_number 52
_symmetry_cell_setting 'orthorhombic'
loop_
_space_group_symop_operation_xyz
x,y,z
1/2-x,-y,z
x,1/2-y,1/2-z
1/2-x,1/2+y,1/2-z
-x,-y,-z
1/2+x,y,-z
-x,1/2+y,1/2+z
1/2+x,1/2-y,1/2+z
loop_
_atom_site_type_symbol
_atom_site_label
_atom_site_fract_x
_atom_site_fract_y
_atom_site_fract_z
Si Si1 0.863203 0.381582 0.401490
Si Si2 0.912165 0.813611 0.449585
Si Si3 0.190867 0.846611 0.650859
Si Si4 0.917856 0.563911 0.667212
Si Si5 0.118662 0.753530 0.048573
Si Si6 0.336114 0.784293 0.139148
Si Si7 0.250000 0.500000 0.483464
Si Si8 0.503093 0.562220 0.088431
O O1 0.830382 0.336875 0.287636
O O2 0.900116 0.331245 0.504053
O O3 0.764554 0.431424 0.437827
O O4 0.963482 0.430913 0.381904
O O5 0.820450 0.844565 0.365755
O O6 0.881926 0.743987 0.519231
O O7 0.019789 0.785338 0.385513
O O8 0.939450 0.873164 0.538702
O O9 0.143972 0.787253 0.570095
O O10 0.127910 0.917833 0.615889
O O11 0.849909 0.634118 0.650364
O O12 0.854278 0.505116 0.598444
O O13 0.933091 0.541195 0.799971
O O14 0.213393 0.757663 0.141128
O O15 0.394420 0.750000 0.250000
O O16 0.500000 0.500000 0.000000
#
# Coordination Sequence:
#
# PCOD8215869 Si02
#       8
#     8   8   8   8   8   8   4   8
#     4  11  22  41  64  88 130 172 219 262 328 397
#     4  10  20  38  64  95 125 161 216 271 328 390
#     4   9  22  37  63  95 122 166 218 266 329 389
#     4  11  23  41  64  91 124 178 220 270 328 397
#     4  10  20  38  62  93 126 154 212 274 326 390
#     4  11  20  38  66  92 119 164 214 263 333 388
#     4  12  26  42  60  96 130 180 226 266 324 402
#     4  10  22  39  62  93 131 170 212 269 330 396
#
# _framework density 21.46856
#
# number of rings (size 3 to 8) (size 9 to 14) (size 15 to 20)
#    0.000    1.600    4.000    0.800    0.000    3.733 
#    2.400    4.000    0.000    0.000    0.000    0.000 
#    0.000    0.000    0.000    0.000    0.000    0.000 
#
# Total GULP energy -743384.079471 kJ/mol
# GULP energy per Si atom -12389.734658 kJ/mol
# Density = 2.141970 g / cm^3
# Si number density = 21.468560 Si / 1000 Ang^3
#
#
#
# Elastic Constant Matrix: (Units=GPa)
#
#
# Indices 1 2 3 4 5 6 
#
# 1 123.3010 17.6462 26.9539 0.0000 0.0000 0.0000
# 2 17.6462 69.2242 33.3941 0.0000 0.0000 0.0000
# 3 26.9539 33.3941 64.2164 0.0000 0.0000 0.0000
# 4 0.0000 0.0000 0.0000 36.4815 0.0000 0.0000
# 5 0.0000 0.0000 0.0000 0.0000 27.2467 0.0000
# 6 0.0000 0.0000 0.0000 0.0000 0.0000 33.6611
#
#
#
# Elastic Compliance Matrix: (Units=1/GPa)
#
#
# Indices 1 2 3 4 5 6 
#
# 1 0.008950 -0.000626 -0.003431 0.000000 0.000000 0.000000
# 2 -0.000626 0.019327 -0.009788 0.000000 0.000000 0.000000
# 3 -0.003431 -0.009788 0.022102 0.000000 0.000000 0.000000
# 4 0.000000 0.000000 0.000000 0.027411 0.000000 0.000000
# 5 0.000000 0.000000 0.000000 0.000000 0.036702 0.000000
# 6 0.000000 0.000000 0.000000 0.000000 0.000000 0.029708
#
#
# Mechanical properties :
#
#
# Convention : Reuss Voigt Hill
#
# Bulk Modulus (GPa) = 44.07339 45.85889 44.96614
# Shear Modulus (GPa) = 27.86249 31.39435 29.62842
#
# Velocity S-wave (km/s) = 3.60645 3.82821 3.71898
# Velocity P-wave (km/s) = 6.15758 6.39903 6.27946
#
# Compressibility (1/GPa) = 0.02268943
#
# Stress axis : x y z
#
# Youngs Moduli (GPa) = 111.73348 51.74082 45.24439
#
# Poissons Ratio (x) = 0.03241 0.15523
# Poissons Ratio (y) = 0.06999 0.44284
# Poissons Ratio (z) = 0.38334 0.50642
#
# Static dielectric constant tensor:
#      x y z
#    x 4.213000 0.000000 0.000000 
#    y 0.000000 4.097320 0.000000 
#    z 0.000000 0.000000 3.764430 
# 
# 
# High freq. dielectric constant tensor:
#      x y z
#    x 1.848540 0.000000 0.000000 
#    y 0.000000 1.831070 0.000000 
#    z 0.000000 0.000000 1.832240 
# 
# From -- ./inp_files/18402.got.cif
#   From: 2010.06.25/outbox.cif.g09.slc.cpg/sg52_10_cif.got.tgz:18402.got - 2010.06.26 19:32:48.
