data_PCOD8215164
_publ_section_title
;
Structure prediction by ZEFSAII (Michael W. Deem and Ramdas Pophale) SiO2 
 PCOD8215164
Probable space group: P N N A
;
_chemical_formula_sum "Si O2"
_cell_formula_units_Z 64
_cell_length_a 18.178612
_cell_length_b 9.451487
_cell_length_c 19.987330
_cell_angle_alpha 90.000000
_cell_angle_beta 90.000000
_cell_angle_gamma 90.000000
_cell_volume 3434.121405
_symmetry_space_group_name_H-M "P N N A"
_symmetry_group_IT_number 52
_symmetry_cell_setting 'orthorhombic'
loop_
_space_group_symop_operation_xyz
x,y,z
1/2-x,-y,z
x,1/2-y,1/2-z
1/2-x,1/2+y,1/2-z
-x,-y,-z
1/2+x,y,-z
-x,1/2+y,1/2+z
1/2+x,1/2-y,1/2+z
loop_
_atom_site_type_symbol
_atom_site_label
_atom_site_fract_x
_atom_site_fract_y
_atom_site_fract_z
Si Si1 0.617434 0.527900 0.526051
Si Si2 0.856867 0.748169 0.592603
Si Si3 0.076250 0.879587 0.297470
Si Si4 0.957365 0.623496 0.706183
Si Si5 0.029733 0.140895 0.590784
Si Si6 0.808483 0.293406 0.910765
Si Si7 0.037411 0.464606 0.598114
Si Si8 0.399884 0.013685 0.484434
O O1 0.652361 0.372731 0.536278
O O2 0.672118 0.640847 0.558483
O O3 0.541541 0.531905 0.564737
O O4 0.599166 0.546375 0.446556
O O5 0.896927 0.688215 0.657185
O O6 0.775480 0.801041 0.612389
O O7 0.905315 0.876507 0.563748
O O8 0.058747 0.750000 0.250000
O O9 0.143283 0.838632 0.346318
O O10 0.002296 0.914308 0.339342
O O11 0.090659 0.017297 0.252581
O O12 0.992153 0.750000 0.750000
O O13 0.025755 0.543020 0.669494
O O14 0.059285 0.299594 0.602376
O O15 0.094566 0.039126 0.561774
O O16 0.964734 0.126563 0.534226
O O17 0.823103 0.405962 0.970821
#
# Coordination Sequence:
#
# PCOD8215164 Si02
#       8
#     8   8   8   8   8   8   8   8
#     4  10  19  33  56  78  96 137 181 228 287 320
#     4  11  22  37  52  75 112 148 186 221 260 316
#     4  11  20  35  52  72 108 149 184 216 266 319
#     4  11  23  35  52  78 108 149 191 222 257 322
#     4  10  18  34  55  76 100 137 179 233 285 320
#     4  11  22  36  52  77 111 146 184 227 260 319
#     4  10  18  34  56  73 105 134 178 235 285 317
#     4  10  20  33  56  77  98 136 185 230 286 319
#
# _framework density 18.636498
#
# number of rings (size 3 to 8) (size 9 to 14) (size 15 to 20)
#    0.000    1.500    5.000    3.000    0.000    1.500 
#    0.000    3.750    0.000    0.000    0.000    0.000 
#    0.000   15.000    0.000    0.125    0.000    0.000 
#
# Total GULP energy -793002.253490 kJ/mol
# GULP energy per Si atom -12390.660211 kJ/mol
# Density = 1.859408 g / cm^3
# Si number density = 18.636498 Si / 1000 Ang^3
#
#
#
# Elastic Constant Matrix: (Units=GPa)
#
#
# Indices 1 2 3 4 5 6 
#
# 1 20.4275 7.1687 32.9490 0.0000 0.0000 0.0000
# 2 7.1687 95.5627 31.8871 0.0000 0.0000 0.0000
# 3 32.9490 31.8871 89.3018 0.0000 0.0000 0.0000
# 4 0.0000 0.0000 0.0000 41.2161 0.0000 0.0000
# 5 0.0000 0.0000 0.0000 0.0000 3.7741 0.0000
# 6 0.0000 0.0000 0.0000 0.0000 0.0000 19.6141
#
#
#
# Elastic Compliance Matrix: (Units=1/GPa)
#
#
# Indices 1 2 3 4 5 6 
#
# 1 0.124696 0.006809 -0.048439 0.000000 0.000000 0.000000
# 2 0.006809 0.012252 -0.006887 0.000000 0.000000 0.000000
# 3 -0.048439 -0.006887 0.031529 0.000000 0.000000 0.000000
# 4 0.000000 0.000000 0.000000 0.024262 0.000000 0.000000
# 5 0.000000 0.000000 0.000000 0.000000 0.264961 0.000000
# 6 0.000000 0.000000 0.000000 0.000000 0.000000 0.050984
#
#
# Mechanical properties :
#
#
# Convention : Reuss Voigt Hill
#
# Bulk Modulus (GPa) = 13.99737 38.81129 26.40433
# Shear Modulus (GPa) = 7.94241 21.80666 14.87454
#
# Velocity S-wave (km/s) = 2.06664 3.42439 2.82820
# Velocity P-wave (km/s) = 3.63617 6.04201 4.98636
#
# Compressibility (1/GPa) = 0.07144199
#
# Stress axis : x y z
#
# Youngs Moduli (GPa) = 8.01953 81.62226 31.71646
#
# Poissons Ratio (x) = -0.55576 1.53632
# Poissons Ratio (y) = -0.05460 0.21843
# Poissons Ratio (z) = 0.38846 0.56213
#
# Static dielectric constant tensor:
#      x y z
#    x 3.157850 0.000000 0.000000 
#    y 0.000000 3.959190 0.000000 
#    z 0.000000 0.000000 3.808880 
# 
# 
# High freq. dielectric constant tensor:
#      x y z
#    x 1.668720 0.000000 0.000000 
#    y 0.000000 1.749110 0.000000 
#    z 0.000000 0.000000 1.709730 
# 
# From -- ./inp_files/34142.got.cif
#   From: 2010.06.25/outbox.cif.g09.slc.cpg/sg52_18_cif.got.tgz:34142.got - 2010.06.26 19:32:48.
