data_PCOD8215557
_publ_section_title
;
Structure prediction by ZEFSAII (Michael W. Deem and Ramdas Pophale) SiO2 
 PCOD8215557
Probable space group: P N N A
;
_chemical_formula_sum "Si O2"
_cell_formula_units_Z 48
_cell_length_a 18.175809
_cell_length_b 10.692262
_cell_length_c 11.654806
_cell_angle_alpha 90.000000
_cell_angle_beta 90.000000
_cell_angle_gamma 90.000000
_cell_volume 2265.000964
_symmetry_space_group_name_H-M "P N N A"
_symmetry_group_IT_number 52
_symmetry_cell_setting 'orthorhombic'
loop_
_space_group_symop_operation_xyz
x,y,z
1/2-x,-y,z
x,1/2-y,1/2-z
1/2-x,1/2+y,1/2-z
-x,-y,-z
1/2+x,y,-z
-x,1/2+y,1/2+z
1/2+x,1/2-y,1/2+z
loop_
_atom_site_type_symbol
_atom_site_label
_atom_site_fract_x
_atom_site_fract_y
_atom_site_fract_z
Si Si1 0.666799 0.643505 0.857021
Si Si2 0.250000 0.000000 0.668173
Si Si3 0.818717 0.617683 0.955721
Si Si4 0.066934 0.304477 0.371102
Si Si5 0.679639 0.750000 0.250000
Si Si6 0.666571 0.534602 0.624031
Si Si7 0.589049 0.796504 0.031573
O O1 0.743566 0.690254 0.916125
O O2 0.666395 0.492540 0.865455
O O3 0.662672 0.653462 0.715480
O O4 0.596618 0.697450 0.926296
O O5 0.187484 0.058279 0.583565
O O6 0.274724 0.118363 0.747701
O O7 0.885499 0.713623 0.951933
O O8 0.040901 0.250000 0.250000
O O9 0.115687 0.422132 0.334940
O O10 0.994993 0.334223 0.445784
O O11 0.627554 0.738296 0.141204
O O12 0.750000 0.500000 0.603877
O O13 0.632830 0.578672 0.503559
#
# Coordination Sequence:
#
# PCOD8215557 Si02
#       7
#     8   4   8   8   4   8   8
#     4  10  19  42  69  97 119 164 222 278 331 381
#     4  10  24  42  70  96 134 172 250 272 334 404
#     4  10  19  41  66  97 120 166 224 277 323 394
#     4  12  24  41  64  97 136 174 217 272 349 420
#     4  12  24  46  66  98 134 192 222 274 332 426
#     4  12  24  42  72 101 125 166 231 298 334 389
#     4  12  26  41  63  94 141 175 213 270 350 417
#
# _framework density 21.192043999999999
#
# number of rings (size 3 to 8) (size 9 to 14) (size 15 to 20)
#    0.000    1.000    7.500    2.000    1.167    0.667 
#    3.000    0.000    0.000    0.000    0.000    0.000 
#    0.000    0.000    0.000    0.000    0.000    0.000 
#
# Total GULP energy -594967.079443 kJ/mol
# GULP energy per Si atom -12395.147488 kJ/mol
# Density = 2.114381 g / cm^3
# Si number density = 21.192044 Si / 1000 Ang^3
#
#
#
# Elastic Constant Matrix: (Units=GPa)
#
#
# Indices 1 2 3 4 5 6 
#
# 1 156.8329 59.2511 56.5930 0.0000 0.0000 0.0000
# 2 59.2511 84.3714 36.0936 0.0000 0.0000 0.0000
# 3 56.5930 36.0936 88.3394 0.0000 0.0000 0.0000
# 4 0.0000 0.0000 0.0000 25.8696 0.0000 0.0000
# 5 0.0000 0.0000 0.0000 0.0000 13.0098 0.0000
# 6 0.0000 0.0000 0.0000 0.0000 0.0000 25.0278
#
#
#
# Elastic Compliance Matrix: (Units=1/GPa)
#
#
# Indices 1 2 3 4 5 6 
#
# 1 0.009820 -0.005096 -0.004209 0.000000 0.000000 0.000000
# 2 -0.005096 0.017007 -0.003684 0.000000 0.000000 0.000000
# 3 -0.004209 -0.003684 0.015522 0.000000 0.000000 0.000000
# 4 0.000000 0.000000 0.000000 0.038655 0.000000 0.000000
# 5 0.000000 0.000000 0.000000 0.000000 0.076865 0.000000
# 6 0.000000 0.000000 0.000000 0.000000 0.000000 0.039956
#
#
# Mechanical properties :
#
#
# Convention : Reuss Voigt Hill
#
# Bulk Modulus (GPa) = 61.08428 70.37989 65.73209
# Shear Modulus (GPa) = 21.80924 24.62183 23.21554
#
# Velocity S-wave (km/s) = 3.21148 3.41228 3.31340
# Velocity P-wave (km/s) = 6.52979 6.98624 6.76187
#
# Compressibility (1/GPa) = 0.01637082
#
# Stress axis : x y z
#
# Youngs Moduli (GPa) = 101.83046 58.79928 64.42561
#
# Poissons Ratio (x) = 0.29963 0.27118
# Poissons Ratio (y) = 0.51890 0.23736
# Poissons Ratio (z) = 0.42862 0.21663
#
# Static dielectric constant tensor:
#      x y z
#    x 3.618020 0.000000 0.000000 
#    y 0.000000 4.039140 0.000000 
#    z 0.000000 0.000000 3.838890 
# 
# 
# High freq. dielectric constant tensor:
#      x y z
#    x 1.805200 0.000000 0.000000 
#    y 0.000000 1.852270 0.000000 
#    z 0.000000 0.000000 1.834260 
# 
# From -- ./inp_files/20656.got.cif
#   From: 2010.06.25/outbox.cif.g09.slc.cpg/sg52_11_cif.got.tgz:20656.got - 2010.06.26 19:32:48.
