data_PCOD8215938
_publ_section_title
;
Structure prediction by ZEFSAII (Michael W. Deem and Ramdas Pophale) SiO2 
 PCOD8215938
Probable space group: P N N A
;
_chemical_formula_sum "Si O2"
_cell_formula_units_Z 48
_cell_length_a 19.130339
_cell_length_b 15.078116
_cell_length_c 7.967505
_cell_angle_alpha 90.000000
_cell_angle_beta 90.000000
_cell_angle_gamma 90.000000
_cell_volume 2298.222599
_symmetry_space_group_name_H-M "P N N A"
_symmetry_group_IT_number 52
_symmetry_cell_setting 'orthorhombic'
loop_
_space_group_symop_operation_xyz
x,y,z
1/2-x,-y,z
x,1/2-y,1/2-z
1/2-x,1/2+y,1/2-z
-x,-y,-z
1/2+x,y,-z
-x,1/2+y,1/2+z
1/2+x,1/2-y,1/2+z
loop_
_atom_site_type_symbol
_atom_site_label
_atom_site_fract_x
_atom_site_fract_y
_atom_site_fract_z
Si Si1 0.184483 0.750000 0.250000
Si Si2 0.132423 0.403196 0.900894
Si Si3 0.037403 0.461052 0.162189
Si Si4 0.726706 0.812887 0.402440
Si Si5 0.101998 0.588585 0.744162
Si Si6 0.924586 0.373798 0.624929
Si Si7 0.039486 0.250000 0.750000
O O1 0.229751 0.760557 0.420039
O O2 0.135907 0.662777 0.253889
O O3 0.215398 0.389714 0.904109
O O4 0.116167 0.484068 0.774114
O O5 0.089188 0.316418 0.850033
O O6 0.110284 0.421519 0.095322
O O7 0.050489 0.531414 0.308678
O O8 0.980662 0.389651 0.228441
O O9 0.000000 0.500000 0.000000
O O10 0.748064 0.750000 0.250000
O O11 0.649968 0.853846 0.368865
O O12 0.114867 0.615973 0.552741
O O13 0.990236 0.305807 0.621686
#
# Coordination Sequence:
#
# PCOD8215938 Si02
#       7
#     4   8   8   8   8   8   4
#     4  11  24  44  70  96 135 178 226 280 341 412
#     4  11  24  44  66  93 142 178 228 286 348 405
#     4  10  20  39  65  97 129 171 228 282 337 399
#     4  12  25  47  67  99 138 183 230 279 345 414
#     4  11  23  42  71 100 132 185 230 282 341 424
#     4  11  22  40  69 101 132 174 236 280 346 412
#     4  11  22  38  66  96 139 178 216 300 343 394
#
# _framework density 20.885705999999999
#
# number of rings (size 3 to 8) (size 9 to 14) (size 15 to 20)
#    0.000    1.000    5.833    3.000    2.333    0.000 
#    6.000    0.000    0.000    0.000    0.000    0.000 
#    0.000    0.000    0.000    0.000    0.000    0.000 
#
# Total GULP energy -594924.024946 kJ/mol
# GULP energy per Si atom -12394.250520 kJ/mol
# Density = 2.083817 g / cm^3
# Si number density = 20.885706 Si / 1000 Ang^3
#
#
#
# Elastic Constant Matrix: (Units=GPa)
#
#
# Indices 1 2 3 4 5 6 
#
# 1 91.7890 29.6411 35.9383 0.0000 0.0000 0.0000
# 2 29.6411 76.0164 33.5200 0.0000 0.0000 0.0000
# 3 35.9383 33.5200 126.5320 0.0000 0.0000 0.0000
# 4 0.0000 0.0000 0.0000 31.2219 0.0000 0.0000
# 5 0.0000 0.0000 0.0000 0.0000 19.5817 0.0000
# 6 0.0000 0.0000 0.0000 0.0000 0.0000 36.5259
#
#
#
# Elastic Compliance Matrix: (Units=1/GPa)
#
#
# Indices 1 2 3 4 5 6 
#
# 1 0.013236 -0.003967 -0.002709 0.000000 0.000000 0.000000
# 2 -0.003967 0.016084 -0.003134 0.000000 0.000000 0.000000
# 3 -0.002709 -0.003134 0.009503 0.000000 0.000000 0.000000
# 4 0.000000 0.000000 0.000000 0.032029 0.000000 0.000000
# 5 0.000000 0.000000 0.000000 0.000000 0.051068 0.000000
# 6 0.000000 0.000000 0.000000 0.000000 0.000000 0.027378
#
#
# Mechanical properties :
#
#
# Convention : Reuss Voigt Hill
#
# Bulk Modulus (GPa) = 52.07340 54.72623 53.39982
# Shear Modulus (GPa) = 28.51972 30.48178 29.50075
#
# Velocity S-wave (km/s) = 3.69930 3.82443 3.76238
# Velocity P-wave (km/s) = 6.57519 6.76471 6.67062
#
# Compressibility (1/GPa) = 0.01920366
#
# Stress axis : x y z
#
# Youngs Moduli (GPa) = 75.55158 62.17419 105.23324
#
# Poissons Ratio (x) = 0.24663 0.28502
# Poissons Ratio (y) = 0.29970 0.32982
# Poissons Ratio (z) = 0.20463 0.19486
#
# Static dielectric constant tensor:
#      x y z
#    x 4.154520 0.000000 0.000000 
#    y 0.000000 3.975990 0.000000 
#    z 0.000000 0.000000 4.062820 
# 
# 
# High freq. dielectric constant tensor:
#      x y z
#    x 1.819730 0.000000 0.000000 
#    y 0.000000 1.810560 0.000000 
#    z 0.000000 0.000000 1.813550 
# 
# From -- ./inp_files/13315.got.cif
#   From: 2010.06.25/outbox.cif.g09.slc.cpg/sg52_7_cif.got.tgz:13315.got - 2010.06.26 19:32:48.
