data_PCOD8215482
_publ_section_title
;
Structure prediction by ZEFSAII (Michael W. Deem and Ramdas Pophale) SiO2 
 PCOD8215482
Probable space group: P N N A
;
_chemical_formula_sum "Si O2"
_cell_formula_units_Z 60
_cell_length_a 10.746096
_cell_length_b 18.415785
_cell_length_c 15.427637
_cell_angle_alpha 90.000000
_cell_angle_beta 90.000000
_cell_angle_gamma 90.000000
_cell_volume 3053.095322
_symmetry_space_group_name_H-M "P N N A"
_symmetry_group_IT_number 52
_symmetry_cell_setting 'orthorhombic'
loop_
_space_group_symop_operation_xyz
x,y,z
1/2-x,-y,z
x,1/2-y,1/2-z
1/2-x,1/2+y,1/2-z
-x,-y,-z
1/2+x,y,-z
-x,1/2+y,1/2+z
1/2+x,1/2-y,1/2+z
loop_
_atom_site_type_symbol
_atom_site_label
_atom_site_fract_x
_atom_site_fract_y
_atom_site_fract_z
Si Si1 0.048466 0.134591 0.435646
Si Si2 0.613514 0.523214 0.393017
Si Si3 0.340113 0.110212 0.432053
Si Si4 0.101200 0.291855 0.390964
Si Si5 0.620624 0.758906 0.849290
Si Si6 0.505822 0.617789 0.531413
Si Si7 0.250000 0.000000 0.299173
Si Si8 0.041624 0.405335 0.257331
O O1 0.194179 0.119165 0.463377
O O2 0.027742 0.221324 0.426369
O O3 0.016407 0.101946 0.343095
O O4 0.942130 0.094780 0.493067
O O5 0.750000 0.500000 0.374943
O O6 0.610171 0.589524 0.462757
O O7 0.536789 0.453379 0.420554
O O8 0.562984 0.545154 0.299396
O O9 0.402761 0.182238 0.393578
O O10 0.343788 0.045938 0.361209
O O11 0.234546 0.272528 0.355525
O O12 0.038282 0.328188 0.306690
O O13 0.103944 0.347864 0.471898
O O14 0.576339 0.750000 0.750000
O O15 0.550487 0.823963 0.898102
O O16 0.324033 0.945690 0.235310
#
# Coordination Sequence:
#
# PCOD8215482 Si02
#       8
#     8   8   8   8   8   8   4   8
#     4  10  20  41  60  90 114 162 208 253 314 357
#     4  10  22  40  56  91 125 159 198 243 318 378
#     4  10  22  38  61  85 123 156 210 261 307 376
#     4  10  19  37  61  87 119 153 203 246 309 361
#     4  11  21  35  61  92 117 156 204 262 302 360
#     4  10  21  37  63  85 120 162 195 251 310 376
#     4  10  22  40  58  90 118 158 218 256 306 356
#     4  10  22  36  61  86 119 160 196 255 294 378
#
# _framework density 19.652186
#
# number of rings (size 3 to 8) (size 9 to 14) (size 15 to 20)
#    0.000    1.867    1.333    3.600    3.733    2.133 
#    6.000    0.000    0.000    0.000    0.000    0.000 
#    0.000    0.000    0.000    0.000    0.000    0.000 
#
# Total GULP energy -743314.560065 kJ/mol
# GULP energy per Si atom -12388.576001 kJ/mol
# Density = 1.960746 g / cm^3
# Si number density = 19.652186 Si / 1000 Ang^3
#
#
#
# Elastic Constant Matrix: (Units=GPa)
#
#
# Indices 1 2 3 4 5 6 
#
# 1 66.9180 10.1898 41.7367 0.0000 0.0000 0.0000
# 2 10.1898 79.6829 19.3601 0.0000 0.0000 0.0000
# 3 41.7367 19.3601 90.0778 0.0000 0.0000 0.0000
# 4 0.0000 0.0000 0.0000 28.6133 0.0000 0.0000
# 5 0.0000 0.0000 0.0000 0.0000 27.4769 0.0000
# 6 0.0000 0.0000 0.0000 0.0000 0.0000 28.0487
#
#
#
# Elastic Compliance Matrix: (Units=1/GPa)
#
#
# Indices 1 2 3 4 5 6 
#
# 1 0.021026 -0.000340 -0.009669 0.000000 0.000000 0.000000
# 2 -0.000340 0.013247 -0.002690 0.000000 0.000000 0.000000
# 3 -0.009669 -0.002690 0.016160 0.000000 0.000000 0.000000
# 4 0.000000 0.000000 0.000000 0.034949 0.000000 0.000000
# 5 0.000000 0.000000 0.000000 0.000000 0.036394 0.000000
# 6 0.000000 0.000000 0.000000 0.000000 0.000000 0.035652
#
#
# Mechanical properties :
#
#
# Convention : Reuss Voigt Hill
#
# Bulk Modulus (GPa) = 39.94332 42.13909 41.04120
# Shear Modulus (GPa) = 26.15475 27.85393 27.00434
#
# Velocity S-wave (km/s) = 3.65208 3.76885 3.71093
# Velocity P-wave (km/s) = 6.17680 6.35830 6.26821
#
# Compressibility (1/GPa) = 0.02503548
#
# Stress axis : x y z
#
# Youngs Moduli (GPa) = 47.56000 75.49062 61.88208
#
# Poissons Ratio (x) = 0.02563 0.59835
# Poissons Ratio (y) = 0.01615 0.16645
# Poissons Ratio (z) = 0.45987 0.20305
#
# Static dielectric constant tensor:
#      x y z
#    x 3.018280 0.000000 0.000000 
#    y 0.000000 4.081970 0.000000 
#    z 0.000000 0.000000 3.592930 
# 
# 
# High freq. dielectric constant tensor:
#      x y z
#    x 1.735150 0.000000 0.000000 
#    y 0.000000 1.788770 0.000000 
#    z 0.000000 0.000000 1.766810 
# 
# From -- ./inp_files/26326.got.cif
#   From: 2010.06.25/outbox.cif.g09.slc.cpg/sg52_14_cif.got.tgz:26326.got - 2010.06.26 19:32:48.
