data_PCOD8215256
_publ_section_title
;
Structure prediction by ZEFSAII (Michael W. Deem and Ramdas Pophale) SiO2 
 PCOD8215256
Probable space group: P N N A
;
_chemical_formula_sum "Si O2"
_cell_formula_units_Z 48
_cell_length_a 5.015799
_cell_length_b 24.439285
_cell_length_c 24.534462
_cell_angle_alpha 90.000000
_cell_angle_beta 90.000000
_cell_angle_gamma 90.000000
_cell_volume 3007.496700
_symmetry_space_group_name_H-M "P N N A"
_symmetry_group_IT_number 52
_symmetry_cell_setting 'orthorhombic'
loop_
_space_group_symop_operation_xyz
x,y,z
1/2-x,-y,z
x,1/2-y,1/2-z
1/2-x,1/2+y,1/2-z
-x,-y,-z
1/2+x,y,-z
-x,1/2+y,1/2+z
1/2+x,1/2-y,1/2+z
loop_
_atom_site_type_symbol
_atom_site_label
_atom_site_fract_x
_atom_site_fract_y
_atom_site_fract_z
Si Si1 0.531936 0.662850 0.232062
Si Si2 0.945846 0.237565 0.162243
Si Si3 0.750000 0.000000 0.110826
Si Si4 0.046517 0.682281 0.376434
Si Si5 0.250000 0.000000 0.180430
Si Si6 0.962418 0.392170 0.728980
Si Si7 0.383161 0.598227 0.536170
O O1 0.541654 0.697852 0.176167
O O2 0.545365 0.704009 0.282230
O O3 0.251183 0.633008 0.230091
O O4 0.759213 0.616533 0.239366
O O5 0.666066 0.229820 0.132940
O O6 0.173165 0.214365 0.121650
O O7 0.501169 0.974929 0.145812
O O8 0.599541 0.046221 0.075867
O O9 0.038008 0.636889 0.329516
O O10 0.970641 0.653052 0.432743
O O11 0.389400 0.045003 0.218652
O O12 0.579545 0.595692 0.484662
#
# Coordination Sequence:
#
# PCOD8215256 Si02
#       7
#     8   8   4   8   4   8   8
#     4   9  17  29  45  68  87 108 133 178 224 277
#     4   9  17  29  48  66  86 105 135 174 234 285
#     4  12  24  37  50  60  82 120 166 206 252 279
#     4  10  19  32  47  64  83 111 142 190 239 282
#     4  12  22  33  50  66  88 124 158 196 232 289
#     4  10  19  30  46  64  89 113 146 182 227 267
#     4  12  24  37  49  64  85 114 159 210 252 288
#
# _framework density 15.960117
#
# number of rings (size 3 to 8) (size 9 to 14) (size 15 to 20)
#    0.000    1.667    1.667    4.500    4.667    4.000 
#    0.000    0.000    0.000    0.000    0.000    0.000 
#    0.000    0.000    0.000    0.000    0.000    0.000 
#
# Total GULP energy -594930.189723 kJ/mol
# GULP energy per Si atom -12394.378953 kJ/mol
# Density = 1.592379 g / cm^3
# Si number density = 15.960117 Si / 1000 Ang^3
#
#
#
# Elastic Constant Matrix: (Units=GPa)
#
#
# Indices 1 2 3 4 5 6 
#
# 1 76.1372 16.4684 12.0304 0.0000 0.0000 0.0000
# 2 16.4684 64.7238 36.0138 0.0000 0.0000 0.0000
# 3 12.0304 36.0138 29.7846 0.0000 0.0000 0.0000
# 4 0.0000 0.0000 0.0000 15.5955 0.0000 0.0000
# 5 0.0000 0.0000 0.0000 0.0000 16.8933 0.0000
# 6 0.0000 0.0000 0.0000 0.0000 0.0000 22.1711
#
#
#
# Elastic Compliance Matrix: (Units=1/GPa)
#
#
# Indices 1 2 3 4 5 6 
#
# 1 0.014064 -0.001276 -0.004137 0.000000 0.000000 0.000000
# 2 -0.001276 0.047335 -0.056719 0.000000 0.000000 0.000000
# 3 -0.004137 -0.056719 0.103827 0.000000 0.000000 0.000000
# 4 0.000000 0.000000 0.000000 0.064121 0.000000 0.000000
# 5 0.000000 0.000000 0.000000 0.000000 0.059195 0.000000
# 6 0.000000 0.000000 0.000000 0.000000 0.000000 0.045104
#
#
# Mechanical properties :
#
#
# Convention : Reuss Voigt Hill
#
# Bulk Modulus (GPa) = 24.41392 33.29677 28.85535
# Shear Modulus (GPa) = 10.60302 18.00751 14.30526
#
# Velocity S-wave (km/s) = 2.58028 3.36263 2.99710
# Velocity P-wave (km/s) = 4.92008 5.99868 5.48595
#
# Compressibility (1/GPa) = 0.04096023
#
# Stress axis : x y z
#
# Youngs Moduli (GPa) = 71.10357 21.12612 9.63144
#
# Poissons Ratio (x) = 0.02696 0.03985
# Poissons Ratio (y) = 0.09075 0.54628
# Poissons Ratio (z) = 0.29418 1.19825
#
# Static dielectric constant tensor:
#      x y z
#    x 3.350170 0.000000 0.000000 
#    y 0.000000 2.912900 0.000000 
#    z 0.000000 0.000000 2.708570 
# 
# 
# High freq. dielectric constant tensor:
#      x y z
#    x 1.642030 0.000000 0.000000 
#    y 0.000000 1.590460 0.000000 
#    z 0.000000 0.000000 1.555570 
# 
# From -- ./inp_files/35158.got.cif
#   From: 2010.06.25/outbox.cif.g09.slc.cpg/sg52_18_cif.got.tgz:35158.got - 2010.06.26 19:32:48.
