data_PCOD8215231
_publ_section_title
;
Structure prediction by ZEFSAII (Michael W. Deem and Ramdas Pophale) SiO2 
 PCOD8215231
Probable space group: P N N A
;
_chemical_formula_sum "Si O2"
_cell_formula_units_Z 40
_cell_length_a 11.907395
_cell_length_b 10.889353
_cell_length_c 16.225622
_cell_angle_alpha 90.000000
_cell_angle_beta 90.000000
_cell_angle_gamma 90.000000
_cell_volume 2103.876252
_symmetry_space_group_name_H-M "P N N A"
_symmetry_group_IT_number 52
_symmetry_cell_setting 'orthorhombic'
loop_
_space_group_symop_operation_xyz
x,y,z
1/2-x,-y,z
x,1/2-y,1/2-z
1/2-x,1/2+y,1/2-z
-x,-y,-z
1/2+x,y,-z
-x,1/2+y,1/2+z
1/2+x,1/2-y,1/2+z
loop_
_atom_site_type_symbol
_atom_site_label
_atom_site_fract_x
_atom_site_fract_y
_atom_site_fract_z
Si Si1 0.612695 0.699470 0.509812
Si Si2 0.508672 0.439732 0.629029
Si Si3 0.954061 0.709404 0.343711
Si Si4 0.588120 0.750000 0.250000
Si Si5 0.250000 0.000000 0.080298
Si Si6 0.267066 0.358309 0.884157
O O1 0.524968 0.611667 0.461047
O O2 0.556974 0.744837 0.595345
O O3 0.724371 0.619081 0.525149
O O4 0.652505 0.815589 0.458176
O O5 0.436379 0.561502 0.652217
O O6 0.490391 0.332267 0.693749
O O7 0.639958 0.473084 0.635015
O O8 0.981774 0.750000 0.250000
O O9 0.846326 0.779911 0.379013
O O10 0.667581 0.657133 0.200948
O O11 0.250000 0.500000 0.901264
#
# Coordination Sequence:
#
# PCOD8215231 Si02
#       6
#     8   8   8   4   4   8
#     4  10  21  37  62  87 117 156 201 251 297 365
#     4  10  21  38  60  88 118 155 203 249 299 364
#     4  11  21  37  61  88 118 154 203 251 300 359
#     4  10  22  36  58  88 118 152 198 260 288 356
#     4  10  18  38  60  84 110 154 202 236 298 358
#     4  11  22  37  59  88 120 159 200 244 306 354
#
# _framework density 19.012526999999999
#
# number of rings (size 3 to 8) (size 9 to 14) (size 15 to 20)
#    0.000    1.600    1.000    6.000    0.000    2.400 
#    7.200    2.000    2.200    0.000    0.000    0.000 
#    0.000    0.000    0.000    0.000    0.000    0.000 
#
# Total GULP energy -495889.339071 kJ/mol
# GULP energy per Si atom -12397.233477 kJ/mol
# Density = 1.896925 g / cm^3
# Si number density = 19.012527 Si / 1000 Ang^3
#
#
#
# Elastic Constant Matrix: (Units=GPa)
#
#
# Indices 1 2 3 4 5 6 
#
# 1 103.4790 53.3926 36.5753 0.0000 0.0000 0.0000
# 2 53.3926 132.5043 45.2345 0.0000 0.0000 0.0000
# 3 36.5753 45.2345 114.2190 0.0000 0.0000 0.0000
# 4 0.0000 0.0000 0.0000 23.7859 0.0000 0.0000
# 5 0.0000 0.0000 0.0000 0.0000 -731.4514 0.0000
# 6 0.0000 0.0000 0.0000 0.0000 0.0000 4.2056
#
#
#
# Elastic Compliance Matrix: (Units=1/GPa)
#
#
# Indices 1 2 3 4 5 6 
#
# 1 0.012730 -0.004322 -0.002365 0.000000 0.000000 0.000000
# 2 -0.004322 0.010194 -0.002653 0.000000 0.000000 0.000000
# 3 -0.002365 -0.002653 0.010563 0.000000 0.000000 0.000000
# 4 0.000000 0.000000 0.000000 0.042042 0.000000 0.000000
# 5 0.000000 0.000000 0.000000 0.000000 -0.001367 0.000000
# 6 0.000000 0.000000 0.000000 0.000000 0.000000 0.237778
#
#
# Mechanical properties :
#
#
# Convention : Reuss Voigt Hill
#
# Bulk Modulus (GPa) = 67.53531 68.95633 68.24582
# Shear Modulus (GPa) = 14.90066 -126.35865 -55.72900
#
# Velocity S-wave (km/s) = 2.80255 -8.16119 -5.41990
# Velocity P-wave (km/s) = 6.78756 7.24286 1.78719
#
# Compressibility (1/GPa) = 0.01480707
#
# Stress axis : x y z
#
# Youngs Moduli (GPa) = 78.55623 98.09381 94.66951
#
# Poissons Ratio (x) = 0.42398 0.22385
# Poissons Ratio (y) = 0.33954 0.25118
# Poissons Ratio (z) = 0.18575 0.26026
#
# Static dielectric constant tensor:
#      x y z
#    x 3.365470 0.000000 0.000000 
#    y 0.000000 3.544930 0.000000 
#    z 0.000000 0.000000 3.533450 
# 
# 
# High freq. dielectric constant tensor:
#      x y z
#    x 1.737100 0.000000 0.000000 
#    y 0.000000 1.742030 0.000000 
#    z 0.000000 0.000000 1.741600 
# 
# From -- ./inp_files/25883.got.cif
#   From: 2010.06.25/outbox.cif.g09.slc.cpg/sg52_13_cif.got.tgz:25883.got - 2010.06.26 19:32:48.
