data_PCOD8215873
_publ_section_title
;
Structure prediction by ZEFSAII (Michael W. Deem and Ramdas Pophale) SiO2 
 PCOD8215873
Probable space group: P N N A
;
_chemical_formula_sum "Si O2"
_cell_formula_units_Z 52
_cell_length_a 19.381292
_cell_length_b 14.460782
_cell_length_c 8.221920
_cell_angle_alpha 90.000000
_cell_angle_beta 90.000000
_cell_angle_gamma 90.000000
_cell_volume 2304.346324
_symmetry_space_group_name_H-M "P N N A"
_symmetry_group_IT_number 52
_symmetry_cell_setting 'orthorhombic'
loop_
_space_group_symop_operation_xyz
x,y,z
1/2-x,-y,z
x,1/2-y,1/2-z
1/2-x,1/2+y,1/2-z
-x,-y,-z
1/2+x,y,-z
-x,1/2+y,1/2+z
1/2+x,1/2-y,1/2+z
loop_
_atom_site_type_symbol
_atom_site_label
_atom_site_fract_x
_atom_site_fract_y
_atom_site_fract_z
Si Si1 0.417573 0.775938 0.063157
Si Si2 0.750000 0.000000 0.235980
Si Si3 0.139632 0.895877 0.939611
Si Si4 0.459776 0.441211 0.848776
Si Si5 0.637218 0.413489 0.030838
Si Si6 0.061337 0.762235 0.439556
Si Si7 0.389676 0.956808 0.195724
O O1 0.432260 0.750000 0.250000
O O2 0.377118 0.874253 0.063073
O O3 0.373619 0.697605 0.968307
O O4 0.490782 0.792709 0.976961
O O5 0.783611 0.077882 0.118839
O O6 0.695558 0.056099 0.344087
O O7 0.089746 0.928810 0.800650
O O8 0.126771 0.787087 0.970718
O O9 0.121228 0.946057 0.109802
O O10 0.438028 0.539742 0.928666
O O11 0.535316 0.442227 0.774959
O O12 0.445291 0.365285 0.990021
O O13 0.661719 0.446052 0.850186
O O14 0.075806 0.750000 0.250000
#
# Coordination Sequence:
#
# PCOD8215873 Si02
#       7
#     8   4   8   8   8   8   8
#     4  10  20  38  63 100 140 165 213 284 355 409
#     4  10  26  48  64  92 134 196 240 264 328 418
#     4  11  24  42  68  94 136 184 225 279 337 413
#     4  11  21  40  63 102 137 168 214 286 357 405
#     4  10  22  40  68  92 137 180 223 278 337 407
#     4  12  23  36  65 106 138 170 220 280 357 419
#     4  11  21  39  68 103 132 169 222 287 353 404
#
# _framework density 22.566053
#
# number of rings (size 3 to 8) (size 9 to 14) (size 15 to 20)
#    0.000    1.231    4.615    2.308    2.154    1.846 
#    0.000    6.154    0.000   10.154    0.000    0.000 
#    0.000    0.000    0.000    0.000    0.000    0.000 
#
# Total GULP energy -644435.385983 kJ/mol
# GULP energy per Si atom -12392.988192 kJ/mol
# Density = 2.251469 g / cm^3
# Si number density = 22.566053 Si / 1000 Ang^3
#
#
#
# Elastic Constant Matrix: (Units=GPa)
#
#
# Indices 1 2 3 4 5 6 
#
# 1 75.9702 50.2026 34.9776 0.0000 0.0000 0.0000
# 2 50.2026 94.6072 35.6915 0.0000 0.0000 0.0000
# 3 34.9776 35.6915 92.9606 0.0000 0.0000 0.0000
# 4 0.0000 0.0000 0.0000 26.8355 0.0000 0.0000
# 5 0.0000 0.0000 0.0000 0.0000 22.4187 0.0000
# 6 0.0000 0.0000 0.0000 0.0000 0.0000 24.2360
#
#
#
# Elastic Compliance Matrix: (Units=1/GPa)
#
#
# Indices 1 2 3 4 5 6 
#
# 1 0.021694 -0.009861 -0.004377 0.000000 0.000000 0.000000
# 2 -0.009861 0.016842 -0.002756 0.000000 0.000000 0.000000
# 3 -0.004377 -0.002756 0.013462 0.000000 0.000000 0.000000
# 4 0.000000 0.000000 0.000000 0.037264 0.000000 0.000000
# 5 0.000000 0.000000 0.000000 0.000000 0.044606 0.000000
# 6 0.000000 0.000000 0.000000 0.000000 0.000000 0.041261
#
#
# Mechanical properties :
#
#
# Convention : Reuss Voigt Hill
#
# Bulk Modulus (GPa) = 55.52040 56.14237 55.83138
# Shear Modulus (GPa) = 23.24270 24.20912 23.72591
#
# Velocity S-wave (km/s) = 3.21282 3.27893 3.24605
# Velocity P-wave (km/s) = 6.19838 6.26645 6.23250
#
# Compressibility (1/GPa) = 0.01801140
#
# Stress axis : x y z
#
# Youngs Moduli (GPa) = 46.09487 59.37406 74.28131
#
# Poissons Ratio (x) = 0.58547 0.32512
# Poissons Ratio (y) = 0.45453 0.20474
# Poissons Ratio (z) = 0.20175 0.16365
#
# Static dielectric constant tensor:
#      x y z
#    x 3.946100 0.000000 0.000000 
#    y 0.000000 4.882970 0.000000 
#    z 0.000000 0.000000 4.386940 
# 
# 
# High freq. dielectric constant tensor:
#      x y z
#    x 1.851010 0.000000 0.000000 
#    y 0.000000 1.894330 0.000000 
#    z 0.000000 0.000000 1.913040 
# 
# From -- ./inp_files/13376.got.cif
#   From: 2010.06.25/outbox.cif.g09.slc.cpg/sg52_7_cif.got.tgz:13376.got - 2010.06.26 19:32:48.
