data_PCOD8215567
_publ_section_title
;
Structure prediction by ZEFSAII (Michael W. Deem and Ramdas Pophale) SiO2 
 PCOD8215567
Probable space group: P N N A
;
_chemical_formula_sum "Si O2"
_cell_formula_units_Z 36
_cell_length_a 27.633759
_cell_length_b 5.063211
_cell_length_c 13.333295
_cell_angle_alpha 90.000000
_cell_angle_beta 90.000000
_cell_angle_gamma 90.000000
_cell_volume 1865.535337
_symmetry_space_group_name_H-M "P N N A"
_symmetry_group_IT_number 52
_symmetry_cell_setting 'orthorhombic'
loop_
_space_group_symop_operation_xyz
x,y,z
1/2-x,-y,z
x,1/2-y,1/2-z
1/2-x,1/2+y,1/2-z
-x,-y,-z
1/2+x,y,-z
-x,1/2+y,1/2+z
1/2+x,1/2-y,1/2+z
loop_
_atom_site_type_symbol
_atom_site_label
_atom_site_fract_x
_atom_site_fract_y
_atom_site_fract_z
Si Si1 0.616059 0.771323 0.448958
Si Si2 0.492008 0.402787 0.341408
Si Si3 0.070458 0.750000 0.750000
Si Si4 0.559856 0.242390 0.991051
Si Si5 0.782636 0.251294 0.134480
O O1 0.602741 0.871361 0.338066
O O2 0.596694 0.479954 0.470115
O O3 0.674187 0.762414 0.447901
O O4 0.590051 0.984568 0.523399
O O5 0.464205 0.250000 0.250000
O O6 0.539556 0.508764 0.288962
O O7 0.512335 0.224187 0.435303
O O8 0.459152 0.643711 0.382437
O O9 0.750000 0.500000 0.112756
O O10 0.801553 0.250000 0.250000
O O11 0.750000 0.000000 0.111576
#
# Coordination Sequence:
#
# PCOD8215567 Si02
#       5
#     8   8   4   8   8
#     4  11  20  36  49  77 103 141 181 221 265 329
#     4  10  20  34  49  73 104 145 187 229 266 307
#     4  10  20  30  54  68 104 150 178 216 268 300
#     4  10  23  32  52  73 105 141 190 220 267 322
#     4  10  20  33  52  76 102 135 176 220 268 329
#
# _framework density 19.297411
#
# number of rings (size 3 to 8) (size 9 to 14) (size 15 to 20)
#    0.000    1.778    3.333    1.333    3.111    2.667 
#    0.000    0.000    0.000    0.000    0.000    0.000 
#    0.000    5.333    0.000    0.000    0.000    0.000 
#
# Total GULP energy -446126.836544 kJ/mol
# GULP energy per Si atom -12392.412126 kJ/mol
# Density = 1.925349 g / cm^3
# Si number density = 19.297411 Si / 1000 Ang^3
#
#
#
# Elastic Constant Matrix: (Units=GPa)
#
#
# Indices 1 2 3 4 5 6 
#
# 1 82.5518 15.3645 18.1526 0.0000 0.0000 0.0000
# 2 15.3645 71.3366 10.2864 0.0000 0.0000 0.0000
# 3 18.1526 10.2864 71.1745 0.0000 0.0000 0.0000
# 4 0.0000 0.0000 0.0000 29.1456 0.0000 0.0000
# 5 0.0000 0.0000 0.0000 0.0000 -1.1966 0.0000
# 6 0.0000 0.0000 0.0000 0.0000 0.0000 14.4126
#
#
#
# Elastic Compliance Matrix: (Units=1/GPa)
#
#
# Indices 1 2 3 4 5 6 
#
# 1 0.013228 -0.002413 -0.003025 0.000000 0.000000 0.000000
# 2 -0.002413 0.014757 -0.001517 0.000000 0.000000 0.000000
# 3 -0.003025 -0.001517 0.015041 0.000000 0.000000 0.000000
# 4 0.000000 0.000000 0.000000 0.034310 0.000000 0.000000
# 5 0.000000 0.000000 0.000000 0.000000 -0.835691 0.000000
# 6 0.000000 0.000000 0.000000 0.000000 0.000000 0.069384
#
#
# Mechanical properties :
#
#
# Convention : Reuss Voigt Hill
#
# Bulk Modulus (GPa) = 34.34662 34.74110 34.54386
# Shear Modulus (GPa) = -7.51477 20.55627 6.52075
#
# Velocity S-wave (km/s) = -1.97551 3.26733 1.84022
# Velocity P-wave (km/s) = 3.55439 5.68120 4.73866
#
# Compressibility (1/GPa) = 0.02911495
#
# Stress axis : x y z
#
# Youngs Moduli (GPa) = 75.59800 67.76672 66.48597
#
# Poissons Ratio (x) = 0.16351 0.20112
# Poissons Ratio (y) = 0.18241 0.10088
# Poissons Ratio (z) = 0.22868 0.10282
#
# Static dielectric constant tensor:
#      x y z
#    x 3.349080 0.000000 0.000000 
#    y 0.000000 3.463460 0.000000 
#    z 0.000000 0.000000 3.716590 
# 
# 
# High freq. dielectric constant tensor:
#      x y z
#    x 1.725150 0.000000 0.000000 
#    y 0.000000 1.764780 0.000000 
#    z 0.000000 0.000000 1.715280 
# 
# From -- ./inp_files/28981.got.cif
#   From: 2010.06.25/outbox.cif.g09.slc.cpg/sg52_15_cif.got.tgz:28981.got - 2010.06.26 19:32:48.
