data_PCOD8215863
_publ_section_title
;
Structure prediction by ZEFSAII (Michael W. Deem and Ramdas Pophale) SiO2 
 PCOD8215863
Probable space group: P N N A
;
_chemical_formula_sum "Si O2"
_cell_formula_units_Z 32
_cell_length_a 17.751360
_cell_length_b 8.924711
_cell_length_c 9.234590
_cell_angle_alpha 90.000000
_cell_angle_beta 90.000000
_cell_angle_gamma 90.000000
_cell_volume 1462.996919
_symmetry_space_group_name_H-M "P N N A"
_symmetry_group_IT_number 52
_symmetry_cell_setting 'orthorhombic'
loop_
_space_group_symop_operation_xyz
x,y,z
1/2-x,-y,z
x,1/2-y,1/2-z
1/2-x,1/2+y,1/2-z
-x,-y,-z
1/2+x,y,-z
-x,1/2+y,1/2+z
1/2+x,1/2-y,1/2+z
loop_
_atom_site_type_symbol
_atom_site_label
_atom_site_fract_x
_atom_site_fract_y
_atom_site_fract_z
Si Si1 0.041509 0.717590 0.409861
Si Si2 0.893217 0.544358 0.417073
Si Si3 0.366956 0.075627 0.598232
Si Si4 0.287392 0.720543 0.913513
O O1 0.072111 0.750000 0.250000
O O2 0.083687 0.569406 0.459877
O O3 0.059956 0.861493 0.513097
O O4 0.952719 0.682290 0.405058
O O5 0.886094 0.451499 0.266596
O O6 0.816916 0.622783 0.481529
O O7 0.302451 0.203594 0.578380
O O8 0.332393 0.924947 0.527393
O O9 0.314274 0.750000 0.750000
#
# Coordination Sequence:
#
# PCOD8215863 Si02
#       4
#     8   8   8   8
#     4  11  23  38  57  86 122 155 190 239 303 359
#     4  10  22  39  61  87 117 156 201 248 292 347
#     4  10  20  38  62  85 115 156 201 249 296 346
#     4   9  18  35  62  89 110 149 210 256 285 338
#
# _framework density 21.872909
#
# number of rings (size 3 to 8) (size 9 to 14) (size 15 to 20)
#    0.000    2.000    0.000    4.500    0.000    7.000 
#    0.000    8.750    0.000    0.000    0.000    0.000 
#    0.000    0.000    0.000    0.000    0.000    0.000 
#
# Total GULP energy -396446.650157 kJ/mol
# GULP energy per Si atom -12388.957817 kJ/mol
# Density = 2.182313 g / cm^3
# Si number density = 21.872909 Si / 1000 Ang^3
#
#
#
# Elastic Constant Matrix: (Units=GPa)
#
#
# Indices 1 2 3 4 5 6 
#
# 1 100.4992 51.5384 37.9947 0.0000 0.0000 0.0000
# 2 51.5384 71.9402 45.5813 0.0000 0.0000 0.0000
# 3 37.9947 45.5813 89.0131 0.0000 0.0000 0.0000
# 4 0.0000 0.0000 0.0000 28.7627 0.0000 0.0000
# 5 0.0000 0.0000 0.0000 0.0000 22.3313 0.0000
# 6 0.0000 0.0000 0.0000 0.0000 0.0000 60.3972
#
#
#
# Elastic Compliance Matrix: (Units=1/GPa)
#
#
# Indices 1 2 3 4 5 6 
#
# 1 0.015847 -0.010461 -0.001407 0.000000 0.000000 0.000000
# 2 -0.010461 0.027482 -0.009608 0.000000 0.000000 0.000000
# 3 -0.001407 -0.009608 0.016755 0.000000 0.000000 0.000000
# 4 0.000000 0.000000 0.000000 0.034767 0.000000 0.000000
# 5 0.000000 0.000000 0.000000 0.000000 0.044780 0.000000
# 6 0.000000 0.000000 0.000000 0.000000 0.000000 0.016557
#
#
# Mechanical properties :
#
#
# Convention : Reuss Voigt Hill
#
# Bulk Modulus (GPa) = 58.37095 59.07573 58.72334
# Shear Modulus (GPa) = 24.40782 30.72076 27.56429
#
# Velocity S-wave (km/s) = 3.34412 3.75175 3.55378
# Velocity P-wave (km/s) = 6.45409 6.77014 6.61400
#
# Compressibility (1/GPa) = 0.01713181
#
# Stress axis : x y z
#
# Youngs Moduli (GPa) = 63.10257 36.38685 59.68424
#
# Poissons Ratio (x) = 0.38066 0.08399
# Poissons Ratio (y) = 0.66014 0.57343
# Poissons Ratio (z) = 0.08880 0.34959
#
# Static dielectric constant tensor:
#      x y z
#    x 4.060690 0.000000 0.000000 
#    y 0.000000 4.364930 0.000000 
#    z 0.000000 0.000000 3.489530 
# 
# 
# High freq. dielectric constant tensor:
#      x y z
#    x 1.865300 0.000000 0.000000 
#    y 0.000000 1.887600 0.000000 
#    z 0.000000 0.000000 1.803010 
# 
# From -- ./inp_files/12783.got.cif
#   From: 2010.06.25/outbox.cif.g09.slc.cpg/sg52_7_cif.got.tgz:12783.got - 2010.06.26 19:32:48.
