data_PCOD8215601
_publ_section_title
;
Structure prediction by ZEFSAII (Michael W. Deem and Ramdas Pophale) SiO2 
 PCOD8215601
Probable space group: P N N A
;
_chemical_formula_sum "Si O2"
_cell_formula_units_Z 64
_cell_length_a 17.592111
_cell_length_b 8.713435
_cell_length_c 23.740555
_cell_angle_alpha 90.000000
_cell_angle_beta 90.000000
_cell_angle_gamma 90.000000
_cell_volume 3639.135446
_symmetry_space_group_name_H-M "P N N A"
_symmetry_group_IT_number 52
_symmetry_cell_setting 'orthorhombic'
loop_
_space_group_symop_operation_xyz
x,y,z
1/2-x,-y,z
x,1/2-y,1/2-z
1/2-x,1/2+y,1/2-z
-x,-y,-z
1/2+x,y,-z
-x,1/2+y,1/2+z
1/2+x,1/2-y,1/2+z
loop_
_atom_site_type_symbol
_atom_site_label
_atom_site_fract_x
_atom_site_fract_y
_atom_site_fract_z
Si Si1 0.143488 0.378463 0.482118
Si Si2 0.447142 0.149669 0.493532
Si Si3 0.039598 0.328789 0.586051
Si Si4 0.764463 0.176910 0.371838
Si Si5 0.700528 0.714636 0.491720
Si Si6 0.388698 0.677815 0.809844
Si Si7 0.580315 0.676394 0.189208
Si Si8 0.492331 0.830369 0.095507
O O1 0.101622 0.306667 0.536628
O O2 0.222940 0.290491 0.470791
O O3 0.153922 0.558681 0.495109
O O4 0.095043 0.343355 0.425374
O O5 0.465249 0.241318 0.436711
O O6 0.353895 0.136781 0.493934
O O7 0.457532 0.252066 0.548163
O O8 0.500000 0.000000 0.500000
O O9 0.058143 0.248049 0.643516
O O10 0.024801 0.501404 0.603174
O O11 0.766792 0.279887 0.427953
O O12 0.697408 0.216215 0.328239
O O13 0.841668 0.224181 0.340684
O O14 0.750000 0.000000 0.389167
O O15 0.404721 0.750000 0.750000
O O16 0.415372 0.504419 0.804863
O O17 0.573235 0.750000 0.250000
O O18 0.506763 0.733460 0.152789
#
# Coordination Sequence:
#
# PCOD8215601 Si02
#       8
#     8   8   8   8   8   8   8   8
#     4  10  20  33  56  83 112 148 196 233 290 347
#     4  11  21  32  54  82 114 149 187 233 286 344
#     4  11  19  35  52  78 109 150 190 236 281 333
#     4  10  21  34  51  76 114 153 194 230 275 336
#     4  11  19  35  54  84 116 153 189 228 289 350
#     4  11  23  37  53  81 111 152 198 239 280 340
#     4  11  22  38  56  77 109 154 195 242 289 339
#     4  11  20  37  54  79 112 145 193 240 285 343
#
# _framework density 17.586593000000001
#
# number of rings (size 3 to 8) (size 9 to 14) (size 15 to 20)
#    0.000    1.250    5.000    2.625    1.750    0.000 
#    0.000    0.000    0.000    0.000    0.000    0.875 
#    3.750    0.000    0.000    0.000    0.000    0.000 
#
# Total GULP energy -792895.992576 kJ/mol
# GULP energy per Si atom -12388.999884 kJ/mol
# Density = 1.754657 g / cm^3
# Si number density = 17.586593 Si / 1000 Ang^3
#
#
#
# Elastic Constant Matrix: (Units=GPa)
#
#
# Indices 1 2 3 4 5 6 
#
# 1 104.6318 37.4220 56.5559 0.0000 0.0000 0.0000
# 2 37.4220 73.1579 49.9029 0.0000 0.0000 0.0000
# 3 56.5559 49.9029 115.7805 0.0000 0.0000 0.0000
# 4 0.0000 0.0000 0.0000 32.0912 0.0000 0.0000
# 5 0.0000 0.0000 0.0000 0.0000 17.0305 0.0000
# 6 0.0000 0.0000 0.0000 0.0000 0.0000 36.5114
#
#
#
# Elastic Compliance Matrix: (Units=1/GPa)
#
#
# Indices 1 2 3 4 5 6 
#
# 1 0.013567 -0.003427 -0.005150 0.000000 0.000000 0.000000
# 2 -0.003427 0.020227 -0.007044 0.000000 0.000000 0.000000
# 3 -0.005150 -0.007044 0.014189 0.000000 0.000000 0.000000
# 4 0.000000 0.000000 0.000000 0.031161 0.000000 0.000000
# 5 0.000000 0.000000 0.000000 0.000000 0.058718 0.000000
# 6 0.000000 0.000000 0.000000 0.000000 0.000000 0.027389
#
#
# Mechanical properties :
#
#
# Convention : Reuss Voigt Hill
#
# Bulk Modulus (GPa) = 59.73522 64.59243 62.16383
# Shear Modulus (GPa) = 24.74360 27.10591 25.92476
#
# Velocity S-wave (km/s) = 3.75501 3.93018 3.84359
# Velocity P-wave (km/s) = 7.26913 7.57648 7.42439
#
# Compressibility (1/GPa) = 0.01674054
#
# Stress axis : x y z
#
# Youngs Moduli (GPa) = 73.71057 49.43904 70.47796
#
# Poissons Ratio (x) = 0.16941 0.36296
# Poissons Ratio (y) = 0.25258 0.49646
# Poissons Ratio (z) = 0.37961 0.34826
#
# Static dielectric constant tensor:
#      x y z
#    x 3.412070 0.000000 0.000000 
#    y 0.000000 3.322290 0.000000 
#    z 0.000000 0.000000 3.139820 
# 
# 
# High freq. dielectric constant tensor:
#      x y z
#    x 1.674310 0.000000 0.000000 
#    y 0.000000 1.685940 0.000000 
#    z 0.000000 0.000000 1.656780 
# 
# From -- ./inp_files/37695.got.cif
#   From: 2010.06.25/outbox.cif.g09.slc.cpg/sg52_19_cif.got.tgz:37695.got - 2010.06.26 19:32:48.
