data_PCOD8215635
_publ_section_title
;
Structure prediction by ZEFSAII (Michael W. Deem and Ramdas Pophale) SiO2 
 PCOD8215635
Probable space group: P N N A
;
_chemical_formula_sum "Si O2"
_cell_formula_units_Z 56
_cell_length_a 9.660293
_cell_length_b 20.778142
_cell_length_c 15.027552
_cell_angle_alpha 90.000000
_cell_angle_beta 90.000000
_cell_angle_gamma 90.000000
_cell_volume 3016.374414
_symmetry_space_group_name_H-M "P N N A"
_symmetry_group_IT_number 52
_symmetry_cell_setting 'orthorhombic'
loop_
_space_group_symop_operation_xyz
x,y,z
1/2-x,-y,z
x,1/2-y,1/2-z
1/2-x,1/2+y,1/2-z
-x,-y,-z
1/2+x,y,-z
-x,1/2+y,1/2+z
1/2+x,1/2-y,1/2+z
loop_
_atom_site_type_symbol
_atom_site_label
_atom_site_fract_x
_atom_site_fract_y
_atom_site_fract_z
Si Si1 0.732318 0.250176 0.987222
Si Si2 0.629227 0.308312 0.687996
Si Si3 0.453009 0.651619 0.711401
Si Si4 0.801601 0.069660 0.828630
Si Si5 0.367997 0.041768 0.976978
Si Si6 0.343632 0.158445 0.862116
Si Si7 0.995054 0.280073 0.892323
O O1 0.657279 0.205094 0.915481
O O2 0.846987 0.294500 0.938192
O O3 0.807874 0.209240 0.062423
O O4 0.614949 0.292847 0.034959
O O5 0.685190 0.250000 0.750000
O O6 0.706941 0.374279 0.714483
O O7 0.463730 0.314901 0.702624
O O8 0.538166 0.585512 0.696300
O O9 0.290139 0.640131 0.696280
O O10 0.476886 0.671835 0.812429
O O11 0.507296 0.705971 0.642403
O O12 0.793896 0.070617 0.935404
O O13 0.750000 0.000000 0.791810
O O14 0.250000 0.000000 0.928025
O O15 0.412532 0.096802 0.909098
O O16 0.500000 0.000000 0.000000
#
# Coordination Sequence:
#
# PCOD8215635 Si02
#       7
#     8   8   8   8   8   8   8
#     4  11  20  34  53  79 112 152 190 236 290 351
#     4  12  24  37  55  86 120 154 196 251 293 346
#     4  10  21  35  55  81 114 154 194 243 291 341
#     4  11  22  38  58  82 117 160 202 232 286 356
#     4  11  21  33  54  80 115 160 197 221 268 349
#     4  11  22  34  53  80 117 154 193 238 284 345
#     4  10  20  34  56  79 115 148 194 238 295 340
#
# _framework density 18.565334
#
# number of rings (size 3 to 8) (size 9 to 14) (size 15 to 20)
#    0.000    1.143    4.286    3.429    6.000    0.000 
#    0.000    0.000    0.000    0.000    0.000    4.000 
#    0.000    0.000    0.000    0.000    0.000    0.000 
#
# Total GULP energy -694349.367710 kJ/mol
# GULP energy per Si atom -12399.095852 kJ/mol
# Density = 1.852308 g / cm^3
# Si number density = 18.565334 Si / 1000 Ang^3
#
#
#
# Elastic Constant Matrix: (Units=GPa)
#
#
# Indices 1 2 3 4 5 6 
#
# 1 128.5111 31.0810 38.8186 0.0000 0.0000 0.0000
# 2 31.0810 86.2451 29.3785 0.0000 0.0000 0.0000
# 3 38.8186 29.3785 63.4564 0.0000 0.0000 0.0000
# 4 0.0000 0.0000 0.0000 19.9573 0.0000 0.0000
# 5 0.0000 0.0000 0.0000 0.0000 26.8739 0.0000
# 6 0.0000 0.0000 0.0000 0.0000 0.0000 30.5252
#
#
#
# Elastic Compliance Matrix: (Units=1/GPa)
#
#
# Indices 1 2 3 4 5 6 
#
# 1 0.009766 -0.001762 -0.005158 0.000000 0.000000 0.000000
# 2 -0.001762 0.014084 -0.005442 0.000000 0.000000 0.000000
# 3 -0.005158 -0.005442 0.021434 0.000000 0.000000 0.000000
# 4 0.000000 0.000000 0.000000 0.050107 0.000000 0.000000
# 5 0.000000 0.000000 0.000000 0.000000 0.037211 0.000000
# 6 0.000000 0.000000 0.000000 0.000000 0.000000 0.032760
#
#
# Mechanical properties :
#
#
# Convention : Reuss Voigt Hill
#
# Bulk Modulus (GPa) = 48.64314 52.97431 50.80873
# Shear Modulus (GPa) = 25.38853 27.40026 26.39440
#
# Velocity S-wave (km/s) = 3.70202 3.84589 3.77464
# Velocity P-wave (km/s) = 6.67317 6.95105 6.81353
#
# Compressibility (1/GPa) = 0.02055788
#
# Stress axis : x y z
#
# Youngs Moduli (GPa) = 102.39872 71.00335 46.65497
#
# Poissons Ratio (x) = 0.12513 0.24065
# Poissons Ratio (y) = 0.18046 0.25391
# Poissons Ratio (z) = 0.52819 0.38643
#
# Static dielectric constant tensor:
#      x y z
#    x 3.594620 0.000000 0.000000 
#    y 0.000000 3.206410 0.000000 
#    z 0.000000 0.000000 3.240190 
# 
# 
# High freq. dielectric constant tensor:
#      x y z
#    x 1.748980 0.000000 0.000000 
#    y 0.000000 1.682270 0.000000 
#    z 0.000000 0.000000 1.693000 
# 
# From -- ./inp_files/24943.got.cif
#   From: 2010.06.25/outbox.cif.g09.slc.cpg/sg52_13_cif.got.tgz:24943.got - 2010.06.26 19:32:48.
