data_PCOD8215275
_publ_section_title
;
Structure prediction by ZEFSAII (Michael W. Deem and Ramdas Pophale) SiO2 
 PCOD8215275
Probable space group: P N N A
;
_chemical_formula_sum "Si O2"
_cell_formula_units_Z 44
_cell_length_a 27.309763
_cell_length_b 9.037353
_cell_length_c 8.693787
_cell_angle_alpha 90.000000
_cell_angle_beta 90.000000
_cell_angle_gamma 90.000000
_cell_volume 2145.695909
_symmetry_space_group_name_H-M "P N N A"
_symmetry_group_IT_number 52
_symmetry_cell_setting 'orthorhombic'
loop_
_space_group_symop_operation_xyz
x,y,z
1/2-x,-y,z
x,1/2-y,1/2-z
1/2-x,1/2+y,1/2-z
-x,-y,-z
1/2+x,y,-z
-x,1/2+y,1/2+z
1/2+x,1/2-y,1/2+z
loop_
_atom_site_type_symbol
_atom_site_label
_atom_site_fract_x
_atom_site_fract_y
_atom_site_fract_z
Si Si1 0.909896 0.344188 0.403051
Si Si2 0.250000 0.000000 0.116222
Si Si3 0.961834 0.579752 0.221142
Si Si4 0.831063 0.087421 0.678335
Si Si5 0.697466 0.725835 0.424008
Si Si6 0.564652 0.927714 0.587569
O O1 0.912574 0.250000 0.250000
O O2 0.940501 0.493487 0.370550
O O3 0.852459 0.373929 0.439502
O O4 0.934240 0.247017 0.539948
O O5 0.297003 0.973637 0.227543
O O6 0.257957 0.142538 0.008618
O O7 0.950647 0.750000 0.250000
O O8 0.019520 0.544879 0.202026
O O9 0.936175 0.531558 0.062402
O O10 0.826082 0.250000 0.750000
O O11 0.812946 0.112866 0.501472
O O12 0.886639 0.028723 0.682351
O O13 0.713761 0.750000 0.250000
#
# Coordination Sequence:
#
# PCOD8215275 Si02
#       6
#     8   4   8   8   8   8
#     4   8  16  33  54  74 104 146 189 225 267 334
#     4  10  20  34  56  82 104 130 184 244 278 312
#     4  10  19  31  51  83 112 140 187 238 274 317
#     4   9  18  35  58  81 105 142 190 232 277 340
#     4   9  18  35  57  78 103 145 190 224 275 348
#     4   9  18  34  55  75 108 154 185 218 278 342
#
# _framework density 20.506169
#
# number of rings (size 3 to 8) (size 9 to 14) (size 15 to 20)
#    0.000    2.909    0.000    1.636    0.000    1.455 
#    0.000    6.364    0.000    9.818    0.000    0.000 
#    0.000    0.000    0.000    0.000    0.000    0.000 
#
# Total GULP energy -545327.347237 kJ/mol
# GULP energy per Si atom -12393.803346 kJ/mol
# Density = 2.045950 g / cm^3
# Si number density = 20.506169 Si / 1000 Ang^3
#
#
#
# Elastic Constant Matrix: (Units=GPa)
#
#
# Indices 1 2 3 4 5 6 
#
# 1 147.1184 52.2315 60.5691 0.0000 0.0000 0.0000
# 2 52.2315 82.0653 29.6036 0.0000 0.0000 0.0000
# 3 60.5691 29.6036 91.0797 0.0000 0.0000 0.0000
# 4 0.0000 0.0000 0.0000 24.5210 0.0000 0.0000
# 5 0.0000 0.0000 0.0000 0.0000 40.6010 0.0000
# 6 0.0000 0.0000 0.0000 0.0000 0.0000 27.9963
#
#
#
# Elastic Compliance Matrix: (Units=1/GPa)
#
#
# Indices 1 2 3 4 5 6 
#
# 1 0.010844 -0.004872 -0.005628 0.000000 0.000000 0.000000
# 2 -0.004872 0.015992 -0.001958 0.000000 0.000000 0.000000
# 3 -0.005628 -0.001958 0.015359 0.000000 0.000000 0.000000
# 4 0.000000 0.000000 0.000000 0.040781 0.000000 0.000000
# 5 0.000000 0.000000 0.000000 0.000000 0.024630 0.000000
# 6 0.000000 0.000000 0.000000 0.000000 0.000000 0.035719
#
#
# Mechanical properties :
#
#
# Convention : Reuss Voigt Hill
#
# Bulk Modulus (GPa) = 57.87308 67.23019 62.55164
# Shear Modulus (GPa) = 28.73557 30.48093 29.60825
#
# Velocity S-wave (km/s) = 3.74747 3.85960 3.80395
# Velocity P-wave (km/s) = 6.85626 7.26076 7.06140
#
# Compressibility (1/GPa) = 0.01727919
#
# Stress axis : x y z
#
# Youngs Moduli (GPa) = 92.21875 62.52963 65.11048
#
# Poissons Ratio (x) = 0.30461 0.36643
# Poissons Ratio (y) = 0.44925 0.12751
# Poissons Ratio (z) = 0.51899 0.12246
#
# Static dielectric constant tensor:
#      x y z
#    x 3.877320 0.000000 0.000000 
#    y 0.000000 3.418310 0.000000 
#    z 0.000000 0.000000 4.169990 
# 
# 
# High freq. dielectric constant tensor:
#      x y z
#    x 1.799550 0.000000 0.000000 
#    y 0.000000 1.750480 0.000000 
#    z 0.000000 0.000000 1.817400 
# 
# From -- ./inp_files/15399.got.cif
#   From: 2010.06.25/outbox.cif.g09.slc.cpg/sg52_8_cif.got.tgz:15399.got - 2010.06.26 19:32:48.
