data_PCOD8215797
_publ_section_title
;
Structure prediction by ZEFSAII (Michael W. Deem and Ramdas Pophale) SiO2 
 PCOD8215797
Probable space group: P N N A
;
_chemical_formula_sum "Si O2"
_cell_formula_units_Z 64
_cell_length_a 12.956404
_cell_length_b 28.126556
_cell_length_c 8.147239
_cell_angle_alpha 90.000000
_cell_angle_beta 90.000000
_cell_angle_gamma 90.000000
_cell_volume 2969.008874
_symmetry_space_group_name_H-M "P N N A"
_symmetry_group_IT_number 52
_symmetry_cell_setting 'orthorhombic'
loop_
_space_group_symop_operation_xyz
x,y,z
1/2-x,-y,z
x,1/2-y,1/2-z
1/2-x,1/2+y,1/2-z
-x,-y,-z
1/2+x,y,-z
-x,1/2+y,1/2+z
1/2+x,1/2-y,1/2+z
loop_
_atom_site_type_symbol
_atom_site_label
_atom_site_fract_x
_atom_site_fract_y
_atom_site_fract_z
Si Si1 0.328339 0.394878 0.698977
Si Si2 0.004554 0.524983 0.243888
Si Si3 0.656332 0.531389 0.031524
Si Si4 0.814534 0.643806 0.560646
Si Si5 0.147692 0.804846 0.288447
Si Si6 0.464207 0.933744 0.072549
Si Si7 0.708105 0.801115 0.339527
Si Si8 0.077711 0.195734 0.782858
O O1 0.301050 0.423167 0.867023
O O2 0.234847 0.392619 0.570770
O O3 0.418734 0.422290 0.611623
O O4 0.356967 0.339639 0.735891
O O5 0.065796 0.483508 0.342805
O O6 0.909708 0.503658 0.144540
O O7 0.958303 0.562867 0.373676
O O8 0.086761 0.549801 0.121068
O O9 0.750000 0.500000 0.962483
O O10 0.733935 0.665972 0.688040
O O11 0.894576 0.608416 0.649760
O O12 0.879193 0.685409 0.466852
O O13 0.158453 0.750000 0.250000
O O14 0.165022 0.805561 0.480718
O O15 0.034758 0.828325 0.247879
O O16 0.695140 0.750000 0.250000
O O17 0.829045 0.817870 0.341705
O O18 0.052164 0.250000 0.750000
#
# Coordination Sequence:
#
# PCOD8215797 Si02
#       8
#     8   8   8   8   8   8   8   8
#     4  10  22  37  57  85 119 159 201 252 312 370
#     4   9  21  39  60  83 116 156 196 246 307 381
#     4  10  20  37  60  88 118 153 198 250 311 373
#     4  11  22  37  60  89 122 159 207 261 310 371
#     4  11  22  38  64  91 118 164 213 252 312 376
#     4  10  21  39  59  85 117 153 200 254 310 369
#     4  10  22  42  61  86 128 166 206 260 312 372
#     4   9  20  39  58  83 123 161 199 254 306 359
#
# _framework density 21.556014000000001
#
# number of rings (size 3 to 8) (size 9 to 14) (size 15 to 20)
#    0.000    2.000    0.000    3.750    0.000    6.000 
#    0.000    7.500    0.000    0.750    0.000    0.000 
#    0.000    0.000    0.000    0.000    0.000    0.000 
#
# Total GULP energy -792964.357989 kJ/mol
# GULP energy per Si atom -12390.068094 kJ/mol
# Density = 2.150695 g / cm^3
# Si number density = 21.556014 Si / 1000 Ang^3
#
#
#
# Elastic Constant Matrix: (Units=GPa)
#
#
# Indices 1 2 3 4 5 6 
#
# 1 78.2197 20.3777 34.3652 0.0000 0.0000 0.0000
# 2 20.3777 71.6484 11.4692 0.0000 0.0000 0.0000
# 3 34.3652 11.4692 91.2530 0.0000 0.0000 0.0000
# 4 0.0000 0.0000 0.0000 35.2529 0.0000 0.0000
# 5 0.0000 0.0000 0.0000 0.0000 33.4598 0.0000
# 6 0.0000 0.0000 0.0000 0.0000 0.0000 34.3812
#
#
#
# Elastic Compliance Matrix: (Units=1/GPa)
#
#
# Indices 1 2 3 4 5 6 
#
# 1 0.016232 -0.003713 -0.005646 0.000000 0.000000 0.000000
# 2 -0.003713 0.015093 -0.000499 0.000000 0.000000 0.000000
# 3 -0.005646 -0.000499 0.013148 0.000000 0.000000 0.000000
# 4 0.000000 0.000000 0.000000 0.028366 0.000000 0.000000
# 5 0.000000 0.000000 0.000000 0.000000 0.029887 0.000000
# 6 0.000000 0.000000 0.000000 0.000000 0.000000 0.029086
#
#
# Mechanical properties :
#
#
# Convention : Reuss Voigt Hill
#
# Bulk Modulus (GPa) = 40.39256 41.50502 40.94879
# Shear Modulus (GPa) = 31.29304 32.27938 31.78621
#
# Velocity S-wave (km/s) = 3.81426 3.87391 3.84420
# Velocity P-wave (km/s) = 6.17877 6.26944 6.22427
#
# Compressibility (1/GPa) = 0.02475703
#
# Stress axis : x y z
#
# Youngs Moduli (GPa) = 61.60490 66.25645 76.05949
#
# Poissons Ratio (x) = 0.24600 0.42946
# Poissons Ratio (y) = 0.22873 0.03793
# Poissons Ratio (z) = 0.34784 0.03304
#
# Static dielectric constant tensor:
#      x y z
#    x 3.991940 0.000000 0.000000 
#    y 0.000000 3.850330 0.000000 
#    z 0.000000 0.000000 3.854530 
# 
# 
# High freq. dielectric constant tensor:
#      x y z
#    x 1.846720 0.000000 0.000000 
#    y 0.000000 1.845280 0.000000 
#    z 0.000000 0.000000 1.839210 
# 
# From -- ./inp_files/9126.got.cif
#   From: 2010.06.25/outbox.cif.g09.slc.cpg/sg52_5_cif.got.tgz:9126.got - 2010.06.26 19:32:48.
