data_PCOD8215309
_publ_section_title
;
Structure prediction by ZEFSAII (Michael W. Deem and Ramdas Pophale) SiO2 
 PCOD8215309
Probable space group: P N N A
;
_chemical_formula_sum "Si O2"
_cell_formula_units_Z 48
_cell_length_a 5.192640
_cell_length_b 28.144392
_cell_length_c 17.487091
_cell_angle_alpha 90.000000
_cell_angle_beta 90.000000
_cell_angle_gamma 90.000000
_cell_volume 2555.628105
_symmetry_space_group_name_H-M "P N N A"
_symmetry_group_IT_number 52
_symmetry_cell_setting 'orthorhombic'
loop_
_space_group_symop_operation_xyz
x,y,z
1/2-x,-y,z
x,1/2-y,1/2-z
1/2-x,1/2+y,1/2-z
-x,-y,-z
1/2+x,y,-z
-x,1/2+y,1/2+z
1/2+x,1/2-y,1/2+z
loop_
_atom_site_type_symbol
_atom_site_label
_atom_site_fract_x
_atom_site_fract_y
_atom_site_fract_z
Si Si1 0.763020 0.445059 0.952373
Si Si2 0.192127 0.143735 0.953473
Si Si3 0.801099 0.755228 0.452861
Si Si4 0.467981 0.796021 0.704709
Si Si5 0.754973 0.120708 0.215893
Si Si6 0.736957 0.611260 0.798362
O O1 0.750000 0.500000 0.928525
O O2 0.539989 0.432303 0.012604
O O3 0.716787 0.413729 0.878357
O O4 0.193856 0.199456 0.935744
O O5 0.231832 0.115397 0.874989
O O6 0.419067 0.128915 0.011012
O O7 0.531189 0.770105 0.490349
O O8 0.828451 0.783060 0.373964
O O9 0.571952 0.750000 0.750000
O O10 0.262651 0.823786 0.758435
O O11 0.708279 0.831599 0.688658
O O12 0.521618 0.091664 0.256646
O O13 0.025017 0.099353 0.243157
#
# Coordination Sequence:
#
# PCOD8215309 Si02
#       6
#     8   8   8   8   8   8
#     4  10  21  39  63  88 119 155 192 240 299 353
#     4  10  19  33  51  70  97 135 180 228 265 319
#     4  10  21  32  45  65  92 129 183 225 261 312
#     4  10  22  36  51  72 104 153 183 233 285 338
#     4  10  21  36  51  76 107 140 181 234 281 338
#     4  10  22  35  55  79 108 145 189 236 273 345
#
# _framework density 18.782077000000001
#
# number of rings (size 3 to 8) (size 9 to 14) (size 15 to 20)
#    1.000    1.000    1.667    2.000    2.333    3.333 
#    0.000    0.000    0.000    0.000    0.000    0.000 
#    0.000   13.333    0.000    0.000    0.000    0.000 
#
# Total GULP energy -595049.260011 kJ/mol
# GULP energy per Si atom -12396.859584 kJ/mol
# Density = 1.873933 g / cm^3
# Si number density = 18.782077 Si / 1000 Ang^3
#
#
#
# Elastic Constant Matrix: (Units=GPa)
#
#
# Indices 1 2 3 4 5 6 
#
# 1 120.4846 17.1685 29.4733 0.0000 0.0000 0.0000
# 2 17.1685 33.6885 31.5761 0.0000 0.0000 0.0000
# 3 29.4733 31.5761 117.5481 0.0000 0.0000 0.0000
# 4 0.0000 0.0000 0.0000 23.5335 0.0000 0.0000
# 5 0.0000 0.0000 0.0000 0.0000 27.7623 0.0000
# 6 0.0000 0.0000 0.0000 0.0000 0.0000 11.0673
#
#
#
# Elastic Compliance Matrix: (Units=1/GPa)
#
#
# Indices 1 2 3 4 5 6 
#
# 1 0.009116 -0.003346 -0.001387 0.000000 0.000000 0.000000
# 2 -0.003346 0.040900 -0.010148 0.000000 0.000000 0.000000
# 3 -0.001387 -0.010148 0.011581 0.000000 0.000000 0.000000
# 4 0.000000 0.000000 0.000000 0.042493 0.000000 0.000000
# 5 0.000000 0.000000 0.000000 0.000000 0.036020 0.000000
# 6 0.000000 0.000000 0.000000 0.000000 0.000000 0.090357
#
#
# Mechanical properties :
#
#
# Convention : Reuss Voigt Hill
#
# Bulk Modulus (GPa) = 31.41096 47.57300 39.49198
# Shear Modulus (GPa) = 18.46113 25.37284 21.91698
#
# Velocity S-wave (km/s) = 3.13854 3.67946 3.41971
# Velocity P-wave (km/s) = 5.46755 6.59053 6.05513
#
# Compressibility (1/GPa) = 0.03183602
#
# Stress axis : x y z
#
# Youngs Moduli (GPa) = 109.69924 24.44964 86.34933
#
# Poissons Ratio (x) = 0.08180 0.11976
# Poissons Ratio (y) = 0.36702 0.87626
# Poissons Ratio (z) = 0.15214 0.24811
#
# Static dielectric constant tensor:
#      x y z
#    x 3.494980 0.000000 0.000000 
#    y 0.000000 2.996550 0.000000 
#    z 0.000000 0.000000 3.355130 
# 
# 
# High freq. dielectric constant tensor:
#      x y z
#    x 1.739390 0.000000 0.000000 
#    y 0.000000 1.672990 0.000000 
#    z 0.000000 0.000000 1.738880 
# 
# From -- ./inp_files/23743.got.cif
#   From: 2010.06.25/outbox.cif.g09.slc.cpg/sg52_12_cif.got.tgz:23743.got - 2010.06.26 19:32:48.
