data_PCOD8215387
_publ_section_title
;
Structure prediction by ZEFSAII (Michael W. Deem and Ramdas Pophale) SiO2 
 PCOD8215387
Probable space group: P N N A
;
_chemical_formula_sum "Si O2"
_cell_formula_units_Z 40
_cell_length_a 23.367446
_cell_length_b 9.573604
_cell_length_c 8.750742
_cell_angle_alpha 90.000000
_cell_angle_beta 90.000000
_cell_angle_gamma 90.000000
_cell_volume 1957.634395
_symmetry_space_group_name_H-M "P N N A"
_symmetry_group_IT_number 52
_symmetry_cell_setting 'orthorhombic'
loop_
_space_group_symop_operation_xyz
x,y,z
1/2-x,-y,z
x,1/2-y,1/2-z
1/2-x,1/2+y,1/2-z
-x,-y,-z
1/2+x,y,-z
-x,1/2+y,1/2+z
1/2+x,1/2-y,1/2+z
loop_
_atom_site_type_symbol
_atom_site_label
_atom_site_fract_x
_atom_site_fract_y
_atom_site_fract_z
Si Si1 0.254113 0.280753 0.072581
Si Si2 0.047537 0.600002 0.573459
Si Si3 0.047391 0.909958 0.573915
Si Si4 0.828603 0.386004 0.355097
Si Si5 0.828222 0.519254 0.054676
O O1 0.245758 0.250000 0.250000
O O2 0.278646 0.147801 0.977334
O O3 0.192654 0.327249 0.000508
O O4 0.298703 0.406381 0.055803
O O5 0.045230 0.755173 0.500216
O O6 0.032636 0.601715 0.749942
O O7 0.114841 0.555765 0.556145
O O8 0.000000 0.500000 0.500000
O O9 0.104765 0.996567 0.539493
O O10 0.000000 0.000000 0.500000
O O11 0.847130 0.250000 0.250000
O O12 0.807596 0.500390 0.231612
#
# Coordination Sequence:
#
# PCOD8215387 Si02
#       5
#     8   8   8   8   8
#     4  10  19  34  63  93 120 154 210 267 312 368
#     4  10  19  36  62  94 116 156 217 248 303 386
#     4  10  20  39  62  86 127 163 196 262 316 368
#     4   9  16  38  65  82 120 166 203 251 315 384
#     4   9  19  39  62  83 118 166 210 243 316 397
#
# _framework density 20.432824
#
# number of rings (size 3 to 8) (size 9 to 14) (size 15 to 20)
#    0.000    2.400    6.000    0.000    0.000    2.400 
#    3.600   12.000   48.400    0.000    0.000    0.000 
#    0.000    0.000    0.000    0.000    0.000    0.000 
#
# Total GULP energy -495539.319372 kJ/mol
# GULP energy per Si atom -12388.482984 kJ/mol
# Density = 2.038632 g / cm^3
# Si number density = 20.432824 Si / 1000 Ang^3
#
#
#
# Elastic Constant Matrix: (Units=GPa)
#
#
# Indices 1 2 3 4 5 6 
#
# 1 150.1196 68.1883 70.2854 0.0000 0.0000 0.0000
# 2 68.1883 70.1058 61.1269 0.0000 0.0000 0.0000
# 3 70.2854 61.1269 116.1946 0.0000 0.0000 0.0000
# 4 0.0000 0.0000 0.0000 31.0540 0.0000 0.0000
# 5 0.0000 0.0000 0.0000 0.0000 34.5480 0.0000
# 6 0.0000 0.0000 0.0000 0.0000 0.0000 43.7808
#
#
#
# Elastic Compliance Matrix: (Units=1/GPa)
#
#
# Indices 1 2 3 4 5 6 
#
# 1 0.012205 -0.010039 -0.002102 0.000000 0.000000 0.000000
# 2 -0.010039 0.034609 -0.012134 0.000000 0.000000 0.000000
# 3 -0.002102 -0.012134 0.016261 0.000000 0.000000 0.000000
# 4 0.000000 0.000000 0.000000 0.032202 0.000000 0.000000
# 5 0.000000 0.000000 0.000000 0.000000 0.028945 0.000000
# 6 0.000000 0.000000 0.000000 0.000000 0.000000 0.022841
#
#
# Mechanical properties :
#
#
# Convention : Reuss Voigt Hill
#
# Bulk Modulus (GPa) = 68.84538 81.73568 75.29053
# Shear Modulus (GPa) = 24.94329 30.99784 27.97057
#
# Velocity S-wave (km/s) = 3.49771 3.89917 3.70388
# Velocity P-wave (km/s) = 7.07662 7.76919 7.43098
#
# Compressibility (1/GPa) = 0.01452530
#
# Stress axis : x y z
#
# Youngs Moduli (GPa) = 81.93146 28.89454 61.49685
#
# Poissons Ratio (x) = 0.29007 0.12925
# Poissons Ratio (y) = 0.82251 0.74621
# Poissons Ratio (z) = 0.17219 0.35061
#
# Static dielectric constant tensor:
#      x y z
#    x 3.833350 0.000000 0.000000 
#    y 0.000000 3.535820 0.000000 
#    z 0.000000 0.000000 3.507010 
# 
# 
# High freq. dielectric constant tensor:
#      x y z
#    x 1.804910 0.000000 0.000000 
#    y 0.000000 1.778120 0.000000 
#    z 0.000000 0.000000 1.781540 
# 
# From -- ./inp_files/13991.got.cif
#   From: 2010.06.25/outbox.cif.g09.slc.cpg/sg52_7_cif.got.tgz:13991.got - 2010.06.26 19:32:48.
