data_PCOD8215686
_publ_section_title
;
Structure prediction by ZEFSAII (Michael W. Deem and Ramdas Pophale) SiO2 
 PCOD8215686
Probable space group: P N N A
;
_chemical_formula_sum "Si O2"
_cell_formula_units_Z 40
_cell_length_a 8.593964
_cell_length_b 19.930099
_cell_length_c 11.320105
_cell_angle_alpha 90.000000
_cell_angle_beta 90.000000
_cell_angle_gamma 90.000000
_cell_volume 1938.891208
_symmetry_space_group_name_H-M "P N N A"
_symmetry_group_IT_number 52
_symmetry_cell_setting 'orthorhombic'
loop_
_space_group_symop_operation_xyz
x,y,z
1/2-x,-y,z
x,1/2-y,1/2-z
1/2-x,1/2+y,1/2-z
-x,-y,-z
1/2+x,y,-z
-x,1/2+y,1/2+z
1/2+x,1/2-y,1/2+z
loop_
_atom_site_type_symbol
_atom_site_label
_atom_site_fract_x
_atom_site_fract_y
_atom_site_fract_z
Si Si1 0.226755 0.277474 0.524199
Si Si2 0.942844 0.289978 0.858329
Si Si3 0.554147 0.927729 0.358368
Si Si4 0.002660 0.317818 0.327059
Si Si5 0.413372 0.577746 0.887015
O O1 0.326507 0.215606 0.469106
O O2 0.341586 0.324716 0.599725
O O3 0.104836 0.245780 0.612811
O O4 0.145245 0.319601 0.419605
O O5 0.864471 0.250000 0.750000
O O6 0.979628 0.366596 0.822497
O O7 0.477950 0.882837 0.255765
O O8 0.451934 0.917586 0.474685
O O9 0.731845 0.905566 0.376163
O O10 0.545427 0.006783 0.326860
O O11 0.002905 0.250000 0.250000
#
# Coordination Sequence:
#
# PCOD8215686 Si02
#       5
#     8   8   8   8   8
#     4  10  22  34  55  86 112 146 194 230 281 353
#     4  11  20  34  56  80 109 143 183 234 279 328
#     4  10  21  36  58  85 120 152 183 240 296 342
#     4  11  21  37  58  83 118 153 189 240 291 340
#     4  10  20  35  57  88 116 147 192 234 293 354
#
# _framework density 20.630348000000001
#
# number of rings (size 3 to 8) (size 9 to 14) (size 15 to 20)
#    0.000    1.600    0.000    7.200    0.000    1.600 
#    0.000    0.000    0.000   21.600    0.000    0.000 
#    0.000    0.000    0.000    0.000    0.000    0.000 
#
# Total GULP energy -495968.868376 kJ/mol
# GULP energy per Si atom -12399.221709 kJ/mol
# Density = 2.058339 g / cm^3
# Si number density = 20.630348 Si / 1000 Ang^3
#
#
#
# Elastic Constant Matrix: (Units=GPa)
#
#
# Indices 1 2 3 4 5 6 
#
# 1 50.3245 7.7846 15.7714 0.0000 0.0000 0.0000
# 2 7.7846 110.7817 50.2213 0.0000 0.0000 0.0000
# 3 15.7714 50.2213 89.9438 0.0000 0.0000 0.0000
# 4 0.0000 0.0000 0.0000 38.9175 0.0000 0.0000
# 5 0.0000 0.0000 0.0000 0.0000 36.2594 0.0000
# 6 0.0000 0.0000 0.0000 0.0000 0.0000 18.4439
#
#
#
# Elastic Compliance Matrix: (Units=1/GPa)
#
#
# Indices 1 2 3 4 5 6 
#
# 1 0.021032 0.000260 -0.003833 0.000000 0.000000 0.000000
# 2 0.000260 0.012089 -0.006796 0.000000 0.000000 0.000000
# 3 -0.003833 -0.006796 0.015585 0.000000 0.000000 0.000000
# 4 0.000000 0.000000 0.000000 0.025695 0.000000 0.000000
# 5 0.000000 0.000000 0.000000 0.000000 0.027579 0.000000
# 6 0.000000 0.000000 0.000000 0.000000 0.000000 0.054218
#
#
# Mechanical properties :
#
#
# Convention : Reuss Voigt Hill
#
# Bulk Modulus (GPa) = 35.75510 44.28941 40.02226
# Shear Modulus (GPa) = 26.84427 30.54234 28.69330
#
# Velocity S-wave (km/s) = 3.61113 3.85184 3.73343
# Velocity P-wave (km/s) = 5.89542 6.42627 6.16656
#
# Compressibility (1/GPa) = 0.02796804
#
# Stress axis : x y z
#
# Youngs Moduli (GPa) = 47.54637 82.71801 64.16581
#
# Poissons Ratio (x) = -0.02148 0.24594
# Poissons Ratio (y) = -0.01235 0.43605
# Poissons Ratio (z) = 0.18224 0.56213
#
# Static dielectric constant tensor:
#      x y z
#    x 3.932890 0.000000 0.000000 
#    y 0.000000 3.773510 0.000000 
#    z 0.000000 0.000000 3.673160 
# 
# 
# High freq. dielectric constant tensor:
#      x y z
#    x 1.824520 0.000000 0.000000 
#    y 0.000000 1.787330 0.000000 
#    z 0.000000 0.000000 1.794660 
# 
# From -- ./inp_files/16640.got.cif
#   From: 2010.06.25/outbox.cif.g09.slc.cpg/sg52_9_cif.got.tgz:16640.got - 2010.06.26 19:32:48.
