data_PCOD8215737
_publ_section_title
;
Structure prediction by ZEFSAII (Michael W. Deem and Ramdas Pophale) SiO2 
 PCOD8215737
Probable space group: P N N A
;
_chemical_formula_sum "Si O2"
_cell_formula_units_Z 36
_cell_length_a 5.003174
_cell_length_b 14.951366
_cell_length_c 21.409902
_cell_angle_alpha 90.000000
_cell_angle_beta 90.000000
_cell_angle_gamma 90.000000
_cell_volume 1601.552425
_symmetry_space_group_name_H-M "P N N A"
_symmetry_group_IT_number 52
_symmetry_cell_setting 'orthorhombic'
loop_
_space_group_symop_operation_xyz
x,y,z
1/2-x,-y,z
x,1/2-y,1/2-z
1/2-x,1/2+y,1/2-z
-x,-y,-z
1/2+x,y,-z
-x,1/2+y,1/2+z
1/2+x,1/2-y,1/2+z
loop_
_atom_site_type_symbol
_atom_site_label
_atom_site_fract_x
_atom_site_fract_y
_atom_site_fract_z
Si Si1 0.441850 0.588130 0.041447
Si Si2 0.392290 0.190795 0.308423
Si Si3 0.250000 0.500000 0.157485
Si Si4 0.764895 0.601687 0.460250
Si Si5 0.393371 0.258641 0.881864
O O1 0.475438 0.540098 0.109564
O O2 0.491740 0.692529 0.055928
O O3 0.644635 0.564337 0.985326
O O4 0.494205 0.250000 0.250000
O O5 0.620688 0.193627 0.360595
O O6 0.118982 0.239714 0.328737
O O7 0.346785 0.083022 0.298423
O O8 0.750000 0.500000 0.437895
O O9 0.565226 0.622744 0.517730
O O10 0.683191 0.657839 0.399489
#
# Coordination Sequence:
#
# PCOD8215737 Si02
#       5
#     8   8   4   8   8
#     4  11  21  35  60  96 130 159 190 233 310 397
#     4  11  25  45  63  86 120 163 216 269 311 356
#     4  10  24  42  64  92 128 168 202 264 312 370
#     4  10  20  36  59  91 129 165 200 248 307 372
#     4  11  22  40  62  90 125 162 208 257 307 374
#
# _framework density 22.478192
#
# number of rings (size 3 to 8) (size 9 to 14) (size 15 to 20)
#    0.000    1.333    0.000    6.667    0.000    7.111 
#    4.000    0.000    0.000    0.000    0.000    0.000 
#    0.000    0.000    0.000    0.000    0.000    0.000 
#
# Total GULP energy -446151.847560 kJ/mol
# GULP energy per Si atom -12393.106877 kJ/mol
# Density = 2.242703 g / cm^3
# Si number density = 22.478192 Si / 1000 Ang^3
#
#
#
# Elastic Constant Matrix: (Units=GPa)
#
#
# Indices 1 2 3 4 5 6 
#
# 1 115.2432 43.4948 14.5429 0.0000 0.0000 0.0000
# 2 43.4948 145.6401 51.8857 0.0000 0.0000 0.0000
# 3 14.5429 51.8857 60.2128 0.0000 0.0000 0.0000
# 4 0.0000 0.0000 0.0000 37.0166 0.0000 0.0000
# 5 0.0000 0.0000 0.0000 0.0000 19.2518 0.0000
# 6 0.0000 0.0000 0.0000 0.0000 0.0000 32.6473
#
#
#
# Elastic Compliance Matrix: (Units=1/GPa)
#
#
# Indices 1 2 3 4 5 6 
#
# 1 0.009782 -0.003001 0.000223 0.000000 0.000000 0.000000
# 2 -0.003001 0.010828 -0.008606 0.000000 0.000000 0.000000
# 3 0.000223 -0.008606 0.023970 0.000000 0.000000 0.000000
# 4 0.000000 0.000000 0.000000 0.027015 0.000000 0.000000
# 5 0.000000 0.000000 0.000000 0.000000 0.051943 0.000000
# 6 0.000000 0.000000 0.000000 0.000000 0.000000 0.030630
#
#
# Mechanical properties :
#
#
# Convention : Reuss Voigt Hill
#
# Bulk Modulus (GPa) = 45.84508 60.10476 52.97492
# Shear Modulus (GPa) = 27.14341 31.86132 29.50236
#
# Velocity S-wave (km/s) = 3.47874 3.76896 3.62676
# Velocity P-wave (km/s) = 6.04774 6.76294 6.41531
#
# Compressibility (1/GPa) = 0.02181259
#
# Stress axis : x y z
#
# Youngs Moduli (GPa) = 102.23200 92.34934 41.71909
#
# Poissons Ratio (x) = 0.27712 -0.00932
# Poissons Ratio (y) = 0.30678 0.35904
# Poissons Ratio (z) = -0.02283 0.79477
#
# Static dielectric constant tensor:
#      x y z
#    x 4.148610 0.000000 0.000000 
#    y 0.000000 4.377700 0.000000 
#    z 0.000000 0.000000 3.601950 
# 
# 
# High freq. dielectric constant tensor:
#      x y z
#    x 1.897150 0.000000 0.000000 
#    y 0.000000 1.911020 0.000000 
#    z 0.000000 0.000000 1.838630 
# 
# From -- ./inp_files/34929.got.cif
#   From: 2010.06.25/outbox.cif.g09.slc.cpg/sg52_18_cif.got.tgz:34929.got - 2010.06.26 19:32:48.
