data_PCOD8215662
_publ_section_title
;
Structure prediction by ZEFSAII (Michael W. Deem and Ramdas Pophale) SiO2 
 PCOD8215662
Probable space group: P N N A
;
_chemical_formula_sum "Si O2"
_cell_formula_units_Z 64
_cell_length_a 9.208142
_cell_length_b 11.665935
_cell_length_c 29.028120
_cell_angle_alpha 90.000000
_cell_angle_beta 90.000000
_cell_angle_gamma 90.000000
_cell_volume 3118.246690
_symmetry_space_group_name_H-M "P N N A"
_symmetry_group_IT_number 52
_symmetry_cell_setting 'orthorhombic'
loop_
_space_group_symop_operation_xyz
x,y,z
1/2-x,-y,z
x,1/2-y,1/2-z
1/2-x,1/2+y,1/2-z
-x,-y,-z
1/2+x,y,-z
-x,1/2+y,1/2+z
1/2+x,1/2-y,1/2+z
loop_
_atom_site_type_symbol
_atom_site_label
_atom_site_fract_x
_atom_site_fract_y
_atom_site_fract_z
Si Si1 0.333395 0.729247 0.845481
Si Si2 0.499032 0.262594 0.996368
Si Si3 0.278764 0.865138 0.156364
Si Si4 0.762952 0.867832 0.441737
Si Si5 0.468509 0.231835 0.696898
Si Si6 0.975529 0.345916 0.714944
Si Si7 0.242859 0.863978 0.053248
Si Si8 0.082398 0.016087 0.707873
O O1 0.288818 0.716170 0.898415
O O2 0.433927 0.839802 0.833503
O O3 0.425766 0.616713 0.830003
O O4 0.197326 0.757069 0.813567
O O5 0.599232 0.351872 0.024696
O O6 0.401714 0.182114 0.028850
O O7 0.390568 0.334156 0.964146
O O8 0.607110 0.183555 0.967275
O O9 0.440008 0.818083 0.164857
O O10 0.187406 0.816129 0.199393
O O11 0.230665 0.822362 0.106037
O O12 0.250000 0.000000 0.158752
O O13 0.750000 0.000000 0.426173
O O14 0.503252 0.250000 0.750000
O O15 0.491863 0.096373 0.685171
O O16 0.034897 0.250000 0.750000
O O17 0.996078 0.463029 0.743654
O O18 0.250000 0.000000 0.048423
O O19 0.250000 0.000000 0.721645
#
# Coordination Sequence:
#
# PCOD8215662 Si02
#       8
#     8   8   8   8   8   8   8   8
#     4  10  20  35  58  82 107 142 188 238 281 332
#     4  10  22  38  60  84 109 147 189 235 298 359
#     4  11  23  36  52  79 113 147 182 228 282 340
#     4  11  21  37  58  84 116 148 186 235 289 349
#     4  11  20  34  55  79 110 150 189 227 276 333
#     4  10  20  35  53  77 111 146 183 227 274 327
#     4  10  21  39  60  82 110 143 188 242 296 351
#     4   9  18  34  56  81 107 145 191 234 276 327
#
# _framework density 20.524353999999999
#
# number of rings (size 3 to 8) (size 9 to 14) (size 15 to 20)
#    0.000    1.750    0.000    6.375    0.000    0.000 
#    0.000    1.875    0.000   12.000    0.000    0.000 
#    0.000    0.000    0.000    0.000    0.000    0.000 
#
# Total GULP energy -793029.976580 kJ/mol
# GULP energy per Si atom -12391.093384 kJ/mol
# Density = 2.047764 g / cm^3
# Si number density = 20.524354 Si / 1000 Ang^3
#
#
#
# Elastic Constant Matrix: (Units=GPa)
#
#
# Indices 1 2 3 4 5 6 
#
# 1 95.4865 29.9382 33.7070 0.0000 0.0000 0.0000
# 2 29.9382 68.5565 16.0381 0.0000 0.0000 0.0000
# 3 33.7070 16.0381 100.3706 0.0000 0.0000 0.0000
# 4 0.0000 0.0000 0.0000 17.5474 0.0000 0.0000
# 5 0.0000 0.0000 0.0000 0.0000 29.8159 0.0000
# 6 0.0000 0.0000 0.0000 0.0000 0.0000 27.3066
#
#
#
# Elastic Compliance Matrix: (Units=1/GPa)
#
#
# Indices 1 2 3 4 5 6 
#
# 1 0.013328 -0.004958 -0.003683 0.000000 0.000000 0.000000
# 2 -0.004958 0.016998 -0.001051 0.000000 0.000000 0.000000
# 3 -0.003683 -0.001051 0.011368 0.000000 0.000000 0.000000
# 4 0.000000 0.000000 0.000000 0.056989 0.000000 0.000000
# 5 0.000000 0.000000 0.000000 0.000000 0.033539 0.000000
# 6 0.000000 0.000000 0.000000 0.000000 0.000000 0.036621
#
#
# Mechanical properties :
#
#
# Convention : Reuss Voigt Hill
#
# Bulk Modulus (GPa) = 44.82734 47.08669 45.95701
# Shear Modulus (GPa) = 25.55408 27.24933 26.40171
#
# Velocity S-wave (km/s) = 3.53237 3.64766 3.59048
# Velocity P-wave (km/s) = 6.20688 6.38218 6.29514
#
# Compressibility (1/GPa) = 0.02230781
#
# Stress axis : x y z
#
# Youngs Moduli (GPa) = 75.03250 58.83168 87.96630
#
# Poissons Ratio (x) = 0.29171 0.32402
# Poissons Ratio (y) = 0.37204 0.09244
# Poissons Ratio (z) = 0.27638 0.06183
#
# Static dielectric constant tensor:
#      x y z
#    x 3.678710 0.000000 0.000000 
#    y 0.000000 3.805340 0.000000 
#    z 0.000000 0.000000 3.821480 
# 
# 
# High freq. dielectric constant tensor:
#      x y z
#    x 1.805150 0.000000 0.000000 
#    y 0.000000 1.795420 0.000000 
#    z 0.000000 0.000000 1.805330 
# 
# From -- ./inp_files/44594.got.cif
#   From: 2010.06.25/outbox.cif.g09.slc.cpg/sg52_23_cif.got.tgz:44594.got - 2010.06.26 19:32:48.
