data_PCOD8215042
_publ_section_title
;
Structure prediction by ZEFSAII (Michael W. Deem and Ramdas Pophale) SiO2 
 PCOD8215042
Probable space group: P N N A
;
_chemical_formula_sum "Si O2"
_cell_formula_units_Z 56
_cell_length_a 13.653550
_cell_length_b 19.831444
_cell_length_c 11.020991
_cell_angle_alpha 90.000000
_cell_angle_beta 90.000000
_cell_angle_gamma 90.000000
_cell_volume 2984.149459
_symmetry_space_group_name_H-M "P N N A"
_symmetry_group_IT_number 52
_symmetry_cell_setting 'orthorhombic'
loop_
_space_group_symop_operation_xyz
x,y,z
1/2-x,-y,z
x,1/2-y,1/2-z
1/2-x,1/2+y,1/2-z
-x,-y,-z
1/2+x,y,-z
-x,1/2+y,1/2+z
1/2+x,1/2-y,1/2+z
loop_
_atom_site_type_symbol
_atom_site_label
_atom_site_fract_x
_atom_site_fract_y
_atom_site_fract_z
Si Si1 0.250000 0.500000 0.047083
Si Si2 0.859046 0.372450 0.195584
Si Si3 0.185694 0.859107 0.413856
Si Si4 0.974909 0.652105 0.168914
Si Si5 0.360444 0.728393 0.039723
Si Si6 0.503349 0.750000 0.250000
Si Si7 0.073715 0.010661 0.608809
Si Si8 0.307262 0.811112 0.826321
O O1 0.206114 0.562454 0.125567
O O2 0.173047 0.466228 0.955896
O O3 0.911575 0.445512 0.195332
O O4 0.763380 0.373521 0.286679
O O5 0.934561 0.317977 0.245490
O O6 0.830158 0.355287 0.058100
O O7 0.278071 0.811953 0.383386
O O8 0.090418 0.830790 0.342223
O O9 0.965694 0.571962 0.188020
O O10 0.922375 0.681935 0.288341
O O11 0.916016 0.677696 0.051182
O O12 0.437383 0.759518 0.131552
O O13 0.308627 0.791033 0.968006
O O14 0.000000 0.000000 0.500000
O O15 0.258811 0.750000 0.750000
#
# Coordination Sequence:
#
# PCOD8215042 Si02
#       8
#     4   8   8   8   8   4   8   8
#     4  10  18  26  48  76 116 144 162 224 290 342
#     4  11  19  33  57  81 113 148 187 226 287 348
#     4  11  19  32  52  81 116 148 178 226 290 346
#     4  11  19  34  55  82 114 139 180 233 289 333
#     4  11  22  37  54  79 115 149 193 235 280 343
#     4  12  22  36  56  82 108 148 192 240 282 330
#     4  11  18  29  51  86 112 137 178 235 288 335
#     4  10  20  36  53  76 113 155 185 227 278 346
#
# _framework density 18.765815
#
# number of rings (size 3 to 8) (size 9 to 14) (size 15 to 20)
#    0.000    1.143    9.286    0.857    0.000    0.000 
#    3.857    0.000    0.000    0.857    0.000    4.000 
#    0.000    0.000    0.000    0.000    0.000    0.000 
#
# Total GULP energy -693942.975275 kJ/mol
# GULP energy per Si atom -12391.838844 kJ/mol
# Density = 1.872310 g / cm^3
# Si number density = 18.765815 Si / 1000 Ang^3
#
#
#
# Elastic Constant Matrix: (Units=GPa)
#
#
# Indices 1 2 3 4 5 6 
#
# 1 117.7221 29.1927 21.5642 0.0000 0.0000 0.0000
# 2 29.1927 80.2552 23.1390 0.0000 0.0000 0.0000
# 3 21.5642 23.1390 46.9264 0.0000 0.0000 0.0000
# 4 0.0000 0.0000 0.0000 19.8102 0.0000 0.0000
# 5 0.0000 0.0000 0.0000 0.0000 26.0502 0.0000
# 6 0.0000 0.0000 0.0000 0.0000 0.0000 34.5886
#
#
#
# Elastic Compliance Matrix: (Units=1/GPa)
#
#
# Indices 1 2 3 4 5 6 
#
# 1 0.009727 -0.002622 -0.003177 0.000000 0.000000 0.000000
# 2 -0.002622 0.015232 -0.006306 0.000000 0.000000 0.000000
# 3 -0.003177 -0.006306 0.025879 0.000000 0.000000 0.000000
# 4 0.000000 0.000000 0.000000 0.050479 0.000000 0.000000
# 5 0.000000 0.000000 0.000000 0.000000 0.038387 0.000000
# 6 0.000000 0.000000 0.000000 0.000000 0.000000 0.028911
#
#
# Mechanical properties :
#
#
# Convention : Reuss Voigt Hill
#
# Bulk Modulus (GPa) = 37.55386 43.63283 40.59335
# Shear Modulus (GPa) = 24.78910 27.49032 26.13971
#
# Velocity S-wave (km/s) = 3.63846 3.83157 3.73626
# Velocity P-wave (km/s) = 6.14056 6.54800 6.34755
#
# Compressibility (1/GPa) = 0.02662842
#
# Stress axis : x y z
#
# Youngs Moduli (GPa) = 102.80927 65.65057 38.64117
#
# Poissons Ratio (x) = 0.17215 0.12275
# Poissons Ratio (y) = 0.26958 0.24367
# Poissons Ratio (z) = 0.32660 0.41398
#
# Static dielectric constant tensor:
#      x y z
#    x 4.203930 0.000000 0.000000 
#    y 0.000000 2.708430 0.000000 
#    z 0.000000 0.000000 2.869920 
# 
# 
# High freq. dielectric constant tensor:
#      x y z
#    x 1.751910 0.000000 0.000000 
#    y 0.000000 1.726030 0.000000 
#    z 0.000000 0.000000 1.662650 
# 
# From -- ./inp_files/18381.got.cif
#   From: 2010.06.25/outbox.cif.g09.slc.cpg/sg52_10_cif.got.tgz:18381.got - 2010.06.26 19:32:48.
