data_PCOD8215551
_publ_section_title
;
Structure prediction by ZEFSAII (Michael W. Deem and Ramdas Pophale) SiO2 
 PCOD8215551
Probable space group: P N N A
;
_chemical_formula_sum "Si O2"
_cell_formula_units_Z 48
_cell_length_a 9.212541
_cell_length_b 9.807169
_cell_length_c 26.629124
_cell_angle_alpha 90.000000
_cell_angle_beta 90.000000
_cell_angle_gamma 90.000000
_cell_volume 2405.913300
_symmetry_space_group_name_H-M "P N N A"
_symmetry_group_IT_number 52
_symmetry_cell_setting 'orthorhombic'
loop_
_space_group_symop_operation_xyz
x,y,z
1/2-x,-y,z
x,1/2-y,1/2-z
1/2-x,1/2+y,1/2-z
-x,-y,-z
1/2+x,y,-z
-x,1/2+y,1/2+z
1/2+x,1/2-y,1/2+z
loop_
_atom_site_type_symbol
_atom_site_label
_atom_site_fract_x
_atom_site_fract_y
_atom_site_fract_z
Si Si1 0.977220 0.763269 0.611096
Si Si2 0.853130 0.223308 0.584688
Si Si3 0.417769 0.025991 0.148560
Si Si4 0.880845 0.100952 0.480770
Si Si5 0.387107 0.599091 0.742427
Si Si6 0.916742 0.487618 0.832660
O O1 0.816826 0.784907 0.591727
O O2 0.000786 0.609074 0.629431
O O3 0.089386 0.806637 0.567963
O O4 0.992094 0.865669 0.658197
O O5 0.918851 0.366964 0.602738
O O6 0.866970 0.210771 0.525192
O O7 0.927810 0.100501 0.615875
O O8 0.511116 0.086383 0.193765
O O9 0.250000 0.000000 0.165558
O O10 0.750000 0.000000 0.468589
O O11 0.000000 0.000000 0.500000
O O12 0.250000 0.500000 0.739748
O O13 0.322824 0.750000 0.750000
O O14 0.491668 0.579445 0.789308
O O15 0.750000 0.500000 0.814683
#
# Coordination Sequence:
#
# PCOD8215551 Si02
#       6
#     8   8   8   8   8   8
#     4  10  22  38  64  99 122 161 216 270 311 372
#     4  10  19  40  65  92 124 164 216 267 309 373
#     4  10  23  45  69  91 126 167 218 268 318 377
#     4  12  21  38  64  94 129 169 218 264 312 377
#     4  12  27  45  62  94 134 167 205 266 327 386
#     4  10  20  40  69  89 118 169 222 258 306 374
#
# _framework density 19.950842999999999
#
# number of rings (size 3 to 8) (size 9 to 14) (size 15 to 20)
#    0.000    1.333    5.000    1.000    2.333    1.333 
#    3.000    0.000    0.000    0.000    0.000    0.000 
#    0.000    0.000    0.000    0.000    0.000    0.000 
#
# Total GULP energy -594986.774763 kJ/mol
# GULP energy per Si atom -12395.557808 kJ/mol
# Density = 1.990543 g / cm^3
# Si number density = 19.950843 Si / 1000 Ang^3
#
#
#
# Elastic Constant Matrix: (Units=GPa)
#
#
# Indices 1 2 3 4 5 6 
#
# 1 66.9819 40.5080 40.3024 0.0000 0.0000 0.0000
# 2 40.5080 162.6759 54.2081 0.0000 0.0000 0.0000
# 3 40.3024 54.2081 107.7718 0.0000 0.0000 0.0000
# 4 0.0000 0.0000 0.0000 22.4871 0.0000 0.0000
# 5 0.0000 0.0000 0.0000 0.0000 203.1367 0.0000
# 6 0.0000 0.0000 0.0000 0.0000 0.0000 27.6047
#
#
#
# Elastic Compliance Matrix: (Units=1/GPa)
#
#
# Indices 1 2 3 4 5 6 
#
# 1 0.020456 -0.003057 -0.006112 0.000000 0.000000 0.000000
# 2 -0.003057 0.007842 -0.002801 0.000000 0.000000 0.000000
# 3 -0.006112 -0.002801 0.012973 0.000000 0.000000 0.000000
# 4 0.000000 0.000000 0.000000 0.044470 0.000000 0.000000
# 5 0.000000 0.000000 0.000000 0.000000 0.004923 0.000000
# 6 0.000000 0.000000 0.000000 0.000000 0.000000 0.036226
#
#
# Mechanical properties :
#
#
# Convention : Reuss Voigt Hill
#
# Bulk Modulus (GPa) = 57.70112 67.49631 62.59872
# Shear Modulus (GPa) = 31.92713 64.13978 48.03345
#
# Velocity S-wave (km/s) = 4.00470 5.67615 4.91204
# Velocity P-wave (km/s) = 7.09704 8.76716 7.97593
#
# Compressibility (1/GPa) = 0.01733068
#
# Stress axis : x y z
#
# Youngs Moduli (GPa) = 48.88619 127.52102 77.08032
#
# Poissons Ratio (x) = 0.38983 0.47111
# Poissons Ratio (y) = 0.14944 0.21592
# Poissons Ratio (z) = 0.29879 0.35721
#
# Static dielectric constant tensor:
#      x y z
#    x 3.244700 0.000000 0.000000 
#    y 0.000000 3.692040 0.000000 
#    z 0.000000 0.000000 3.148820 
# 
# 
# High freq. dielectric constant tensor:
#      x y z
#    x 1.769450 0.000000 0.000000 
#    y 0.000000 1.790650 0.000000 
#    z 0.000000 0.000000 1.777770 
# 
# From -- ./inp_files/39452.got.cif
#   From: 2010.06.25/outbox.cif.g09.slc.cpg/sg52_20_cif.got.tgz:39452.got - 2010.06.26 19:32:48.
