data_PCOD8215934
_publ_section_title
;
Structure prediction by ZEFSAII (Michael W. Deem and Ramdas Pophale) SiO2 
 PCOD8215934
Probable space group: P N N A
;
_chemical_formula_sum "Si O2"
_cell_formula_units_Z 28
_cell_length_a 17.562421
_cell_length_b 11.687382
_cell_length_c 6.365653
_cell_angle_alpha 90.000000
_cell_angle_beta 90.000000
_cell_angle_gamma 90.000000
_cell_volume 1306.605806
_symmetry_space_group_name_H-M "P N N A"
_symmetry_group_IT_number 52
_symmetry_cell_setting 'orthorhombic'
loop_
_space_group_symop_operation_xyz
x,y,z
1/2-x,-y,z
x,1/2-y,1/2-z
1/2-x,1/2+y,1/2-z
-x,-y,-z
1/2+x,y,-z
-x,1/2+y,1/2+z
1/2+x,1/2-y,1/2+z
loop_
_atom_site_type_symbol
_atom_site_label
_atom_site_fract_x
_atom_site_fract_y
_atom_site_fract_z
Si Si1 0.453659 0.551614 0.808259
Si Si2 0.791324 0.250000 0.750000
Si Si3 0.402388 0.077994 0.074152
Si Si4 0.645795 0.137607 0.645151
O O1 0.411189 0.455027 0.669741
O O2 0.514358 0.617832 0.660540
O O3 0.500000 0.500000 0.000000
O O4 0.387664 0.629821 0.909027
O O5 0.844353 0.183656 0.915933
O O6 0.737379 0.158462 0.627686
O O7 0.371430 0.972114 0.211729
O O8 0.607362 0.250000 0.750000
#
# Coordination Sequence:
#
# PCOD8215934 Si02
#       4
#     8   4   8   8
#     4   9  20  39  63  93 125 170 217 261 320 384
#     4  10  22  40  64  94 132 166 214 272 326 386
#     4  10  20  39  64  92 127 168 217 267 317 387
#     4   9  21  39  62  88 131 166 211 268 318 387
#
# _framework density 21.429569000000001
#
# number of rings (size 3 to 8) (size 9 to 14) (size 15 to 20)
#    0.857    1.714    0.000    0.857    0.000    8.000 
#    0.000   21.429    0.000    0.000    0.000    0.000 
#    0.000    0.000    0.000    0.000    0.000    0.000 
#
# Total GULP energy -346889.713546 kJ/mol
# GULP energy per Si atom -12388.918341 kJ/mol
# Density = 2.138079 g / cm^3
# Si number density = 21.429569 Si / 1000 Ang^3
#
#
#
# Elastic Constant Matrix: (Units=GPa)
#
#
# Indices 1 2 3 4 5 6 
#
# 1 148.0833 47.6030 74.7044 0.0000 0.0000 0.0000
# 2 47.6030 71.2412 48.7791 0.0000 0.0000 0.0000
# 3 74.7044 48.7791 145.5273 0.0000 0.0000 0.0000
# 4 0.0000 0.0000 0.0000 28.9880 0.0000 0.0000
# 5 0.0000 0.0000 0.0000 0.0000 5.7969 0.0000
# 6 0.0000 0.0000 0.0000 0.0000 0.0000 29.4170
#
#
#
# Elastic Compliance Matrix: (Units=1/GPa)
#
#
# Indices 1 2 3 4 5 6 
#
# 1 0.009954 -0.004092 -0.003738 0.000000 0.000000 0.000000
# 2 -0.004092 0.019900 -0.004570 0.000000 0.000000 0.000000
# 3 -0.003738 -0.004570 0.010322 0.000000 0.000000 0.000000
# 4 0.000000 0.000000 0.000000 0.034497 0.000000 0.000000
# 5 0.000000 0.000000 0.000000 0.000000 0.172505 0.000000
# 6 0.000000 0.000000 0.000000 0.000000 0.000000 0.033994
#
#
# Mechanical properties :
#
#
# Convention : Reuss Voigt Hill
#
# Bulk Modulus (GPa) = 65.03349 78.55831 71.79590
# Shear Modulus (GPa) = 16.07214 25.75807 20.91510
#
# Velocity S-wave (km/s) = 2.74158 3.47073 3.12748
# Velocity P-wave (km/s) = 6.35886 7.26634 6.82769
#
# Compressibility (1/GPa) = 0.01537669
#
# Stress axis : x y z
#
# Youngs Moduli (GPa) = 100.46032 50.25178 96.87724
#
# Poissons Ratio (x) = 0.20561 0.36216
# Poissons Ratio (y) = 0.41105 0.44271
# Poissons Ratio (z) = 0.37556 0.22964
#
# Static dielectric constant tensor:
#      x y z
#    x 4.228620 0.000000 0.000000 
#    y 0.000000 3.656600 0.000000 
#    z 0.000000 0.000000 3.918700 
# 
# 
# High freq. dielectric constant tensor:
#      x y z
#    x 1.850400 0.000000 0.000000 
#    y 0.000000 1.820860 0.000000 
#    z 0.000000 0.000000 1.826840 
# 
# From -- ./inp_files/3814.got.cif
#   From: 2010.06.25/outbox.cif.g09.slc.cpg/sg52_2_cif.got.tgz:3814.got - 2010.06.26 19:32:48.
