data_PCOD8215656
_publ_section_title
;
Structure prediction by ZEFSAII (Michael W. Deem and Ramdas Pophale) SiO2 
 PCOD8215656
Probable space group: P N N A
;
_chemical_formula_sum "Si O2"
_cell_formula_units_Z 64
_cell_length_a 20.705602
_cell_length_b 9.396587
_cell_length_c 18.908196
_cell_angle_alpha 90.000000
_cell_angle_beta 90.000000
_cell_angle_gamma 90.000000
_cell_volume 3678.816252
_symmetry_space_group_name_H-M "P N N A"
_symmetry_group_IT_number 52
_symmetry_cell_setting 'orthorhombic'
loop_
_space_group_symop_operation_xyz
x,y,z
1/2-x,-y,z
x,1/2-y,1/2-z
1/2-x,1/2+y,1/2-z
-x,-y,-z
1/2+x,y,-z
-x,1/2+y,1/2+z
1/2+x,1/2-y,1/2+z
loop_
_atom_site_type_symbol
_atom_site_label
_atom_site_fract_x
_atom_site_fract_y
_atom_site_fract_z
Si Si1 0.690853 0.908266 0.477187
Si Si2 0.608268 0.481110 0.144242
Si Si3 0.071706 0.595757 0.068913
Si Si4 0.460498 0.470615 0.570020
Si Si5 0.810324 0.085947 0.235714
Si Si6 0.312069 0.410016 0.571504
Si Si7 0.485269 0.761507 0.834260
Si Si8 0.504932 0.664423 0.074382
O O1 0.645175 0.884286 0.545210
O O2 0.705938 0.752991 0.445423
O O3 0.750000 0.000000 0.507055
O O4 0.663725 0.008621 0.414773
O O5 0.629148 0.519696 0.223529
O O6 0.577882 0.325019 0.140844
O O7 0.556536 0.598920 0.126549
O O8 0.051982 0.691646 0.136282
O O9 0.061182 0.425937 0.083881
O O10 0.024281 0.651409 0.007556
O O11 0.500000 0.500000 0.500000
O O12 0.384643 0.452655 0.545340
O O13 0.472935 0.582676 0.633135
O O14 0.494909 0.327332 0.598910
O O15 0.799151 0.250000 0.250000
O O16 0.819646 0.059488 0.153835
O O17 0.750000 0.000000 0.266318
O O18 0.250000 0.500000 0.541641
O O19 0.491329 0.750000 0.750000
#
# Coordination Sequence:
#
# PCOD8215656 Si02
#       8
#     8   8   8   8   8   8   8   8
#     4  11  21  35  56  76 104 145 193 232 277 335
#     4  10  20  35  50  72 106 143 189 222 262 329
#     4   9  18  37  55  80 106 137 185 234 286 339
#     4  12  21  36  57  82 110 145 189 232 288 330
#     4  11  21  33  47  65 103 150 185 213 259 317
#     4  11  24  35  46  76 112 146 184 232 274 327
#     4  11  23  35  56  84 113 147 183 232 293 348
#     4   9  17  34  58  74 104 141 178 235 280 322
#
# _framework density 17.396901
#
# number of rings (size 3 to 8) (size 9 to 14) (size 15 to 20)
#    0.000    1.500    5.000    1.875    1.750    1.500 
#    0.000    1.875    0.000    0.000    0.000    5.250 
#    0.000    0.000    0.000    0.000    0.000    0.000 
#
# Total GULP energy -792929.636662 kJ/mol
# GULP energy per Si atom -12389.525573 kJ/mol
# Density = 1.735730 g / cm^3
# Si number density = 17.396901 Si / 1000 Ang^3
#
#
#
# Elastic Constant Matrix: (Units=GPa)
#
#
# Indices 1 2 3 4 5 6 
#
# 1 67.1586 30.1077 33.3241 0.0000 0.0000 0.0000
# 2 30.1077 126.4790 37.3769 0.0000 0.0000 0.0000
# 3 33.3241 37.3769 66.7369 0.0000 0.0000 0.0000
# 4 0.0000 0.0000 0.0000 23.9551 0.0000 0.0000
# 5 0.0000 0.0000 0.0000 0.0000 4.8310 0.0000
# 6 0.0000 0.0000 0.0000 0.0000 0.0000 14.2386
#
#
#
# Elastic Compliance Matrix: (Units=1/GPa)
#
#
# Indices 1 2 3 4 5 6 
#
# 1 0.020293 -0.002200 -0.008901 0.000000 0.000000 0.000000
# 2 -0.002200 0.009713 -0.004341 0.000000 0.000000 0.000000
# 3 -0.008901 -0.004341 0.021860 0.000000 0.000000 0.000000
# 4 0.000000 0.000000 0.000000 0.041745 0.000000 0.000000
# 5 0.000000 0.000000 0.000000 0.000000 0.206994 0.000000
# 6 0.000000 0.000000 0.000000 0.000000 0.000000 0.070232
#
#
# Mechanical properties :
#
#
# Convention : Reuss Voigt Hill
#
# Bulk Modulus (GPa) = 47.66079 51.33244 49.49662
# Shear Modulus (GPa) = 12.23345 19.24268 15.73806
#
# Velocity S-wave (km/s) = 2.65466 3.32941 3.01100
# Velocity P-wave (km/s) = 6.07058 6.65963 6.37192
#
# Compressibility (1/GPa) = 0.02098161
#
# Stress axis : x y z
#
# Youngs Moduli (GPa) = 49.27780 102.95316 45.74554
#
# Poissons Ratio (x) = 0.22653 0.40717
# Poissons Ratio (y) = 0.10843 0.19859
# Poissons Ratio (z) = 0.43861 0.44695
#
# Static dielectric constant tensor:
#      x y z
#    x 3.425010 0.000000 0.000000 
#    y 0.000000 2.402130 0.000000 
#    z 0.000000 0.000000 2.317460 
# 
# 
# High freq. dielectric constant tensor:
#      x y z
#    x 1.654460 0.000000 0.000000 
#    y 0.000000 1.689170 0.000000 
#    z 0.000000 0.000000 1.647430 
# 
# From -- ./inp_files/34101.got.cif
#   From: 2010.06.25/outbox.cif.g09.slc.cpg/sg52_18_cif.got.tgz:34101.got - 2010.06.26 19:32:48.
