data_PCOD8215018
_publ_section_title
;
Structure prediction by ZEFSAII (Michael W. Deem and Ramdas Pophale) SiO2 
 PCOD8215018
Probable space group: P N N A
;
_chemical_formula_sum "Si O2"
_cell_formula_units_Z 56
_cell_length_a 15.760256
_cell_length_b 22.262904
_cell_length_c 8.656603
_cell_angle_alpha 90.000000
_cell_angle_beta 90.000000
_cell_angle_gamma 90.000000
_cell_volume 3037.334212
_symmetry_space_group_name_H-M "P N N A"
_symmetry_group_IT_number 52
_symmetry_cell_setting 'orthorhombic'
loop_
_space_group_symop_operation_xyz
x,y,z
1/2-x,-y,z
x,1/2-y,1/2-z
1/2-x,1/2+y,1/2-z
-x,-y,-z
1/2+x,y,-z
-x,1/2+y,1/2+z
1/2+x,1/2-y,1/2+z
loop_
_atom_site_type_symbol
_atom_site_label
_atom_site_fract_x
_atom_site_fract_y
_atom_site_fract_z
Si Si1 0.218745 0.384012 0.269638
Si Si2 0.658697 0.021399 0.995807
Si Si3 0.673649 0.286265 0.513709
Si Si4 0.894483 0.106405 0.939483
Si Si5 0.328078 0.312172 0.692106
Si Si6 0.425176 0.874672 0.815876
Si Si7 0.308804 0.654079 0.944560
O O1 0.171557 0.443073 0.334532
O O2 0.171014 0.322708 0.324828
O O3 0.313893 0.381389 0.333100
O O4 0.218072 0.389364 0.084750
O O5 0.617250 0.065866 0.116855
O O6 0.750000 0.000000 0.061256
O O7 0.597644 0.964429 0.974916
O O8 0.766525 0.293368 0.444101
O O9 0.604745 0.313761 0.398069
O O10 0.659772 0.215520 0.525834
O O11 0.973940 0.124871 0.834165
O O12 0.892675 0.141408 0.106888
O O13 0.373804 0.250000 0.750000
O O14 0.272278 0.341896 0.829579
O O15 0.392599 0.872076 0.639396
#
# Coordination Sequence:
#
# PCOD8215018 Si02
#       7
#     8   8   8   8   8   8   8
#     4   9  18  32  52  74 100 138 175 206 249 307
#     4   9  18  35  54  71  97 141 180 203 247 320
#     4   8  16  32  51  70  99 136 168 200 249 311
#     4  10  19  35  52  74 106 136 166 213 267 307
#     4   8  16  32  54  75  97 129 172 208 245 310
#     4  10  19  32  54  78  99 131 175 219 259 297
#     4  10  17  32  53  76 101 133 174 213 246 300
#
# _framework density 18.43722
#
# number of rings (size 3 to 8) (size 9 to 14) (size 15 to 20)
#    0.000    2.857    0.000    4.714    0.000    0.000 
#    0.000   21.429    0.000    0.000    0.000    0.000 
#    0.000    0.000    0.000    0.000    0.000    0.000 
#
# Total GULP energy -693822.748791 kJ/mol
# GULP energy per Si atom -12389.691943 kJ/mol
# Density = 1.839526 g / cm^3
# Si number density = 18.437220 Si / 1000 Ang^3
#
#
#
# Elastic Constant Matrix: (Units=GPa)
#
#
# Indices 1 2 3 4 5 6 
#
# 1 52.7476 38.5737 29.7720 0.0000 0.0000 0.0000
# 2 38.5737 105.1703 49.2432 0.0000 0.0000 0.0000
# 3 29.7720 49.2432 116.6621 0.0000 0.0000 0.0000
# 4 0.0000 0.0000 0.0000 8.3416 0.0000 0.0000
# 5 0.0000 0.0000 0.0000 0.0000 15.6945 0.0000
# 6 0.0000 0.0000 0.0000 0.0000 0.0000 17.6375
#
#
#
# Elastic Compliance Matrix: (Units=1/GPa)
#
#
# Indices 1 2 3 4 5 6 
#
# 1 0.026929 -0.008299 -0.003369 0.000000 0.000000 0.000000
# 2 -0.008299 0.014408 -0.003964 0.000000 0.000000 0.000000
# 3 -0.003369 -0.003964 0.011105 0.000000 0.000000 0.000000
# 4 0.000000 0.000000 0.000000 0.119881 0.000000 0.000000
# 5 0.000000 0.000000 0.000000 0.000000 0.063717 0.000000
# 6 0.000000 0.000000 0.000000 0.000000 0.000000 0.056698
#
#
# Mechanical properties :
#
#
# Convention : Reuss Voigt Hill
#
# Bulk Modulus (GPa) = 47.21981 56.63976 51.92978
# Shear Modulus (GPa) = 15.10297 18.80078 16.95188
#
# Velocity S-wave (km/s) = 2.86520 3.19677 3.03551
# Velocity P-wave (km/s) = 6.05083 6.66429 6.36496
#
# Compressibility (1/GPa) = 0.02117755
#
# Stress axis : x y z
#
# Youngs Moduli (GPa) = 37.13461 69.40431 90.05226
#
# Poissons Ratio (x) = 0.57601 0.30339
# Poissons Ratio (y) = 0.30820 0.35695
# Poissons Ratio (z) = 0.12511 0.27510
#
# Static dielectric constant tensor:
#      x y z
#    x 3.161960 0.000000 0.000000 
#    y 0.000000 3.683110 0.000000 
#    z 0.000000 0.000000 3.374320 
# 
# 
# High freq. dielectric constant tensor:
#      x y z
#    x 1.683180 0.000000 0.000000 
#    y 0.000000 1.722240 0.000000 
#    z 0.000000 0.000000 1.700260 
# 
# From -- ./inp_files/12542.got.cif
#   From: 2010.06.25/outbox.cif.g09.slc.cpg/sg52_7_cif.got.tgz:12542.got - 2010.06.26 19:32:48.
