data_PCOD8215789
_publ_section_title
;
Structure prediction by ZEFSAII (Michael W. Deem and Ramdas Pophale) SiO2 
 PCOD8215789
Probable space group: P N N A
;
_chemical_formula_sum "Si O2"
_cell_formula_units_Z 60
_cell_length_a 13.652894
_cell_length_b 14.573957
_cell_length_c 15.340427
_cell_angle_alpha 90.000000
_cell_angle_beta 90.000000
_cell_angle_gamma 90.000000
_cell_volume 3052.387389
_symmetry_space_group_name_H-M "P N N A"
_symmetry_group_IT_number 52
_symmetry_cell_setting 'orthorhombic'
loop_
_space_group_symop_operation_xyz
x,y,z
1/2-x,-y,z
x,1/2-y,1/2-z
1/2-x,1/2+y,1/2-z
-x,-y,-z
1/2+x,y,-z
-x,1/2+y,1/2+z
1/2+x,1/2-y,1/2+z
loop_
_atom_site_type_symbol
_atom_site_label
_atom_site_fract_x
_atom_site_fract_y
_atom_site_fract_z
Si Si1 0.903867 0.796335 0.049133
Si Si2 0.814921 0.412259 0.715637
Si Si3 0.362028 0.368514 0.095768
Si Si4 0.250000 0.500000 0.979030
Si Si5 0.794385 0.317534 0.545616
Si Si6 0.045480 0.913799 0.951206
Si Si7 0.073450 0.406253 0.879794
Si Si8 0.961649 0.947707 0.183747
O O1 0.921752 0.701522 0.099783
O O2 0.907414 0.876038 0.120802
O O3 0.798410 0.783541 0.007024
O O4 0.978093 0.823570 0.969474
O O5 0.750000 0.500000 0.737326
O O6 0.825430 0.356287 0.805026
O O7 0.760556 0.354932 0.640147
O O8 0.922167 0.434460 0.679027
O O9 0.278309 0.415735 0.039452
O O10 0.372454 0.265419 0.059114
O O11 0.461868 0.429279 0.089775
O O12 0.155976 0.468653 0.923565
O O13 0.846496 0.395800 0.488664
O O14 0.056544 0.946761 0.850003
O O15 0.000000 0.000000 0.000000
O O16 0.083696 0.430371 0.778243
#
# Coordination Sequence:
#
# PCOD8215789 Si02
#       8
#     8   8   8   4   8   8   8   8
#     4  11  21  37  62  94 130 168 214 262 321 396
#     4  11  21  37  64  94 127 160 210 271 334 388
#     4  11  23  43  63  91 122 167 220 272 324 391
#     4  12  24  44  62  92 114 164 234 262 330 382
#     4  12  22  35  65  93 128 170 211 264 330 394
#     4  10  20  37  58  94 130 160 209 260 328 388
#     4  11  23  41  68  86 127 176 220 270 317 393
#     4  10  22  39  60  95 131 169 213 262 329 391
#
# _framework density 19.656744
#
# number of rings (size 3 to 8) (size 9 to 14) (size 15 to 20)
#    0.000    1.067    6.000    2.000    1.867    3.200 
#    0.000    0.000    0.000    0.000    0.000    0.000 
#    0.000    0.000    0.000    0.000    0.000    0.000 
#
# Total GULP energy -743585.161242 kJ/mol
# GULP energy per Si atom -12393.086021 kJ/mol
# Density = 1.961200 g / cm^3
# Si number density = 19.656744 Si / 1000 Ang^3
#
#
#
# Elastic Constant Matrix: (Units=GPa)
#
#
# Indices 1 2 3 4 5 6 
#
# 1 76.9563 20.4288 48.8229 0.0000 0.0000 0.0000
# 2 20.4288 83.6222 48.3524 0.0000 0.0000 0.0000
# 3 48.8229 48.3524 131.7321 0.0000 0.0000 0.0000
# 4 0.0000 0.0000 0.0000 36.4184 0.0000 0.0000
# 5 0.0000 0.0000 0.0000 0.0000 20.0700 0.0000
# 6 0.0000 0.0000 0.0000 0.0000 0.0000 35.0106
#
#
#
# Elastic Compliance Matrix: (Units=1/GPa)
#
#
# Indices 1 2 3 4 5 6 
#
# 1 0.017017 -0.000648 -0.006069 0.000000 0.000000 0.000000
# 2 -0.000648 0.015205 -0.005341 0.000000 0.000000 0.000000
# 3 -0.006069 -0.005341 0.011801 0.000000 0.000000 0.000000
# 4 0.000000 0.000000 0.000000 0.027459 0.000000 0.000000
# 5 0.000000 0.000000 0.000000 0.000000 0.049826 0.000000
# 6 0.000000 0.000000 0.000000 0.000000 0.000000 0.028563
#
#
# Mechanical properties :
#
#
# Convention : Reuss Voigt Hill
#
# Bulk Modulus (GPa) = 50.23353 58.61320 54.42336
# Shear Modulus (GPa) = 27.68231 29.94691 28.81461
#
# Velocity S-wave (km/s) = 3.75678 3.90743 3.83285
# Velocity P-wave (km/s) = 6.66549 7.08805 6.88001
#
# Compressibility (1/GPa) = 0.01990702
#
# Stress axis : x y z
#
# Youngs Moduli (GPa) = 58.76588 65.76757 84.73989
#
# Poissons Ratio (x) = 0.04261 0.51428
# Poissons Ratio (y) = 0.03808 0.45259
# Poissons Ratio (z) = 0.35665 0.35126
#
# Static dielectric constant tensor:
#      x y z
#    x 3.520100 0.000000 0.000000 
#    y 0.000000 3.590400 0.000000 
#    z 0.000000 0.000000 3.889940 
# 
# 
# High freq. dielectric constant tensor:
#      x y z
#    x 1.767210 0.000000 0.000000 
#    y 0.000000 1.758630 0.000000 
#    z 0.000000 0.000000 1.766320 
# 
# From -- ./inp_files/27440.got.cif
#   From: 2010.06.25/outbox.cif.g09.slc.cpg/sg52_14_cif.got.tgz:27440.got - 2010.06.26 19:32:48.
