data_PCOD8215564
_publ_section_title
;
Structure prediction by ZEFSAII (Michael W. Deem and Ramdas Pophale) SiO2 
 PCOD8215564
Probable space group: P N N A
;
_chemical_formula_sum "Si O2"
_cell_formula_units_Z 64
_cell_length_a 9.101523
_cell_length_b 31.078236
_cell_length_c 13.205761
_cell_angle_alpha 90.000000
_cell_angle_beta 90.000000
_cell_angle_gamma 90.000000
_cell_volume 3735.372045
_symmetry_space_group_name_H-M "P N N A"
_symmetry_group_IT_number 52
_symmetry_cell_setting 'orthorhombic'
loop_
_space_group_symop_operation_xyz
x,y,z
1/2-x,-y,z
x,1/2-y,1/2-z
1/2-x,1/2+y,1/2-z
-x,-y,-z
1/2+x,y,-z
-x,1/2+y,1/2+z
1/2+x,1/2-y,1/2+z
loop_
_atom_site_type_symbol
_atom_site_label
_atom_site_fract_x
_atom_site_fract_y
_atom_site_fract_z
Si Si1 0.564248 0.226083 0.604591
Si Si2 0.445503 0.186501 0.192675
Si Si3 0.287527 0.868671 0.106414
Si Si4 0.476587 0.316355 0.693038
Si Si5 0.679149 0.041038 0.118513
Si Si6 0.826833 0.458769 0.600243
Si Si7 0.088264 0.724276 0.100001
Si Si8 0.210391 0.134594 0.868425
O O1 0.498934 0.273047 0.628626
O O2 0.528323 0.191769 0.692340
O O3 0.485933 0.208863 0.503566
O O4 0.737463 0.229016 0.587879
O O5 0.282442 0.172157 0.163486
O O6 0.481976 0.230880 0.136299
O O7 0.453119 0.189719 0.314124
O O8 0.544500 0.148678 0.149430
O O9 0.455513 0.859011 0.137913
O O10 0.229539 0.914225 0.151026
O O11 0.256933 0.865319 0.987598
O O12 0.306260 0.330406 0.692591
O O13 0.503509 0.036970 0.102490
O O14 0.719577 0.085695 0.174865
O O15 0.750000 0.000000 0.178818
O O16 0.765855 0.041909 0.013078
O O17 0.750000 0.500000 0.655851
#
# Coordination Sequence:
#
# PCOD8215564 Si02
#       8
#     8   8   8   8   8   8   8   8
#     4  11  23  39  53  76 102 139 172 221 264 302
#     4  11  21  38  51  77 102 137 176 215 255 302
#     4  11  19  35  52  74 106 141 176 212 253 301
#     4  11  23  36  54  75 107 134 183 216 254 308
#     4  10  20  32  45  70 104 137 173 209 255 306
#     4  10  20  30  48  70 101 139 175 206 256 309
#     4  11  23  37  57  71 106 136 171 219 266 302
#     4  11  23  31  54  79 102 141 176 214 250 308
#
# _framework density 17.133500000000002
#
# number of rings (size 3 to 8) (size 9 to 14) (size 15 to 20)
#    0.000    1.250    3.750    4.500   10.500    1.000 
#    0.000    0.000    0.000    0.000    0.000    0.000 
#    0.000    6.000    0.000    0.000    0.000    0.000 
#
# Total GULP energy -793182.870964 kJ/mol
# GULP energy per Si atom -12393.482359 kJ/mol
# Density = 1.709450 g / cm^3
# Si number density = 17.133500 Si / 1000 Ang^3
#
#
#
# Elastic Constant Matrix: (Units=GPa)
#
#
# Indices 1 2 3 4 5 6 
#
# 1 78.8062 34.3642 22.4731 0.0000 0.0000 0.0000
# 2 34.3642 100.8823 30.9578 0.0000 0.0000 0.0000
# 3 22.4731 30.9578 81.7564 0.0000 0.0000 0.0000
# 4 0.0000 0.0000 0.0000 13.5986 0.0000 0.0000
# 5 0.0000 0.0000 0.0000 0.0000 24.0680 0.0000
# 6 0.0000 0.0000 0.0000 0.0000 0.0000 24.8820
#
#
#
# Elastic Compliance Matrix: (Units=1/GPa)
#
#
# Indices 1 2 3 4 5 6 
#
# 1 0.015354 -0.004452 -0.002534 0.000000 0.000000 0.000000
# 2 -0.004452 0.012507 -0.003512 0.000000 0.000000 0.000000
# 3 -0.002534 -0.003512 0.014258 0.000000 0.000000 0.000000
# 4 0.000000 0.000000 0.000000 0.073537 0.000000 0.000000
# 5 0.000000 0.000000 0.000000 0.000000 0.041549 0.000000
# 6 0.000000 0.000000 0.000000 0.000000 0.000000 0.040190
#
#
# Mechanical properties :
#
#
# Convention : Reuss Voigt Hill
#
# Bulk Modulus (GPa) = 47.34636 48.55946 47.95291
# Shear Modulus (GPa) = 22.17968 24.08638 23.13303
#
# Velocity S-wave (km/s) = 3.60185 3.75348 3.67844
# Velocity P-wave (km/s) = 6.70757 6.86936 6.78895
#
# Compressibility (1/GPa) = 0.02112095
#
# Stress axis : x y z
#
# Youngs Moduli (GPa) = 65.13153 79.95609 70.13605
#
# Poissons Ratio (x) = 0.35598 0.17776
# Poissons Ratio (y) = 0.28998 0.24632
# Poissons Ratio (z) = 0.16508 0.28081
#
# Static dielectric constant tensor:
#      x y z
#    x 3.260360 0.000000 0.000000 
#    y 0.000000 3.796120 0.000000 
#    z 0.000000 0.000000 2.862760 
# 
# 
# High freq. dielectric constant tensor:
#      x y z
#    x 1.682740 0.000000 0.000000 
#    y 0.000000 1.663510 0.000000 
#    z 0.000000 0.000000 1.609270 
# 
# From -- ./inp_files/25228.got.cif
#   From: 2010.06.25/outbox.cif.g09.slc.cpg/sg52_13_cif.got.tgz:25228.got - 2010.06.26 19:32:48.
