data_PCOD8215352
_publ_section_title
;
Structure prediction by ZEFSAII (Michael W. Deem and Ramdas Pophale) SiO2 
 PCOD8215352
Probable space group: P N N A
;
_chemical_formula_sum "Si O2"
_cell_formula_units_Z 64
_cell_length_a 12.751395
_cell_length_b 8.244115
_cell_length_c 27.478215
_cell_angle_alpha 90.000000
_cell_angle_beta 90.000000
_cell_angle_gamma 90.000000
_cell_volume 2888.618961
_symmetry_space_group_name_H-M "P N N A"
_symmetry_group_IT_number 52
_symmetry_cell_setting 'orthorhombic'
loop_
_space_group_symop_operation_xyz
x,y,z
1/2-x,-y,z
x,1/2-y,1/2-z
1/2-x,1/2+y,1/2-z
-x,-y,-z
1/2+x,y,-z
-x,1/2+y,1/2+z
1/2+x,1/2-y,1/2+z
loop_
_atom_site_type_symbol
_atom_site_label
_atom_site_fract_x
_atom_site_fract_y
_atom_site_fract_z
Si Si1 0.357047 0.213213 0.879967
Si Si2 0.988820 0.901545 0.222646
Si Si3 0.734326 0.310612 0.597912
Si Si4 0.655812 0.614152 0.213920
Si Si5 0.831658 0.869752 0.794896
Si Si6 0.372492 0.833892 0.869355
Si Si7 0.544246 0.686748 0.558532
Si Si8 0.972089 0.698826 0.546386
O O1 0.400136 0.293181 0.830711
O O2 0.233927 0.261836 0.883176
O O3 0.430887 0.274284 0.923290
O O4 0.361580 0.021396 0.880974
O O5 0.046134 0.750000 0.250000
O O6 0.900955 0.821169 0.187639
O O7 0.936591 0.013023 0.262807
O O8 0.067054 0.017704 0.191884
O O9 0.750000 0.500000 0.589912
O O10 0.709713 0.280072 0.655732
O O11 0.843636 0.238792 0.576328
O O12 0.639606 0.232711 0.566030
O O13 0.750000 0.500000 0.196380
O O14 0.702682 0.750000 0.250000
O O15 0.856071 0.750000 0.750000
O O16 0.750000 0.000000 0.774478
O O17 0.464228 0.752694 0.900455
O O18 0.541748 0.493430 0.552468
O O19 0.500603 0.758077 0.507752
#
# Coordination Sequence:
#
# PCOD8215352 Si02
#       8
#     8   8   8   8   8   8   8   8
#     4  10  20  33  53  82 118 157 196 249 306 374
#     4  12  24  38  59  87 122 163 208 253 313 380
#     4   9  18  33  53  81 118 158 201 254 313 364
#     4  12  23  37  58  86 121 165 204 251 312 381
#     4  11  23  39  61  87 123 167 208 261 310 373
#     4  10  19  34  53  82 120 158 198 247 310 365
#     4   9  18  31  52  80 118 158 196 252 310 371
#     4   9  18  30  51  80 117 153 198 245 317 368
#
# _framework density 22.155916000000001
#
# number of rings (size 3 to 8) (size 9 to 14) (size 15 to 20)
#    0.000    1.750    1.250    5.625    3.500    0.000 
#    0.000    0.000    0.000    0.000    0.000    6.125 
#    0.000    0.000    0.000    0.000    0.000    0.000 
#
# Total GULP energy -792969.447218 kJ/mol
# GULP energy per Si atom -12390.147613 kJ/mol
# Density = 2.210549 g / cm^3
# Si number density = 22.155916 Si / 1000 Ang^3
#
#
#
# Elastic Constant Matrix: (Units=GPa)
#
#
# Indices 1 2 3 4 5 6 
#
# 1 163.2992 21.3343 82.1926 0.0000 0.0000 0.0000
# 2 21.3343 32.5643 19.7922 0.0000 0.0000 0.0000
# 3 82.1926 19.7922 145.4950 0.0000 0.0000 0.0000
# 4 0.0000 0.0000 0.0000 9.5798 0.0000 0.0000
# 5 0.0000 0.0000 0.0000 0.0000 44.4074 0.0000
# 6 0.0000 0.0000 0.0000 0.0000 0.0000 12.8139
#
#
#
# Elastic Compliance Matrix: (Units=1/GPa)
#
#
# Indices 1 2 3 4 5 6 
#
# 1 0.008817 -0.002997 -0.004573 0.000000 0.000000 0.000000
# 2 -0.002997 0.034495 -0.002999 0.000000 0.000000 0.000000
# 3 -0.004573 -0.002999 0.009865 0.000000 0.000000 0.000000
# 4 0.000000 0.000000 0.000000 0.104387 0.000000 0.000000
# 5 0.000000 0.000000 0.000000 0.000000 0.022519 0.000000
# 6 0.000000 0.000000 0.000000 0.000000 0.000000 0.078040
#
#
# Mechanical properties :
#
#
# Convention : Reuss Voigt Hill
#
# Bulk Modulus (GPa) = 31.21349 65.33295 48.27322
# Shear Modulus (GPa) = 17.24492 27.89618 22.57055
#
# Velocity S-wave (km/s) = 2.79291 3.55221 3.19519
# Velocity P-wave (km/s) = 4.95168 6.81000 5.95379
#
# Compressibility (1/GPa) = 0.03203743
#
# Stress axis : x y z
#
# Youngs Moduli (GPa) = 113.41616 28.98977 101.37241
#
# Poissons Ratio (x) = 0.08688 0.46360
# Poissons Ratio (y) = 0.33990 0.30406
# Poissons Ratio (z) = 0.51868 0.08695
#
# Static dielectric constant tensor:
#      x y z
#    x 4.640250 0.000000 0.000000 
#    y 0.000000 3.501070 0.000000 
#    z 0.000000 0.000000 4.038870 
# 
# 
# High freq. dielectric constant tensor:
#      x y z
#    x 1.886160 0.000000 0.000000 
#    y 0.000000 1.817000 0.000000 
#    z 0.000000 0.000000 1.869750 
# 
# From -- ./inp_files/44853.got.cif
#   From: 2010.06.25/outbox.cif.g09.slc.cpg/sg52_23_cif.got.tgz:44853.got - 2010.06.26 19:32:48.
