data_PCOD8215141
_publ_section_title
;
Structure prediction by ZEFSAII (Michael W. Deem and Ramdas Pophale) SiO2 
 PCOD8215141
Probable space group: P N N A
;
_chemical_formula_sum "Si O2"
_cell_formula_units_Z 64
_cell_length_a 22.603335
_cell_length_b 17.946819
_cell_length_c 8.675626
_cell_angle_alpha 90.000000
_cell_angle_beta 90.000000
_cell_angle_gamma 90.000000
_cell_volume 3519.336763
_symmetry_space_group_name_H-M "P N N A"
_symmetry_group_IT_number 52
_symmetry_cell_setting 'orthorhombic'
loop_
_space_group_symop_operation_xyz
x,y,z
1/2-x,-y,z
x,1/2-y,1/2-z
1/2-x,1/2+y,1/2-z
-x,-y,-z
1/2+x,y,-z
-x,1/2+y,1/2+z
1/2+x,1/2-y,1/2+z
loop_
_atom_site_type_symbol
_atom_site_label
_atom_site_fract_x
_atom_site_fract_y
_atom_site_fract_z
Si Si1 0.588404 0.776843 0.581008
Si Si2 0.226917 0.776246 0.416498
Si Si3 0.790273 0.678784 0.352104
Si Si4 0.420811 0.674692 0.651697
Si Si5 0.490234 0.189955 0.873553
Si Si6 0.970575 0.093933 0.400384
Si Si7 0.720059 0.419091 0.073926
Si Si8 0.582212 0.061025 0.414606
O O1 0.567263 0.750000 0.750000
O O2 0.657644 0.790217 0.574704
O O3 0.570334 0.715334 0.455771
O O4 0.555134 0.851959 0.531874
O O5 0.248271 0.750000 0.250000
O O6 0.243091 0.704357 0.521020
O O7 0.256431 0.855456 0.457928
O O8 0.802739 0.750000 0.250000
O O9 0.855219 0.660635 0.418590
O O10 0.766532 0.609290 0.248993
O O11 0.428314 0.750000 0.750000
O O12 0.461403 0.673975 0.502204
O O13 0.437428 0.606674 0.763775
O O14 0.515036 0.250000 0.750000
O O15 0.471577 0.118868 0.776476
O O16 0.038796 0.079212 0.443377
O O17 0.925946 0.025770 0.386095
O O18 0.750000 0.500000 0.046824
O O19 0.650054 0.422892 0.041487
#
# Coordination Sequence:
#
# PCOD8215141 Si02
#       8
#     8   8   8   8   8   8   8   8
#     4  10  20  35  54  77 106 140 170 208 263 312
#     4  10  21  35  54  80 108 137 173 219 267 310
#     4   8  18  33  52  76 102 135 174 216 256 305
#     4  10  18  33  53  75 104 136 171 210 258 310
#     4  10  20  31  52  80 102 133 175 215 253 302
#     4  10  21  35  52  78 106 133 174 218 255 309
#     4  10  20  36  58  78 102 142 182 214 257 314
#     4  10  21  36  53  75 106 140 170 213 268 306
#
# _framework density 18.185244000000001
#
# number of rings (size 3 to 8) (size 9 to 14) (size 15 to 20)
#    0.000    2.250    0.000    4.125    0.000    7.500 
#    0.000    0.625    0.000    4.500    0.000    0.000 
#    0.000    0.000    0.000    0.000    0.000    0.000 
#
# Total GULP energy -793089.771658 kJ/mol
# GULP energy per Si atom -12392.027682 kJ/mol
# Density = 1.814385 g / cm^3
# Si number density = 18.185244 Si / 1000 Ang^3
#
#
#
# Elastic Constant Matrix: (Units=GPa)
#
#
# Indices 1 2 3 4 5 6 
#
# 1 79.4442 47.1315 46.6609 0.0000 0.0000 0.0000
# 2 47.1315 118.1036 67.2226 0.0000 0.0000 0.0000
# 3 46.6609 67.2226 113.9709 0.0000 0.0000 0.0000
# 4 0.0000 0.0000 0.0000 22.8252 0.0000 0.0000
# 5 0.0000 0.0000 0.0000 0.0000 27.3375 0.0000
# 6 0.0000 0.0000 0.0000 0.0000 0.0000 14.0652
#
#
#
# Elastic Compliance Matrix: (Units=1/GPa)
#
#
# Indices 1 2 3 4 5 6 
#
# 1 0.018038 -0.004509 -0.004726 0.000000 0.000000 0.000000
# 2 -0.004509 0.013873 -0.006337 0.000000 0.000000 0.000000
# 3 -0.004726 -0.006337 0.014446 0.000000 0.000000 0.000000
# 4 0.000000 0.000000 0.000000 0.043811 0.000000 0.000000
# 5 0.000000 0.000000 0.000000 0.000000 0.036580 0.000000
# 6 0.000000 0.000000 0.000000 0.000000 0.000000 0.071097
#
#
# Mechanical properties :
#
#
# Convention : Reuss Voigt Hill
#
# Bulk Modulus (GPa) = 65.72290 70.39430 68.05860
# Shear Modulus (GPa) = 21.36207 22.87916 22.12062
#
# Velocity S-wave (km/s) = 3.43110 3.55084 3.49148
# Velocity P-wave (km/s) = 7.20526 7.45687 7.33215
#
# Compressibility (1/GPa) = 0.01521540
#
# Stress axis : x y z
#
# Youngs Moduli (GPa) = 55.43920 72.08131 69.22096
#
# Poissons Ratio (x) = 0.32499 0.32711
# Poissons Ratio (y) = 0.24995 0.43864
# Poissons Ratio (z) = 0.26198 0.45677
#
# Static dielectric constant tensor:
#      x y z
#    x 3.400330 0.000000 0.000000 
#    y 0.000000 17.918550 0.000000 
#    z 0.000000 0.000000 3.526380 
# 
# 
# High freq. dielectric constant tensor:
#      x y z
#    x 1.713300 0.000000 0.000000 
#    y 0.000000 1.701800 0.000000 
#    z 0.000000 0.000000 1.698270 
# 
# From -- ./inp_files/13609.got.cif
#   From: 2010.06.25/outbox.cif.g09.slc.cpg/sg52_7_cif.got.tgz:13609.got - 2010.06.26 19:32:48.
