data_PCOD8215037
_publ_section_title
;
Structure prediction by ZEFSAII (Michael W. Deem and Ramdas Pophale) SiO2 
 PCOD8215037
Probable space group: P N N A
;
_chemical_formula_sum "Si O2"
_cell_formula_units_Z 52
_cell_length_a 10.295885
_cell_length_b 17.575470
_cell_length_c 17.011134
_cell_angle_alpha 90.000000
_cell_angle_beta 90.000000
_cell_angle_gamma 90.000000
_cell_volume 3078.250058
_symmetry_space_group_name_H-M "P N N A"
_symmetry_group_IT_number 52
_symmetry_cell_setting 'orthorhombic'
loop_
_space_group_symop_operation_xyz
x,y,z
1/2-x,-y,z
x,1/2-y,1/2-z
1/2-x,1/2+y,1/2-z
-x,-y,-z
1/2+x,y,-z
-x,1/2+y,1/2+z
1/2+x,1/2-y,1/2+z
loop_
_atom_site_type_symbol
_atom_site_label
_atom_site_fract_x
_atom_site_fract_y
_atom_site_fract_z
Si Si1 0.335387 0.069347 0.651651
Si Si2 0.111799 0.207157 0.514687
Si Si3 0.861886 0.395545 0.979550
Si Si4 0.750000 0.000000 0.646363
Si Si5 0.966612 0.726051 0.639562
Si Si6 0.240709 0.233423 0.664451
Si Si7 0.415249 0.878189 0.272289
O O1 0.382821 0.059208 0.561492
O O2 0.247088 0.143353 0.655243
O O3 0.452769 0.076029 0.712413
O O4 0.250000 0.000000 0.681164
O O5 0.232426 0.156842 0.482485
O O6 0.069354 0.271960 0.451990
O O7 0.147760 0.257114 0.592136
O O8 0.988790 0.154869 0.534984
O O9 0.854391 0.458488 0.910383
O O10 0.801790 0.935583 0.705261
O O11 0.907243 0.803699 0.673721
O O12 0.907407 0.650853 0.681619
O O13 0.120784 0.725206 0.655783
O O14 0.179283 0.250000 0.750000
#
# Coordination Sequence:
#
# PCOD8215037 Si02
#       7
#     8   8   8   4   8   8   8
#     4  10  18  30  52  79 106 149 176 214 265 342
#     4  11  20  35  55  83 108 151 183 228 277 334
#     4  11  21  30  49  82 121 145 177 214 282 346
#     4  12  22  30  46  84 122 150 174 232 288 342
#     4  10  17  38  55  74 105 159 192 219 267 347
#     4  10  19  35  56  81 109 140 191 229 271 335
#     4  10  20  32  53  73 112 149 192 215 269 331
#
# _framework density 16.892714000000002
#
# number of rings (size 3 to 8) (size 9 to 14) (size 15 to 20)
#    0.000    1.538   10.000    0.000    4.308    1.231 
#    0.000    1.538    0.000    0.000    2.000    2.154 
#    0.000    0.000    0.000    0.000    0.000    0.000 
#
# Total GULP energy -644473.589973 kJ/mol
# GULP energy per Si atom -12393.722884 kJ/mol
# Density = 1.685427 g / cm^3
# Si number density = 16.892714 Si / 1000 Ang^3
#
#
#
# Elastic Constant Matrix: (Units=GPa)
#
#
# Indices 1 2 3 4 5 6 
#
# 1 74.2264 33.7035 38.8550 0.0000 0.0000 0.0000
# 2 33.7035 62.9789 41.2397 0.0000 0.0000 0.0000
# 3 38.8550 41.2397 117.6821 0.0000 0.0000 0.0000
# 4 0.0000 0.0000 0.0000 31.5225 0.0000 0.0000
# 5 0.0000 0.0000 0.0000 0.0000 -83.7049 0.0000
# 6 0.0000 0.0000 0.0000 0.0000 0.0000 12.1442
#
#
#
# Elastic Compliance Matrix: (Units=1/GPa)
#
#
# Indices 1 2 3 4 5 6 
#
# 1 0.018839 -0.007798 -0.003487 0.000000 0.000000 0.000000
# 2 -0.007798 0.023835 -0.005778 0.000000 0.000000 0.000000
# 3 -0.003487 -0.005778 0.011674 0.000000 0.000000 0.000000
# 4 0.000000 0.000000 0.000000 0.031723 0.000000 0.000000
# 5 0.000000 0.000000 0.000000 0.000000 -0.011947 0.000000
# 6 0.000000 0.000000 0.000000 0.000000 0.000000 0.082344
#
#
# Mechanical properties :
#
#
# Convention : Reuss Voigt Hill
#
# Bulk Modulus (GPa) = 49.45402 53.60931 51.53166
# Shear Modulus (GPa) = 25.33773 1.39830 13.36802
#
# Velocity S-wave (km/s) = 3.87708 0.91080 2.81614
# Velocity P-wave (km/s) = 7.02718 5.73674 6.41449
#
# Compressibility (1/GPa) = 0.02022080
#
# Stress axis : x y z
#
# Youngs Moduli (GPa) = 53.08263 41.95515 85.66341
#
# Poissons Ratio (x) = 0.32717 0.29873
# Poissons Ratio (y) = 0.41394 0.49495
# Poissons Ratio (z) = 0.18511 0.24241
#
# Static dielectric constant tensor:
#      x y z
#    x 3.119220 0.000000 0.000000 
#    y 0.000000 2.974350 0.000000 
#    z 0.000000 0.000000 3.418960 
# 
# 
# High freq. dielectric constant tensor:
#      x y z
#    x 1.643060 0.000000 0.000000 
#    y 0.000000 1.618540 0.000000 
#    z 0.000000 0.000000 1.643330 
# 
# From -- ./inp_files/31424.got.cif
#   From: 2010.06.25/outbox.cif.g09.slc.cpg/sg52_16_cif.got.tgz:31424.got - 2010.06.26 19:32:48.
