data_PCOD8215925
_publ_section_title
;
Structure prediction by ZEFSAII (Michael W. Deem and Ramdas Pophale) SiO2 
 PCOD8215925
Probable space group: P N N A
;
_chemical_formula_sum "Si O2"
_cell_formula_units_Z 48
_cell_length_a 27.342997
_cell_length_b 9.571558
_cell_length_c 9.274656
_cell_angle_alpha 90.000000
_cell_angle_beta 90.000000
_cell_angle_gamma 90.000000
_cell_volume 2427.317353
_symmetry_space_group_name_H-M "P N N A"
_symmetry_group_IT_number 52
_symmetry_cell_setting 'orthorhombic'
loop_
_space_group_symop_operation_xyz
x,y,z
1/2-x,-y,z
x,1/2-y,1/2-z
1/2-x,1/2+y,1/2-z
-x,-y,-z
1/2+x,y,-z
-x,1/2+y,1/2+z
1/2+x,1/2-y,1/2+z
loop_
_atom_site_type_symbol
_atom_site_label
_atom_site_fract_x
_atom_site_fract_y
_atom_site_fract_z
Si Si1 0.147310 0.227553 0.085826
Si Si2 0.194525 0.466437 0.903530
Si Si3 0.366981 0.236458 0.589920
Si Si4 0.539695 0.166122 0.886523
Si Si5 0.046335 0.658366 0.390769
Si Si6 0.304316 0.495555 0.575650
O O1 0.163432 0.250000 0.250000
O O2 0.089165 0.246260 0.066784
O O3 0.177731 0.329356 0.985153
O O4 0.160148 0.071394 0.036417
O O5 0.250000 0.500000 0.952467
O O6 0.154770 0.584606 0.945261
O O7 0.193375 0.434122 0.733468
O O8 0.390665 0.250000 0.750000
O O9 0.406932 0.282224 0.474302
O O10 0.319856 0.335431 0.585681
O O11 0.517648 0.250000 0.750000
O O12 0.551970 0.004558 0.848535
O O13 0.502157 0.178199 0.016042
O O14 0.038937 0.750000 0.250000
O O15 0.250000 0.500000 0.512424
#
# Coordination Sequence:
#
# PCOD8215925 Si02
#       6
#     8   8   8   8   8   8
#     4  11  23  39  60  91 126 163 196 256 308 360
#     4  10  22  39  63  91 122 163 214 253 298 361
#     4  10  21  38  61  91 122 161 202 256 306 357
#     4  10  24  45  62  92 128 157 203 251 305 370
#     4  11  24  42  67  92 121 162 202 252 308 366
#     4  10  20  39  63  87 121 162 208 256 300 358
#
# _framework density 19.774918
#
# number of rings (size 3 to 8) (size 9 to 14) (size 15 to 20)
#    0.000    1.667    1.667    2.000    4.667    5.333 
#    3.000    1.667    0.000    0.000    0.000    0.000 
#    0.000    0.000    0.000    0.000    0.000    0.000 
#
# Total GULP energy -595293.517605 kJ/mol
# GULP energy per Si atom -12401.948283 kJ/mol
# Density = 1.972991 g / cm^3
# Si number density = 19.774918 Si / 1000 Ang^3
#
#
#
# Elastic Constant Matrix: (Units=GPa)
#
#
# Indices 1 2 3 4 5 6 
#
# 1 85.8268 24.4455 41.2024 0.0000 0.0000 0.0000
# 2 24.4455 77.8742 41.9373 0.0000 0.0000 0.0000
# 3 41.2024 41.9373 91.5994 0.0000 0.0000 0.0000
# 4 0.0000 0.0000 0.0000 37.3650 0.0000 0.0000
# 5 0.0000 0.0000 0.0000 0.0000 28.0388 0.0000
# 6 0.0000 0.0000 0.0000 0.0000 0.0000 28.4162
#
#
#
# Elastic Compliance Matrix: (Units=1/GPa)
#
#
# Indices 1 2 3 4 5 6 
#
# 1 0.014978 -0.001425 -0.006085 0.000000 0.000000 0.000000
# 2 -0.001425 0.017179 -0.007224 0.000000 0.000000 0.000000
# 3 -0.006085 -0.007224 0.016962 0.000000 0.000000 0.000000
# 4 0.000000 0.000000 0.000000 0.026763 0.000000 0.000000
# 5 0.000000 0.000000 0.000000 0.000000 0.035665 0.000000
# 6 0.000000 0.000000 0.000000 0.000000 0.000000 0.035191
#
#
# Mechanical properties :
#
#
# Convention : Reuss Voigt Hill
#
# Bulk Modulus (GPa) = 50.88860 52.27453 51.58157
# Shear Modulus (GPa) = 27.35878 28.61168 27.98523
#
# Velocity S-wave (km/s) = 3.72359 3.80790 3.76598
# Velocity P-wave (km/s) = 6.65407 6.76946 6.71201
#
# Compressibility (1/GPa) = 0.01965077
#
# Stress axis : x y z
#
# Youngs Moduli (GPa) = 66.76253 58.21095 58.95635
#
# Poissons Ratio (x) = 0.08294 0.35876
# Poissons Ratio (y) = 0.09513 0.42591
# Poissons Ratio (z) = 0.40626 0.42052
#
# Static dielectric constant tensor:
#      x y z
#    x 3.554870 0.000000 0.000000 
#    y 0.000000 3.650950 0.000000 
#    z 0.000000 0.000000 3.639140 
# 
# 
# High freq. dielectric constant tensor:
#      x y z
#    x 1.780040 0.000000 0.000000 
#    y 0.000000 1.779320 0.000000 
#    z 0.000000 0.000000 1.764660 
# 
# From -- ./inp_files/15485.got.cif
#   From: 2010.06.25/outbox.cif.g09.slc.cpg/sg52_8_cif.got.tgz:15485.got - 2010.06.26 19:32:48.
