data_PCOD8215727
_publ_section_title
;
Structure prediction by ZEFSAII (Michael W. Deem and Ramdas Pophale) SiO2 
 PCOD8215727
Probable space group: P N N A
;
_chemical_formula_sum "Si O2"
_cell_formula_units_Z 52
_cell_length_a 14.461912
_cell_length_b 20.191128
_cell_length_c 8.684095
_cell_angle_alpha 90.000000
_cell_angle_beta 90.000000
_cell_angle_gamma 90.000000
_cell_volume 2535.775855
_symmetry_space_group_name_H-M "P N N A"
_symmetry_group_IT_number 52
_symmetry_cell_setting 'orthorhombic'
loop_
_space_group_symop_operation_xyz
x,y,z
1/2-x,-y,z
x,1/2-y,1/2-z
1/2-x,1/2+y,1/2-z
-x,-y,-z
1/2+x,y,-z
-x,1/2+y,1/2+z
1/2+x,1/2-y,1/2+z
loop_
_atom_site_type_symbol
_atom_site_label
_atom_site_fract_x
_atom_site_fract_y
_atom_site_fract_z
Si Si1 0.227378 0.641314 0.615392
Si Si2 0.899803 0.250000 0.250000
Si Si3 0.039536 0.350578 0.126363
Si Si4 0.288126 0.064087 0.437892
Si Si5 0.126534 0.097253 0.666163
Si Si6 0.907059 0.045542 0.283871
Si Si7 0.763766 0.824895 0.770220
O O1 0.166105 0.705470 0.646288
O O2 0.325795 0.644190 0.705694
O O3 0.168002 0.575991 0.663500
O O4 0.254448 0.644121 0.438128
O O5 0.962334 0.293516 0.135467
O O6 0.131324 0.327211 0.212213
O O7 0.004580 0.415449 0.221780
O O8 0.055934 0.362938 0.943698
O O9 0.208430 0.070068 0.563519
O O10 0.381276 0.055032 0.534957
O O11 0.300884 0.128775 0.334803
O O12 0.250000 0.000000 0.340723
O O13 0.079003 0.032899 0.748852
O O14 0.727366 0.750000 0.750000
#
# Coordination Sequence:
#
# PCOD8215727 Si02
#       7
#     8   4   8   8   8   8   8
#     4  10  22  35  58  83 114 154 200 242 290 350
#     4  10  22  36  58  80 118 160 196 248 292 346
#     4  10  20  36  58  84 120 157 188 244 309 354
#     4   8  17  34  57  83 110 151 198 234 283 350
#     4   9  18  36  62  87 109 153 198 242 292 362
#     4   9  18  37  63  88 114 147 201 247 296 352
#     4  11  23  36  56  83 122 158 193 241 303 368
#
# _framework density 20.506543000000001
#
# number of rings (size 3 to 8) (size 9 to 14) (size 15 to 20)
#    0.000    2.462    0.769    1.846    8.615    1.231 
#    0.000    3.846    3.385    0.000    0.000    0.000 
#    0.000    0.000    0.000    0.000    0.000    0.000 
#
# Total GULP energy -644314.369318 kJ/mol
# GULP energy per Si atom -12390.660948 kJ/mol
# Density = 2.045987 g / cm^3
# Si number density = 20.506543 Si / 1000 Ang^3
#
#
#
# Elastic Constant Matrix: (Units=GPa)
#
#
# Indices 1 2 3 4 5 6 
#
# 1 38.9384 24.1493 17.1893 0.0000 0.0000 0.0000
# 2 24.1493 116.3232 46.1897 0.0000 0.0000 0.0000
# 3 17.1893 46.1897 92.2393 0.0000 0.0000 0.0000
# 4 0.0000 0.0000 0.0000 29.7294 0.0000 0.0000
# 5 0.0000 0.0000 0.0000 0.0000 11.6526 0.0000
# 6 0.0000 0.0000 0.0000 0.0000 0.0000 20.7724
#
#
#
# Elastic Compliance Matrix: (Units=1/GPa)
#
#
# Indices 1 2 3 4 5 6 
#
# 1 0.030172 -0.005032 -0.003103 0.000000 0.000000 0.000000
# 2 -0.005032 0.011570 -0.004856 0.000000 0.000000 0.000000
# 3 -0.003103 -0.004856 0.013851 0.000000 0.000000 0.000000
# 4 0.000000 0.000000 0.000000 0.033637 0.000000 0.000000
# 5 0.000000 0.000000 0.000000 0.000000 0.085817 0.000000
# 6 0.000000 0.000000 0.000000 0.000000 0.000000 0.048141
#
#
# Mechanical properties :
#
#
# Convention : Reuss Voigt Hill
#
# Bulk Modulus (GPa) = 33.77056 46.95083 40.36070
# Shear Modulus (GPa) = 19.30206 23.09572 21.19889
#
# Velocity S-wave (km/s) = 3.07133 3.35962 3.21871
# Velocity P-wave (km/s) = 5.39271 6.16398 5.79120
#
# Compressibility (1/GPa) = 0.02961159
#
# Stress axis : x y z
#
# Youngs Moduli (GPa) = 33.14327 86.43410 72.19566
#
# Poissons Ratio (x) = 0.43491 0.22403
# Poissons Ratio (y) = 0.16677 0.35057
# Poissons Ratio (z) = 0.10285 0.41971
#
# Static dielectric constant tensor:
#      x y z
#    x 3.797730 0.000000 0.000000 
#    y 0.000000 4.045420 0.000000 
#    z 0.000000 0.000000 3.501020 
# 
# 
# High freq. dielectric constant tensor:
#      x y z
#    x 1.790920 0.000000 0.000000 
#    y 0.000000 1.812030 0.000000 
#    z 0.000000 0.000000 1.769460 
# 
# From -- ./inp_files/10732.got.cif
#   From: 2010.06.25/outbox.cif.g09.slc.cpg/sg52_6_cif.got.tgz:10732.got - 2010.06.26 19:32:48.
