data_PCOD8215469
_publ_section_title
;
Structure prediction by ZEFSAII (Michael W. Deem and Ramdas Pophale) SiO2 
 PCOD8215469
Probable space group: P N N A
;
_chemical_formula_sum "Si O2"
_cell_formula_units_Z 40
_cell_length_a 8.812436
_cell_length_b 8.876107
_cell_length_c 26.044970
_cell_angle_alpha 90.000000
_cell_angle_beta 90.000000
_cell_angle_gamma 90.000000
_cell_volume 2037.240806
_symmetry_space_group_name_H-M "P N N A"
_symmetry_group_IT_number 52
_symmetry_cell_setting 'orthorhombic'
loop_
_space_group_symop_operation_xyz
x,y,z
1/2-x,-y,z
x,1/2-y,1/2-z
1/2-x,1/2+y,1/2-z
-x,-y,-z
1/2+x,y,-z
-x,1/2+y,1/2+z
1/2+x,1/2-y,1/2+z
loop_
_atom_site_type_symbol
_atom_site_label
_atom_site_fract_x
_atom_site_fract_y
_atom_site_fract_z
Si Si1 0.465947 0.247578 0.692972
Si Si2 0.750000 0.000000 0.346201
Si Si3 0.369997 0.883702 0.500477
Si Si4 0.224101 0.172702 0.386562
Si Si5 0.750000 0.000000 0.154856
Si Si6 0.438954 0.744922 0.599953
O O1 0.538065 0.250000 0.750000
O O2 0.602358 0.249630 0.651509
O O3 0.357020 0.392859 0.688563
O O4 0.361408 0.100012 0.688459
O O5 0.641509 0.104638 0.379918
O O6 0.335949 0.814545 0.444678
O O7 0.413118 0.746524 0.538391
O O8 0.250000 0.000000 0.523231
O O9 0.500000 0.000000 0.500000
O O10 0.384604 0.259094 0.383514
O O11 0.250000 0.000000 0.370317
O O12 0.637691 0.094364 0.119400
#
# Coordination Sequence:
#
# PCOD8215469 Si02
#       6
#     8   4   8   8   4   8
#     4  11  23  44  64  91 122 166 211 262 317 369
#     4  10  19  36  68  86 120 156 213 252 290 378
#     4  11  19  33  65  97 123 160 214 255 301 364
#     4  11  22  39  64  99 121 160 221 263 299 366
#     4  10  27  42  64  96 130 166 201 262 330 378
#     4  11  21  40  61  96 128 163 201 255 314 378
#
# _framework density 19.634398999999998
#
# number of rings (size 3 to 8) (size 9 to 14) (size 15 to 20)
#    0.000    1.200    7.000    0.600    2.800    0.800 
#    3.600    5.000    0.000    0.000    0.000    0.000 
#    0.000    0.000    0.000    0.000    0.000    0.000 
#
# Total GULP energy -495674.137621 kJ/mol
# GULP energy per Si atom -12391.853441 kJ/mol
# Density = 1.958971 g / cm^3
# Si number density = 19.634399 Si / 1000 Ang^3
#
#
#
# Elastic Constant Matrix: (Units=GPa)
#
#
# Indices 1 2 3 4 5 6 
#
# 1 155.4584 44.6010 52.9948 0.0000 0.0000 0.0000
# 2 44.6010 94.0061 40.2740 0.0000 0.0000 0.0000
# 3 52.9948 40.2740 115.5817 0.0000 0.0000 0.0000
# 4 0.0000 0.0000 0.0000 13.4800 0.0000 0.0000
# 5 0.0000 0.0000 0.0000 0.0000 27.1050 0.0000
# 6 0.0000 0.0000 0.0000 0.0000 0.0000 33.2447
#
#
#
# Elastic Compliance Matrix: (Units=1/GPa)
#
#
# Indices 1 2 3 4 5 6 
#
# 1 0.008155 -0.002665 -0.002811 0.000000 0.000000 0.000000
# 2 -0.002665 0.013375 -0.003439 0.000000 0.000000 0.000000
# 3 -0.002811 -0.003439 0.011139 0.000000 0.000000 0.000000
# 4 0.000000 0.000000 0.000000 0.074184 0.000000 0.000000
# 5 0.000000 0.000000 0.000000 0.000000 0.036894 0.000000
# 6 0.000000 0.000000 0.000000 0.000000 0.000000 0.030080
#
#
# Mechanical properties :
#
#
# Convention : Reuss Voigt Hill
#
# Bulk Modulus (GPa) = 67.38254 71.19844 69.29049
# Shear Modulus (GPa) = 25.43203 29.91103 27.67153
#
# Velocity S-wave (km/s) = 3.60290 3.90731 3.75819
# Velocity P-wave (km/s) = 7.19034 7.52973 7.36199
#
# Compressibility (1/GPa) = 0.01484064
#
# Stress axis : x y z
#
# Youngs Moduli (GPa) = 122.61906 74.76501 89.77695
#
# Poissons Ratio (x) = 0.19926 0.25233
# Poissons Ratio (y) = 0.32680 0.30870
# Poissons Ratio (z) = 0.34463 0.25708
#
# Static dielectric constant tensor:
#      x y z
#    x 3.742900 0.000000 0.000000 
#    y 0.000000 3.404720 0.000000 
#    z 0.000000 0.000000 3.334670 
# 
# 
# High freq. dielectric constant tensor:
#      x y z
#    x 1.785210 0.000000 0.000000 
#    y 0.000000 1.746650 0.000000 
#    z 0.000000 0.000000 1.761430 
# 
# From -- ./inp_files/39256.got.cif
#   From: 2010.06.25/outbox.cif.g09.slc.cpg/sg52_20_cif.got.tgz:39256.got - 2010.06.26 19:32:48.
