data_PCOD8215618
_publ_section_title
;
Structure prediction by ZEFSAII (Michael W. Deem and Ramdas Pophale) SiO2 
 PCOD8215618
Probable space group: P N N A
;
_chemical_formula_sum "Si O2"
_cell_formula_units_Z 56
_cell_length_a 9.300619
_cell_length_b 20.611271
_cell_length_c 14.801507
_cell_angle_alpha 90.000000
_cell_angle_beta 90.000000
_cell_angle_gamma 90.000000
_cell_volume 2837.413053
_symmetry_space_group_name_H-M "P N N A"
_symmetry_group_IT_number 52
_symmetry_cell_setting 'orthorhombic'
loop_
_space_group_symop_operation_xyz
x,y,z
1/2-x,-y,z
x,1/2-y,1/2-z
1/2-x,1/2+y,1/2-z
-x,-y,-z
1/2+x,y,-z
-x,1/2+y,1/2+z
1/2+x,1/2-y,1/2+z
loop_
_atom_site_type_symbol
_atom_site_label
_atom_site_fract_x
_atom_site_fract_y
_atom_site_fract_z
Si Si1 0.609794 0.300149 0.995036
Si Si2 0.353343 0.318457 0.875563
Si Si3 0.535639 0.654114 0.736262
Si Si4 0.635758 0.943451 0.064170
Si Si5 0.401947 0.029304 0.134962
Si Si6 0.283750 0.325812 0.682326
Si Si7 0.874120 0.258556 0.886749
O O1 0.497232 0.340440 0.931071
O O2 0.720066 0.261722 0.932882
O O3 0.709495 0.340592 0.067363
O O4 0.505930 0.247753 0.043546
O O5 0.362936 0.349411 0.775287
O O6 0.344397 0.240564 0.859254
O O7 0.548459 0.577658 0.715199
O O8 0.379881 0.682948 0.713677
O O9 0.584170 0.672560 0.837826
O O10 0.644823 0.696089 0.675583
O O11 0.702410 0.878793 0.104622
O O12 0.750000 0.000000 0.064898
O O13 0.503688 0.966585 0.126128
O O14 0.592465 0.930931 0.959821
O O15 0.250000 0.000000 0.161967
#
# Coordination Sequence:
#
# PCOD8215618 Si02
#       7
#     8   8   8   8   8   8   8
#     4  10  20  34  52  82 117 139 180 221 280 347
#     4  10  21  35  54  86 110 147 185 224 287 332
#     4  11  20  36  56  80 116 146 184 236 271 332
#     4  10  21  37  54  79 109 149 187 219 262 332
#     4  10  23  37  54  83 112 145 192 224 268 326
#     4  11  20  35  57  79 114 145 192 230 270 337
#     4  10  21  35  56  85 113 146 185 222 293 324
#
# _framework density 19.736288999999999
#
# number of rings (size 3 to 8) (size 9 to 14) (size 15 to 20)
#    0.000    1.714    4.286    0.857    4.000    4.571 
#    0.000    0.000    0.000    0.000    0.000   20.000 
#    0.000    0.000    0.000    0.000    0.000    0.000 
#
# Total GULP energy -693789.264527 kJ/mol
# GULP energy per Si atom -12389.094009 kJ/mol
# Density = 1.969137 g / cm^3
# Si number density = 19.736289 Si / 1000 Ang^3
#
#
#
# Elastic Constant Matrix: (Units=GPa)
#
#
# Indices 1 2 3 4 5 6 
#
# 1 110.7774 0.0762 23.1743 0.0000 0.0000 0.0000
# 2 0.0762 48.3832 16.0758 0.0000 0.0000 0.0000
# 3 23.1743 16.0758 81.8604 0.0000 0.0000 0.0000
# 4 0.0000 0.0000 0.0000 21.0200 0.0000 0.0000
# 5 0.0000 0.0000 0.0000 0.0000 84.4767 0.0000
# 6 0.0000 0.0000 0.0000 0.0000 0.0000 15.6779
#
#
#
# Elastic Compliance Matrix: (Units=1/GPa)
#
#
# Indices 1 2 3 4 5 6 
#
# 1 0.009636 0.000953 -0.002915 0.000000 0.000000 0.000000
# 2 0.000953 0.022205 -0.004631 0.000000 0.000000 0.000000
# 3 -0.002915 -0.004631 0.013951 0.000000 0.000000 0.000000
# 4 0.000000 0.000000 0.000000 0.047574 0.000000 0.000000
# 5 0.000000 0.000000 0.000000 0.000000 0.011838 0.000000
# 6 0.000000 0.000000 0.000000 0.000000 0.000000 0.063784
#
#
# Mechanical properties :
#
#
# Convention : Reuss Voigt Hill
#
# Bulk Modulus (GPa) = 30.66782 35.51927 33.09354
# Shear Modulus (GPa) = 25.90113 37.68122 31.79118
#
# Velocity S-wave (km/s) = 3.62658 4.37422 4.01783
# Velocity P-wave (km/s) = 5.75401 6.59907 6.19098
#
# Compressibility (1/GPa) = 0.03260747
#
# Stress axis : x y z
#
# Youngs Moduli (GPa) = 103.77412 45.03408 71.68172
#
# Poissons Ratio (x) = -0.04294 0.20897
# Poissons Ratio (y) = -0.09894 0.33193
# Poissons Ratio (z) = 0.30253 0.20854
#
# Static dielectric constant tensor:
#      x y z
#    x 4.518120 0.000000 0.000000 
#    y 0.000000 2.477140 0.000000 
#    z 0.000000 0.000000 4.021300 
# 
# 
# High freq. dielectric constant tensor:
#      x y z
#    x 1.782310 0.000000 0.000000 
#    y 0.000000 1.704960 0.000000 
#    z 0.000000 0.000000 1.780790 
# 
# From -- ./inp_files/24940.got.cif
#   From: 2010.06.25/outbox.cif.g09.slc.cpg/sg52_13_cif.got.tgz:24940.got - 2010.06.26 19:32:48.
