data_PCOD8215241
_publ_section_title
;
Structure prediction by ZEFSAII (Michael W. Deem and Ramdas Pophale) SiO2 
 PCOD8215241
Probable space group: P N N A
;
_chemical_formula_sum "Si O2"
_cell_formula_units_Z 56
_cell_length_a 21.726850
_cell_length_b 13.971223
_cell_length_c 9.190321
_cell_angle_alpha 90.000000
_cell_angle_beta 90.000000
_cell_angle_gamma 90.000000
_cell_volume 2789.728064
_symmetry_space_group_name_H-M "P N N A"
_symmetry_group_IT_number 52
_symmetry_cell_setting 'orthorhombic'
loop_
_space_group_symop_operation_xyz
x,y,z
1/2-x,-y,z
x,1/2-y,1/2-z
1/2-x,1/2+y,1/2-z
-x,-y,-z
1/2+x,y,-z
-x,1/2+y,1/2+z
1/2+x,1/2-y,1/2+z
loop_
_atom_site_type_symbol
_atom_site_label
_atom_site_fract_x
_atom_site_fract_y
_atom_site_fract_z
Si Si1 0.602168 0.285534 0.410419
Si Si2 0.377754 0.529624 0.203203
Si Si3 0.293597 0.800069 0.390207
Si Si4 0.197570 0.921871 0.514231
Si Si5 0.394086 0.142291 0.734942
Si Si6 0.072759 0.497553 0.519023
Si Si7 0.524817 0.175707 0.622343
O O1 0.618227 0.250000 0.250000
O O2 0.658947 0.263316 0.517261
O O3 0.590432 0.398719 0.401455
O O4 0.542145 0.228433 0.470871
O O5 0.324970 0.607612 0.181889
O O6 0.390007 0.496695 0.368036
O O7 0.440236 0.574791 0.138269
O O8 0.352742 0.438888 0.113357
O O9 0.266072 0.750000 0.250000
O O10 0.233933 0.823367 0.487035
O O11 0.159848 0.919078 0.663267
O O12 0.250000 0.000000 0.533298
O O13 0.369331 0.250000 0.750000
O O14 0.453326 0.149625 0.629081
O O15 0.409576 0.090582 0.886614
O O16 0.000000 0.500000 0.500000
O O17 0.544324 0.250000 0.750000
#
# Coordination Sequence:
#
# PCOD8215241 Si02
#       7
#     8   8   8   8   8   8   8
#     4  11  23  37  67 105 126 165 222 271 324 393
#     4  10  19  39  64  96 120 167 215 265 319 401
#     4  10  20  43  68  85 129 171 220 270 321 379
#     4  10  25  42  62  91 127 173 224 263 321 383
#     4  11  25  43  62  92 139 175 204 276 344 377
#     4  12  22  40  67 103 133 165 220 267 330 408
#     4  10  18  40  64  89 136 169 202 260 342 388
#
# _framework density 20.073642
#
# number of rings (size 3 to 8) (size 9 to 14) (size 15 to 20)
#    0.000    1.429    4.286    1.714    6.000    3.429 
#    0.000    2.857    0.000    0.000    0.000    0.000 
#    0.000    0.000    0.000    0.000    0.000    0.000 
#
# Total GULP energy -694127.139780 kJ/mol
# GULP energy per Si atom -12395.127496 kJ/mol
# Density = 2.002795 g / cm^3
# Si number density = 20.073642 Si / 1000 Ang^3
#
#
#
# Elastic Constant Matrix: (Units=GPa)
#
#
# Indices 1 2 3 4 5 6 
#
# 1 94.5936 31.5871 41.7385 0.0000 0.0000 0.0000
# 2 31.5871 95.4758 42.6953 0.0000 0.0000 0.0000
# 3 41.7385 42.6953 110.3619 0.0000 0.0000 0.0000
# 4 0.0000 0.0000 0.0000 31.5156 0.0000 0.0000
# 5 0.0000 0.0000 0.0000 0.0000 26.5386 0.0000
# 6 0.0000 0.0000 0.0000 0.0000 0.0000 18.5545
#
#
#
# Elastic Compliance Matrix: (Units=1/GPa)
#
#
# Indices 1 2 3 4 5 6 
#
# 1 0.013195 -0.002580 -0.003992 0.000000 0.000000 0.000000
# 2 -0.002580 0.013169 -0.004119 0.000000 0.000000 0.000000
# 3 -0.003992 -0.004119 0.012164 0.000000 0.000000 0.000000
# 4 0.000000 0.000000 0.000000 0.031730 0.000000 0.000000
# 5 0.000000 0.000000 0.000000 0.000000 0.037681 0.000000
# 6 0.000000 0.000000 0.000000 0.000000 0.000000 0.053895
#
#
# Mechanical properties :
#
#
# Convention : Reuss Voigt Hill
#
# Bulk Modulus (GPa) = 58.32226 59.16367 58.74297
# Shear Modulus (GPa) = 26.46448 27.61576 27.04012
#
# Velocity S-wave (km/s) = 3.63487 3.71310 3.67419
# Velocity P-wave (km/s) = 6.83620 6.92243 6.87945
#
# Compressibility (1/GPa) = 0.01714611
#
# Stress axis : x y z
#
# Youngs Moduli (GPa) = 75.78906 75.93344 82.20741
#
# Poissons Ratio (x) = 0.19592 0.32817
# Poissons Ratio (y) = 0.19554 0.33861
# Poissons Ratio (z) = 0.30255 0.31277
#
# Static dielectric constant tensor:
#      x y z
#    x 3.745980 0.000000 0.000000 
#    y 0.000000 3.839760 0.000000 
#    z 0.000000 0.000000 3.611480 
# 
# 
# High freq. dielectric constant tensor:
#      x y z
#    x 1.783440 0.000000 0.000000 
#    y 0.000000 1.781070 0.000000 
#    z 0.000000 0.000000 1.775560 
# 
# From -- ./inp_files/13431.got.cif
#   From: 2010.06.25/outbox.cif.g09.slc.cpg/sg52_7_cif.got.tgz:13431.got - 2010.06.26 19:32:48.
