data_PCOD8215627
_publ_section_title
;
Structure prediction by ZEFSAII (Michael W. Deem and Ramdas Pophale) SiO2 
 PCOD8215627
Probable space group: P N N A
;
_chemical_formula_sum "Si O2"
_cell_formula_units_Z 48
_cell_length_a 17.610650
_cell_length_b 15.814776
_cell_length_c 9.235350
_cell_angle_alpha 90.000000
_cell_angle_beta 90.000000
_cell_angle_gamma 90.000000
_cell_volume 2572.123337
_symmetry_space_group_name_H-M "P N N A"
_symmetry_group_IT_number 52
_symmetry_cell_setting 'orthorhombic'
loop_
_space_group_symop_operation_xyz
x,y,z
1/2-x,-y,z
x,1/2-y,1/2-z
1/2-x,1/2+y,1/2-z
-x,-y,-z
1/2+x,y,-z
-x,1/2+y,1/2+z
1/2+x,1/2-y,1/2+z
loop_
_atom_site_type_symbol
_atom_site_label
_atom_site_fract_x
_atom_site_fract_y
_atom_site_fract_z
Si Si1 0.026600 0.080621 0.585095
Si Si2 0.706990 0.414693 0.080153
Si Si3 0.730717 0.734975 0.919008
Si Si4 0.980528 0.585088 0.412877
Si Si5 0.674073 0.328725 0.349807
Si Si6 0.556781 0.746927 0.921130
O O1 0.116696 0.081200 0.575150
O O2 0.994876 0.069380 0.747520
O O3 0.992044 0.167512 0.517802
O O4 0.000000 0.000000 0.500000
O O5 0.750000 0.500000 0.051273
O O6 0.728988 0.380138 0.240089
O O7 0.735810 0.356578 0.950476
O O8 0.741455 0.750000 0.750000
O O9 0.643573 0.737320 0.968618
O O10 0.776606 0.803224 0.012410
O O11 0.892077 0.611726 0.412796
O O12 0.000000 0.500000 0.500000
O O13 0.026236 0.663810 0.484143
O O14 0.641425 0.250000 0.250000
O O15 0.547098 0.750000 0.750000
#
# Coordination Sequence:
#
# PCOD8215627 Si02
#       6
#     8   8   8   8   8   8
#     4  10  20  36  57  78 105 142 178 215 262 318
#     4  10  20  35  55  79 109 142 177 219 269 325
#     4  10  20  34  55  79 104 138 178 222 269 316
#     4  10  20  35  55  78 105 139 177 217 264 317
#     4   9  19  37  56  74 105 146 178 214 270 326
#     4   9  18  35  54  74 105 141 173 211 265 318
#
# _framework density 18.661624
#
# number of rings (size 3 to 8) (size 9 to 14) (size 15 to 20)
#    0.000    2.333    0.000    4.500    0.000    4.000 
#    0.000    3.333    0.000    0.000    0.000    0.000 
#    0.000    0.000    0.000    0.000    0.000    0.000 
#
# Total GULP energy -594938.578885 kJ/mol
# GULP energy per Si atom -12394.553727 kJ/mol
# Density = 1.861915 g / cm^3
# Si number density = 18.661624 Si / 1000 Ang^3
#
#
#
# Elastic Constant Matrix: (Units=GPa)
#
#
# Indices 1 2 3 4 5 6 
#
# 1 106.8795 70.0413 53.5791 0.0000 0.0000 0.0000
# 2 70.0413 171.0098 61.3569 0.0000 0.0000 0.0000
# 3 53.5791 61.3569 84.3722 0.0000 0.0000 0.0000
# 4 0.0000 0.0000 0.0000 33.2597 0.0000 0.0000
# 5 0.0000 0.0000 0.0000 0.0000 23.9931 0.0000
# 6 0.0000 0.0000 0.0000 0.0000 0.0000 36.2184
#
#
#
# Elastic Compliance Matrix: (Units=1/GPa)
#
#
# Indices 1 2 3 4 5 6 
#
# 1 0.015334 -0.003770 -0.006996 0.000000 0.000000 0.000000
# 2 -0.003770 0.008839 -0.004034 0.000000 0.000000 0.000000
# 3 -0.006996 -0.004034 0.019228 0.000000 0.000000 0.000000
# 4 0.000000 0.000000 0.000000 0.030066 0.000000 0.000000
# 5 0.000000 0.000000 0.000000 0.000000 0.041679 0.000000
# 6 0.000000 0.000000 0.000000 0.000000 0.000000 0.027610
#
#
# Mechanical properties :
#
#
# Convention : Reuss Voigt Hill
#
# Bulk Modulus (GPa) = 72.45458 81.35736 76.90597
# Shear Modulus (GPa) = 28.25541 30.51317 29.38429
#
# Velocity S-wave (km/s) = 3.89535 4.04799 3.97241
# Velocity P-wave (km/s) = 7.69035 8.09562 7.89558
#
# Compressibility (1/GPa) = 0.01380175
#
# Stress axis : x y z
#
# Youngs Moduli (GPa) = 65.21340 113.13321 52.00721
#
# Poissons Ratio (x) = 0.42657 0.36383
# Poissons Ratio (y) = 0.24589 0.20978
# Poissons Ratio (z) = 0.45622 0.45633
#
# Static dielectric constant tensor:
#      x y z
#    x 3.437770 0.000000 0.000000 
#    y 0.000000 3.849840 0.000000 
#    z 0.000000 0.000000 3.288490 
# 
# 
# High freq. dielectric constant tensor:
#      x y z
#    x 1.728650 0.000000 0.000000 
#    y 0.000000 1.736680 0.000000 
#    z 0.000000 0.000000 1.702520 
# 
# From -- ./inp_files/12034.got.cif
#   From: 2010.06.25/outbox.cif.g09.slc.cpg/sg52_7_cif.got.tgz:12034.got - 2010.06.26 19:32:48.
