data_PCOD8215031
_publ_section_title
;
Structure prediction by ZEFSAII (Michael W. Deem and Ramdas Pophale) SiO2 
 PCOD8215031
Probable space group: P N N A
;
_chemical_formula_sum "Si O2"
_cell_formula_units_Z 44
_cell_length_a 21.232188
_cell_length_b 11.304292
_cell_length_c 10.140644
_cell_angle_alpha 90.000000
_cell_angle_beta 90.000000
_cell_angle_gamma 90.000000
_cell_volume 2433.905178
_symmetry_space_group_name_H-M "P N N A"
_symmetry_group_IT_number 52
_symmetry_cell_setting 'orthorhombic'
loop_
_space_group_symop_operation_xyz
x,y,z
1/2-x,-y,z
x,1/2-y,1/2-z
1/2-x,1/2+y,1/2-z
-x,-y,-z
1/2+x,y,-z
-x,1/2+y,1/2+z
1/2+x,1/2-y,1/2+z
loop_
_atom_site_type_symbol
_atom_site_label
_atom_site_fract_x
_atom_site_fract_y
_atom_site_fract_z
Si Si1 0.977052 0.427148 0.376793
Si Si2 0.788684 0.328126 0.880281
Si Si3 0.943145 0.017542 0.400905
Si Si4 0.569000 0.250000 0.750000
Si Si5 0.654442 0.424229 0.914478
Si Si6 0.371612 0.255928 0.605095
O O1 0.968244 0.510936 0.246849
O O2 0.908235 0.378522 0.413971
O O3 0.000000 0.500000 0.500000
O O4 0.025475 0.319201 0.353705
O O5 0.784032 0.250000 0.750000
O O6 0.719962 0.358063 0.937243
O O7 0.830350 0.445761 0.853049
O O8 0.818795 0.248984 0.994293
O O9 0.923849 0.153988 0.405559
O O10 0.882967 0.938573 0.446390
O O11 0.000000 0.000000 0.500000
O O12 0.611817 0.349831 0.815984
O O13 0.339435 0.250000 0.750000
#
# Coordination Sequence:
#
# PCOD8215031 Si02
#       6
#     8   8   8   4   8   8
#     4  11  22  35  59  91 119 157 196 247 310 364
#     4  10  21  36  59  88 111 156 210 241 286 367
#     4  10  17  35  58  79 113 154 188 237 305 356
#     4  12  20  40  58  86 128 150 192 262 308 342
#     4  10  21  36  60  82 121 158 192 246 309 348
#     4   9  19  36  53  79 116 152 190 236 295 349
#
# _framework density 18.077945
#
# number of rings (size 3 to 8) (size 9 to 14) (size 15 to 20)
#    0.000    1.818    5.455    0.000    2.545    0.000 
#    0.000    4.545    0.000    4.364    0.000    0.000 
#    0.000    0.000    0.000    0.000    0.000    0.000 
#
# Total GULP energy -545370.110921 kJ/mol
# GULP energy per Si atom -12394.775248 kJ/mol
# Density = 1.803680 g / cm^3
# Si number density = 18.077945 Si / 1000 Ang^3
#
#
#
# Elastic Constant Matrix: (Units=GPa)
#
#
# Indices 1 2 3 4 5 6 
#
# 1 114.1329 48.4676 77.5655 0.0000 0.0000 0.0000
# 2 48.4676 71.5889 62.8925 0.0000 0.0000 0.0000
# 3 77.5655 62.8925 158.5419 0.0000 0.0000 0.0000
# 4 0.0000 0.0000 0.0000 36.8444 0.0000 0.0000
# 5 0.0000 0.0000 0.0000 0.0000 22.8900 0.0000
# 6 0.0000 0.0000 0.0000 0.0000 0.0000 27.3277
#
#
#
# Elastic Compliance Matrix: (Units=1/GPa)
#
#
# Indices 1 2 3 4 5 6 
#
# 1 0.014395 -0.005462 -0.004876 0.000000 0.000000 0.000000
# 2 -0.005462 0.023514 -0.006655 0.000000 0.000000 0.000000
# 3 -0.004876 -0.006655 0.011333 0.000000 0.000000 0.000000
# 4 0.000000 0.000000 0.000000 0.027141 0.000000 0.000000
# 5 0.000000 0.000000 0.000000 0.000000 0.043687 0.000000
# 6 0.000000 0.000000 0.000000 0.000000 0.000000 0.036593
#
#
# Mechanical properties :
#
#
# Convention : Reuss Voigt Hill
#
# Bulk Modulus (GPa) = 65.55293 80.23499 72.89396
# Shear Modulus (GPa) = 25.54482 27.76829 26.65656
#
# Velocity S-wave (km/s) = 3.76312 3.92348 3.84413
# Velocity P-wave (km/s) = 7.43111 8.06251 7.75324
#
# Compressibility (1/GPa) = 0.01525485
#
# Stress axis : x y z
#
# Youngs Moduli (GPa) = 69.46888 42.52866 88.23763
#
# Poissons Ratio (x) = 0.23230 0.43023
# Poissons Ratio (y) = 0.37946 0.58725
# Poissons Ratio (z) = 0.33872 0.28304
#
# Static dielectric constant tensor:
#      x y z
#    x 3.556970 0.000000 0.000000 
#    y 0.000000 3.683610 0.000000 
#    z 0.000000 0.000000 3.382310 
# 
# 
# High freq. dielectric constant tensor:
#      x y z
#    x 1.710590 0.000000 0.000000 
#    y 0.000000 1.689930 0.000000 
#    z 0.000000 0.000000 1.692460 
# 
# From -- ./inp_files/14175.got.cif
#   From: 2010.06.25/outbox.cif.g09.slc.cpg/sg52_8_cif.got.tgz:14175.got - 2010.06.26 19:32:48.
