data_PCOD8215252
_publ_section_title
;
Structure prediction by ZEFSAII (Michael W. Deem and Ramdas Pophale) SiO2 
 PCOD8215252
Probable space group: P N N A
;
_chemical_formula_sum "Si O2"
_cell_formula_units_Z 40
_cell_length_a 13.850967
_cell_length_b 9.103352
_cell_length_c 18.784586
_cell_angle_alpha 90.000000
_cell_angle_beta 90.000000
_cell_angle_gamma 90.000000
_cell_volume 2368.552734
_symmetry_space_group_name_H-M "P N N A"
_symmetry_group_IT_number 52
_symmetry_cell_setting 'orthorhombic'
loop_
_space_group_symop_operation_xyz
x,y,z
1/2-x,-y,z
x,1/2-y,1/2-z
1/2-x,1/2+y,1/2-z
-x,-y,-z
1/2+x,y,-z
-x,1/2+y,1/2+z
1/2+x,1/2-y,1/2+z
loop_
_atom_site_type_symbol
_atom_site_label
_atom_site_fract_x
_atom_site_fract_y
_atom_site_fract_z
Si Si1 0.852999 0.043528 0.987873
Si Si2 0.638708 0.967463 0.206435
Si Si3 0.879037 0.922091 0.365076
Si Si4 0.823665 0.277686 0.111026
Si Si5 0.029813 0.354725 0.591559
O O1 0.832505 0.166692 0.046444
O O2 0.750000 0.000000 0.954135
O O3 0.904855 0.902301 0.023770
O O4 0.918637 0.106179 0.924406
O O5 0.626854 0.796701 0.181387
O O6 0.750000 0.000000 0.186813
O O7 0.613002 0.006489 0.286881
O O8 0.564255 0.064910 0.162197
O O9 0.786486 0.815985 0.369076
O O10 0.966619 0.820988 0.392518
O O11 0.874417 0.069332 0.413037
#
# Coordination Sequence:
#
# PCOD8215252 Si02
#       5
#     8   8   8   8   8
#     4  10  19  36  50  66 102 138 180 212 252 311
#     4  11  18  29  47  75 111 131 161 208 270 326
#     4  11  19  27  49  79 106 131 162 213 274 323
#     4  10  19  29  46  75 105 141 158 206 271 316
#     4  10  20  31  50  73  98 135 177 212 251 320
#
# _framework density 16.88795
#
# number of rings (size 3 to 8) (size 9 to 14) (size 15 to 20)
#    0.000    1.600    6.000    2.400    0.000    0.800 
#    0.000    0.000    0.000    0.000    0.000   16.800 
#    6.000    0.000    0.000    0.000    0.000    0.000 
#
# Total GULP energy -495586.493933 kJ/mol
# GULP energy per Si atom -12389.662348 kJ/mol
# Density = 1.684951 g / cm^3
# Si number density = 16.887950 Si / 1000 Ang^3
#
#
#
# Elastic Constant Matrix: (Units=GPa)
#
#
# Indices 1 2 3 4 5 6 
#
# 1 96.8221 39.8000 35.1479 0.0000 0.0000 0.0000
# 2 39.8000 121.6659 29.8183 0.0000 0.0000 0.0000
# 3 35.1479 29.8183 53.0887 0.0000 0.0000 0.0000
# 4 0.0000 0.0000 0.0000 19.9422 0.0000 0.0000
# 5 0.0000 0.0000 0.0000 0.0000 21.4540 0.0000
# 6 0.0000 0.0000 0.0000 0.0000 0.0000 20.0174
#
#
#
# Elastic Compliance Matrix: (Units=1/GPa)
#
#
# Indices 1 2 3 4 5 6 
#
# 1 0.014344 -0.002742 -0.007956 0.000000 0.000000 0.000000
# 2 -0.002742 0.010056 -0.003832 0.000000 0.000000 0.000000
# 3 -0.007956 -0.003832 0.026256 0.000000 0.000000 0.000000
# 4 0.000000 0.000000 0.000000 0.050145 0.000000 0.000000
# 5 0.000000 0.000000 0.000000 0.000000 0.046611 0.000000
# 6 0.000000 0.000000 0.000000 0.000000 0.000000 0.049956
#
#
# Mechanical properties :
#
#
# Convention : Reuss Voigt Hill
#
# Bulk Modulus (GPa) = 46.30898 53.45656 49.88277
# Shear Modulus (GPa) = 21.40156 23.40342 22.40249
#
# Velocity S-wave (km/s) = 3.56373 3.72668 3.64612
# Velocity P-wave (km/s) = 6.66442 7.08801 6.87947
#
# Compressibility (1/GPa) = 0.02159408
#
# Stress axis : x y z
#
# Youngs Moduli (GPa) = 69.71729 99.44768 38.08608
#
# Poissons Ratio (x) = 0.27271 0.30302
# Poissons Ratio (y) = 0.19118 0.14596
# Poissons Ratio (z) = 0.55468 0.38112
#
# Static dielectric constant tensor:
#      x y z
#    x 3.017480 0.000000 0.000000 
#    y 0.000000 3.631920 0.000000 
#    z 0.000000 0.000000 2.976850 
# 
# 
# High freq. dielectric constant tensor:
#      x y z
#    x 1.607870 0.000000 0.000000 
#    y 0.000000 1.676040 0.000000 
#    z 0.000000 0.000000 1.625150 
# 
# From -- ./inp_files/26857.got.cif
#   From: 2010.06.25/outbox.cif.g09.slc.cpg/sg52_14_cif.got.tgz:26857.got - 2010.06.26 19:32:48.
