data_PCOD8215901
_publ_section_title
;
Structure prediction by ZEFSAII (Michael W. Deem and Ramdas Pophale) SiO2 
 PCOD8215901
Probable space group: P N N A
;
_chemical_formula_sum "Si O2"
_cell_formula_units_Z 40
_cell_length_a 8.687007
_cell_length_b 10.643258
_cell_length_c 18.085039
_cell_angle_alpha 90.000000
_cell_angle_beta 90.000000
_cell_angle_gamma 90.000000
_cell_volume 1672.107562
_symmetry_space_group_name_H-M "P N N A"
_symmetry_group_IT_number 52
_symmetry_cell_setting 'orthorhombic'
loop_
_space_group_symop_operation_xyz
x,y,z
1/2-x,-y,z
x,1/2-y,1/2-z
1/2-x,1/2+y,1/2-z
-x,-y,-z
1/2+x,y,-z
-x,1/2+y,1/2+z
1/2+x,1/2-y,1/2+z
loop_
_atom_site_type_symbol
_atom_site_label
_atom_site_fract_x
_atom_site_fract_y
_atom_site_fract_z
Si Si1 0.864527 0.897765 0.039453
Si Si2 0.126726 0.211739 0.413532
Si Si3 0.750000 0.000000 0.494414
Si Si4 0.190032 0.700975 0.872365
Si Si5 0.628566 0.893509 0.855939
Si Si6 0.411933 0.750000 0.750000
O O1 0.761445 0.832103 0.101725
O O2 0.020625 0.950817 0.078196
O O3 0.750000 0.000000 0.002700
O O4 0.927941 0.802874 0.978949
O O5 0.137320 0.072182 0.448730
O O6 0.286640 0.263905 0.380233
O O7 0.990974 0.215771 0.351231
O O8 0.678005 0.896474 0.440362
O O9 0.299877 0.665541 0.803358
O O10 0.519201 0.854138 0.788430
O O11 0.750000 0.000000 0.830895
#
# Coordination Sequence:
#
# PCOD8215901 Si02
#       6
#     8   8   4   8   8   4
#     4  10  20  38  67 101 136 167 213 279 351 405
#     4  11  22  39  71 104 135 170 223 287 355 398
#     4  10  22  42  70 108 136 166 228 290 356 400
#     4  10  22  42  66  94 135 182 220 277 334 409
#     4  11  24  44  69  96 137 180 229 286 335 411
#     4  10  26  50  60  92 136 188 244 262 328 420
#
# _framework density 23.921904999999999
#
# number of rings (size 3 to 8) (size 9 to 14) (size 15 to 20)
#    0.000    1.600    0.000    4.800    0.000    6.400 
#   16.200    0.000    0.000    0.000    0.000    0.000 
#    0.000    0.000    0.000    0.000    0.000    0.000 
#
# Total GULP energy -495616.104409 kJ/mol
# GULP energy per Si atom -12390.402610 kJ/mol
# Density = 2.386746 g / cm^3
# Si number density = 23.921905 Si / 1000 Ang^3
#
#
#
# Elastic Constant Matrix: (Units=GPa)
#
#
# Indices 1 2 3 4 5 6 
#
# 1 188.9251 60.6050 71.0072 0.0000 0.0000 0.0000
# 2 60.6050 107.8951 25.7437 0.0000 0.0000 0.0000
# 3 71.0072 25.7437 84.9140 0.0000 0.0000 0.0000
# 4 0.0000 0.0000 0.0000 16.3514 0.0000 0.0000
# 5 0.0000 0.0000 0.0000 0.0000 38.2873 0.0000
# 6 0.0000 0.0000 0.0000 0.0000 0.0000 22.0215
#
#
#
# Elastic Compliance Matrix: (Units=1/GPa)
#
#
# Indices 1 2 3 4 5 6 
#
# 1 0.008750 -0.003416 -0.006281 0.000000 0.000000 0.000000
# 2 -0.003416 0.011325 -0.000577 0.000000 0.000000 0.000000
# 3 -0.006281 -0.000577 0.017204 0.000000 0.000000 0.000000
# 4 0.000000 0.000000 0.000000 0.061157 0.000000 0.000000
# 5 0.000000 0.000000 0.000000 0.000000 0.026118 0.000000
# 6 0.000000 0.000000 0.000000 0.000000 0.000000 0.045410
#
#
# Mechanical properties :
#
#
# Convention : Reuss Voigt Hill
#
# Bulk Modulus (GPa) = 59.77105 77.38288 68.57697
# Shear Modulus (GPa) = 25.49878 30.29061 27.89469
#
# Velocity S-wave (km/s) = 3.26838 3.56227 3.41849
# Velocity P-wave (km/s) = 6.26763 7.02411 6.65662
#
# Compressibility (1/GPa) = 0.01673051
#
# Stress axis : x y z
#
# Youngs Moduli (GPa) = 114.29043 88.30270 58.12664
#
# Poissons Ratio (x) = 0.30165 0.36509
# Poissons Ratio (y) = 0.39042 0.03352
# Poissons Ratio (z) = 0.71786 0.05093
#
# Static dielectric constant tensor:
#      x y z
#    x 4.457450 0.000000 0.000000 
#    y 0.000000 4.225770 0.000000 
#    z 0.000000 0.000000 4.142210 
# 
# 
# High freq. dielectric constant tensor:
#      x y z
#    x 1.974520 0.000000 0.000000 
#    y 0.000000 1.937900 0.000000 
#    z 0.000000 0.000000 1.922460 
# 
# From -- ./inp_files/30912.got.cif
#   From: 2010.06.25/outbox.cif.g09.slc.cpg/sg52_16_cif.got.tgz:30912.got - 2010.06.26 19:32:48.
