data_PCOD8215422
_publ_section_title
;
Structure prediction by ZEFSAII (Michael W. Deem and Ramdas Pophale) SiO2 
 PCOD8215422
Probable space group: P N N A
;
_chemical_formula_sum "Si O2"
_cell_formula_units_Z 40
_cell_length_a 22.981693
_cell_length_b 13.797513
_cell_length_c 6.352010
_cell_angle_alpha 90.000000
_cell_angle_beta 90.000000
_cell_angle_gamma 90.000000
_cell_volume 2014.160172
_symmetry_space_group_name_H-M "P N N A"
_symmetry_group_IT_number 52
_symmetry_cell_setting 'orthorhombic'
loop_
_space_group_symop_operation_xyz
x,y,z
1/2-x,-y,z
x,1/2-y,1/2-z
1/2-x,1/2+y,1/2-z
-x,-y,-z
1/2+x,y,-z
-x,1/2+y,1/2+z
1/2+x,1/2-y,1/2+z
loop_
_atom_site_type_symbol
_atom_site_label
_atom_site_fract_x
_atom_site_fract_y
_atom_site_fract_z
Si Si1 0.897405 0.139262 0.731929
Si Si2 0.882740 0.644906 0.801972
Si Si3 0.525871 0.354069 0.142409
Si Si4 0.681315 0.503392 0.044062
Si Si5 0.601252 0.492599 0.417899
O O1 0.876854 0.250000 0.750000
O O2 0.845563 0.083144 0.614735
O O3 0.957298 0.132652 0.600099
O O4 0.913747 0.092674 0.960076
O O5 0.859470 0.750000 0.750000
O O6 0.881303 0.586342 0.588077
O O7 0.946479 0.645203 0.909643
O O8 0.837948 0.602832 0.971029
O O9 0.539547 0.250000 0.250000
O O10 0.549280 0.446140 0.278454
O O11 0.750000 0.500000 0.044685
O O12 0.657229 0.520089 0.277912
#
# Coordination Sequence:
#
# PCOD8215422 Si02
#       5
#     8   8   8   8   8
#     4  10  23  40  60  91 123 159 201 244 306 371
#     4  10  20  37  63  92 119 153 196 243 302 364
#     4  10  19  35  61  95 127 153 191 240 311 379
#     4  10  24  42  59  84 119 160 211 254 294 347
#     4  10  21  37  60  86 125 159 199 244 303 354
#
# _framework density 19.859393000000001
#
# number of rings (size 3 to 8) (size 9 to 14) (size 15 to 20)
#    0.000    2.000    2.000    0.600    0.000   13.600 
#    0.000    2.000    0.000    0.000    0.000    0.000 
#    0.000    0.000    0.000    0.000    0.000    0.000 
#
# Total GULP energy -495861.357468 kJ/mol
# GULP energy per Si atom -12396.533937 kJ/mol
# Density = 1.981419 g / cm^3
# Si number density = 19.859393 Si / 1000 Ang^3
#
#
#
# Elastic Constant Matrix: (Units=GPa)
#
#
# Indices 1 2 3 4 5 6 
#
# 1 138.6502 35.3250 29.4178 0.0000 0.0000 0.0000
# 2 35.3250 145.5839 37.1701 0.0000 0.0000 0.0000
# 3 29.4178 37.1701 83.5343 0.0000 0.0000 0.0000
# 4 0.0000 0.0000 0.0000 20.2347 0.0000 0.0000
# 5 0.0000 0.0000 0.0000 0.0000 18.7176 0.0000
# 6 0.0000 0.0000 0.0000 0.0000 0.0000 17.1396
#
#
#
# Elastic Compliance Matrix: (Units=1/GPa)
#
#
# Indices 1 2 3 4 5 6 
#
# 1 0.008035 -0.001384 -0.002214 0.000000 0.000000 0.000000
# 2 -0.001384 0.007988 -0.003067 0.000000 0.000000 0.000000
# 3 -0.002214 -0.003067 0.014115 0.000000 0.000000 0.000000
# 4 0.000000 0.000000 0.000000 0.049420 0.000000 0.000000
# 5 0.000000 0.000000 0.000000 0.000000 0.053426 0.000000
# 6 0.000000 0.000000 0.000000 0.000000 0.000000 0.058344
#
#
# Mechanical properties :
#
#
# Convention : Reuss Voigt Hill
#
# Bulk Modulus (GPa) = 59.49413 63.51046 61.50229
# Shear Modulus (GPa) = 23.78009 28.94211 26.36110
#
# Velocity S-wave (km/s) = 3.46413 3.82167 3.64728
# Velocity P-wave (km/s) = 6.78403 7.17795 6.98377
#
# Compressibility (1/GPa) = 0.01680838
#
# Stress axis : x y z
#
# Youngs Moduli (GPa) = 124.45915 125.19064 70.84526
#
# Poissons Ratio (x) = 0.17332 0.15682
# Poissons Ratio (y) = 0.17230 0.21727
# Poissons Ratio (z) = 0.27549 0.38393
#
# Static dielectric constant tensor:
#      x y z
#    x 3.318290 0.000000 0.000000 
#    y 0.000000 3.912340 0.000000 
#    z 0.000000 0.000000 3.798500 
# 
# 
# High freq. dielectric constant tensor:
#      x y z
#    x 1.749490 0.000000 0.000000 
#    y 0.000000 1.785880 0.000000 
#    z 0.000000 0.000000 1.781860 
# 
# From -- ./inp_files/5009.got.cif
#   From: 2010.06.25/outbox.cif.g09.slc.cpg/sg52_3_cif.got.tgz:5009.got - 2010.06.26 19:32:48.
