data_PCOD8215005
_publ_section_title
;
Structure prediction by ZEFSAII (Michael W. Deem and Ramdas Pophale) SiO2 
 PCOD8215005
Probable space group: P N N A
;
_chemical_formula_sum "Si O2"
_cell_formula_units_Z 64
_cell_length_a 9.684123
_cell_length_b 15.865313
_cell_length_c 22.254136
_cell_angle_alpha 90.000000
_cell_angle_beta 90.000000
_cell_angle_gamma 90.000000
_cell_volume 3419.162008
_symmetry_space_group_name_H-M "P N N A"
_symmetry_group_IT_number 52
_symmetry_cell_setting 'orthorhombic'
loop_
_space_group_symop_operation_xyz
x,y,z
1/2-x,-y,z
x,1/2-y,1/2-z
1/2-x,1/2+y,1/2-z
-x,-y,-z
1/2+x,y,-z
-x,1/2+y,1/2+z
1/2+x,1/2-y,1/2+z
loop_
_atom_site_type_symbol
_atom_site_label
_atom_site_fract_x
_atom_site_fract_y
_atom_site_fract_z
Si Si1 0.843136 0.757713 0.123804
Si Si2 0.754583 0.284449 0.998214
Si Si3 0.499166 0.831364 0.427806
Si Si4 0.840584 0.337606 0.282232
Si Si5 0.593002 0.502509 0.557538
Si Si6 0.308275 0.410193 0.840009
Si Si7 0.872040 0.321600 0.607080
Si Si8 0.424302 0.838576 0.134327
O O1 0.821228 0.766825 0.051915
O O2 0.764441 0.832533 0.160717
O O3 0.796503 0.663663 0.140873
O O4 0.007248 0.765430 0.136642
O O5 0.878146 0.342192 0.023469
O O6 0.648241 0.345883 0.960916
O O7 0.818514 0.213102 0.956373
O O8 0.541114 0.893924 0.372408
O O9 0.498541 0.736516 0.402223
O O10 0.821567 0.250000 0.250000
O O11 0.815738 0.410634 0.232870
O O12 0.997678 0.349884 0.303006
O O13 0.750000 0.500000 0.535714
O O14 0.500000 0.500000 0.500000
O O15 0.565466 0.585595 0.597303
O O16 0.555377 0.422886 0.597311
O O17 0.250000 0.500000 0.861448
O O18 0.736932 0.321596 0.649995
#
# Coordination Sequence:
#
# PCOD8215005 Si02
#       8
#     8   8   8   8   8   8   8   8
#     4  10  20  35  60  86 114 148 197 233 289 360
#     4  10  17  30  56  83 116 149 185 226 282 355
#     4  10  18  33  58  82 112 152 186 228 292 356
#     4  10  19  37  61  80 102 148 202 240 281 346
#     4  10  22  31  46  81 124 158 183 223 270 338
#     4  10  22  40  62  84 111 145 204 261 292 332
#     4  10  21  32  52  83 122 153 185 226 286 343
#     4  10  19  35  55  81 115 154 195 229 278 347
#
# _framework density 18.718036000000001
#
# number of rings (size 3 to 8) (size 9 to 14) (size 15 to 20)
#    0.000    2.000    5.000    0.750    3.500    1.000 
#    0.000    4.375    0.000    2.250    0.000    0.000 
#    0.000    0.000    0.000    0.000    0.000    0.000 
#
# Total GULP energy -793090.969256 kJ/mol
# GULP energy per Si atom -12392.046395 kJ/mol
# Density = 1.867543 g / cm^3
# Si number density = 18.718036 Si / 1000 Ang^3
#
#
#
# Elastic Constant Matrix: (Units=GPa)
#
#
# Indices 1 2 3 4 5 6 
#
# 1 106.4346 22.6945 38.2713 0.0000 0.0000 0.0000
# 2 22.6945 59.7630 14.1006 0.0000 0.0000 0.0000
# 3 38.2713 14.1006 72.6768 0.0000 0.0000 0.0000
# 4 0.0000 0.0000 0.0000 9.5015 0.0000 0.0000
# 5 0.0000 0.0000 0.0000 0.0000 26.5958 0.0000
# 6 0.0000 0.0000 0.0000 0.0000 0.0000 24.6017
#
#
#
# Elastic Compliance Matrix: (Units=1/GPa)
#
#
# Indices 1 2 3 4 5 6 
#
# 1 0.012167 -0.003258 -0.005775 0.000000 0.000000 0.000000
# 2 -0.003258 0.018408 -0.001856 0.000000 0.000000 0.000000
# 3 -0.005775 -0.001856 0.017161 0.000000 0.000000 0.000000
# 4 0.000000 0.000000 0.000000 0.105246 0.000000 0.000000
# 5 0.000000 0.000000 0.000000 0.000000 0.037600 0.000000
# 6 0.000000 0.000000 0.000000 0.000000 0.000000 0.040648
#
#
# Mechanical properties :
#
#
# Convention : Reuss Voigt Hill
#
# Bulk Modulus (GPa) = 38.52364 43.22300 40.87332
# Shear Modulus (GPa) = 19.10890 23.06034 21.08462
#
# Velocity S-wave (km/s) = 3.19859 3.51377 3.35988
# Velocity P-wave (km/s) = 5.85380 6.29316 6.07745
#
# Compressibility (1/GPa) = 0.02595808
#
# Stress axis : x y z
#
# Youngs Moduli (GPa) = 82.19277 54.32501 58.27296
#
# Poissons Ratio (x) = 0.17697 0.33651
# Poissons Ratio (y) = 0.26775 0.10815
# Poissons Ratio (z) = 0.47465 0.10083
#
# Static dielectric constant tensor:
#      x y z
#    x 3.666330 0.000000 0.000000 
#    y 0.000000 3.138640 0.000000 
#    z 0.000000 0.000000 3.842470 
# 
# 
# High freq. dielectric constant tensor:
#      x y z
#    x 1.733810 0.000000 0.000000 
#    y 0.000000 1.694960 0.000000 
#    z 0.000000 0.000000 1.718340 
# 
# From -- ./inp_files/39755.got.cif
#   From: 2010.06.25/outbox.cif.g09.slc.cpg/sg52_20_cif.got.tgz:39755.got - 2010.06.26 19:32:48.
