data_PCOD8215696
_publ_section_title
;
Structure prediction by ZEFSAII (Michael W. Deem and Ramdas Pophale) SiO2 
 PCOD8215696
Probable space group: P N N A
;
_chemical_formula_sum "Si O2"
_cell_formula_units_Z 56
_cell_length_a 14.775489
_cell_length_b 19.459086
_cell_length_c 9.497434
_cell_angle_alpha 90.000000
_cell_angle_beta 90.000000
_cell_angle_gamma 90.000000
_cell_volume 2730.678586
_symmetry_space_group_name_H-M "P N N A"
_symmetry_group_IT_number 52
_symmetry_cell_setting 'orthorhombic'
loop_
_space_group_symop_operation_xyz
x,y,z
1/2-x,-y,z
x,1/2-y,1/2-z
1/2-x,1/2+y,1/2-z
-x,-y,-z
1/2+x,y,-z
-x,1/2+y,1/2+z
1/2+x,1/2-y,1/2+z
loop_
_atom_site_type_symbol
_atom_site_label
_atom_site_fract_x
_atom_site_fract_y
_atom_site_fract_z
Si Si1 0.189035 0.399606 0.241660
Si Si2 0.965872 0.813065 0.843201
Si Si3 0.348327 0.374259 0.033317
Si Si4 0.895356 0.429103 0.255119
Si Si5 0.839896 0.087769 0.948227
Si Si6 0.927581 0.230935 0.909032
Si Si7 0.555527 0.520006 0.777773
O O1 0.136969 0.334030 0.307849
O O2 0.252486 0.376188 0.112692
O O3 0.248124 0.432489 0.367171
O O4 0.120883 0.456542 0.181112
O O5 0.997419 0.750000 0.750000
O O6 0.029065 0.876271 0.805605
O O7 0.981210 0.791310 0.006565
O O8 0.381483 0.296472 0.018177
O O9 0.425605 0.418279 0.113282
O O10 0.335855 0.404507 0.876607
O O11 0.828724 0.435628 0.389393
O O12 0.949738 0.498941 0.215148
O O13 0.855339 0.169129 0.919952
O O14 0.923775 0.045864 0.880463
O O15 0.954573 0.250000 0.750000
#
# Coordination Sequence:
#
# PCOD8215696 Si02
#       7
#     8   8   8   8   8   8   8
#     4  10  22  37  59  81 117 159 192 231 299 357
#     4  10  21  37  57  82 120 148 185 238 296 339
#     4  11  20  36  60  87 116 152 200 241 290 352
#     4  10  21  36  59  87 111 152 195 246 282 338
#     4  10  20  35  60  85 114 152 200 236 289 349
#     4  11  20  36  60  88 110 151 197 245 286 350
#     4  10  20  38  58  84 118 155 197 237 293 351
#
# _framework density 20.507722999999999
#
# number of rings (size 3 to 8) (size 9 to 14) (size 15 to 20)
#    0.000    1.714    4.286    2.571    2.000    0.000 
#    0.000    4.286    0.000    0.000    0.000    0.000 
#    0.000    0.000    0.000    0.000    0.000    0.000 
#
# Total GULP energy -694273.925241 kJ/mol
# GULP energy per Si atom -12397.748665 kJ/mol
# Density = 2.046105 g / cm^3
# Si number density = 20.507723 Si / 1000 Ang^3
#
#
#
# Elastic Constant Matrix: (Units=GPa)
#
#
# Indices 1 2 3 4 5 6 
#
# 1 63.0260 8.7634 29.2101 0.0000 0.0000 0.0000
# 2 8.7634 73.7318 -2.9248 0.0000 0.0000 0.0000
# 3 29.2101 -2.9248 129.4621 0.0000 0.0000 0.0000
# 4 0.0000 0.0000 0.0000 29.5815 0.0000 0.0000
# 5 0.0000 0.0000 0.0000 0.0000 22.3091 0.0000
# 6 0.0000 0.0000 0.0000 0.0000 0.0000 12.5196
#
#
#
# Elastic Compliance Matrix: (Units=1/GPa)
#
#
# Indices 1 2 3 4 5 6 
#
# 1 0.018106 -0.002316 -0.004138 0.000000 0.000000 0.000000
# 2 -0.002316 0.013871 0.000836 0.000000 0.000000 0.000000
# 3 -0.004138 0.000836 0.008677 0.000000 0.000000 0.000000
# 4 0.000000 0.000000 0.000000 0.033805 0.000000 0.000000
# 5 0.000000 0.000000 0.000000 0.000000 0.044825 0.000000
# 6 0.000000 0.000000 0.000000 0.000000 0.000000 0.079874
#
#
# Mechanical properties :
#
#
# Convention : Reuss Voigt Hill
#
# Bulk Modulus (GPa) = 33.99222 37.36857 35.68040
# Shear Modulus (GPa) = 22.70668 28.29347 25.50007
#
# Velocity S-wave (km/s) = 3.33111 3.71839 3.53007
# Velocity P-wave (km/s) = 5.60414 6.05777 5.83536
#
# Compressibility (1/GPa) = 0.02941849
#
# Stress axis : x y z
#
# Youngs Moduli (GPa) = 55.23005 72.09224 115.25133
#
# Poissons Ratio (x) = 0.16697 0.47686
# Poissons Ratio (y) = 0.12792 -0.09635
# Poissons Ratio (z) = 0.22852 -0.06027
#
# Static dielectric constant tensor:
#      x y z
#    x 3.481430 0.000000 0.000000 
#    y 0.000000 3.933850 0.000000 
#    z 0.000000 0.000000 3.854290 
# 
# 
# High freq. dielectric constant tensor:
#      x y z
#    x 1.766550 0.000000 0.000000 
#    y 0.000000 1.816740 0.000000 
#    z 0.000000 0.000000 1.803600 
# 
# From -- ./inp_files/12535.got.cif
#   From: 2010.06.25/outbox.cif.g09.slc.cpg/sg52_7_cif.got.tgz:12535.got - 2010.06.26 19:32:48.
