data_PCOD8215259
_publ_section_title
;
Structure prediction by ZEFSAII (Michael W. Deem and Ramdas Pophale) SiO2 
 PCOD8215259
Probable space group: P N N A
;
_chemical_formula_sum "Si O2"
_cell_formula_units_Z 48
_cell_length_a 5.167535
_cell_length_b 20.167963
_cell_length_c 24.072436
_cell_angle_alpha 90.000000
_cell_angle_beta 90.000000
_cell_angle_gamma 90.000000
_cell_volume 2508.796895
_symmetry_space_group_name_H-M "P N N A"
_symmetry_group_IT_number 52
_symmetry_cell_setting 'orthorhombic'
loop_
_space_group_symop_operation_xyz
x,y,z
1/2-x,-y,z
x,1/2-y,1/2-z
1/2-x,1/2+y,1/2-z
-x,-y,-z
1/2+x,y,-z
-x,1/2+y,1/2+z
1/2+x,1/2-y,1/2+z
loop_
_atom_site_type_symbol
_atom_site_label
_atom_site_fract_x
_atom_site_fract_y
_atom_site_fract_z
Si Si1 0.829572 0.689678 0.290739
Si Si2 0.798126 0.620416 0.852218
Si Si3 0.694546 0.426214 0.205809
Si Si4 0.498516 0.735531 0.476116
Si Si5 0.134094 0.617400 0.021241
Si Si6 0.182320 0.230112 0.149829
O O1 0.892586 0.750000 0.250000
O O2 0.818852 0.620084 0.259411
O O3 0.550579 0.697052 0.317593
O O4 0.055232 0.689055 0.337675
O O5 0.583696 0.574391 0.823858
O O6 0.746480 0.620488 0.917421
O O7 0.086321 0.595533 0.838428
O O8 0.772665 0.694963 0.828951
O O9 0.750000 0.500000 0.227297
O O10 0.277945 0.700749 0.515306
O O11 0.546516 0.811124 0.495953
O O12 0.390394 0.730655 0.414510
O O13 0.355722 0.580316 0.983735
#
# Coordination Sequence:
#
# PCOD8215259 Si02
#       6
#     8   8   8   8   8   8
#     4  12  23  37  59  86 116 143 195 251 293 341
#     4  12  21  37  63  84 112 157 198 235 287 348
#     4  12  27  43  59  80 116 161 201 243 291 345
#     4  10  19  30  50  84 122 153 169 225 297 344
#     4  10  19  30  53  86 112 154 185 232 293 329
#     4  12  21  34  58  93 115 146 190 239 295 341
#
# _framework density 19.132677999999999
#
# number of rings (size 3 to 8) (size 9 to 14) (size 15 to 20)
#    0.000    0.667    6.667    4.000    4.667    0.000 
#    0.000    0.000    0.000   10.000    0.000    0.000 
#    0.000   13.333    0.000    0.000    0.000    0.000 
#
# Total GULP energy -594795.545364 kJ/mol
# GULP energy per Si atom -12391.573862 kJ/mol
# Density = 1.908913 g / cm^3
# Si number density = 19.132678 Si / 1000 Ang^3
#
#
#
# Elastic Constant Matrix: (Units=GPa)
#
#
# Indices 1 2 3 4 5 6 
#
# 1 150.3562 18.4524 24.7591 0.0000 0.0000 0.0000
# 2 18.4524 72.1011 38.3904 0.0000 0.0000 0.0000
# 3 24.7591 38.3904 69.0711 0.0000 0.0000 0.0000
# 4 0.0000 0.0000 0.0000 9.8134 0.0000 0.0000
# 5 0.0000 0.0000 0.0000 0.0000 40.1379 0.0000
# 6 0.0000 0.0000 0.0000 0.0000 0.0000 11.9787
#
#
#
# Elastic Compliance Matrix: (Units=1/GPa)
#
#
# Indices 1 2 3 4 5 6 
#
# 1 0.007090 -0.000655 -0.002177 0.000000 0.000000 0.000000
# 2 -0.000655 0.019760 -0.010748 0.000000 0.000000 0.000000
# 3 -0.002177 -0.010748 0.021232 0.000000 0.000000 0.000000
# 4 0.000000 0.000000 0.000000 0.101901 0.000000 0.000000
# 5 0.000000 0.000000 0.000000 0.000000 0.024914 0.000000
# 6 0.000000 0.000000 0.000000 0.000000 0.000000 0.083482
#
#
# Mechanical properties :
#
#
# Convention : Reuss Voigt Hill
#
# Bulk Modulus (GPa) = 47.79859 50.52582 49.16220
# Shear Modulus (GPa) = 17.09325 26.38110 21.73717
#
# Velocity S-wave (km/s) = 2.99223 3.71732 3.37431
# Velocity P-wave (km/s) = 6.08070 6.70000 6.39785
#
# Compressibility (1/GPa) = 0.02092112
#
# Stress axis : x y z
#
# Youngs Moduli (GPa) = 141.04756 50.60782 47.09862
#
# Poissons Ratio (x) = 0.03316 0.10255
# Poissons Ratio (y) = 0.09241 0.50621
# Poissons Ratio (z) = 0.30710 0.54392
#
# Static dielectric constant tensor:
#      x y z
#    x 6.375880 0.000000 0.000000 
#    y 0.000000 3.126010 0.000000 
#    z 0.000000 0.000000 3.546110 
# 
# 
# High freq. dielectric constant tensor:
#      x y z
#    x 1.791310 0.000000 0.000000 
#    y 0.000000 1.676260 0.000000 
#    z 0.000000 0.000000 1.741950 
# 
# From -- ./inp_files/38827.got.cif
#   From: 2010.06.25/outbox.cif.g09.slc.cpg/sg52_20_cif.got.tgz:38827.got - 2010.06.26 19:32:48.
