data_PCOD8215568
_publ_section_title
;
Structure prediction by ZEFSAII (Michael W. Deem and Ramdas Pophale) SiO2 
 PCOD8215568
Probable space group: P N N A
;
_chemical_formula_sum "Si O2"
_cell_formula_units_Z 48
_cell_length_a 9.451623
_cell_length_b 7.602358
_cell_length_c 37.865494
_cell_angle_alpha 90.000000
_cell_angle_beta 90.000000
_cell_angle_gamma 90.000000
_cell_volume 2720.810748
_symmetry_space_group_name_H-M "P N N A"
_symmetry_group_IT_number 52
_symmetry_cell_setting 'orthorhombic'
loop_
_space_group_symop_operation_xyz
x,y,z
1/2-x,-y,z
x,1/2-y,1/2-z
1/2-x,1/2+y,1/2-z
-x,-y,-z
1/2+x,y,-z
-x,1/2+y,1/2+z
1/2+x,1/2-y,1/2+z
loop_
_atom_site_type_symbol
_atom_site_label
_atom_site_fract_x
_atom_site_fract_y
_atom_site_fract_z
Si Si1 0.918012 0.304279 0.211828
Si Si2 0.081833 0.000000 0.839562
Si Si3 0.913679 0.700240 0.965675
Si Si4 0.085227 0.500000 0.411554
Si Si5 0.418012 0.695721 0.788172
Si Si6 0.413679 0.299760 0.034325
O O1 0.980524 0.250000 0.250000
O O2 0.971285 0.171165 0.181818
O O3 0.750000 0.296502 0.214027
O O4 0.970835 0.500000 0.202008
O O5 0.008938 0.000000 0.877086
O O6 0.250000 0.000000 0.844712
O O7 0.028715 0.171165 0.818182
O O8 0.955493 0.825960 0.933452
O O9 0.750000 0.722666 0.975482
O O10 0.949962 0.500000 0.954624
O O11 0.000000 0.758631 1.000000
O O12 0.250000 0.500000 0.401242
O O13 0.044507 0.674039 0.433452
O O14 0.480524 0.750000 0.750000
#
# Coordination Sequence:
#
# PCOD8215568 Si02
#       6
#     8   8   8   8   8   8
#     4   9  15  26  46  71  96 120 152 199 249 289
#     4  10  20  31  47  74  99 124 162 204 243 285
#     4   9  18  33  53  75  97 126 164 201 239 283
#     4  10  21  35  49  68 102 138 162 190 238 295
#     4   9  15  26  46  71  96 120 152 199 249 289
#     4   9  18  33  53  75  97 126 164 201 239 283
#
# _framework density 17.641801000000001
#
# number of rings (size 3 to 8) (size 9 to 14) (size 15 to 20)
#    0.000    2.667    1.667    0.500    0.000    2.667 
#    0.000    0.000    0.000    1.000    0.000    0.000 
#    0.000    0.000    0.000    0.000    0.000    0.000 
#
# Total GULP energy -595163.412548 kJ/mol
# GULP energy per Si atom -12399.237761 kJ/mol
# Density = 1.760165 g / cm^3
# Si number density = 17.641801 Si / 1000 Ang^3
#
#
#
# Elastic Constant Matrix: (Units=GPa)
#
#
# Indices 1 2 3 4 5 6 
#
# 1 34.5721 36.1448 54.0333 0.0000 0.0000 0.0000
# 2 36.1448 159.1827 94.6294 0.0000 0.0000 0.0000
# 3 54.0333 94.6294 166.7266 0.0000 0.0000 0.0000
# 4 0.0000 0.0000 0.0000 26.9663 0.0000 0.0000
# 5 0.0000 0.0000 0.0000 0.0000 26.9849 0.0000
# 6 0.0000 0.0000 0.0000 0.0000 0.0000 11.0449
#
#
#
# Elastic Compliance Matrix: (Units=1/GPa)
#
#
# Indices 1 2 3 4 5 6 
#
# 1 0.059608 -0.003095 -0.017561 0.000000 0.000000 0.000000
# 2 -0.003095 0.009642 -0.004469 0.000000 0.000000 0.000000
# 3 -0.017561 -0.004469 0.014226 0.000000 0.000000 0.000000
# 4 0.000000 0.000000 0.000000 0.037083 0.000000 0.000000
# 5 0.000000 0.000000 0.000000 0.000000 0.037058 0.000000
# 6 0.000000 0.000000 0.000000 0.000000 0.000000 0.090539
#
#
# Mechanical properties :
#
#
# Convention : Reuss Voigt Hill
#
# Bulk Modulus (GPa) = 30.09879 81.12181 55.61030
# Shear Modulus (GPa) = 16.15608 24.71083 20.43346
#
# Velocity S-wave (km/s) = 3.02948 3.74665 3.40699
# Velocity P-wave (km/s) = 5.41619 8.04979 6.86054
#
# Compressibility (1/GPa) = 0.03322393
#
# Stress axis : x y z
#
# Youngs Moduli (GPa) = 16.77638 103.71540 70.29538
#
# Poissons Ratio (x) = 0.32103 1.23446
# Poissons Ratio (y) = 0.05193 0.31417
# Poissons Ratio (z) = 0.29461 0.46353
#
# Static dielectric constant tensor:
#      x y z
#    x 2.873280 0.000000 0.000000 
#    y 0.000000 3.719750 0.000000 
#    z 0.000000 0.000000 3.162540 
# 
# 
# High freq. dielectric constant tensor:
#      x y z
#    x 1.638260 0.000000 0.000000 
#    y 0.000000 1.704100 0.000000 
#    z 0.000000 0.000000 1.677310 
# 
# From -- ./inp_files/44345.got.cif
#   From: 2010.06.25/outbox.cif.g09.slc.cpg/sg52_23_cif.got.tgz:44345.got - 2010.06.26 19:32:48.
