data_PCOD8215390
_publ_section_title
;
Structure prediction by ZEFSAII (Michael W. Deem and Ramdas Pophale) SiO2 
 PCOD8215390
Probable space group: P N N A
;
_chemical_formula_sum "Si O2"
_cell_formula_units_Z 44
_cell_length_a 8.528272
_cell_length_b 20.078611
_cell_length_c 14.764632
_cell_angle_alpha 90.000000
_cell_angle_beta 90.000000
_cell_angle_gamma 90.000000
_cell_volume 2528.234399
_symmetry_space_group_name_H-M "P N N A"
_symmetry_group_IT_number 52
_symmetry_cell_setting 'orthorhombic'
loop_
_space_group_symop_operation_xyz
x,y,z
1/2-x,-y,z
x,1/2-y,1/2-z
1/2-x,1/2+y,1/2-z
-x,-y,-z
1/2+x,y,-z
-x,1/2+y,1/2+z
1/2+x,1/2-y,1/2+z
loop_
_atom_site_type_symbol
_atom_site_label
_atom_site_fract_x
_atom_site_fract_y
_atom_site_fract_z
Si Si1 0.452106 0.159095 0.258883
Si Si2 0.447327 0.264455 0.915888
Si Si3 0.523808 0.448823 0.114890
Si Si4 0.406667 0.764346 0.892378
Si Si5 0.368545 0.084952 0.565079
Si Si6 0.333795 0.750000 0.250000
O O1 0.465373 0.081917 0.289237
O O2 0.530963 0.169798 0.160380
O O3 0.547835 0.200094 0.334277
O O4 0.272885 0.184020 0.259389
O O5 0.279318 0.230884 0.901976
O O6 0.441584 0.344225 0.910885
O O7 0.560995 0.238825 0.837834
O O8 0.513126 0.239051 0.010577
O O9 0.547577 0.528193 0.126741
O O10 0.683796 0.413812 0.082080
O O11 0.391601 0.433251 0.040274
#
# Coordination Sequence:
#
# PCOD8215390 Si02
#       6
#     8   8   8   8   8   4
#     4  10  19  35  46  76 102 144 174 217 252 321
#     4  12  19  35  49  79 103 140 173 222 260 324
#     4  10  20  33  49  74 109 141 184 199 255 313
#     4  10  20  30  53  69 106 138 169 217 270 298
#     4  10  20  31  51  74 105 148 170 210 252 310
#     4  10  24  30  52  72 104 134 182 214 276 304
#
# _framework density 17.403449999999999
#
# number of rings (size 3 to 8) (size 9 to 14) (size 15 to 20)
#    0.000    1.818    3.636    3.273    2.545    0.000 
#    0.000    0.000    0.000    0.000    0.000    1.273 
#    0.000    0.000    0.000    0.182    0.000    0.000 
#
# Total GULP energy -545550.354845 kJ/mol
# GULP energy per Si atom -12398.871701 kJ/mol
# Density = 1.736384 g / cm^3
# Si number density = 17.403450 Si / 1000 Ang^3
#
#
#
# Elastic Constant Matrix: (Units=GPa)
#
#
# Indices 1 2 3 4 5 6 
#
# 1 113.9031 15.0979 53.7131 0.0000 0.0000 0.0000
# 2 15.0979 68.0929 40.5160 0.0000 0.0000 0.0000
# 3 53.7131 40.5160 126.9187 0.0000 0.0000 0.0000
# 4 0.0000 0.0000 0.0000 34.8303 0.0000 0.0000
# 5 0.0000 0.0000 0.0000 0.0000 36.4344 0.0000
# 6 0.0000 0.0000 0.0000 0.0000 0.0000 10.9032
#
#
#
# Elastic Compliance Matrix: (Units=1/GPa)
#
#
# Indices 1 2 3 4 5 6 
#
# 1 0.010978 0.000408 -0.004776 0.000000 0.000000 0.000000
# 2 0.000408 0.018145 -0.005965 0.000000 0.000000 0.000000
# 3 -0.004776 -0.005965 0.011804 0.000000 0.000000 0.000000
# 4 0.000000 0.000000 0.000000 0.028711 0.000000 0.000000
# 5 0.000000 0.000000 0.000000 0.000000 0.027447 0.000000
# 6 0.000000 0.000000 0.000000 0.000000 0.000000 0.091716
#
#
# Mechanical properties :
#
#
# Convention : Reuss Voigt Hill
#
# Bulk Modulus (GPa) = 49.35721 58.61874 53.98797
# Shear Modulus (GPa) = 23.12466 29.73943 26.43205
#
# Velocity S-wave (km/s) = 3.64914 4.13828 3.90138
# Velocity P-wave (km/s) = 6.79538 7.52258 7.16820
#
# Compressibility (1/GPa) = 0.02026047
#
# Stress axis : x y z
#
# Youngs Moduli (GPa) = 91.09519 55.11303 84.71401
#
# Poissons Ratio (x) = -0.02247 0.40459
# Poissons Ratio (y) = -0.03714 0.50530
# Poissons Ratio (z) = 0.43507 0.32874
#
# Static dielectric constant tensor:
#      x y z
#    x 3.376540 0.000000 0.000000 
#    y 0.000000 3.181580 0.000000 
#    z 0.000000 0.000000 3.277660 
# 
# 
# High freq. dielectric constant tensor:
#      x y z
#    x 1.690450 0.000000 0.000000 
#    y 0.000000 1.640350 0.000000 
#    z 0.000000 0.000000 1.656850 
# 
# From -- ./inp_files/16881.got.cif
#   From: 2010.06.25/outbox.cif.g09.slc.cpg/sg52_9_cif.got.tgz:16881.got - 2010.06.26 19:32:48.
