data_PCOD8215118
_publ_section_title
;
Structure prediction by ZEFSAII (Michael W. Deem and Ramdas Pophale) SiO2 
 PCOD8215118
Probable space group: P N N A
;
_chemical_formula_sum "Si O2"
_cell_formula_units_Z 64
_cell_length_a 9.678620
_cell_length_b 11.192007
_cell_length_c 30.700002
_cell_angle_alpha 90.000000
_cell_angle_beta 90.000000
_cell_angle_gamma 90.000000
_cell_volume 3325.521928
_symmetry_space_group_name_H-M "P N N A"
_symmetry_group_IT_number 52
_symmetry_cell_setting 'orthorhombic'
loop_
_space_group_symop_operation_xyz
x,y,z
1/2-x,-y,z
x,1/2-y,1/2-z
1/2-x,1/2+y,1/2-z
-x,-y,-z
1/2+x,y,-z
-x,1/2+y,1/2+z
1/2+x,1/2-y,1/2+z
loop_
_atom_site_type_symbol
_atom_site_label
_atom_site_fract_x
_atom_site_fract_y
_atom_site_fract_z
Si Si1 0.868064 0.342564 0.586367
Si Si2 0.802400 0.873771 0.461037
Si Si3 0.588434 0.311322 0.130315
Si Si4 0.683441 0.880133 0.143607
Si Si5 0.911530 0.871879 0.274176
Si Si6 0.395114 0.120387 0.758438
Si Si7 0.044898 0.763493 0.993928
Si Si8 0.937093 0.888920 0.914596
O O1 0.888504 0.325140 0.535304
O O2 0.928165 0.472150 0.596727
O O3 0.707483 0.327463 0.597925
O O4 0.945547 0.246522 0.615310
O O5 0.849673 0.885434 0.410444
O O6 0.670237 0.787882 0.465025
O O7 0.930501 0.833758 0.491323
O O8 0.750000 0.000000 0.478750
O O9 0.697633 0.215410 0.145970
O O10 0.554010 0.383051 0.174265
O O11 0.627651 0.904503 0.191272
O O12 0.557548 0.832037 0.114510
O O13 0.750000 0.000000 0.123201
O O14 0.971006 0.750000 0.250000
O O15 0.747108 0.871556 0.268212
O O16 0.975342 0.998360 0.256309
O O17 0.472090 0.250000 0.750000
O O18 0.969663 0.864591 0.965245
#
# Coordination Sequence:
#
# PCOD8215118 Si02
#       8
#     8   8   8   8   8   8   8   8
#     4  10  23  38  55  85 116 156 190 238 297 363
#     4  11  24  37  58  80 110 152 200 246 294 356
#     4  11  21  35  57  87 117 148 198 245 288 363
#     4  12  19  33  57  91 116 147 191 242 301 340
#     4  10  18  32  54  84 120 153 183 241 302 348
#     4  10  19  31  55  90 124 148 187 250 296 351
#     4  11  21  41  56  78 116 147 197 241 296 347
#     4  11  22  36  59  83 120 151 187 240 300 356
#
# _framework density 19.245100000000001
#
# number of rings (size 3 to 8) (size 9 to 14) (size 15 to 20)
#    0.000    1.250    7.500    0.750    1.750    0.000 
#    2.250    0.000    0.000    0.750    0.000    0.000 
#    0.000    0.000    0.000    0.000    0.000    0.000 
#
# Total GULP energy -793146.159785 kJ/mol
# GULP energy per Si atom -12392.908747 kJ/mol
# Density = 1.920130 g / cm^3
# Si number density = 19.245100 Si / 1000 Ang^3
#
#
#
# Elastic Constant Matrix: (Units=GPa)
#
#
# Indices 1 2 3 4 5 6 
#
# 1 75.7000 27.5496 32.8051 0.0000 0.0000 0.0000
# 2 27.5496 86.2580 15.4450 0.0000 0.0000 0.0000
# 3 32.8051 15.4450 112.6973 0.0000 0.0000 0.0000
# 4 0.0000 0.0000 0.0000 17.4536 0.0000 0.0000
# 5 0.0000 0.0000 0.0000 0.0000 10.1499 0.0000
# 6 0.0000 0.0000 0.0000 0.0000 0.0000 16.5663
#
#
#
# Elastic Compliance Matrix: (Units=1/GPa)
#
#
# Indices 1 2 3 4 5 6 
#
# 1 0.016713 -0.004579 -0.004237 0.000000 0.000000 0.000000
# 2 -0.004579 0.013139 -0.000468 0.000000 0.000000 0.000000
# 3 -0.004237 -0.000468 0.010171 0.000000 0.000000 0.000000
# 4 0.000000 0.000000 0.000000 0.057295 0.000000 0.000000
# 5 0.000000 0.000000 0.000000 0.000000 0.098523 0.000000
# 6 0.000000 0.000000 0.000000 0.000000 0.000000 0.060363
#
#
# Mechanical properties :
#
#
# Convention : Reuss Voigt Hill
#
# Bulk Modulus (GPa) = 46.61020 47.36162 46.98591
# Shear Modulus (GPa) = 17.73523 22.09101 19.91312
#
# Velocity S-wave (km/s) = 3.03899 3.39171 3.22018
# Velocity P-wave (km/s) = 6.04862 6.32466 6.18818
#
# Compressibility (1/GPa) = 0.02145453
#
# Stress axis : x y z
#
# Youngs Moduli (GPa) = 59.83435 76.10699 98.31974
#
# Poissons Ratio (x) = 0.34850 0.41662
# Poissons Ratio (y) = 0.27399 0.04599
# Poissons Ratio (z) = 0.25354 0.03560
#
# Static dielectric constant tensor:
#      x y z
#    x 3.384540 0.000000 0.000000 
#    y 0.000000 3.349990 0.000000 
#    z 0.000000 0.000000 3.520550 
# 
# 
# High freq. dielectric constant tensor:
#      x y z
#    x 1.717360 0.000000 0.000000 
#    y 0.000000 1.745550 0.000000 
#    z 0.000000 0.000000 1.754830 
# 
# From -- ./inp_files/44621.got.cif
#   From: 2010.06.25/outbox.cif.g09.slc.cpg/sg52_23_cif.got.tgz:44621.got - 2010.06.26 19:32:48.
