data_PCOD8215371
_publ_section_title
;
Structure prediction by ZEFSAII (Michael W. Deem and Ramdas Pophale) SiO2 
 PCOD8215371
Probable space group: P N N A
;
_chemical_formula_sum "Si O2"
_cell_formula_units_Z 44
_cell_length_a 11.364406
_cell_length_b 11.399679
_cell_length_c 18.495577
_cell_angle_alpha 90.000000
_cell_angle_beta 90.000000
_cell_angle_gamma 90.000000
_cell_volume 2396.112736
_symmetry_space_group_name_H-M "P N N A"
_symmetry_group_IT_number 52
_symmetry_cell_setting 'orthorhombic'
loop_
_space_group_symop_operation_xyz
x,y,z
1/2-x,-y,z
x,1/2-y,1/2-z
1/2-x,1/2+y,1/2-z
-x,-y,-z
1/2+x,y,-z
-x,1/2+y,1/2+z
1/2+x,1/2-y,1/2+z
loop_
_atom_site_type_symbol
_atom_site_label
_atom_site_fract_x
_atom_site_fract_y
_atom_site_fract_z
Si Si1 0.750000 0.000000 0.897377
Si Si2 0.879373 0.036830 0.412475
Si Si3 0.959823 0.618181 0.536646
Si Si4 0.290887 0.230144 0.169555
Si Si5 0.014481 0.265409 0.167848
Si Si6 0.048671 0.833778 0.450258
O O1 0.676091 0.089344 0.947267
O O2 0.817648 0.091946 0.845933
O O3 0.871553 0.106539 0.488065
O O4 0.950572 0.115430 0.355443
O O5 0.750000 0.000000 0.384837
O O6 0.948032 0.916960 0.421440
O O7 0.021499 0.657497 0.613256
O O8 0.000000 0.500000 0.500000
O O9 0.978097 0.720663 0.479119
O O10 0.338505 0.250000 0.250000
O O11 0.155851 0.273789 0.163262
O O12 0.364745 0.307670 0.114857
O O13 0.972164 0.250000 0.250000
#
# Coordination Sequence:
#
# PCOD8215371 Si02
#       6
#     4   8   8   8   8   8
#     4  10  20  34  56  84 118 148 192 232 296 350
#     4  10  23  38  60  82 117 155 198 242 288 349
#     4  10  19  34  57  84 114 149 188 243 281 348
#     4  10  21  36  59  90 118 149 191 241 299 351
#     4   9  21  39  61  83 118 158 190 241 302 353
#     4  10  22  36  57  89 115 150 196 243 291 344
#
# _framework density 18.363076
#
# number of rings (size 3 to 8) (size 9 to 14) (size 15 to 20)
#    0.000    2.182    1.818    0.000   10.182    4.364 
#    0.000    0.909    2.000    0.000    0.000    0.000 
#    0.000    0.000    0.000    0.000    0.000    0.000 
#
# Total GULP energy -545130.185878 kJ/mol
# GULP energy per Si atom -12389.322406 kJ/mol
# Density = 1.832128 g / cm^3
# Si number density = 18.363076 Si / 1000 Ang^3
#
#
#
# Elastic Constant Matrix: (Units=GPa)
#
#
# Indices 1 2 3 4 5 6 
#
# 1 68.6906 48.6273 48.4851 0.0000 0.0000 0.0000
# 2 48.6273 143.8312 72.4245 0.0000 0.0000 0.0000
# 3 48.4851 72.4245 150.7292 0.0000 0.0000 0.0000
# 4 0.0000 0.0000 0.0000 27.2917 0.0000 0.0000
# 5 0.0000 0.0000 0.0000 0.0000 25.4775 0.0000
# 6 0.0000 0.0000 0.0000 0.0000 0.0000 30.1035
#
#
#
# Elastic Compliance Matrix: (Units=1/GPa)
#
#
# Indices 1 2 3 4 5 6 
#
# 1 0.021182 -0.004921 -0.004449 0.000000 0.000000 0.000000
# 2 -0.004921 0.010315 -0.003373 0.000000 0.000000 0.000000
# 3 -0.004449 -0.003373 0.009686 0.000000 0.000000 0.000000
# 4 0.000000 0.000000 0.000000 0.036641 0.000000 0.000000
# 5 0.000000 0.000000 0.000000 0.000000 0.039250 0.000000
# 6 0.000000 0.000000 0.000000 0.000000 0.000000 0.033219
#
#
# Mechanical properties :
#
#
# Convention : Reuss Voigt Hill
#
# Bulk Modulus (GPa) = 63.70846 78.03608 70.87227
# Shear Modulus (GPa) = 27.62233 29.48880 28.55557
#
# Velocity S-wave (km/s) = 3.88265 4.01168 3.94769
# Velocity P-wave (km/s) = 7.40737 8.00291 7.71089
#
# Compressibility (1/GPa) = 0.01569650
#
# Stress axis : x y z
#
# Youngs Moduli (GPa) = 47.20948 96.94684 103.23738
#
# Poissons Ratio (x) = 0.47708 0.45932
# Poissons Ratio (y) = 0.23232 0.34825
# Poissons Ratio (z) = 0.21004 0.32703
#
# Static dielectric constant tensor:
#      x y z
#    x 2.837350 0.000000 0.000000 
#    y 0.000000 3.653610 0.000000 
#    z 0.000000 0.000000 3.196040 
# 
# 
# High freq. dielectric constant tensor:
#      x y z
#    x 1.687790 0.000000 0.000000 
#    y 0.000000 1.728460 0.000000 
#    z 0.000000 0.000000 1.713620 
# 
# From -- ./inp_files/32147.got.cif
#   From: 2010.06.25/outbox.cif.g09.slc.cpg/sg52_17_cif.got.tgz:32147.got - 2010.06.26 19:32:48.
