data_PCOD8215781
_publ_section_title
;
Structure prediction by ZEFSAII (Michael W. Deem and Ramdas Pophale) SiO2 
 PCOD8215781
Probable space group: P N N A
;
_chemical_formula_sum "Si O2"
_cell_formula_units_Z 48
_cell_length_a 11.912887
_cell_length_b 7.328672
_cell_length_c 26.946165
_cell_angle_alpha 90.000000
_cell_angle_beta 90.000000
_cell_angle_gamma 90.000000
_cell_volume 2352.552218
_symmetry_space_group_name_H-M "P N N A"
_symmetry_group_IT_number 52
_symmetry_cell_setting 'orthorhombic'
loop_
_space_group_symop_operation_xyz
x,y,z
1/2-x,-y,z
x,1/2-y,1/2-z
1/2-x,1/2+y,1/2-z
-x,-y,-z
1/2+x,y,-z
-x,1/2+y,1/2+z
1/2+x,1/2-y,1/2+z
loop_
_atom_site_type_symbol
_atom_site_label
_atom_site_fract_x
_atom_site_fract_y
_atom_site_fract_z
Si Si1 0.417013 0.980857 0.665319
Si Si2 0.347257 0.874067 0.476999
Si Si3 0.490785 0.828454 0.564863
Si Si4 0.796833 0.187289 0.893860
Si Si5 0.146843 0.613048 0.206401
Si Si6 0.266536 0.284565 0.695882
O O1 0.418350 0.891163 0.611314
O O2 0.537924 0.006351 0.691602
O O3 0.349303 0.828441 0.696505
O O4 0.356363 0.179435 0.660461
O O5 0.405894 0.758376 0.521545
O O6 0.294436 0.753027 0.433792
O O7 0.250000 0.000000 0.500938
O O8 0.442452 0.993519 0.451754
O O9 0.580554 0.671456 0.579796
O O10 0.805874 0.308280 0.845113
O O11 0.750000 0.000000 0.873515
O O12 0.250000 0.500000 0.229444
O O13 0.110236 0.750000 0.250000
O O14 0.250000 0.500000 0.682193
O O15 0.319522 0.250000 0.750000
#
# Coordination Sequence:
#
# PCOD8215781 Si02
#       6
#     8   8   8   8   8   8
#     4  10  22  40  64  88 128 158 208 258 306 378
#     4   9  18  35  62  78 112 156 200 244 308 369
#     4   9  19  37  57  86 110 157 202 246 306 366
#     4  10  20  37  57  85 123 156 197 255 305 368
#     4  11  23  41  61  91 122 164 209 252 310 375
#     4  11  22  41  64  91 121 165 205 253 319 370
#
# _framework density 20.403373999999999
#
# number of rings (size 3 to 8) (size 9 to 14) (size 15 to 20)
#    0.000    2.000    1.667    3.500    2.333    1.333 
#   12.000    0.833    0.000    0.000    0.000    0.000 
#    0.000    0.000    0.000    0.000    0.000    0.000 
#
# Total GULP energy -594703.347648 kJ/mol
# GULP energy per Si atom -12389.653076 kJ/mol
# Density = 2.035694 g / cm^3
# Si number density = 20.403374 Si / 1000 Ang^3
#
#
#
# Elastic Constant Matrix: (Units=GPa)
#
#
# Indices 1 2 3 4 5 6 
#
# 1 105.6605 43.0511 32.5924 0.0000 0.0000 0.0000
# 2 43.0511 104.0895 11.9085 0.0000 0.0000 0.0000
# 3 32.5924 11.9085 91.5107 0.0000 0.0000 0.0000
# 4 0.0000 0.0000 0.0000 -67.5831 0.0000 0.0000
# 5 0.0000 0.0000 0.0000 0.0000 39.5503 0.0000
# 6 0.0000 0.0000 0.0000 0.0000 0.0000 27.6834
#
#
#
# Elastic Compliance Matrix: (Units=1/GPa)
#
#
# Indices 1 2 3 4 5 6 
#
# 1 0.012600 -0.004769 -0.003867 0.000000 0.000000 0.000000
# 2 -0.004769 0.011557 0.000195 0.000000 0.000000 0.000000
# 3 -0.003867 0.000195 0.012280 0.000000 0.000000 0.000000
# 4 0.000000 0.000000 0.000000 -0.014797 0.000000 0.000000
# 5 0.000000 0.000000 0.000000 0.000000 0.025284 0.000000
# 6 0.000000 0.000000 0.000000 0.000000 0.000000 0.036123
#
#
# Mechanical properties :
#
#
# Convention : Reuss Voigt Hill
#
# Bulk Modulus (GPa) = 51.14012 52.92941 52.03476
# Shear Modulus (GPa) = 46.97097 14.17738 30.57417
#
# Velocity S-wave (km/s) = 4.80324 2.63887 3.87523
# Velocity P-wave (km/s) = 7.47533 5.93992 6.75141
#
# Compressibility (1/GPa) = 0.01955412
#
# Stress axis : x y z
#
# Youngs Moduli (GPa) = 79.36343 86.52538 81.43539
#
# Poissons Ratio (x) = 0.41264 0.31492
# Poissons Ratio (y) = 0.37848 -0.01584
# Poissons Ratio (z) = 0.30691 -0.01683
#
# Static dielectric constant tensor:
#      x y z
#    x 4.027240 0.000000 0.000000 
#    y 0.000000 3.566660 0.000000 
#    z 0.000000 0.000000 3.895240 
# 
# 
# High freq. dielectric constant tensor:
#      x y z
#    x 1.812470 0.000000 0.000000 
#    y 0.000000 1.761340 0.000000 
#    z 0.000000 0.000000 1.804380 
# 
# From -- ./inp_files/40156.got.cif
#   From: 2010.06.25/outbox.cif.g09.slc.cpg/sg52_21_cif.got.tgz:40156.got - 2010.06.26 19:32:48.
