data_PCOD8215964
_publ_section_title
;
Structure prediction by ZEFSAII (Michael W. Deem and Ramdas Pophale) SiO2 
 PCOD8215964
Probable space group: P N N A
;
_chemical_formula_sum "Si O2"
_cell_formula_units_Z 52
_cell_length_a 8.933878
_cell_length_b 15.439596
_cell_length_c 18.681701
_cell_angle_alpha 90.000000
_cell_angle_beta 90.000000
_cell_angle_gamma 90.000000
_cell_volume 2576.869152
_symmetry_space_group_name_H-M "P N N A"
_symmetry_group_IT_number 52
_symmetry_cell_setting 'orthorhombic'
loop_
_space_group_symop_operation_xyz
x,y,z
1/2-x,-y,z
x,1/2-y,1/2-z
1/2-x,1/2+y,1/2-z
-x,-y,-z
1/2+x,y,-z
-x,1/2+y,1/2+z
1/2+x,1/2-y,1/2+z
loop_
_atom_site_type_symbol
_atom_site_label
_atom_site_fract_x
_atom_site_fract_y
_atom_site_fract_z
Si Si1 0.717027 0.308155 0.683820
Si Si2 0.112923 0.273748 0.923754
Si Si3 0.250000 0.000000 0.347219
Si Si4 0.249203 0.834512 0.717867
Si Si5 0.232761 0.678078 0.070787
Si Si6 0.497736 0.547669 0.263990
Si Si7 0.968254 0.880428 0.163382
O O1 0.767351 0.250000 0.750000
O O2 0.672349 0.242472 0.620992
O O3 0.579991 0.370201 0.700351
O O4 0.855603 0.365583 0.659131
O O5 0.202388 0.325796 0.863612
O O6 0.111306 0.169447 0.904179
O O7 0.943354 0.305254 0.928536
O O8 0.201989 0.301126 0.993555
O O9 0.259146 0.918578 0.400308
O O10 0.394217 0.001658 0.294489
O O11 0.162458 0.750000 0.750000
O O12 0.400723 0.842059 0.763833
O O13 0.145646 0.919003 0.723866
O O14 0.548896 0.484713 0.329822
#
# Coordination Sequence:
#
# PCOD8215964 Si02
#       7
#     8   8   4   8   8   8   8
#     4  11  19  37  63  88 124 165 213 260 320 378
#     4  10  24  44  62  86 131 172 212 252 325 384
#     4  12  24  38  62  96 130 158 216 262 320 380
#     4  10  22  38  63  93 124 165 209 264 320 377
#     4  11  25  41  62  88 126 176 207 263 317 389
#     4  12  21  36  66  99 123 158 217 271 312 377
#     4  10  20  40  62  90 124 166 210 265 319 369
#
# _framework density 20.179525000000002
#
# number of rings (size 3 to 8) (size 9 to 14) (size 15 to 20)
#    0.000    1.231    3.077    4.154    2.154    1.846 
#    2.769    0.769    0.000    5.538    0.000    0.000 
#    0.000    0.000    0.000    0.000    0.000    0.000 
#
# Total GULP energy -644386.085334 kJ/mol
# GULP energy per Si atom -12392.040103 kJ/mol
# Density = 2.013360 g / cm^3
# Si number density = 20.179525 Si / 1000 Ang^3
#
#
#
# Elastic Constant Matrix: (Units=GPa)
#
#
# Indices 1 2 3 4 5 6 
#
# 1 67.5259 51.5481 34.9992 0.0000 0.0000 0.0000
# 2 51.5481 138.6136 64.4901 0.0000 0.0000 0.0000
# 3 34.9992 64.4901 130.5916 0.0000 0.0000 0.0000
# 4 0.0000 0.0000 0.0000 32.0253 0.0000 0.0000
# 5 0.0000 0.0000 0.0000 0.0000 20.8223 0.0000
# 6 0.0000 0.0000 0.0000 0.0000 0.0000 14.7790
#
#
#
# Elastic Compliance Matrix: (Units=1/GPa)
#
#
# Indices 1 2 3 4 5 6 
#
# 1 0.021209 -0.006807 -0.002323 0.000000 0.000000 0.000000
# 2 -0.006807 0.011551 -0.003880 0.000000 0.000000 0.000000
# 3 -0.002323 -0.003880 0.010196 0.000000 0.000000 0.000000
# 4 0.000000 0.000000 0.000000 0.031225 0.000000 0.000000
# 5 0.000000 0.000000 0.000000 0.000000 0.048025 0.000000
# 6 0.000000 0.000000 0.000000 0.000000 0.000000 0.067663
#
#
# Mechanical properties :
#
#
# Convention : Reuss Voigt Hill
#
# Bulk Modulus (GPa) = 59.04183 70.97843 65.01013
# Shear Modulus (GPa) = 22.56986 25.90490 24.23738
#
# Velocity S-wave (km/s) = 3.34796 3.58679 3.46943
# Velocity P-wave (km/s) = 6.65334 7.23901 6.95234
#
# Compressibility (1/GPa) = 0.01693714
#
# Stress axis : x y z
#
# Youngs Moduli (GPa) = 47.14952 86.57506 98.07784
#
# Poissons Ratio (x) = 0.58928 0.22782
# Poissons Ratio (y) = 0.32093 0.38053
# Poissons Ratio (z) = 0.10952 0.33590
#
# Static dielectric constant tensor:
#      x y z
#    x 3.615000 0.000000 0.000000 
#    y 0.000000 4.033770 0.000000 
#    z 0.000000 0.000000 3.851430 
# 
# 
# High freq. dielectric constant tensor:
#      x y z
#    x 1.794530 0.000000 0.000000 
#    y 0.000000 1.801390 0.000000 
#    z 0.000000 0.000000 1.763900 
# 
# From -- ./inp_files/35950.got.cif
#   From: 2010.06.25/outbox.cif.g09.slc.cpg/sg52_18_cif.got.tgz:35950.got - 2010.06.26 19:32:48.
