data_PCOD8215700
_publ_section_title
;
Structure prediction by ZEFSAII (Michael W. Deem and Ramdas Pophale) SiO2 
 PCOD8215700
Probable space group: P N N A
;
_chemical_formula_sum "Si O2"
_cell_formula_units_Z 40
_cell_length_a 14.668481
_cell_length_b 8.299794
_cell_length_c 13.752279
_cell_angle_alpha 90.000000
_cell_angle_beta 90.000000
_cell_angle_gamma 90.000000
_cell_volume 1674.276303
_symmetry_space_group_name_H-M "P N N A"
_symmetry_group_IT_number 52
_symmetry_cell_setting 'orthorhombic'
loop_
_space_group_symop_operation_xyz
x,y,z
1/2-x,-y,z
x,1/2-y,1/2-z
1/2-x,1/2+y,1/2-z
-x,-y,-z
1/2+x,y,-z
-x,1/2+y,1/2+z
1/2+x,1/2-y,1/2+z
loop_
_atom_site_type_symbol
_atom_site_label
_atom_site_fract_x
_atom_site_fract_y
_atom_site_fract_z
Si Si1 0.514858 0.413378 0.701526
Si Si2 0.569292 0.263040 0.974815
Si Si3 0.315013 0.140421 0.830883
Si Si4 0.273502 0.177231 0.491589
Si Si5 0.938885 0.106177 0.626369
O O1 0.554706 0.250000 0.750000
O O2 0.537380 0.395450 0.586637
O O3 0.406815 0.426836 0.716513
O O4 0.553419 0.575423 0.755997
O O5 0.677693 0.229900 0.983139
O O6 0.547317 0.429208 0.919810
O O7 0.516437 0.274036 0.079845
O O8 0.264620 0.250000 0.750000
O O9 0.250000 0.000000 0.864563
O O10 0.337675 0.244057 0.926646
O O11 0.336437 0.172364 0.394552
O O12 0.250000 0.000000 0.528357
#
# Coordination Sequence:
#
# PCOD8215700 Si02
#       5
#     8   8   8   8   8
#     4   9  18  33  56  87 129 166 214 274 319 388
#     4   9  17  31  57  90 121 170 216 267 327 386
#     4  11  23  36  56  92 129 164 214 273 327 390
#     4  10  20  35  61  92 122 169 219 267 325 397
#     4   9  17  31  56  91 124 166 217 264 326 393
#
# _framework density 23.890917999999999
#
# number of rings (size 3 to 8) (size 9 to 14) (size 15 to 20)
#    0.000    2.400    2.000    0.600   11.200    0.000 
#    0.000    1.000    0.000   10.800   20.800    0.000 
#    0.000    0.000    0.000    0.000    0.000    0.000 
#
# Total GULP energy -495639.807412 kJ/mol
# GULP energy per Si atom -12390.995185 kJ/mol
# Density = 2.383654 g / cm^3
# Si number density = 23.890918 Si / 1000 Ang^3
#
#
#
# Elastic Constant Matrix: (Units=GPa)
#
#
# Indices 1 2 3 4 5 6 
#
# 1 136.1938 34.6966 54.4162 0.0000 0.0000 0.0000
# 2 34.6966 42.0082 41.9151 0.0000 0.0000 0.0000
# 3 54.4162 41.9151 135.5439 0.0000 0.0000 0.0000
# 4 0.0000 0.0000 0.0000 41.9865 0.0000 0.0000
# 5 0.0000 0.0000 0.0000 0.0000 28.6510 0.0000
# 6 0.0000 0.0000 0.0000 0.0000 0.0000 18.6028
#
#
#
# Elastic Compliance Matrix: (Units=1/GPa)
#
#
# Indices 1 2 3 4 5 6 
#
# 1 0.009675 -0.005952 -0.002044 0.000000 0.000000 0.000000
# 2 -0.005952 0.038089 -0.009389 0.000000 0.000000 0.000000
# 3 -0.002044 -0.009389 0.011102 0.000000 0.000000 0.000000
# 4 0.000000 0.000000 0.000000 0.023817 0.000000 0.000000
# 5 0.000000 0.000000 0.000000 0.000000 0.034903 0.000000
# 6 0.000000 0.000000 0.000000 0.000000 0.000000 0.053755
#
#
# Mechanical properties :
#
#
# Convention : Reuss Voigt Hill
#
# Bulk Modulus (GPa) = 41.49990 63.97795 52.73892
# Shear Modulus (GPa) = 23.34887 30.02929 26.68908
#
# Velocity S-wave (km/s) = 3.12959 3.54917 3.34596
# Velocity P-wave (km/s) = 5.51973 6.60551 6.08688
#
# Compressibility (1/GPa) = 0.02409645
#
# Stress axis : x y z
#
# Youngs Moduli (GPa) = 103.35475 26.25418 90.07742
#
# Poissons Ratio (x) = 0.15627 0.18409
# Poissons Ratio (y) = 0.61519 0.84573
# Poissons Ratio (z) = 0.21123 0.24650
#
# Static dielectric constant tensor:
#      x y z
#    x 4.162200 0.000000 0.000000 
#    y 0.000000 4.004580 0.000000 
#    z 0.000000 0.000000 4.317290 
# 
# 
# High freq. dielectric constant tensor:
#      x y z
#    x 1.936940 0.000000 0.000000 
#    y 0.000000 1.925270 0.000000 
#    z 0.000000 0.000000 1.937140 
# 
# From -- ./inp_files/26919.got.cif
#   From: 2010.06.25/outbox.cif.g09.slc.cpg/sg52_14_cif.got.tgz:26919.got - 2010.06.26 19:32:48.
