data_PCOD8215846
_publ_section_title
;
Structure prediction by ZEFSAII (Michael W. Deem and Ramdas Pophale) SiO2 
 PCOD8215846
Probable space group: P N N A
;
_chemical_formula_sum "Si O2"
_cell_formula_units_Z 60
_cell_length_a 29.449474
_cell_length_b 18.885084
_cell_length_c 5.118500
_cell_angle_alpha 90.000000
_cell_angle_beta 90.000000
_cell_angle_gamma 90.000000
_cell_volume 2846.683412
_symmetry_space_group_name_H-M "P N N A"
_symmetry_group_IT_number 52
_symmetry_cell_setting 'orthorhombic'
loop_
_space_group_symop_operation_xyz
x,y,z
1/2-x,-y,z
x,1/2-y,1/2-z
1/2-x,1/2+y,1/2-z
-x,-y,-z
1/2+x,y,-z
-x,1/2+y,1/2+z
1/2+x,1/2-y,1/2+z
loop_
_atom_site_type_symbol
_atom_site_label
_atom_site_fract_x
_atom_site_fract_y
_atom_site_fract_z
Si Si1 0.311064 0.250000 0.250000
Si Si2 0.053215 0.457183 0.238215
Si Si3 0.506171 0.409251 0.252903
Si Si4 0.771692 0.330538 0.146683
Si Si5 0.207864 0.452770 0.774808
Si Si6 0.944630 0.294990 0.503700
Si Si7 0.845694 0.992221 0.782573
Si Si8 0.854886 0.363127 0.454297
O O1 0.279941 0.183002 0.339052
O O2 0.343222 0.282467 0.467643
O O3 0.041906 0.436762 0.534314
O O4 0.107109 0.457213 0.198462
O O5 0.034624 0.536340 0.194134
O O6 0.032465 0.402063 0.024909
O O7 0.487004 0.335667 0.364206
O O8 0.767473 0.250000 0.250000
O O9 0.725320 0.371981 0.197042
O O10 0.816548 0.377084 0.232978
O O11 0.250000 0.500000 0.683526
O O12 0.169965 0.454979 0.551253
O O13 0.189959 0.479942 0.052449
O O14 0.960800 0.250000 0.250000
O O15 0.908137 0.352460 0.384456
O O16 0.924640 0.250000 0.750000
O O17 0.851463 0.076128 0.828104
#
# Coordination Sequence:
#
# PCOD8215846 Si02
#       8
#     4   8   8   8   8   8   8   8
#     4  10  20  38  60  84 128 174 206 258 318 398
#     4  10  21  41  63  91 118 170 208 268 316 376
#     4  10  21  40  64  89 127 160 216 252 317 390
#     4  10  23  40  62  87 127 178 220 267 321 395
#     4  12  25  41  62  98 129 174 219 274 327 383
#     4  12  24  38  62  99 135 168 205 254 326 407
#     4  12  25  40  67  92 136 167 215 277 326 378
#     4  11  22  38  57  96 132 173 203 260 329 403
#
# _framework density 21.077161
#
# number of rings (size 3 to 8) (size 9 to 14) (size 15 to 20)
#    0.000    1.067    3.333    4.000    3.733    0.000 
#    0.000    0.000    0.000    8.000    0.000    0.000 
#    0.000    0.000    0.000    0.000    0.000    0.000 
#
# Total GULP energy -743308.194204 kJ/mol
# GULP energy per Si atom -12388.469903 kJ/mol
# Density = 2.102919 g / cm^3
# Si number density = 21.077161 Si / 1000 Ang^3
#
#
#
# Elastic Constant Matrix: (Units=GPa)
#
#
# Indices 1 2 3 4 5 6 
#
# 1 100.4951 45.1081 33.9540 0.0000 0.0000 0.0000
# 2 45.1081 84.0419 29.4283 0.0000 0.0000 0.0000
# 3 33.9540 29.4283 115.8889 0.0000 0.0000 0.0000
# 4 0.0000 0.0000 0.0000 35.1506 0.0000 0.0000
# 5 0.0000 0.0000 0.0000 0.0000 28.2994 0.0000
# 6 0.0000 0.0000 0.0000 0.0000 0.0000 26.2217
#
#
#
# Elastic Compliance Matrix: (Units=1/GPa)
#
#
# Indices 1 2 3 4 5 6 
#
# 1 0.013668 -0.006513 -0.002351 0.000000 0.000000 0.000000
# 2 -0.006513 0.016164 -0.002196 0.000000 0.000000 0.000000
# 3 -0.002351 -0.002196 0.009875 0.000000 0.000000 0.000000
# 4 0.000000 0.000000 0.000000 0.028449 0.000000 0.000000
# 5 0.000000 0.000000 0.000000 0.000000 0.035336 0.000000
# 6 0.000000 0.000000 0.000000 0.000000 0.000000 0.038136
#
#
# Mechanical properties :
#
#
# Convention : Reuss Voigt Hill
#
# Bulk Modulus (GPa) = 56.85956 57.48962 57.17459
# Shear Modulus (GPa) = 29.47899 30.73003 30.10451
#
# Velocity S-wave (km/s) = 3.74387 3.82249 3.78339
# Velocity P-wave (km/s) = 6.76197 6.84229 6.80225
#
# Compressibility (1/GPa) = 0.01758719
#
# Stress axis : x y z
#
# Youngs Moduli (GPa) = 73.16100 61.86692 101.26163
#
# Poissons Ratio (x) = 0.40295 0.23804
# Poissons Ratio (y) = 0.47651 0.22240
# Poissons Ratio (z) = 0.17198 0.13588
#
# Static dielectric constant tensor:
#      x y z
#    x 3.732120 0.000000 0.000000 
#    y 0.000000 3.762180 0.000000 
#    z 0.000000 0.000000 4.289200 
# 
# 
# High freq. dielectric constant tensor:
#      x y z
#    x 1.810010 0.000000 0.000000 
#    y 0.000000 1.811170 0.000000 
#    z 0.000000 0.000000 1.837250 
# 
# From -- ./inp_files/5939.got.cif
#   From: 2010.06.25/outbox.cif.g09.slc.cpg/sg52_3_cif.got.tgz:5939.got - 2010.06.26 19:32:48.
