data_PCOD8215722
_publ_section_title
;
Structure prediction by ZEFSAII (Michael W. Deem and Ramdas Pophale) SiO2 
 PCOD8215722
Probable space group: P N N A
;
_chemical_formula_sum "Si O2"
_cell_formula_units_Z 32
_cell_length_a 19.543561
_cell_length_b 9.559704
_cell_length_c 9.577030
_cell_angle_alpha 90.000000
_cell_angle_beta 90.000000
_cell_angle_gamma 90.000000
_cell_volume 1789.282819
_symmetry_space_group_name_H-M "P N N A"
_symmetry_group_IT_number 52
_symmetry_cell_setting 'orthorhombic'
loop_
_space_group_symop_operation_xyz
x,y,z
1/2-x,-y,z
x,1/2-y,1/2-z
1/2-x,1/2+y,1/2-z
-x,-y,-z
1/2+x,y,-z
-x,1/2+y,1/2+z
1/2+x,1/2-y,1/2+z
loop_
_atom_site_type_symbol
_atom_site_label
_atom_site_fract_x
_atom_site_fract_y
_atom_site_fract_z
Si Si1 0.735569 0.338835 0.385181
Si Si2 0.148812 0.683962 0.400824
Si Si3 0.401388 0.588024 0.501687
Si Si4 0.037422 0.823004 0.894440
O O1 0.750000 0.500000 0.349669
O O2 0.754559 0.250000 0.250000
O O3 0.782085 0.285601 0.513154
O O4 0.655756 0.316606 0.424196
O O5 0.155906 0.750000 0.250000
O O6 0.136482 0.515295 0.389597
O O7 0.083637 0.750202 0.484468
O O8 0.440784 0.487777 0.614443
O O9 0.456689 0.689487 0.428955
O O10 0.054339 0.750000 0.750000
#
# Coordination Sequence:
#
# PCOD8215722 Si02
#       4
#     8   8   8   8
#     4  10  20  36  58  78 107 142 180 220 262 319
#     4   9  18  33  53  75 107 139 171 216 271 314
#     4   8  19  34  53  74 106 137 173 223 264 307
#     4   9  17  34  56  72 102 141 178 214 266 317
#
# _framework density 17.884260999999999
#
# number of rings (size 3 to 8) (size 9 to 14) (size 15 to 20)
#    1.500    1.500    0.000    0.750    0.000    2.000 
#    0.000    7.500    0.000    0.000    0.000    0.000 
#    0.000    0.000    0.000    0.000    0.000    0.000 
#
# Total GULP energy -396433.883960 kJ/mol
# GULP energy per Si atom -12388.558874 kJ/mol
# Density = 1.784356 g / cm^3
# Si number density = 17.884261 Si / 1000 Ang^3
#
#
#
# Elastic Constant Matrix: (Units=GPa)
#
#
# Indices 1 2 3 4 5 6 
#
# 1 144.9874 18.1190 61.8326 0.0000 0.0000 0.0000
# 2 18.1190 35.5503 47.3173 0.0000 0.0000 0.0000
# 3 61.8326 47.3173 148.9161 0.0000 0.0000 0.0000
# 4 0.0000 0.0000 0.0000 17.5824 0.0000 0.0000
# 5 0.0000 0.0000 0.0000 0.0000 19.8453 0.0000
# 6 0.0000 0.0000 0.0000 0.0000 0.0000 9.1826
#
#
#
# Elastic Compliance Matrix: (Units=1/GPa)
#
#
# Indices 1 2 3 4 5 6 
#
# 1 0.008389 0.000625 -0.003682 0.000000 0.000000 0.000000
# 2 0.000625 0.048790 -0.015762 0.000000 0.000000 0.000000
# 3 -0.003682 -0.015762 0.013252 0.000000 0.000000 0.000000
# 4 0.000000 0.000000 0.000000 0.056875 0.000000 0.000000
# 5 0.000000 0.000000 0.000000 0.000000 0.050390 0.000000
# 6 0.000000 0.000000 0.000000 0.000000 0.000000 0.108902
#
#
# Mechanical properties :
#
#
# Convention : Reuss Voigt Hill
#
# Bulk Modulus (GPa) = 30.49422 64.88797 47.69109
# Shear Modulus (GPa) = 14.91790 22.80105 18.85947
#
# Velocity S-wave (km/s) = 2.89127 3.57448 3.25087
# Velocity P-wave (km/s) = 5.31355 7.30731 6.38869
#
# Compressibility (1/GPa) = 0.03279310
#
# Stress axis : x y z
#
# Youngs Moduli (GPa) = 119.19960 20.49596 75.45836
#
# Poissons Ratio (x) = -0.01281 0.27783
# Poissons Ratio (y) = -0.07448 1.18939
# Poissons Ratio (z) = 0.43888 0.32306
#
# Static dielectric constant tensor:
#      x y z
#    x 3.550890 0.000000 0.000000 
#    y 0.000000 2.883410 0.000000 
#    z 0.000000 0.000000 2.902030 
# 
# 
# High freq. dielectric constant tensor:
#      x y z
#    x 1.716080 0.000000 0.000000 
#    y 0.000000 1.645870 0.000000 
#    z 0.000000 0.000000 1.665970 
# 
# From -- ./inp_files/14113.got.cif
#   From: 2010.06.25/outbox.cif.g09.slc.cpg/sg52_8_cif.got.tgz:14113.got - 2010.06.26 19:32:48.
