data_PCOD8215604
_publ_section_title
;
Structure prediction by ZEFSAII (Michael W. Deem and Ramdas Pophale) SiO2 
 PCOD8215604
Probable space group: P N N A
;
_chemical_formula_sum "Si O2"
_cell_formula_units_Z 44
_cell_length_a 17.882023
_cell_length_b 11.755549
_cell_length_c 11.274675
_cell_angle_alpha 90.000000
_cell_angle_beta 90.000000
_cell_angle_gamma 90.000000
_cell_volume 2370.083229
_symmetry_space_group_name_H-M "P N N A"
_symmetry_group_IT_number 52
_symmetry_cell_setting 'orthorhombic'
loop_
_space_group_symop_operation_xyz
x,y,z
1/2-x,-y,z
x,1/2-y,1/2-z
1/2-x,1/2+y,1/2-z
-x,-y,-z
1/2+x,y,-z
-x,1/2+y,1/2+z
1/2+x,1/2-y,1/2+z
loop_
_atom_site_type_symbol
_atom_site_label
_atom_site_fract_x
_atom_site_fract_y
_atom_site_fract_z
Si Si1 0.750000 0.500000 0.039734
Si Si2 0.833457 0.713177 0.115068
Si Si3 0.466536 0.852660 0.458701
Si Si4 0.886546 0.750000 0.750000
Si Si5 0.841317 0.250000 0.750000
Si Si6 0.601374 0.917114 0.580940
Si Si7 0.725583 0.131114 0.904862
O O1 0.776309 0.606842 0.117308
O O2 0.683020 0.543375 0.957687
O O3 0.840287 0.750000 0.250000
O O4 0.914593 0.668976 0.073808
O O5 0.804749 0.814901 0.028162
O O6 0.441965 0.767240 0.357995
O O7 0.554681 0.836554 0.488674
O O8 0.453310 0.976578 0.401485
O O9 0.833865 0.855120 0.795115
O O10 0.892542 0.146632 0.705939
O O11 0.795733 0.207317 0.864943
O O12 0.750000 0.000000 0.922549
#
# Coordination Sequence:
#
# PCOD8215604 Si02
#       7
#     4   8   8   4   4   8   8
#     4  10  20  40  56  84 110 148 198 226 288 340
#     4  10  21  36  57  79 116 156 186 237 284 344
#     4   9  20  37  57  82 110 150 186 230 291 340
#     4   9  18  36  58  80 115 150 182 238 287 346
#     4  11  20  32  58  86 109 144 186 246 275 334
#     4  10  20  35  58  84 110 143 191 234 279 341
#     4  10  20  33  56  88 111 146 191 240 290 328
#
# _framework density 18.564748999999999
#
# number of rings (size 3 to 8) (size 9 to 14) (size 15 to 20)
#    0.000    2.182    1.818    1.091    6.364    0.000 
#    1.636    0.000    4.000    3.273    0.000    0.000 
#    0.000    0.000    0.000    0.000    0.000    0.000 
#
# Total GULP energy -545114.067373 kJ/mol
# GULP energy per Si atom -12388.956077 kJ/mol
# Density = 1.852249 g / cm^3
# Si number density = 18.564749 Si / 1000 Ang^3
#
#
#
# Elastic Constant Matrix: (Units=GPa)
#
#
# Indices 1 2 3 4 5 6 
#
# 1 106.6737 28.3615 37.7812 0.0000 0.0000 0.0000
# 2 28.3615 94.8388 35.5063 0.0000 0.0000 0.0000
# 3 37.7812 35.5063 105.8064 0.0000 0.0000 0.0000
# 4 0.0000 0.0000 0.0000 25.5045 0.0000 0.0000
# 5 0.0000 0.0000 0.0000 0.0000 8.1377 0.0000
# 6 0.0000 0.0000 0.0000 0.0000 0.0000 17.6631
#
#
#
# Elastic Compliance Matrix: (Units=1/GPa)
#
#
# Indices 1 2 3 4 5 6 
#
# 1 0.011084 -0.002096 -0.003255 0.000000 0.000000 0.000000
# 2 -0.002096 0.012456 -0.003431 0.000000 0.000000 0.000000
# 3 -0.003255 -0.003431 0.011765 0.000000 0.000000 0.000000
# 4 0.000000 0.000000 0.000000 0.039209 0.000000 0.000000
# 5 0.000000 0.000000 0.000000 0.000000 0.122885 0.000000
# 6 0.000000 0.000000 0.000000 0.000000 0.000000 0.056615
#
#
# Mechanical properties :
#
#
# Convention : Reuss Voigt Hill
#
# Bulk Modulus (GPa) = 56.36782 56.73523 56.55152
# Shear Modulus (GPa) = 18.01852 23.97238 20.99545
#
# Velocity S-wave (km/s) = 3.11879 3.59734 3.36658
# Velocity P-wave (km/s) = 6.58771 6.91965 6.75572
#
# Compressibility (1/GPa) = 0.01774062
#
# Stress axis : x y z
#
# Youngs Moduli (GPa) = 90.21676 80.28414 84.99916
#
# Poissons Ratio (x) = 0.16830 0.27663
# Poissons Ratio (y) = 0.18913 0.29166
# Poissons Ratio (z) = 0.29361 0.27548
#
# Static dielectric constant tensor:
#      x y z
#    x 3.827000 0.000000 0.000000 
#    y 0.000000 3.516690 0.000000 
#    z 0.000000 0.000000 3.262170 
# 
# 
# High freq. dielectric constant tensor:
#      x y z
#    x 1.720290 0.000000 0.000000 
#    y 0.000000 1.719380 0.000000 
#    z 0.000000 0.000000 1.703800 
# 
# From -- ./inp_files/20579.got.cif
#   From: 2010.06.25/outbox.cif.g09.slc.cpg/sg52_11_cif.got.tgz:20579.got - 2010.06.26 19:32:48.
