data_PCOD8215223
_publ_section_title
;
Structure prediction by ZEFSAII (Michael W. Deem and Ramdas Pophale) SiO2 
 PCOD8215223
Probable space group: P N N A
;
_chemical_formula_sum "Si O2"
_cell_formula_units_Z 64
_cell_length_a 15.296568
_cell_length_b 19.017945
_cell_length_c 10.985446
_cell_angle_alpha 90.000000
_cell_angle_beta 90.000000
_cell_angle_gamma 90.000000
_cell_volume 3195.768284
_symmetry_space_group_name_H-M "P N N A"
_symmetry_group_IT_number 52
_symmetry_cell_setting 'orthorhombic'
loop_
_space_group_symop_operation_xyz
x,y,z
1/2-x,-y,z
x,1/2-y,1/2-z
1/2-x,1/2+y,1/2-z
-x,-y,-z
1/2+x,y,-z
-x,1/2+y,1/2+z
1/2+x,1/2-y,1/2+z
loop_
_atom_site_type_symbol
_atom_site_label
_atom_site_fract_x
_atom_site_fract_y
_atom_site_fract_z
Si Si1 0.649748 0.994220 0.835741
Si Si2 0.169367 0.621619 0.525784
Si Si3 0.239673 0.920395 0.722533
Si Si4 0.355946 0.642438 0.456697
Si Si5 0.485280 0.318900 0.680440
Si Si6 0.517833 0.564027 0.850168
Si Si7 0.063247 0.578514 0.878260
Si Si8 0.899807 0.667032 0.270268
O O1 0.599840 0.975393 0.711171
O O2 0.750000 0.000000 0.797501
O O3 0.622135 0.066073 0.901169
O O4 0.628475 0.933020 0.931854
O O5 0.215022 0.579043 0.634889
O O6 0.251642 0.662417 0.458232
O O7 0.090132 0.668939 0.577209
O O8 0.160204 0.890789 0.641939
O O9 0.320746 0.869094 0.694814
O O10 0.250000 0.000000 0.679748
O O11 0.418634 0.694512 0.379065
O O12 0.393159 0.645592 0.591247
O O13 0.454372 0.250000 0.750000
O O14 0.496534 0.381933 0.778295
O O15 0.441035 0.505561 0.854109
O O16 0.489799 0.633129 0.776308
O O17 0.536879 0.593999 0.983931
O O18 0.898880 0.750000 0.250000
#
# Coordination Sequence:
#
# PCOD8215223 Si02
#       8
#     8   8   8   8   8   8   8   8
#     4  10  20  38  66  95 124 159 211 272 325 387
#     4   9  20  35  61  94 123 150 209 267 320 377
#     4  10  18  37  60  89 120 160 208 263 314 377
#     4  10  21  38  65  92 122 160 211 268 329 375
#     4  11  23  39  65  90 126 170 217 262 321 394
#     4  11  22  40  59  91 128 162 214 263 320 387
#     4  10  23  38  60  88 123 166 211 262 310 385
#     4  11  24  38  65  94 131 164 210 272 338 391
#
# _framework density 20.026484
#
# number of rings (size 3 to 8) (size 9 to 14) (size 15 to 20)
#    0.000    1.750    2.500    2.625    3.500    6.000 
#    0.000    0.000    5.500    0.000    0.000    0.000 
#    0.000    0.000    0.000    0.000    0.000    0.000 
#
# Total GULP energy -793130.383483 kJ/mol
# GULP energy per Si atom -12392.662242 kJ/mol
# Density = 1.998090 g / cm^3
# Si number density = 20.026484 Si / 1000 Ang^3
#
#
#
# Elastic Constant Matrix: (Units=GPa)
#
#
# Indices 1 2 3 4 5 6 
#
# 1 97.4014 42.5000 47.7212 0.0000 0.0000 0.0000
# 2 42.5000 87.7609 23.3499 0.0000 0.0000 0.0000
# 3 47.7212 23.3499 83.1083 0.0000 0.0000 0.0000
# 4 0.0000 0.0000 0.0000 22.4242 0.0000 0.0000
# 5 0.0000 0.0000 0.0000 0.0000 26.6994 0.0000
# 6 0.0000 0.0000 0.0000 0.0000 0.0000 21.2051
#
#
#
# Elastic Compliance Matrix: (Units=1/GPa)
#
#
# Indices 1 2 3 4 5 6 
#
# 1 0.016785 -0.006014 -0.007949 0.000000 0.000000 0.000000
# 2 -0.006014 0.014470 -0.000612 0.000000 0.000000 0.000000
# 3 -0.007949 -0.000612 0.016769 0.000000 0.000000 0.000000
# 4 0.000000 0.000000 0.000000 0.044595 0.000000 0.000000
# 5 0.000000 0.000000 0.000000 0.000000 0.037454 0.000000
# 6 0.000000 0.000000 0.000000 0.000000 0.000000 0.047158
#
#
# Mechanical properties :
#
#
# Convention : Reuss Voigt Hill
#
# Bulk Modulus (GPa) = 52.98161 55.04584 54.01373
# Shear Modulus (GPa) = 23.51047 24.37903 23.94475
#
# Velocity S-wave (km/s) = 3.43004 3.49282 3.46157
# Velocity P-wave (km/s) = 6.49616 6.61911 6.55792
#
# Compressibility (1/GPa) = 0.01887447
#
# Stress axis : x y z
#
# Youngs Moduli (GPa) = 59.57649 69.10954 59.63530
#
# Poissons Ratio (x) = 0.41561 0.47401
# Poissons Ratio (y) = 0.35828 0.03651
# Poissons Ratio (z) = 0.47354 0.04231
#
# Static dielectric constant tensor:
#      x y z
#    x 3.782910 0.000000 0.000000 
#    y 0.000000 3.515690 0.000000 
#    z 0.000000 0.000000 3.564740 
# 
# 
# High freq. dielectric constant tensor:
#      x y z
#    x 1.787980 0.000000 0.000000 
#    y 0.000000 1.757140 0.000000 
#    z 0.000000 0.000000 1.775740 
# 
# From -- ./inp_files/19864.got.cif
#   From: 2010.06.25/outbox.cif.g09.slc.cpg/sg52_10_cif.got.tgz:19864.got - 2010.06.26 19:32:48.
