data_PCOD8215199
_publ_section_title
;
Structure prediction by ZEFSAII (Michael W. Deem and Ramdas Pophale) SiO2 
 PCOD8215199
Probable space group: P N N A
;
_chemical_formula_sum "Si O2"
_cell_formula_units_Z 44
_cell_length_a 7.968880
_cell_length_b 18.775081
_cell_length_c 14.373872
_cell_angle_alpha 90.000000
_cell_angle_beta 90.000000
_cell_angle_gamma 90.000000
_cell_volume 2150.566515
_symmetry_space_group_name_H-M "P N N A"
_symmetry_group_IT_number 52
_symmetry_cell_setting 'orthorhombic'
loop_
_space_group_symop_operation_xyz
x,y,z
1/2-x,-y,z
x,1/2-y,1/2-z
1/2-x,1/2+y,1/2-z
-x,-y,-z
1/2+x,y,-z
-x,1/2+y,1/2+z
1/2+x,1/2-y,1/2+z
loop_
_atom_site_type_symbol
_atom_site_label
_atom_site_fract_x
_atom_site_fract_y
_atom_site_fract_z
Si Si1 0.733984 0.683212 0.043391
Si Si2 0.250000 0.500000 0.228864
Si Si3 0.942167 0.072978 0.887991
Si Si4 0.750000 0.000000 0.035939
Si Si5 0.463381 0.230128 0.089937
Si Si6 0.425253 0.625944 0.134103
Si Si7 0.798412 0.750000 0.750000
O O1 0.881759 0.715567 0.108366
O O2 0.620668 0.628065 0.102498
O O3 0.614651 0.749010 0.010556
O O4 0.803941 0.643569 0.952451
O O5 0.142614 0.557071 0.288517
O O6 0.377951 0.546325 0.166496
O O7 0.027737 0.149626 0.902462
O O8 0.800592 0.065057 0.967755
O O9 0.092492 0.016974 0.899231
O O10 0.316500 0.232324 0.163621
O O11 0.409660 0.682045 0.219785
#
# Coordination Sequence:
#
# PCOD8215199 Si02
#       7
#     8   4   8   4   8   8   4
#     4   9  21  37  61  85 114 153 212 238 306 349
#     4  11  22  38  62  85 132 160 200 247 318 352
#     4  10  19  36  56  85 117 161 189 248 298 364
#     4   9  20  34  52  81 120 154 200 227 296 376
#     4  10  18  36  58  84 109 152 190 254 289 359
#     4  10  21  41  58  91 116 164 197 259 293 371
#     4  10  20  36  60  80 122 144 198 248 308 336
#
# _framework density 20.459723
#
# number of rings (size 3 to 8) (size 9 to 14) (size 15 to 20)
#    0.000    2.182    1.818    1.091    0.000    1.455 
#    9.818    0.000    0.000    0.000    0.000    0.000 
#    0.000    0.000    0.000    0.000    0.000    0.000 
#
# Total GULP energy -545355.765944 kJ/mol
# GULP energy per Si atom -12394.449226 kJ/mol
# Density = 2.041316 g / cm^3
# Si number density = 20.459723 Si / 1000 Ang^3
#
#
#
# Elastic Constant Matrix: (Units=GPa)
#
#
# Indices 1 2 3 4 5 6 
#
# 1 90.6960 8.5407 23.1622 0.0000 0.0000 0.0000
# 2 8.5407 71.8331 14.5604 0.0000 0.0000 0.0000
# 3 23.1622 14.5604 57.5241 0.0000 0.0000 0.0000
# 4 0.0000 0.0000 0.0000 22.9613 0.0000 0.0000
# 5 0.0000 0.0000 0.0000 0.0000 11.6905 0.0000
# 6 0.0000 0.0000 0.0000 0.0000 0.0000 31.3885
#
#
#
# Elastic Compliance Matrix: (Units=1/GPa)
#
#
# Indices 1 2 3 4 5 6 
#
# 1 0.012306 -0.000484 -0.004832 0.000000 0.000000 0.000000
# 2 -0.000484 0.014693 -0.003524 0.000000 0.000000 0.000000
# 3 -0.004832 -0.003524 0.020222 0.000000 0.000000 0.000000
# 4 0.000000 0.000000 0.000000 0.043552 0.000000 0.000000
# 5 0.000000 0.000000 0.000000 0.000000 0.085540 0.000000
# 6 0.000000 0.000000 0.000000 0.000000 0.000000 0.031859
#
#
# Mechanical properties :
#
#
# Convention : Reuss Voigt Hill
#
# Bulk Modulus (GPa) = 33.85274 34.73107 34.29191
# Shear Modulus (GPa) = 21.21360 24.79405 23.00382
#
# Velocity S-wave (km/s) = 3.22350 3.48494 3.35677
# Velocity P-wave (km/s) = 5.51694 5.76240 5.64100
#
# Compressibility (1/GPa) = 0.02953971
#
# Stress axis : x y z
#
# Youngs Moduli (GPa) = 81.26444 68.05951 49.45141
#
# Poissons Ratio (x) = 0.03291 0.23897
# Poissons Ratio (y) = 0.03930 0.17428
# Poissons Ratio (z) = 0.39271 0.23987
#
# Static dielectric constant tensor:
#      x y z
#    x 3.719870 0.000000 0.000000 
#    y 0.000000 3.693130 0.000000 
#    z 0.000000 0.000000 3.741960 
# 
# 
# High freq. dielectric constant tensor:
#      x y z
#    x 1.801950 0.000000 0.000000 
#    y 0.000000 1.784550 0.000000 
#    z 0.000000 0.000000 1.786760 
# 
# From -- ./inp_files/24669.got.cif
#   From: 2010.06.25/outbox.cif.g09.slc.cpg/sg52_13_cif.got.tgz:24669.got - 2010.06.26 19:32:48.
