data_PCOD8215120
_publ_section_title
;
Structure prediction by ZEFSAII (Michael W. Deem and Ramdas Pophale) SiO2 
 PCOD8215120
Probable space group: P N N A
;
_chemical_formula_sum "Si O2"
_cell_formula_units_Z 32
_cell_length_a 5.373214
_cell_length_b 31.439565
_cell_length_c 8.598366
_cell_angle_alpha 90.000000
_cell_angle_beta 90.000000
_cell_angle_gamma 90.000000
_cell_volume 1452.534959
_symmetry_space_group_name_H-M "P N N A"
_symmetry_group_IT_number 52
_symmetry_cell_setting 'orthorhombic'
loop_
_space_group_symop_operation_xyz
x,y,z
1/2-x,-y,z
x,1/2-y,1/2-z
1/2-x,1/2+y,1/2-z
-x,-y,-z
1/2+x,y,-z
-x,1/2+y,1/2+z
1/2+x,1/2-y,1/2+z
loop_
_atom_site_type_symbol
_atom_site_label
_atom_site_fract_x
_atom_site_fract_y
_atom_site_fract_z
Si Si1 0.000090 0.452380 0.563455
Si Si2 0.499534 0.569764 0.912835
Si Si3 0.000510 0.331155 0.848153
Si Si4 0.500512 0.202617 0.687791
O O1 0.750049 0.428846 0.500067
O O2 0.000238 0.453166 0.748058
O O3 0.000000 0.500000 0.500000
O O4 0.499580 0.620372 0.899699
O O5 0.249421 0.554551 0.999873
O O6 0.751259 0.320748 0.748931
O O7 0.249802 0.320764 0.748950
O O8 0.000554 0.300730 0.000118
O O9 0.500435 0.250000 0.750000
#
# Coordination Sequence:
#
# PCOD8215120 Si02
#       4
#     8   8   8   8
#     4  10  23  45  67  95 141 175 202 270 349 405
#     4  12  21  40  72 100 125 173 230 283 314 392
#     4  10  19  35  55  85 116 157 213 271 309 371
#     4  10  18  32  56  78 119 155 199 263 334 362
#
# _framework density 22.030450999999999
#
# number of rings (size 3 to 8) (size 9 to 14) (size 15 to 20)
#    0.000    1.500    5.000    2.250    0.000    0.000 
#    0.000   15.000   33.000    0.000    0.000    0.000 
#    0.000    0.000    0.000    0.000    0.000    0.000 
#
# Total GULP energy -396543.629403 kJ/mol
# GULP energy per Si atom -12391.988419 kJ/mol
# Density = 2.198031 g / cm^3
# Si number density = 22.030451 Si / 1000 Ang^3
#
#
#
# Elastic Constant Matrix: (Units=GPa)
#
#
# Indices 1 2 3 4 5 6 
#
# 1 291.7936 17.7939 63.0253 0.0000 0.0000 0.0000
# 2 17.7939 53.6236 47.2790 0.0000 0.0000 0.0000
# 3 63.0253 47.2790 129.7758 0.0000 0.0000 0.0000
# 4 0.0000 0.0000 0.0000 43.5242 0.0000 0.0000
# 5 0.0000 0.0000 0.0000 0.0000 32.1563 0.0000
# 6 0.0000 0.0000 0.0000 0.0000 0.0000 3.0314
#
#
#
# Elastic Compliance Matrix: (Units=1/GPa)
#
#
# Indices 1 2 3 4 5 6 
#
# 1 0.003839 0.000545 -0.002063 0.000000 0.000000 0.000000
# 2 0.000545 0.027550 -0.010302 0.000000 0.000000 0.000000
# 3 -0.002063 -0.010302 0.012461 0.000000 0.000000 0.000000
# 4 0.000000 0.000000 0.000000 0.022976 0.000000 0.000000
# 5 0.000000 0.000000 0.000000 0.000000 0.031098 0.000000
# 6 0.000000 0.000000 0.000000 0.000000 0.000000 0.329884
#
#
# Mechanical properties :
#
#
# Convention : Reuss Voigt Hill
#
# Bulk Modulus (GPa) = 49.47833 81.26550 65.37191
# Shear Modulus (GPa) = 10.91261 38.88202 24.89732
#
# Velocity S-wave (km/s) = 2.22804 4.20565 3.36539
# Velocity P-wave (km/s) = 5.39692 7.78147 6.69619
#
# Compressibility (1/GPa) = 0.02021087
#
# Stress axis : x y z
#
# Youngs Moduli (GPa) = 260.45204 36.29698 80.25275
#
# Poissons Ratio (x) = -0.01978 0.16558
# Poissons Ratio (y) = -0.14195 0.82674
# Poissons Ratio (z) = 0.53736 0.37392
#
# Static dielectric constant tensor:
#      x y z
#    x 8.186060 0.000000 0.000000 
#    y 0.000000 3.551610 0.000000 
#    z 0.000000 0.000000 3.696180 
# 
# 
# High freq. dielectric constant tensor:
#      x y z
#    x 1.921730 0.000000 0.000000 
#    y 0.000000 1.837700 0.000000 
#    z 0.000000 0.000000 1.822510 
# 
# From -- ./inp_files/6710.got.cif
#   From: 2010.06.25/outbox.cif.g09.slc.cpg/sg52_4_cif.got.tgz:6710.got - 2010.06.26 19:32:48.
