data_PCOD8215052
_publ_section_title
;
Structure prediction by ZEFSAII (Michael W. Deem and Ramdas Pophale) SiO2 
 PCOD8215052
Probable space group: P N N A
;
_chemical_formula_sum "Si O2"
_cell_formula_units_Z 48
_cell_length_a 10.303175
_cell_length_b 9.976672
_cell_length_c 24.142471
_cell_angle_alpha 90.000000
_cell_angle_beta 90.000000
_cell_angle_gamma 90.000000
_cell_volume 2481.638334
_symmetry_space_group_name_H-M "P N N A"
_symmetry_group_IT_number 52
_symmetry_cell_setting 'orthorhombic'
loop_
_space_group_symop_operation_xyz
x,y,z
1/2-x,-y,z
x,1/2-y,1/2-z
1/2-x,1/2+y,1/2-z
-x,-y,-z
1/2+x,y,-z
-x,1/2+y,1/2+z
1/2+x,1/2-y,1/2+z
loop_
_atom_site_type_symbol
_atom_site_label
_atom_site_fract_x
_atom_site_fract_y
_atom_site_fract_z
Si Si1 0.891936 0.515124 0.375409
Si Si2 0.494100 0.852664 0.975381
Si Si3 0.610643 0.450109 0.774967
Si Si4 0.363125 0.904095 0.750920
Si Si5 0.767690 0.840119 0.949971
Si Si6 0.093170 0.310757 0.340776
O O1 0.750000 0.500000 0.403063
O O2 0.961629 0.630520 0.410500
O O3 0.878995 0.566388 0.314430
O O4 0.970659 0.373982 0.374223
O O5 0.633575 0.777094 0.974763
O O6 0.383623 0.778451 0.011750
O O7 0.500000 0.000000 0.000000
O O8 0.750000 0.500000 0.796769
O O9 0.501009 0.566357 0.778933
O O10 0.631197 0.402854 0.711581
O O11 0.559818 0.334628 0.816228
O O12 0.320258 0.750000 0.750000
O O13 0.250000 0.000000 0.725695
O O14 0.790062 0.801116 0.885470
O O15 0.750000 0.000000 0.953898
#
# Coordination Sequence:
#
# PCOD8215052 Si02
#       6
#     8   8   8   8   8   8
#     4  10  19  31  53  78 113 148 186 233 293 342
#     4  10  18  28  47  78 116 145 188 236 295 343
#     4  10  23  36  57  81 112 150 202 238 290 351
#     4  10  24  39  58  83 117 155 196 240 289 351
#     4  10  18  30  48  76 116 146 184 238 297 344
#     4  10  20  34  55  77 116 150 189 241 300 341
#
# _framework density 19.34206
#
# number of rings (size 3 to 8) (size 9 to 14) (size 15 to 20)
#    0.000    2.000    3.333    2.000   11.667    0.000 
#    0.000    0.000    0.000    0.000    0.000    5.833 
#    0.000    0.000    0.000    0.000    0.000    0.000 
#
# Total GULP energy -594691.600242 kJ/mol
# GULP energy per Si atom -12389.408338 kJ/mol
# Density = 1.929804 g / cm^3
# Si number density = 19.342060 Si / 1000 Ang^3
#
#
#
# Elastic Constant Matrix: (Units=GPa)
#
#
# Indices 1 2 3 4 5 6 
#
# 1 158.0020 35.9695 41.8068 0.0000 0.0000 0.0000
# 2 35.9695 72.9499 3.0201 0.0000 0.0000 0.0000
# 3 41.8068 3.0201 61.1655 0.0000 0.0000 0.0000
# 4 0.0000 0.0000 0.0000 15.3173 0.0000 0.0000
# 5 0.0000 0.0000 0.0000 0.0000 25.5758 0.0000
# 6 0.0000 0.0000 0.0000 0.0000 0.0000 18.3653
#
#
#
# Elastic Compliance Matrix: (Units=1/GPa)
#
#
# Indices 1 2 3 4 5 6 
#
# 1 0.008800 -0.004098 -0.005812 0.000000 0.000000 0.000000
# 2 -0.004098 0.015645 0.002029 0.000000 0.000000 0.000000
# 3 -0.005812 0.002029 0.020222 0.000000 0.000000 0.000000
# 4 0.000000 0.000000 0.000000 0.065286 0.000000 0.000000
# 5 0.000000 0.000000 0.000000 0.000000 0.039099 0.000000
# 6 0.000000 0.000000 0.000000 0.000000 0.000000 0.054450
#
#
# Mechanical properties :
#
#
# Convention : Reuss Voigt Hill
#
# Bulk Modulus (GPa) = 34.59912 50.41225 42.50569
# Shear Modulus (GPa) = 21.84355 25.93976 23.89165
#
# Velocity S-wave (km/s) = 3.36420 3.66608 3.51838
# Velocity P-wave (km/s) = 5.74607 6.63629 6.20716
#
# Compressibility (1/GPa) = 0.02890247
#
# Stress axis : x y z
#
# Youngs Moduli (GPa) = 113.63633 63.91881 49.45169
#
# Poissons Ratio (x) = 0.26196 0.28744
# Poissons Ratio (y) = 0.46573 -0.10033
# Poissons Ratio (z) = 0.66051 -0.12968
#
# Static dielectric constant tensor:
#      x y z
#    x 4.419590 0.000000 0.000000 
#    y 0.000000 2.486290 0.000000 
#    z 0.000000 0.000000 3.743800 
# 
# 
# High freq. dielectric constant tensor:
#      x y z
#    x 1.774340 0.000000 0.000000 
#    y 0.000000 1.679750 0.000000 
#    z 0.000000 0.000000 1.752780 
# 
# From -- ./inp_files/42682.got.cif
#   From: 2010.06.25/outbox.cif.g09.slc.cpg/sg52_22_cif.got.tgz:42682.got - 2010.06.26 19:32:48.
