data_PCOD8215634
_publ_section_title
;
Structure prediction by ZEFSAII (Michael W. Deem and Ramdas Pophale) SiO2 
 PCOD8215634
Probable space group: P N N A
;
_chemical_formula_sum "Si O2"
_cell_formula_units_Z 36
_cell_length_a 5.174291
_cell_length_b 19.637376
_cell_length_c 14.436569
_cell_angle_alpha 90.000000
_cell_angle_beta 90.000000
_cell_angle_gamma 90.000000
_cell_volume 1466.892527
_symmetry_space_group_name_H-M "P N N A"
_symmetry_group_IT_number 52
_symmetry_cell_setting 'orthorhombic'
loop_
_space_group_symop_operation_xyz
x,y,z
1/2-x,-y,z
x,1/2-y,1/2-z
1/2-x,1/2+y,1/2-z
-x,-y,-z
1/2+x,y,-z
-x,1/2+y,1/2+z
1/2+x,1/2-y,1/2+z
loop_
_atom_site_type_symbol
_atom_site_label
_atom_site_fract_x
_atom_site_fract_y
_atom_site_fract_z
Si Si1 0.726821 0.577247 0.042752
Si Si2 0.459966 0.750000 0.750000
Si Si3 0.698278 0.574015 0.635504
Si Si4 0.847178 0.285272 0.555641
Si Si5 0.210759 0.606098 0.747411
O O1 0.750000 0.500000 0.006313
O O2 0.670429 0.577673 0.150727
O O3 0.493839 0.614478 0.986665
O O4 0.639992 0.747122 0.658452
O O5 0.273440 0.685647 0.750227
O O6 0.750000 0.500000 0.588914
O O7 0.642813 0.631761 0.559017
O O8 0.447317 0.565005 0.701010
O O9 0.943654 0.597988 0.694178
O O10 0.587002 0.260172 0.506443
#
# Coordination Sequence:
#
# PCOD8215634 Si02
#       5
#     8   4   8   8   8
#     4  10  20  34  55  87 123 159 209 271 329 387
#     4  10  26  46  68  96 136 178 226 276 328 396
#     4  11  23  41  67  97 130 172 221 275 338 404
#     4  11  25  44  69 101 135 176 226 279 334 400
#     4  11  23  40  64  92 128 178 225 273 335 402
#
# _framework density 24.541675000000001
#
# number of rings (size 3 to 8) (size 9 to 14) (size 15 to 20)
#    0.000    1.333    0.000    6.000    0.000   12.444 
#    0.000    0.000    0.000    0.000    0.000    0.000 
#    0.000    0.000    0.000    0.000    0.000    0.000 
#
# Total GULP energy -446477.333507 kJ/mol
# GULP energy per Si atom -12402.148153 kJ/mol
# Density = 2.448582 g / cm^3
# Si number density = 24.541675 Si / 1000 Ang^3
#
#
#
# Elastic Constant Matrix: (Units=GPa)
#
#
# Indices 1 2 3 4 5 6 
#
# 1 190.9260 -24.9572 57.4772 0.0000 0.0000 0.0000
# 2 -24.9572 -26.7584 -0.7689 0.0000 0.0000 0.0000
# 3 57.4772 -0.7689 113.6276 0.0000 0.0000 0.0000
# 4 0.0000 0.0000 0.0000 26.2740 0.0000 0.0000
# 5 0.0000 0.0000 0.0000 0.0000 35.2898 0.0000
# 6 0.0000 0.0000 0.0000 0.0000 0.0000 -18.0724
#
#
#
# Elastic Compliance Matrix: (Units=1/GPa)
#
#
# Indices 1 2 3 4 5 6 
#
# 1 0.005423 -0.004978 -0.002777 0.000000 0.000000 0.000000
# 2 -0.004978 -0.032794 0.002296 0.000000 0.000000 0.000000
# 3 -0.002777 0.002296 0.010221 0.000000 0.000000 0.000000
# 4 0.000000 0.000000 0.000000 0.038060 0.000000 0.000000
# 5 0.000000 0.000000 0.000000 0.000000 0.028337 0.000000
# 6 0.000000 0.000000 0.000000 0.000000 0.000000 -0.055333
#
#
# Mechanical properties :
#
#
# Convention : Reuss Voigt Hill
#
# Bulk Modulus (GPa) = -35.62766 37.92195 1.14714
# Shear Modulus (GPa) = -1104.84972 25.10123 -539.87425
#
# Velocity S-wave (km/s) = -21.24078 3.20159 -14.84790
# Velocity P-wave (km/s) = 24.82155 5.39931 17.13121
#
# Compressibility (1/GPa) = -0.02806808
#
# Stress axis : x y z
#
# Youngs Moduli (GPa) = 184.40487 -30.49294 97.83957
#
# Poissons Ratio (x) = -0.15179 0.27168
# Poissons Ratio (y) = 0.91797 -0.22466
# Poissons Ratio (z) = 0.51205 0.07002
#
# Static dielectric constant tensor:
#      x y z
#    x 4.977190 0.000000 0.000000 
#    y 0.000000 4.406740 0.000000 
#    z 0.000000 0.000000 4.262020 
# 
# 
# High freq. dielectric constant tensor:
#      x y z
#    x 1.995310 0.000000 0.000000 
#    y 0.000000 1.977280 0.000000 
#    z 0.000000 0.000000 1.964600 
# 
# From -- ./inp_files/23560.got.cif
#   From: 2010.06.25/outbox.cif.g09.slc.cpg/sg52_12_cif.got.tgz:23560.got - 2010.06.26 19:32:48.
