data_PCOD8215744
_publ_section_title
;
Structure prediction by ZEFSAII (Michael W. Deem and Ramdas Pophale) SiO2 
 PCOD8215744
Probable space group: P N N A
;
_chemical_formula_sum "Si O2"
_cell_formula_units_Z 48
_cell_length_a 8.740431
_cell_length_b 15.054789
_cell_length_c 17.504522
_cell_angle_alpha 90.000000
_cell_angle_beta 90.000000
_cell_angle_gamma 90.000000
_cell_volume 2303.338557
_symmetry_space_group_name_H-M "P N N A"
_symmetry_group_IT_number 52
_symmetry_cell_setting 'orthorhombic'
loop_
_space_group_symop_operation_xyz
x,y,z
1/2-x,-y,z
x,1/2-y,1/2-z
1/2-x,1/2+y,1/2-z
-x,-y,-z
1/2+x,y,-z
-x,1/2+y,1/2+z
1/2+x,1/2-y,1/2+z
loop_
_atom_site_type_symbol
_atom_site_label
_atom_site_fract_x
_atom_site_fract_y
_atom_site_fract_z
Si Si1 0.847186 0.149283 0.247470
Si Si2 0.597274 0.036122 0.829694
Si Si3 0.651731 0.414925 0.389395
Si Si4 0.274987 0.602657 0.911548
Si Si5 0.807164 0.680404 0.547146
Si Si6 0.040471 0.797322 0.485268
O O1 0.907298 0.250000 0.250000
O O2 0.720749 0.138058 0.182102
O O3 0.767347 0.123136 0.325246
O O4 0.990533 0.084088 0.232208
O O5 0.652341 0.103028 0.895183
O O6 0.750000 0.000000 0.787608
O O7 0.516913 0.951271 0.869475
O O8 0.750000 0.500000 0.411989
O O9 0.660649 0.348605 0.459711
O O10 0.250000 0.500000 0.926976
O O11 0.447070 0.639908 0.926206
O O12 0.167207 0.646793 0.972885
O O13 0.634314 0.717848 0.559055
O O14 0.932509 0.759000 0.553328
#
# Coordination Sequence:
#
# PCOD8215744 Si02
#       6
#     8   8   8   8   8   8
#     4  11  23  42  62  83 116 159 200 245 300 358
#     4  11  22  36  57  91 125 157 194 239 294 356
#     4  10  20  36  60  90 121 162 197 228 290 361
#     4  11  22  42  63  85 116 153 201 255 300 352
#     4  11  19  36  60  92 129 156 190 239 286 351
#     4  10  22  36  61  91 114 155 201 242 297 354
#
# _framework density 20.839314999999999
#
# number of rings (size 3 to 8) (size 9 to 14) (size 15 to 20)
#    0.000    1.333    0.000    9.000    0.000    0.000 
#    0.000   11.667    0.000    0.000    0.000    0.000 
#    0.000    0.000    0.000    0.000    0.000    0.000 
#
# Total GULP energy -595079.527343 kJ/mol
# GULP energy per Si atom -12397.490153 kJ/mol
# Density = 2.079188 g / cm^3
# Si number density = 20.839315 Si / 1000 Ang^3
#
#
#
# Elastic Constant Matrix: (Units=GPa)
#
#
# Indices 1 2 3 4 5 6 
#
# 1 113.0138 35.4433 23.8686 0.0000 0.0000 0.0000
# 2 35.4433 101.8837 19.9715 0.0000 0.0000 0.0000
# 3 23.8686 19.9715 89.0424 0.0000 0.0000 0.0000
# 4 0.0000 0.0000 0.0000 30.7721 0.0000 0.0000
# 5 0.0000 0.0000 0.0000 0.0000 -40.3833 0.0000
# 6 0.0000 0.0000 0.0000 0.0000 0.0000 33.9188
#
#
#
# Elastic Compliance Matrix: (Units=1/GPa)
#
#
# Indices 1 2 3 4 5 6 
#
# 1 0.010275 -0.003174 -0.002042 0.000000 0.000000 0.000000
# 2 -0.003174 0.011247 -0.001672 0.000000 0.000000 0.000000
# 3 -0.002042 -0.001672 0.012153 0.000000 0.000000 0.000000
# 4 0.000000 0.000000 0.000000 0.032497 0.000000 0.000000
# 5 0.000000 0.000000 0.000000 0.000000 -0.024763 0.000000
# 6 0.000000 0.000000 0.000000 0.000000 0.000000 0.029482
#
#
# Mechanical properties :
#
#
# Convention : Reuss Voigt Hill
#
# Bulk Modulus (GPa) = 50.25470 51.38963 50.82216
# Shear Modulus (GPa) = 54.76358 19.83863 37.30110
#
# Velocity S-wave (km/s) = 5.13186 3.08877 4.23536
# Velocity P-wave (km/s) = 7.69950 6.11834 6.95401
#
# Compressibility (1/GPa) = 0.01989864
#
# Stress axis : x y z
#
# Youngs Moduli (GPa) = 97.32039 88.91213 82.28384
#
# Poissons Ratio (x) = 0.28223 0.16806
# Poissons Ratio (y) = 0.30892 0.13756
# Poissons Ratio (z) = 0.19877 0.14864
#
# Static dielectric constant tensor:
#      x y z
#    x 4.516390 0.000000 0.000000 
#    y 0.000000 3.826100 0.000000 
#    z 0.000000 0.000000 3.495100 
# 
# 
# High freq. dielectric constant tensor:
#      x y z
#    x 1.831870 0.000000 0.000000 
#    y 0.000000 1.834280 0.000000 
#    z 0.000000 0.000000 1.790040 
# 
# From -- ./inp_files/31204.got.cif
#   From: 2010.06.25/outbox.cif.g09.slc.cpg/sg52_16_cif.got.tgz:31204.got - 2010.06.26 19:32:48.
