data_PCOD8215472
_publ_section_title
;
Structure prediction by ZEFSAII (Michael W. Deem and Ramdas Pophale) SiO2 
 PCOD8215472
Probable space group: P N N A
;
_chemical_formula_sum "Si O2"
_cell_formula_units_Z 56
_cell_length_a 15.372361
_cell_length_b 9.739116
_cell_length_c 18.908503
_cell_angle_alpha 90.000000
_cell_angle_beta 90.000000
_cell_angle_gamma 90.000000
_cell_volume 2830.852623
_symmetry_space_group_name_H-M "P N N A"
_symmetry_group_IT_number 52
_symmetry_cell_setting 'orthorhombic'
loop_
_space_group_symop_operation_xyz
x,y,z
1/2-x,-y,z
x,1/2-y,1/2-z
1/2-x,1/2+y,1/2-z
-x,-y,-z
1/2+x,y,-z
-x,1/2+y,1/2+z
1/2+x,1/2-y,1/2+z
loop_
_atom_site_type_symbol
_atom_site_label
_atom_site_fract_x
_atom_site_fract_y
_atom_site_fract_z
Si Si1 0.536476 0.282332 0.402070
Si Si2 0.026859 0.688792 0.946711
Si Si3 0.066640 0.546434 0.134230
Si Si4 0.165999 0.090288 0.241799
Si Si5 0.311702 0.878194 0.978175
Si Si6 0.563760 0.058540 0.897555
Si Si7 0.803966 0.133881 0.518303
O O1 0.506556 0.220847 0.475978
O O2 0.504830 0.165525 0.345837
O O3 0.640520 0.310396 0.409237
O O4 0.488497 0.421516 0.383290
O O5 0.976583 0.555454 0.921358
O O6 0.005290 0.816059 0.894772
O O7 0.130005 0.661291 0.952945
O O8 0.092239 0.462438 0.204009
O O9 0.150138 0.615145 0.094924
O O10 0.188489 0.250000 0.250000
O O11 0.135655 0.070665 0.162273
O O12 0.250000 0.000000 0.256890
O O13 0.386705 0.945338 0.027271
O O14 0.260396 0.764216 0.023631
O O15 0.250000 0.000000 0.951144
O O16 0.750000 0.000000 0.498126
#
# Coordination Sequence:
#
# PCOD8215472 Si02
#       7
#     8   8   8   8   8   8   8
#     4  10  21  35  58  82 113 158 190 241 291 346
#     4  10  19  37  56  80 118 154 194 235 291 352
#     4  11  22  39  57  81 123 159 196 232 281 350
#     4  12  28  41  61  86 119 160 200 235 279 348
#     4  11  20  34  57  89 121 147 190 241 300 342
#     4  11  22  39  55  83 121 159 194 226 288 350
#     4  11  20  31  57  88 114 149 188 246 296 333
#
# _framework density 19.782025999999998
#
# number of rings (size 3 to 8) (size 9 to 14) (size 15 to 20)
#    0.000    1.143    1.429    9.429    4.000    0.000 
#    0.000    0.000    0.000    0.000    0.000   15.000 
#    0.000    0.000    0.000    0.000    0.000    0.000 
#
# Total GULP energy -694274.087894 kJ/mol
# GULP energy per Si atom -12397.751570 kJ/mol
# Density = 1.973700 g / cm^3
# Si number density = 19.782026 Si / 1000 Ang^3
#
#
#
# Elastic Constant Matrix: (Units=GPa)
#
#
# Indices 1 2 3 4 5 6 
#
# 1 86.9724 42.6011 18.9885 0.0000 0.0000 0.0000
# 2 42.6011 144.6371 13.6401 0.0000 0.0000 0.0000
# 3 18.9885 13.6401 34.7682 0.0000 0.0000 0.0000
# 4 0.0000 0.0000 0.0000 24.1647 0.0000 0.0000
# 5 0.0000 0.0000 0.0000 0.0000 32.9599 0.0000
# 6 0.0000 0.0000 0.0000 0.0000 0.0000 40.4448
#
#
#
# Elastic Compliance Matrix: (Units=1/GPa)
#
#
# Indices 1 2 3 4 5 6 
#
# 1 0.014764 -0.003726 -0.006602 0.000000 0.000000 0.000000
# 2 -0.003726 0.008120 -0.001151 0.000000 0.000000 0.000000
# 3 -0.006602 -0.001151 0.032819 0.000000 0.000000 0.000000
# 4 0.000000 0.000000 0.000000 0.041383 0.000000 0.000000
# 5 0.000000 0.000000 0.000000 0.000000 0.030340 0.000000
# 6 0.000000 0.000000 0.000000 0.000000 0.000000 0.024725
#
#
# Mechanical properties :
#
#
# Convention : Reuss Voigt Hill
#
# Bulk Modulus (GPa) = 30.53777 46.31525 38.42651
# Shear Modulus (GPa) = 26.87845 32.25709 29.56777
#
# Velocity S-wave (km/s) = 3.69010 4.04248 3.87030
# Velocity P-wave (km/s) = 5.79883 6.72700 6.28008
#
# Compressibility (1/GPa) = 0.03274633
#
# Stress axis : x y z
#
# Youngs Moduli (GPa) = 67.73069 123.15523 30.47033
#
# Poissons Ratio (x) = 0.45889 0.20116
# Poissons Ratio (y) = 0.25237 0.03506
# Poissons Ratio (z) = 0.44714 0.14170
#
# Static dielectric constant tensor:
#      x y z
#    x 4.145570 0.000000 0.000000 
#    y 0.000000 4.190460 0.000000 
#    z 0.000000 0.000000 3.224980 
# 
# 
# High freq. dielectric constant tensor:
#      x y z
#    x 1.771950 0.000000 0.000000 
#    y 0.000000 1.803870 0.000000 
#    z 0.000000 0.000000 1.717020 
# 
# From -- ./inp_files/37351.got.cif
#   From: 2010.06.25/outbox.cif.g09.slc.cpg/sg52_19_cif.got.tgz:37351.got - 2010.06.26 19:32:48.
