data_PCOD8215867
_publ_section_title
;
Structure prediction by ZEFSAII (Michael W. Deem and Ramdas Pophale) SiO2 
 PCOD8215867
Probable space group: P N N A
;
_chemical_formula_sum "Si O2"
_cell_formula_units_Z 48
_cell_length_a 5.440715
_cell_length_b 14.057909
_cell_length_c 29.750232
_cell_angle_alpha 90.000000
_cell_angle_beta 90.000000
_cell_angle_gamma 90.000000
_cell_volume 2275.448766
_symmetry_space_group_name_H-M "P N N A"
_symmetry_group_IT_number 52
_symmetry_cell_setting 'orthorhombic'
loop_
_space_group_symop_operation_xyz
x,y,z
1/2-x,-y,z
x,1/2-y,1/2-z
1/2-x,1/2+y,1/2-z
-x,-y,-z
1/2+x,y,-z
-x,1/2+y,1/2+z
1/2+x,1/2-y,1/2+z
loop_
_atom_site_type_symbol
_atom_site_label
_atom_site_fract_x
_atom_site_fract_y
_atom_site_fract_z
Si Si1 0.527066 0.671745 0.321808
Si Si2 0.418335 0.644615 0.610308
Si Si3 0.491972 0.056107 0.407792
Si Si4 0.857562 0.188802 0.668421
Si Si5 0.646128 0.250000 0.250000
Si Si6 0.750000 0.500000 0.651585
Si Si7 0.458299 0.766315 0.528021
O O1 0.642786 0.647673 0.370489
O O2 0.425763 0.781165 0.323009
O O3 0.707065 0.671944 0.279201
O O4 0.336659 0.584940 0.314999
O O5 0.562217 0.723403 0.638070
O O6 0.536922 0.541141 0.618893
O O7 0.428863 0.670821 0.557738
O O8 0.403941 0.091831 0.358495
O O9 0.556447 0.140309 0.441503
O O10 0.250000 0.000000 0.426641
O O11 0.750000 0.000000 0.402879
O O12 0.986654 0.184460 0.716720
O O13 0.725756 0.766597 0.505120
#
# Coordination Sequence:
#
# PCOD8215867 Si02
#       7
#     8   8   8   8   4   4   8
#     4  10  20  38  67  88 125 170 216 266 326 389
#     4   9  21  38  65  88 126 165 212 255 324 389
#     4  11  25  42  67  95 133 174 217 271 328 391
#     4   9  21  38  62  88 122 174 215 262 319 392
#     4  10  20  38  62  90 124 168 214 266 318 380
#     4  10  20  38  64  98 118 170 214 266 318 402
#     4  11  25  42  68  99 130 170 216 269 330 394
#
# _framework density 21.094738
#
# number of rings (size 3 to 8) (size 9 to 14) (size 15 to 20)
#    0.000    2.000    0.000    2.000   14.000    2.000 
#    0.000    7.500    7.333    0.000    0.000    0.000 
#    0.000    0.000    0.000    0.000    0.000    0.000 
#
# Total GULP energy -594654.642719 kJ/mol
# GULP energy per Si atom -12388.638390 kJ/mol
# Density = 2.104673 g / cm^3
# Si number density = 21.094738 Si / 1000 Ang^3
#
#
#
# Elastic Constant Matrix: (Units=GPa)
#
#
# Indices 1 2 3 4 5 6 
#
# 1 126.4905 38.4995 36.2467 0.0000 0.0000 0.0000
# 2 38.4995 78.4232 33.1657 0.0000 0.0000 0.0000
# 3 36.2467 33.1657 111.0134 0.0000 0.0000 0.0000
# 4 0.0000 0.0000 0.0000 21.1510 0.0000 0.0000
# 5 0.0000 0.0000 0.0000 0.0000 27.3007 0.0000
# 6 0.0000 0.0000 0.0000 0.0000 0.0000 31.1585
#
#
#
# Elastic Compliance Matrix: (Units=1/GPa)
#
#
# Indices 1 2 3 4 5 6 
#
# 1 0.009664 -0.003903 -0.001989 0.000000 0.000000 0.000000
# 2 -0.003903 0.016172 -0.003557 0.000000 0.000000 0.000000
# 3 -0.001989 -0.003557 0.010720 0.000000 0.000000 0.000000
# 4 0.000000 0.000000 0.000000 0.047279 0.000000 0.000000
# 5 0.000000 0.000000 0.000000 0.000000 0.036629 0.000000
# 6 0.000000 0.000000 0.000000 0.000000 0.000000 0.032094
#
#
# Mechanical properties :
#
#
# Convention : Reuss Voigt Hill
#
# Bulk Modulus (GPa) = 56.63432 59.08341 57.85887
# Shear Modulus (GPa) = 28.19417 29.78970 28.99194
#
# Velocity S-wave (km/s) = 3.65985 3.76198 3.71127
# Velocity P-wave (km/s) = 6.69068 6.85124 6.77144
#
# Compressibility (1/GPa) = 0.01765714
#
# Stress axis : x y z
#
# Youngs Moduli (GPa) = 103.48048 61.83682 93.28266
#
# Poissons Ratio (x) = 0.24134 0.18556
# Poissons Ratio (y) = 0.40386 0.33181
# Poissons Ratio (z) = 0.20585 0.21996
#
# Static dielectric constant tensor:
#      x y z
#    x 4.348520 0.000000 0.000000 
#    y 0.000000 3.807950 0.000000 
#    z 0.000000 0.000000 3.908030 
# 
# 
# High freq. dielectric constant tensor:
#      x y z
#    x 1.844350 0.000000 0.000000 
#    y 0.000000 1.812330 0.000000 
#    z 0.000000 0.000000 1.814880 
# 
# From -- ./inp_files/41716.got.cif
#   From: 2010.06.25/outbox.cif.g09.slc.cpg/sg52_21_cif.got.tgz:41716.got - 2010.06.26 19:32:48.
