data_PCOD8215855
_publ_section_title
;
Structure prediction by ZEFSAII (Michael W. Deem and Ramdas Pophale) SiO2 
 PCOD8215855
Probable space group: P N N A
;
_chemical_formula_sum "Si O2"
_cell_formula_units_Z 56
_cell_length_a 9.574217
_cell_length_b 15.053856
_cell_length_c 18.894815
_cell_angle_alpha 90.000000
_cell_angle_beta 90.000000
_cell_angle_gamma 90.000000
_cell_volume 2723.288600
_symmetry_space_group_name_H-M "P N N A"
_symmetry_group_IT_number 52
_symmetry_cell_setting 'orthorhombic'
loop_
_space_group_symop_operation_xyz
x,y,z
1/2-x,-y,z
x,1/2-y,1/2-z
1/2-x,1/2+y,1/2-z
-x,-y,-z
1/2+x,y,-z
-x,1/2+y,1/2+z
1/2+x,1/2-y,1/2+z
loop_
_atom_site_type_symbol
_atom_site_label
_atom_site_fract_x
_atom_site_fract_y
_atom_site_fract_z
Si Si1 0.965476 0.383332 0.322854
Si Si2 0.121888 0.064824 0.979689
Si Si3 0.855845 0.272962 0.084955
Si Si4 0.547277 0.089358 0.169507
Si Si5 0.768647 0.308737 0.682950
Si Si6 0.739355 0.897739 0.293476
Si Si7 0.658900 0.254276 0.545995
O O1 0.879923 0.322612 0.378452
O O2 0.903273 0.371831 0.244821
O O3 0.941696 0.484441 0.344204
O O4 0.124710 0.360435 0.310252
O O5 0.106251 0.122431 0.906429
O O6 0.250000 0.000000 0.978479
O O7 0.127424 0.139607 0.040873
O O8 0.000000 0.000000 0.000000
O O9 0.770646 0.338619 0.136627
O O10 0.012559 0.300766 0.056986
O O11 0.750355 0.275378 0.019769
O O12 0.388691 0.118422 0.176788
O O13 0.634330 0.123367 0.237837
O O14 0.803805 0.250000 0.750000
O O15 0.757312 0.243351 0.615170
O O16 0.750000 0.000000 0.317166
#
# Coordination Sequence:
#
# PCOD8215855 Si02
#       7
#     8   8   8   8   8   8   8
#     4  10  20  38  61  86 119 157 194 238 299 366
#     4  12  22  36  57  88 126 158 186 233 299 370
#     4  11  22  39  61  86 118 155 194 246 298 353
#     4  11  22  36  58  90 122 156 199 246 298 365
#     4  11  23  38  56  84 119 158 197 245 300 359
#     4  10  22  40  62  86 114 154 205 249 292 348
#     4  11  23  37  58  86 118 156 201 243 298 367
#
# _framework density 20.563372000000001
#
# number of rings (size 3 to 8) (size 9 to 14) (size 15 to 20)
#    0.000    1.143    0.000    9.857    0.000    3.429 
#    0.000    0.714    0.000    1.714    0.000    0.000 
#    0.000    0.000    0.000    0.000    0.000    0.000 
#
# Total GULP energy -693927.148409 kJ/mol
# GULP energy per Si atom -12391.556222 kJ/mol
# Density = 2.051657 g / cm^3
# Si number density = 20.563372 Si / 1000 Ang^3
#
#
#
# Elastic Constant Matrix: (Units=GPa)
#
#
# Indices 1 2 3 4 5 6 
#
# 1 133.9190 36.3623 47.7274 0.0000 0.0000 0.0000
# 2 36.3623 42.0743 43.1845 0.0000 0.0000 0.0000
# 3 47.7274 43.1845 115.3114 0.0000 0.0000 0.0000
# 4 0.0000 0.0000 0.0000 34.5717 0.0000 0.0000
# 5 0.0000 0.0000 0.0000 0.0000 31.3033 0.0000
# 6 0.0000 0.0000 0.0000 0.0000 0.0000 26.3847
#
#
#
# Elastic Compliance Matrix: (Units=1/GPa)
#
#
# Indices 1 2 3 4 5 6 
#
# 1 0.009904 -0.007069 -0.001452 0.000000 0.000000 0.000000
# 2 -0.007069 0.043654 -0.013422 0.000000 0.000000 0.000000
# 3 -0.001452 -0.013422 0.014300 0.000000 0.000000 0.000000
# 4 0.000000 0.000000 0.000000 0.028925 0.000000 0.000000
# 5 0.000000 0.000000 0.000000 0.000000 0.031946 0.000000
# 6 0.000000 0.000000 0.000000 0.000000 0.000000 0.037901
#
#
# Mechanical properties :
#
#
# Convention : Reuss Voigt Hill
#
# Bulk Modulus (GPa) = 41.71820 60.65034 51.18427
# Shear Modulus (GPa) = 22.88260 29.38731 26.13495
#
# Velocity S-wave (km/s) = 3.33946 3.78446 3.56890
# Velocity P-wave (km/s) = 5.93304 6.97528 6.47517
#
# Compressibility (1/GPa) = 0.02397036
#
# Stress axis : x y z
#
# Youngs Moduli (GPa) = 100.96794 22.90758 69.93104
#
# Poissons Ratio (x) = 0.16194 0.10153
# Poissons Ratio (y) = 0.71379 0.93864
# Poissons Ratio (z) = 0.14659 0.30747
#
# Static dielectric constant tensor:
#      x y z
#    x 3.990330 0.000000 0.000000 
#    y 0.000000 3.944420 0.000000 
#    z 0.000000 0.000000 4.104570 
# 
# 
# High freq. dielectric constant tensor:
#      x y z
#    x 1.823810 0.000000 0.000000 
#    y 0.000000 1.765900 0.000000 
#    z 0.000000 0.000000 1.821760 
# 
# From -- ./inp_files/36037.got.cif
#   From: 2010.06.25/outbox.cif.g09.slc.cpg/sg52_19_cif.got.tgz:36037.got - 2010.06.26 19:32:48.
