data_PCOD8215725
_publ_section_title
;
Structure prediction by ZEFSAII (Michael W. Deem and Ramdas Pophale) SiO2 
 PCOD8215725
Probable space group: P N N A
;
_chemical_formula_sum "Si O2"
_cell_formula_units_Z 40
_cell_length_a 8.089909
_cell_length_b 18.560063
_cell_length_c 14.549492
_cell_angle_alpha 90.000000
_cell_angle_beta 90.000000
_cell_angle_gamma 90.000000
_cell_volume 2184.594885
_symmetry_space_group_name_H-M "P N N A"
_symmetry_group_IT_number 52
_symmetry_cell_setting 'orthorhombic'
loop_
_space_group_symop_operation_xyz
x,y,z
1/2-x,-y,z
x,1/2-y,1/2-z
1/2-x,1/2+y,1/2-z
-x,-y,-z
1/2+x,y,-z
-x,1/2+y,1/2+z
1/2+x,1/2-y,1/2+z
loop_
_atom_site_type_symbol
_atom_site_label
_atom_site_fract_x
_atom_site_fract_y
_atom_site_fract_z
Si Si1 0.822434 0.152393 0.220900
Si Si2 0.812717 0.766160 0.395109
Si Si3 0.382015 0.750000 0.250000
Si Si4 0.750000 0.500000 0.221069
Si Si5 0.160237 0.695466 0.085026
Si Si6 0.567111 0.969264 0.595710
O O1 0.724169 0.180866 0.310155
O O2 0.756539 0.186868 0.126208
O O3 0.793911 0.067380 0.213753
O O4 0.011900 0.178517 0.227608
O O5 0.005205 0.751861 0.409864
O O6 0.740708 0.802456 0.485617
O O7 0.280831 0.724699 0.162390
O O8 0.580296 0.489301 0.164949
O O9 0.088967 0.615883 0.098517
O O10 0.750000 0.000000 0.620788
O O11 0.500000 0.000000 0.500000
#
# Coordination Sequence:
#
# PCOD8215725 Si02
#       6
#     8   8   4   4   8   8
#     4  10  21  39  57  86 120 158 198 251 302 369
#     4  10  20  36  58  83 117 155 203 244 301 355
#     4  10  22  38  62  88 120 156 216 250 310 368
#     4  12  22  40  60  88 130 160 200 258 316 376
#     4  12  21  37  61  87 120 160 202 256 299 368
#     4  12  23  36  57  93 132 163 198 246 324 386
#
# _framework density 18.310033000000001
#
# number of rings (size 3 to 8) (size 9 to 14) (size 15 to 20)
#    0.000    1.200    3.000    7.200    0.000    0.000 
#    0.000    0.000    0.000    4.800    0.000    0.000 
#    0.000    0.000    0.000    0.000    0.000    0.000 
#
# Total GULP energy -495627.521949 kJ/mol
# GULP energy per Si atom -12390.688049 kJ/mol
# Density = 1.826836 g / cm^3
# Si number density = 18.310033 Si / 1000 Ang^3
#
#
#
# Elastic Constant Matrix: (Units=GPa)
#
#
# Indices 1 2 3 4 5 6 
#
# 1 147.4715 32.5584 24.9436 0.0000 0.0000 0.0000
# 2 32.5584 118.1859 19.2439 0.0000 0.0000 0.0000
# 3 24.9436 19.2439 45.0492 0.0000 0.0000 0.0000
# 4 0.0000 0.0000 0.0000 21.1778 0.0000 0.0000
# 5 0.0000 0.0000 0.0000 0.0000 26.8051 0.0000
# 6 0.0000 0.0000 0.0000 0.0000 0.0000 29.1626
#
#
#
# Elastic Compliance Matrix: (Units=1/GPa)
#
#
# Indices 1 2 3 4 5 6 
#
# 1 0.007734 -0.001540 -0.003624 0.000000 0.000000 0.000000
# 2 -0.001540 0.009401 -0.003163 0.000000 0.000000 0.000000
# 3 -0.003624 -0.003163 0.025556 0.000000 0.000000 0.000000
# 4 0.000000 0.000000 0.000000 0.047219 0.000000 0.000000
# 5 0.000000 0.000000 0.000000 0.000000 0.037306 0.000000
# 6 0.000000 0.000000 0.000000 0.000000 0.000000 0.034290
#
#
# Mechanical properties :
#
#
# Convention : Reuss Voigt Hill
#
# Bulk Modulus (GPa) = 38.40922 51.57759 44.99341
# Shear Modulus (GPa) = 26.76087 31.02648 28.89368
#
# Velocity S-wave (km/s) = 3.82716 4.12091 3.97674
# Velocity P-wave (km/s) = 6.36806 7.13251 6.76110
#
# Compressibility (1/GPa) = 0.02603542
#
# Stress axis : x y z
#
# Youngs Moduli (GPa) = 129.29758 106.37608 39.13018
#
# Poissons Ratio (x) = 0.16387 0.14182
# Poissons Ratio (y) = 0.19918 0.12376
# Poissons Ratio (z) = 0.46861 0.33644
#
# Static dielectric constant tensor:
#      x y z
#    x 3.846020 0.000000 0.000000 
#    y 0.000000 3.533440 0.000000 
#    z 0.000000 0.000000 3.284600 
# 
# 
# High freq. dielectric constant tensor:
#      x y z
#    x 1.738850 0.000000 0.000000 
#    y 0.000000 1.702380 0.000000 
#    z 0.000000 0.000000 1.688140 
# 
# From -- ./inp_files/24593.got.cif
#   From: 2010.06.25/outbox.cif.g09.slc.cpg/sg52_13_cif.got.tgz:24593.got - 2010.06.26 19:32:48.
