data_PCOD8215446
_publ_section_title
;
Structure prediction by ZEFSAII (Michael W. Deem and Ramdas Pophale) SiO2 
 PCOD8215446
Probable space group: P N N A
;
_chemical_formula_sum "Si O2"
_cell_formula_units_Z 44
_cell_length_a 13.667294
_cell_length_b 8.898265
_cell_length_c 18.410512
_cell_angle_alpha 90.000000
_cell_angle_beta 90.000000
_cell_angle_gamma 90.000000
_cell_volume 2238.998170
_symmetry_space_group_name_H-M "P N N A"
_symmetry_group_IT_number 52
_symmetry_cell_setting 'orthorhombic'
loop_
_space_group_symop_operation_xyz
x,y,z
1/2-x,-y,z
x,1/2-y,1/2-z
1/2-x,1/2+y,1/2-z
-x,-y,-z
1/2+x,y,-z
-x,1/2+y,1/2+z
1/2+x,1/2-y,1/2+z
loop_
_atom_site_type_symbol
_atom_site_label
_atom_site_fract_x
_atom_site_fract_y
_atom_site_fract_z
Si Si1 0.300356 0.148655 0.004113
Si Si2 0.032480 0.250000 0.750000
Si Si3 0.963410 0.243910 0.101701
Si Si4 0.634818 0.487320 0.156233
Si Si5 0.104446 0.208631 0.518833
Si Si6 0.469514 0.412602 0.388229
O O1 0.363021 0.115191 0.076610
O O2 0.250000 0.000000 0.974291
O O3 0.364047 0.212889 0.940078
O O4 0.211460 0.264905 0.015752
O O5 0.102136 0.379961 0.779286
O O6 0.965980 0.318395 0.686155
O O7 0.926411 0.356235 0.165470
O O8 0.013313 0.089120 0.129152
O O9 0.037663 0.335111 0.049641
O O10 0.750000 0.500000 0.165361
O O11 0.607929 0.424778 0.076603
O O12 0.055630 0.357359 0.556976
#
# Coordination Sequence:
#
# PCOD8215446 Si02
#       6
#     8   4   8   8   8   8
#     4  11  17  33  64  93 117 141 185 237 304 358
#     4  10  26  44  50  74 120 162 200 228 284 346
#     4  11  20  33  60  92 115 144 190 244 299 341
#     4  11  23  38  58  84 116 156 193 243 290 350
#     4  10  19  36  58  93 120 141 179 242 306 347
#     4  10  21  36  61  82 116 160 185 235 287 353
#
# _framework density 19.651648000000002
#
# number of rings (size 3 to 8) (size 9 to 14) (size 15 to 20)
#    0.000    1.455    5.455    1.636    0.000    2.182 
#    0.000    0.000    4.000    0.000    0.000    0.000 
#    0.000    0.000    0.000    0.000    0.000    0.000 
#
# Total GULP energy -545396.299616 kJ/mol
# GULP energy per Si atom -12395.370446 kJ/mol
# Density = 1.960692 g / cm^3
# Si number density = 19.651648 Si / 1000 Ang^3
#
#
#
# Elastic Constant Matrix: (Units=GPa)
#
#
# Indices 1 2 3 4 5 6 
#
# 1 115.6340 33.9545 36.8143 0.0000 0.0000 0.0000
# 2 33.9545 93.6952 32.1363 0.0000 0.0000 0.0000
# 3 36.8143 32.1363 59.8884 0.0000 0.0000 0.0000
# 4 0.0000 0.0000 0.0000 28.7037 0.0000 0.0000
# 5 0.0000 0.0000 0.0000 0.0000 8.7149 0.0000
# 6 0.0000 0.0000 0.0000 0.0000 0.0000 30.7500
#
#
#
# Elastic Compliance Matrix: (Units=1/GPa)
#
#
# Indices 1 2 3 4 5 6 
#
# 1 0.011066 -0.002055 -0.005700 0.000000 0.000000 0.000000
# 2 -0.002055 0.013462 -0.005960 0.000000 0.000000 0.000000
# 3 -0.005700 -0.005960 0.023400 0.000000 0.000000 0.000000
# 4 0.000000 0.000000 0.000000 0.034839 0.000000 0.000000
# 5 0.000000 0.000000 0.000000 0.000000 0.114746 0.000000
# 6 0.000000 0.000000 0.000000 0.000000 0.000000 0.032520
#
#
# Mechanical properties :
#
#
# Convention : Reuss Voigt Hill
#
# Bulk Modulus (GPa) = 48.78693 52.78086 50.78390
# Shear Modulus (GPa) = 18.91821 24.72122 21.81971
#
# Velocity S-wave (km/s) = 3.10607 3.55064 3.33577
# Velocity P-wave (km/s) = 6.14356 6.61256 6.38237
#
# Compressibility (1/GPa) = 0.02049729
#
# Stress axis : x y z
#
# Youngs Moduli (GPa) = 90.36627 74.28271 42.73572
#
# Poissons Ratio (x) = 0.15268 0.24357
# Poissons Ratio (y) = 0.18574 0.25472
# Poissons Ratio (z) = 0.51505 0.44275
#
# Static dielectric constant tensor:
#      x y z
#    x 3.744820 0.000000 0.000000 
#    y 0.000000 3.702000 0.000000 
#    z 0.000000 0.000000 3.333330 
# 
# 
# High freq. dielectric constant tensor:
#      x y z
#    x 1.770510 0.000000 0.000000 
#    y 0.000000 1.775460 0.000000 
#    z 0.000000 0.000000 1.731760 
# 
# From -- ./inp_files/32978.got.cif
#   From: 2010.06.25/outbox.cif.g09.slc.cpg/sg52_17_cif.got.tgz:32978.got - 2010.06.26 19:32:48.
