data_PCOD8215072
_publ_section_title
;
Structure prediction by ZEFSAII (Michael W. Deem and Ramdas Pophale) SiO2 
 PCOD8215072
Probable space group: P N N A
;
_chemical_formula_sum "Si O2"
_cell_formula_units_Z 48
_cell_length_a 9.145939
_cell_length_b 16.002281
_cell_length_c 18.408053
_cell_angle_alpha 90.000000
_cell_angle_beta 90.000000
_cell_angle_gamma 90.000000
_cell_volume 2694.126904
_symmetry_space_group_name_H-M "P N N A"
_symmetry_group_IT_number 52
_symmetry_cell_setting 'orthorhombic'
loop_
_space_group_symop_operation_xyz
x,y,z
1/2-x,-y,z
x,1/2-y,1/2-z
1/2-x,1/2+y,1/2-z
-x,-y,-z
1/2+x,y,-z
-x,1/2+y,1/2+z
1/2+x,1/2-y,1/2+z
loop_
_atom_site_type_symbol
_atom_site_label
_atom_site_fract_x
_atom_site_fract_y
_atom_site_fract_z
Si Si1 0.256806 0.750501 0.332397
Si Si2 0.903740 0.225841 0.330744
Si Si3 0.589713 0.661784 0.459179
Si Si4 0.793226 0.908589 0.924379
Si Si5 0.438989 0.175504 0.452173
Si Si6 0.251638 0.402474 0.923644
O O1 0.200158 0.750000 0.250000
O O2 0.421636 0.785176 0.337589
O O3 0.247657 0.656103 0.361978
O O4 0.152774 0.810566 0.378741
O O5 0.855078 0.250000 0.250000
O O6 0.846749 0.298506 0.384980
O O7 0.827032 0.139484 0.353289
O O8 0.716325 0.612109 0.499411
O O9 0.465250 0.595132 0.439714
O O10 0.524094 0.736941 0.508273
O O11 0.750000 0.000000 0.896274
O O12 0.343562 0.116583 0.504093
O O13 0.588050 0.130454 0.432416
O O14 0.250000 0.500000 0.908420
#
# Coordination Sequence:
#
# PCOD8215072 Si02
#       6
#     8   8   8   8   8   8
#     4   9  19  36  55  74 101 139 174 203 253 318
#     4   9  18  35  54  71 100 140 173 204 254 317
#     4   9  17  31  50  70  95 131 165 195 246 305
#     4  10  18  30  49  75  99 123 161 210 247 286
#     4  10  19  34  54  74 102 137 173 209 257 316
#     4  11  21  34  53  80 105 132 174 225 264 300
#
# _framework density 17.816531999999999
#
# number of rings (size 3 to 8) (size 9 to 14) (size 15 to 20)
#    0.000    2.333    0.000    6.000    0.000    0.667 
#    0.000    6.667    0.000    0.000    0.000    0.000 
#    0.000    0.000    0.000    0.000    0.000    0.000 
#
# Total GULP energy -595286.469413 kJ/mol
# GULP energy per Si atom -12401.801446 kJ/mol
# Density = 1.777598 g / cm^3
# Si number density = 17.816532 Si / 1000 Ang^3
#
#
#
# Elastic Constant Matrix: (Units=GPa)
#
#
# Indices 1 2 3 4 5 6 
#
# 1 80.7475 55.1414 47.9404 0.0000 0.0000 0.0000
# 2 55.1414 121.4010 51.5350 0.0000 0.0000 0.0000
# 3 47.9404 51.5350 145.0833 0.0000 0.0000 0.0000
# 4 0.0000 0.0000 0.0000 14.9205 0.0000 0.0000
# 5 0.0000 0.0000 0.0000 0.0000 26.9760 0.0000
# 6 0.0000 0.0000 0.0000 0.0000 0.0000 24.3473
#
#
#
# Elastic Compliance Matrix: (Units=1/GPa)
#
#
# Indices 1 2 3 4 5 6 
#
# 1 0.019679 -0.007275 -0.003918 0.000000 0.000000 0.000000
# 2 -0.007275 0.012389 -0.001997 0.000000 0.000000 0.000000
# 3 -0.003918 -0.001997 0.008897 0.000000 0.000000 0.000000
# 4 0.000000 0.000000 0.000000 0.067022 0.000000 0.000000
# 5 0.000000 0.000000 0.000000 0.000000 0.037070 0.000000
# 6 0.000000 0.000000 0.000000 0.000000 0.000000 0.041072
#
#
# Mechanical properties :
#
#
# Convention : Reuss Voigt Hill
#
# Bulk Modulus (GPa) = 68.56741 72.94058 70.75400
# Shear Modulus (GPa) = 23.00225 26.08977 24.54601
#
# Velocity S-wave (km/s) = 3.59703 3.83084 3.71578
# Velocity P-wave (km/s) = 7.47130 7.78433 7.62942
#
# Compressibility (1/GPa) = 0.01458419
#
# Stress axis : x y z
#
# Youngs Moduli (GPa) = 50.81684 80.71591 112.40160
#
# Poissons Ratio (x) = 0.58719 0.44043
# Poissons Ratio (y) = 0.36968 0.22445
# Poissons Ratio (z) = 0.19912 0.16118
#
# Static dielectric constant tensor:
#      x y z
#    x 3.278000 0.000000 0.000000 
#    y 0.000000 3.189830 0.000000 
#    z 0.000000 0.000000 3.402610 
# 
# 
# High freq. dielectric constant tensor:
#      x y z
#    x 1.692330 0.000000 0.000000 
#    y 0.000000 1.675860 0.000000 
#    z 0.000000 0.000000 1.686410 
# 
# From -- ./inp_files/31220.got.cif
#   From: 2010.06.25/outbox.cif.g09.slc.cpg/sg52_16_cif.got.tgz:31220.got - 2010.06.26 19:32:48.
