data_PCOD8215970
_publ_section_title
;
Structure prediction by ZEFSAII (Michael W. Deem and Ramdas Pophale) SiO2 
 PCOD8215970
Probable space group: P N N A
;
_chemical_formula_sum "Si O2"
_cell_formula_units_Z 56
_cell_length_a 14.628094
_cell_length_b 15.445973
_cell_length_c 11.776634
_cell_angle_alpha 90.000000
_cell_angle_beta 90.000000
_cell_angle_gamma 90.000000
_cell_volume 2660.873276
_symmetry_space_group_name_H-M "P N N A"
_symmetry_group_IT_number 52
_symmetry_cell_setting 'orthorhombic'
loop_
_space_group_symop_operation_xyz
x,y,z
1/2-x,-y,z
x,1/2-y,1/2-z
1/2-x,1/2+y,1/2-z
-x,-y,-z
1/2+x,y,-z
-x,1/2+y,1/2+z
1/2+x,1/2-y,1/2+z
loop_
_atom_site_type_symbol
_atom_site_label
_atom_site_fract_x
_atom_site_fract_y
_atom_site_fract_z
Si Si1 0.307353 0.861334 0.153096
Si Si2 0.864316 0.825592 0.609257
Si Si3 0.669504 0.653764 0.472775
Si Si4 0.899839 0.971161 0.026410
Si Si5 0.567574 0.795732 0.372769
Si Si6 0.751539 0.097828 0.410560
Si Si7 0.169823 0.162864 0.807513
O O1 0.310736 0.875743 0.288719
O O2 0.367308 0.777035 0.127328
O O3 0.204623 0.847007 0.103830
O O4 0.352104 0.942940 0.090611
O O5 0.810736 0.846057 0.495202
O O6 0.972788 0.847510 0.606109
O O7 0.652458 0.556234 0.428475
O O8 0.581615 0.716478 0.463079
O O9 0.747346 0.693386 0.389476
O O10 0.901448 0.893093 0.117809
O O11 0.000000 0.000000 0.000000
O O12 0.573889 0.750000 0.250000
O O13 0.645894 0.866342 0.396907
O O14 0.703804 0.098122 0.288753
O O15 0.750000 0.000000 0.456542
O O16 0.127268 0.250000 0.750000
#
# Coordination Sequence:
#
# PCOD8215970 Si02
#       7
#     8   8   8   8   8   8   8
#     4  10  20  40  63  90 128 170 215 264 329 399
#     4  11  24  41  66  93 130 177 218 264 331 419
#     4  11  20  39  66  95 125 166 223 281 332 389
#     4  11  24  37  64 101 132 168 225 287 338 399
#     4  12  22  41  70  95 121 173 226 267 326 399
#     4  12  24  40  64  95 134 168 215 275 334 393
#     4  11  20  39  66  92 126 167 222 276 327 387
#
# _framework density 21.045722999999999
#
# number of rings (size 3 to 8) (size 9 to 14) (size 15 to 20)
#    0.000    0.857    5.714    4.286    0.000    1.714 
#    0.000    1.429    3.143    0.000    0.000    0.000 
#    0.000    0.000    0.000    0.000    0.000    0.000 
#
# Total GULP energy -694142.635941 kJ/mol
# GULP energy per Si atom -12395.404213 kJ/mol
# Density = 2.099782 g / cm^3
# Si number density = 21.045723 Si / 1000 Ang^3
#
#
#
# Elastic Constant Matrix: (Units=GPa)
#
#
# Indices 1 2 3 4 5 6 
#
# 1 101.3224 18.9146 53.0952 0.0000 0.0000 0.0000
# 2 18.9146 93.9492 21.2321 0.0000 0.0000 0.0000
# 3 53.0952 21.2321 106.7145 0.0000 0.0000 0.0000
# 4 0.0000 0.0000 0.0000 33.7608 0.0000 0.0000
# 5 0.0000 0.0000 0.0000 0.0000 23.3732 0.0000
# 6 0.0000 0.0000 0.0000 0.0000 0.0000 28.1128
#
#
#
# Elastic Compliance Matrix: (Units=1/GPa)
#
#
# Indices 1 2 3 4 5 6 
#
# 1 0.013490 -0.001256 -0.006462 0.000000 0.000000 0.000000
# 2 -0.001256 0.011262 -0.001616 0.000000 0.000000 0.000000
# 3 -0.006462 -0.001616 0.012908 0.000000 0.000000 0.000000
# 4 0.000000 0.000000 0.000000 0.029620 0.000000 0.000000
# 5 0.000000 0.000000 0.000000 0.000000 0.042784 0.000000
# 6 0.000000 0.000000 0.000000 0.000000 0.000000 0.035571
#
#
# Mechanical properties :
#
#
# Convention : Reuss Voigt Hill
#
# Bulk Modulus (GPa) = 52.65289 54.27444 53.46366
# Shear Modulus (GPa) = 29.30264 30.96565 30.13414
#
# Velocity S-wave (km/s) = 3.73544 3.83998 3.78807
# Velocity P-wave (km/s) = 6.60889 6.74577 6.67768
#
# Compressibility (1/GPa) = 0.01899231
#
# Stress axis : x y z
#
# Youngs Moduli (GPa) = 74.12793 88.79381 77.47409
#
# Poissons Ratio (x) = 0.11148 0.50065
# Poissons Ratio (y) = 0.09307 0.12520
# Poissons Ratio (z) = 0.47903 0.14349
#
# Static dielectric constant tensor:
#      x y z
#    x 3.596270 0.000000 0.000000 
#    y 0.000000 3.589010 0.000000 
#    z 0.000000 0.000000 3.942850 
# 
# 
# High freq. dielectric constant tensor:
#      x y z
#    x 1.804700 0.000000 0.000000 
#    y 0.000000 1.829490 0.000000 
#    z 0.000000 0.000000 1.820020 
# 
# From -- ./inp_files/19612.got.cif
#   From: 2010.06.25/outbox.cif.g09.slc.cpg/sg52_10_cif.got.tgz:19612.got - 2010.06.26 19:32:48.
