data_PCOD8215908
_publ_section_title
;
Structure prediction by ZEFSAII (Michael W. Deem and Ramdas Pophale) SiO2 
 PCOD8215908
Probable space group: P N N A
;
_chemical_formula_sum "Si O2"
_cell_formula_units_Z 56
_cell_length_a 17.009892
_cell_length_b 25.162745
_cell_length_c 6.369894
_cell_angle_alpha 90.000000
_cell_angle_beta 90.000000
_cell_angle_gamma 90.000000
_cell_volume 2726.413842
_symmetry_space_group_name_H-M "P N N A"
_symmetry_group_IT_number 52
_symmetry_cell_setting 'orthorhombic'
loop_
_space_group_symop_operation_xyz
x,y,z
1/2-x,-y,z
x,1/2-y,1/2-z
1/2-x,1/2+y,1/2-z
-x,-y,-z
1/2+x,y,-z
-x,1/2+y,1/2+z
1/2+x,1/2-y,1/2+z
loop_
_atom_site_type_symbol
_atom_site_label
_atom_site_fract_x
_atom_site_fract_y
_atom_site_fract_z
Si Si1 0.515009 0.374380 0.380043
Si Si2 0.471994 0.963433 0.185567
Si Si3 0.266727 0.299612 0.372135
Si Si4 0.693581 0.639585 0.016142
Si Si5 0.913806 0.447107 0.935595
Si Si6 0.835643 0.814348 0.229937
Si Si7 0.407169 0.198182 0.843315
O O1 0.555401 0.409460 0.567663
O O2 0.465049 0.408605 0.215457
O O3 0.579973 0.341877 0.247430
O O4 0.461465 0.331109 0.492681
O O5 0.544109 0.952837 0.341211
O O6 0.404961 0.995182 0.320011
O O7 0.500000 0.000000 0.000000
O O8 0.229605 0.250000 0.250000
O O9 0.196369 0.328090 0.497253
O O10 0.330066 0.278163 0.540379
O O11 0.311738 0.339320 0.219952
O O12 0.779052 0.655452 0.104045
O O13 0.621115 0.659961 0.156626
O O14 0.673233 0.576790 0.984908
O O15 0.838435 0.750000 0.250000
O O16 0.451863 0.250000 0.750000
#
# Coordination Sequence:
#
# PCOD8215908 Si02
#       7
#     8   8   8   8   8   8   8
#     4  11  23  38  58  92 132 157 195 264 319 370
#     4   9  20  39  64  95 117 146 203 265 322 362
#     4  11  19  37  59  78 118 171 207 247 296 356
#     4  11  20  38  62  86 116 165 213 247 300 367
#     4  10  20  38  70  91 112 160 211 258 313 372
#     4  11  25  38  54  88 134 171 201 245 314 382
#     4  11  21  33  57  92 118 155 214 260 288 367
#
# _framework density 20.539802999999999
#
# number of rings (size 3 to 8) (size 9 to 14) (size 15 to 20)
#    0.000    1.429    5.714    0.857    0.000    3.429 
#    0.000    0.000    0.000   20.571    0.000    0.000 
#    0.000    0.000    0.000    0.000    0.000    0.000 
#
# Total GULP energy -693771.307712 kJ/mol
# GULP energy per Si atom -12388.773352 kJ/mol
# Density = 2.049305 g / cm^3
# Si number density = 20.539803 Si / 1000 Ang^3
#
#
#
# Elastic Constant Matrix: (Units=GPa)
#
#
# Indices 1 2 3 4 5 6 
#
# 1 66.8751 29.5522 17.6301 0.0000 0.0000 0.0000
# 2 29.5522 61.0837 20.9064 0.0000 0.0000 0.0000
# 3 17.6301 20.9064 101.0358 0.0000 0.0000 0.0000
# 4 0.0000 0.0000 0.0000 37.4688 0.0000 0.0000
# 5 0.0000 0.0000 0.0000 0.0000 22.0507 0.0000
# 6 0.0000 0.0000 0.0000 0.0000 0.0000 25.7473
#
#
#
# Elastic Compliance Matrix: (Units=1/GPa)
#
#
# Indices 1 2 3 4 5 6 
#
# 1 0.019240 -0.008781 -0.001540 0.000000 0.000000 0.000000
# 2 -0.008781 0.021626 -0.002943 0.000000 0.000000 0.000000
# 3 -0.001540 -0.002943 0.010775 0.000000 0.000000 0.000000
# 4 0.000000 0.000000 0.000000 0.026689 0.000000 0.000000
# 5 0.000000 0.000000 0.000000 0.000000 0.045350 0.000000
# 6 0.000000 0.000000 0.000000 0.000000 0.000000 0.038839
#
#
# Mechanical properties :
#
#
# Convention : Reuss Voigt Hill
#
# Bulk Modulus (GPa) = 39.81950 40.57469 40.19710
# Shear Modulus (GPa) = 25.32697 27.78040 26.55369
#
# Velocity S-wave (km/s) = 3.51532 3.68165 3.59944
# Velocity P-wave (km/s) = 5.99209 6.15384 6.07351
#
# Compressibility (1/GPa) = 0.02511332
#
# Stress axis : x y z
#
# Youngs Moduli (GPa) = 51.97615 46.23986 92.80608
#
# Poissons Ratio (x) = 0.40603 0.14294
# Poissons Ratio (y) = 0.45640 0.27310
# Poissons Ratio (z) = 0.08006 0.13607
#
# Static dielectric constant tensor:
#      x y z
#    x 3.246350 0.000000 0.000000 
#    y 0.000000 4.158350 0.000000 
#    z 0.000000 0.000000 4.176580 
# 
# 
# High freq. dielectric constant tensor:
#      x y z
#    x 1.757390 0.000000 0.000000 
#    y 0.000000 1.802830 0.000000 
#    z 0.000000 0.000000 1.830550 
# 
# From -- ./inp_files/2645.got.cif
#   From: 2010.06.25/outbox.cif.g09.slc.cpg/sg52_2_cif.got.tgz:2645.got - 2010.06.26 19:32:48.
