data_PCOD8215176
_publ_section_title
;
Structure prediction by ZEFSAII (Michael W. Deem and Ramdas Pophale) SiO2 
 PCOD8215176
Probable space group: P N N A
;
_chemical_formula_sum "Si O2"
_cell_formula_units_Z 56
_cell_length_a 16.757464
_cell_length_b 19.280925
_cell_length_c 9.110253
_cell_angle_alpha 90.000000
_cell_angle_beta 90.000000
_cell_angle_gamma 90.000000
_cell_volume 2943.517338
_symmetry_space_group_name_H-M "P N N A"
_symmetry_group_IT_number 52
_symmetry_cell_setting 'orthorhombic'
loop_
_space_group_symop_operation_xyz
x,y,z
1/2-x,-y,z
x,1/2-y,1/2-z
1/2-x,1/2+y,1/2-z
-x,-y,-z
1/2+x,y,-z
-x,1/2+y,1/2+z
1/2+x,1/2-y,1/2+z
loop_
_atom_site_type_symbol
_atom_site_label
_atom_site_fract_x
_atom_site_fract_y
_atom_site_fract_z
Si Si1 0.841419 0.921699 0.666689
Si Si2 0.414823 0.985814 0.812727
Si Si3 0.050596 0.902828 0.047106
Si Si4 0.660767 0.916927 0.709096
Si Si5 0.982131 0.827029 0.779650
Si Si6 0.785396 0.927655 0.359002
Si Si7 0.883996 0.106790 0.388903
O O1 0.754005 0.899294 0.722081
O O2 0.910118 0.879051 0.747431
O O3 0.843098 0.902971 0.491780
O O4 0.857280 0.001028 0.710199
O O5 0.487249 0.934033 0.837628
O O6 0.334798 0.938840 0.791682
O O7 0.421386 0.032564 0.664592
O O8 0.408464 0.037431 0.949351
O O9 0.121007 0.876534 0.153087
O O10 0.011661 0.842625 0.946740
O O11 0.620133 0.886689 0.563004
O O12 0.949833 0.750000 0.750000
O O13 0.057761 0.834176 0.671470
O O14 0.706741 0.881359 0.325434
O O15 0.750000 0.000000 0.424143
#
# Coordination Sequence:
#
# PCOD8215176 Si02
#       7
#     8   8   8   8   8   8   8
#     4  10  18  34  61  88 118 144 180 237 293 357
#     4   9  16  31  54  88 124 134 171 232 290 349
#     4  10  21  34  51  90 116 144 189 229 288 339
#     4  10  18  35  61  98 112 133 188 245 308 343
#     4  11  25  43  53  72 115 168 201 228 280 344
#     4   9  15  32  55  94 111 137 182 219 294 352
#     4   9  18  34  60  83 112 151 182 232 285 350
#
# _framework density 19.024858999999999
#
# number of rings (size 3 to 8) (size 9 to 14) (size 15 to 20)
#    0.000    2.286    4.286    2.571    2.000    1.143 
#   23.143    3.571    0.000    0.000    0.000    0.000 
#    0.000    0.000    0.000    0.000    0.000    0.000 
#
# Total GULP energy -693823.018391 kJ/mol
# GULP energy per Si atom -12389.696757 kJ/mol
# Density = 1.898156 g / cm^3
# Si number density = 19.024859 Si / 1000 Ang^3
#
#
#
# Elastic Constant Matrix: (Units=GPa)
#
#
# Indices 1 2 3 4 5 6 
#
# 1 96.4260 25.8253 59.0159 0.0000 0.0000 0.0000
# 2 25.8253 38.9174 13.3624 0.0000 0.0000 0.0000
# 3 59.0159 13.3624 91.0648 0.0000 0.0000 0.0000
# 4 0.0000 0.0000 0.0000 13.1773 0.0000 0.0000
# 5 0.0000 0.0000 0.0000 0.0000 44.0610 0.0000
# 6 0.0000 0.0000 0.0000 0.0000 0.0000 12.6706
#
#
#
# Elastic Compliance Matrix: (Units=1/GPa)
#
#
# Indices 1 2 3 4 5 6 
#
# 1 0.019918 -0.009251 -0.011550 0.000000 0.000000 0.000000
# 2 -0.009251 0.031356 0.001394 0.000000 0.000000 0.000000
# 3 -0.011550 0.001394 0.018262 0.000000 0.000000 0.000000
# 4 0.000000 0.000000 0.000000 0.075888 0.000000 0.000000
# 5 0.000000 0.000000 0.000000 0.000000 0.022696 0.000000
# 6 0.000000 0.000000 0.000000 0.000000 0.000000 0.078923
#
#
# Mechanical properties :
#
#
# Convention : Reuss Voigt Hill
#
# Bulk Modulus (GPa) = 32.55124 46.97951 39.76538
# Shear Modulus (GPa) = 16.88636 22.52875 19.70755
#
# Velocity S-wave (km/s) = 2.98248 3.44492 3.22201
# Velocity P-wave (km/s) = 5.38584 6.36951 5.89822
#
# Compressibility (1/GPa) = 0.03072080
#
# Stress axis : x y z
#
# Youngs Moduli (GPa) = 50.20674 31.89210 54.75844
#
# Poissons Ratio (x) = 0.29504 0.63248
# Poissons Ratio (y) = 0.46448 -0.07636
# Poissons Ratio (z) = 0.57991 -0.04447
#
# Static dielectric constant tensor:
#      x y z
#    x 3.811260 0.000000 0.000000 
#    y 0.000000 2.946860 0.000000 
#    z 0.000000 0.000000 3.505330 
# 
# 
# High freq. dielectric constant tensor:
#      x y z
#    x 1.755330 0.000000 0.000000 
#    y 0.000000 1.666550 0.000000 
#    z 0.000000 0.000000 1.740290 
# 
# From -- ./inp_files/12517.got.cif
#   From: 2010.06.25/outbox.cif.g09.slc.cpg/sg52_7_cif.got.tgz:12517.got - 2010.06.26 19:32:48.
