data_PCOD8215716
_publ_section_title
;
Structure prediction by ZEFSAII (Michael W. Deem and Ramdas Pophale) SiO2 
 PCOD8215716
Probable space group: P N N A
;
_chemical_formula_sum "Si O2"
_cell_formula_units_Z 36
_cell_length_a 8.737103
_cell_length_b 9.419623
_cell_length_c 16.461242
_cell_angle_alpha 90.000000
_cell_angle_beta 90.000000
_cell_angle_gamma 90.000000
_cell_volume 1354.763778
_symmetry_space_group_name_H-M "P N N A"
_symmetry_group_IT_number 52
_symmetry_cell_setting 'orthorhombic'
loop_
_space_group_symop_operation_xyz
x,y,z
1/2-x,-y,z
x,1/2-y,1/2-z
1/2-x,1/2+y,1/2-z
-x,-y,-z
1/2+x,y,-z
-x,1/2+y,1/2+z
1/2+x,1/2-y,1/2+z
loop_
_atom_site_type_symbol
_atom_site_label
_atom_site_fract_x
_atom_site_fract_y
_atom_site_fract_z
Si Si1 0.582219 0.513887 0.129938
Si Si2 0.911885 0.171831 0.076033
Si Si3 0.591873 0.096302 0.775450
Si Si4 0.065150 0.277088 0.582633
Si Si5 0.393572 0.250000 0.250000
O O1 0.750000 0.500000 0.169008
O O2 0.543055 0.665022 0.091595
O O3 0.468298 0.484357 0.207118
O O4 0.573802 0.391850 0.059925
O O5 0.730398 0.145743 0.084737
O O6 0.012461 0.068212 0.135643
O O7 0.961636 0.140698 0.982939
O O8 0.521577 0.250000 0.750000
O O9 0.778783 0.113973 0.771105
O O10 0.997812 0.262972 0.671905
#
# Coordination Sequence:
#
# PCOD8215716 Si02
#       5
#     8   8   8   8   4
#     4   9  19  33  58  85 115 148 186 235 292 338
#     4  10  20  36  57  81 121 149 189 236 292 341
#     4   8  18  37  53  75 116 157 183 227 287 350
#     4  11  22  34  57  90 112 154 194 239 286 345
#     4  10  22  34  54  80 116 152 196 230 292 344
#
# _framework density 26.572897999999999
#
# number of rings (size 3 to 8) (size 9 to 14) (size 15 to 20)
#    0.667    1.778    0.000    2.000    7.778    0.889 
#    0.000    0.000    0.000    1.333    0.000    0.000 
#    0.000    0.000    0.000    0.000    0.000    0.000 
#
# Total GULP energy -446078.549130 kJ/mol
# GULP energy per Si atom -12391.070809 kJ/mol
# Density = 2.651242 g / cm^3
# Si number density = 26.572898 Si / 1000 Ang^3
#
#
#
# Elastic Constant Matrix: (Units=GPa)
#
#
# Indices 1 2 3 4 5 6 
#
# 1 204.6099 16.0158 94.0807 0.0000 0.0000 0.0000
# 2 16.0158 73.3509 13.8333 0.0000 0.0000 0.0000
# 3 94.0807 13.8333 177.7128 0.0000 0.0000 0.0000
# 4 0.0000 0.0000 0.0000 29.5263 0.0000 0.0000
# 5 0.0000 0.0000 0.0000 0.0000 52.0162 0.0000
# 6 0.0000 0.0000 0.0000 0.0000 0.0000 16.5338
#
#
#
# Elastic Compliance Matrix: (Units=1/GPa)
#
#
# Indices 1 2 3 4 5 6 
#
# 1 0.006504 -0.000782 -0.003382 0.000000 0.000000 0.000000
# 2 -0.000782 0.013930 -0.000670 0.000000 0.000000 0.000000
# 3 -0.003382 -0.000670 0.007470 0.000000 0.000000 0.000000
# 4 0.000000 0.000000 0.000000 0.033868 0.000000 0.000000
# 5 0.000000 0.000000 0.000000 0.000000 0.019225 0.000000
# 6 0.000000 0.000000 0.000000 0.000000 0.000000 0.060482
#
#
# Mechanical properties :
#
#
# Convention : Reuss Voigt Hill
#
# Bulk Modulus (GPa) = 54.84107 78.17037 66.50572
# Shear Modulus (GPa) = 31.80131 41.73151 36.76641
#
# Velocity S-wave (km/s) = 3.46317 3.96719 3.72372
# Velocity P-wave (km/s) = 6.05592 7.10394 6.60077
#
# Compressibility (1/GPa) = 0.01823451
#
# Stress axis : x y z
#
# Youngs Moduli (GPa) = 153.75830 71.78601 133.87347
#
# Poissons Ratio (x) = 0.05615 0.45278
# Poissons Ratio (y) = 0.12027 0.08973
# Poissons Ratio (z) = 0.52004 0.04811
#
# Static dielectric constant tensor:
#      x y z
#    x 4.611760 0.000000 0.000000 
#    y 0.000000 5.989920 0.000000 
#    z 0.000000 0.000000 4.539250 
# 
# 
# High freq. dielectric constant tensor:
#      x y z
#    x 2.071760 0.000000 0.000000 
#    y 0.000000 2.125700 0.000000 
#    z 0.000000 0.000000 2.050530 
# 
# From -- ./inp_files/24342.got.cif
#   From: 2010.06.25/outbox.cif.g09.slc.cpg/sg52_13_cif.got.tgz:24342.got - 2010.06.26 19:32:48.
