data_PCOD8215529
_publ_section_title
;
Structure prediction by ZEFSAII (Michael W. Deem and Ramdas Pophale) SiO2 
 PCOD8215529
Probable space group: P N N A
;
_chemical_formula_sum "Si O2"
_cell_formula_units_Z 56
_cell_length_a 18.979003
_cell_length_b 9.136848
_cell_length_c 15.571465
_cell_angle_alpha 90.000000
_cell_angle_beta 90.000000
_cell_angle_gamma 90.000000
_cell_volume 2700.220739
_symmetry_space_group_name_H-M "P N N A"
_symmetry_group_IT_number 52
_symmetry_cell_setting 'orthorhombic'
loop_
_space_group_symop_operation_xyz
x,y,z
1/2-x,-y,z
x,1/2-y,1/2-z
1/2-x,1/2+y,1/2-z
-x,-y,-z
1/2+x,y,-z
-x,1/2+y,1/2+z
1/2+x,1/2-y,1/2+z
loop_
_atom_site_type_symbol
_atom_site_label
_atom_site_fract_x
_atom_site_fract_y
_atom_site_fract_z
Si Si1 0.051798 0.185981 0.371447
Si Si2 0.269576 0.666949 0.505559
Si Si3 0.569685 0.473877 0.169700
Si Si4 0.167883 0.727960 0.850015
Si Si5 0.457028 0.440534 0.648653
Si Si6 0.571742 0.292697 0.447790
Si Si7 0.715788 0.160489 0.664166
O O1 0.036926 0.211520 0.472315
O O2 0.131368 0.150829 0.345056
O O3 0.005192 0.046564 0.351043
O O4 0.024820 0.338705 0.326606
O O5 0.250000 0.500000 0.490229
O O6 0.232980 0.743634 0.587315
O O7 0.351048 0.661106 0.525217
O O8 0.252124 0.757747 0.419062
O O9 0.637684 0.564327 0.135937
O O10 0.572101 0.465699 0.272069
O O11 0.572751 0.312454 0.133702
O O12 0.189869 0.750000 0.750000
O O13 0.105473 0.833924 0.880035
O O14 0.472725 0.560508 0.575063
O O15 0.735770 0.250000 0.750000
O O16 0.750000 0.000000 0.670384
#
# Coordination Sequence:
#
# PCOD8215529 Si02
#       7
#     8   8   8   8   8   8   8
#     4  10  22  41  64  86 124 163 204 258 328 374
#     4  11  23  41  61  91 134 172 214 262 314 380
#     4  10  21  37  61  89 125 158 209 260 317 382
#     4   9  20  37  60  87 128 175 206 253 319 380
#     4  10  19  39  61  88 121 166 204 257 312 382
#     4  11  22  35  59  93 123 162 211 261 307 379
#     4  11  25  46  71  95 124 166 217 270 324 379
#
# _framework density 20.739045000000001
#
# number of rings (size 3 to 8) (size 9 to 14) (size 15 to 20)
#    0.000    1.714    1.429    3.857    4.000    1.143 
#    0.000    2.857    0.000    0.000    0.000    0.000 
#    0.000    0.000    0.000    0.000    0.000    0.000 
#
# Total GULP energy -694210.312906 kJ/mol
# GULP energy per Si atom -12396.612730 kJ/mol
# Density = 2.069184 g / cm^3
# Si number density = 20.739045 Si / 1000 Ang^3
#
#
#
# Elastic Constant Matrix: (Units=GPa)
#
#
# Indices 1 2 3 4 5 6 
#
# 1 41.1261 24.3974 27.2229 0.0000 0.0000 0.0000
# 2 24.3974 122.3624 44.9504 0.0000 0.0000 0.0000
# 3 27.2229 44.9504 82.3725 0.0000 0.0000 0.0000
# 4 0.0000 0.0000 0.0000 32.3006 0.0000 0.0000
# 5 0.0000 0.0000 0.0000 0.0000 50.5037 0.0000
# 6 0.0000 0.0000 0.0000 0.0000 0.0000 17.7922
#
#
#
# Elastic Compliance Matrix: (Units=1/GPa)
#
#
# Indices 1 2 3 4 5 6 
#
# 1 0.032053 -0.003126 -0.008887 0.000000 0.000000 0.000000
# 2 -0.003126 0.010526 -0.004711 0.000000 0.000000 0.000000
# 3 -0.008887 -0.004711 0.017648 0.000000 0.000000 0.000000
# 4 0.000000 0.000000 0.000000 0.030959 0.000000 0.000000
# 5 0.000000 0.000000 0.000000 0.000000 0.019801 0.000000
# 6 0.000000 0.000000 0.000000 0.000000 0.000000 0.056205
#
#
# Mechanical properties :
#
#
# Convention : Reuss Voigt Hill
#
# Bulk Modulus (GPa) = 37.34354 48.77806 43.06080
# Shear Modulus (GPa) = 23.85886 30.07197 26.96541
#
# Velocity S-wave (km/s) = 3.39548 3.81204 3.60977
# Velocity P-wave (km/s) = 5.78082 6.55336 6.17917
#
# Compressibility (1/GPa) = 0.02677839
#
# Stress axis : x y z
#
# Youngs Moduli (GPa) = 31.19862 94.99932 56.66424
#
# Poissons Ratio (x) = 0.29699 0.50358
# Poissons Ratio (y) = 0.09753 0.26695
# Poissons Ratio (z) = 0.27726 0.44755
#
# Static dielectric constant tensor:
#      x y z
#    x 3.668560 0.000000 0.000000 
#    y 0.000000 3.764180 0.000000 
#    z 0.000000 0.000000 4.128660 
# 
# 
# High freq. dielectric constant tensor:
#      x y z
#    x 1.797730 0.000000 0.000000 
#    y 0.000000 1.816650 0.000000 
#    z 0.000000 0.000000 1.826450 
# 
# From -- ./inp_files/28798.got.cif
#   From: 2010.06.25/outbox.cif.g09.slc.cpg/sg52_15_cif.got.tgz:28798.got - 2010.06.26 19:32:48.
