data_PCOD8215974
_publ_section_title
;
Structure prediction by ZEFSAII (Michael W. Deem and Ramdas Pophale) SiO2 
 PCOD8215974
Probable space group: P N N A
;
_chemical_formula_sum "Si O2"
_cell_formula_units_Z 40
_cell_length_a 12.586309
_cell_length_b 22.769376
_cell_length_c 6.160051
_cell_angle_alpha 90.000000
_cell_angle_beta 90.000000
_cell_angle_gamma 90.000000
_cell_volume 1765.362212
_symmetry_space_group_name_H-M "P N N A"
_symmetry_group_IT_number 52
_symmetry_cell_setting 'orthorhombic'
loop_
_space_group_symop_operation_xyz
x,y,z
1/2-x,-y,z
x,1/2-y,1/2-z
1/2-x,1/2+y,1/2-z
-x,-y,-z
1/2+x,y,-z
-x,1/2+y,1/2+z
1/2+x,1/2-y,1/2+z
loop_
_atom_site_type_symbol
_atom_site_label
_atom_site_fract_x
_atom_site_fract_y
_atom_site_fract_z
Si Si1 0.553822 0.355353 0.999901
Si Si2 0.588679 0.956499 0.587192
Si Si3 0.250000 0.000000 0.064026
Si Si4 0.588830 0.687953 0.358393
Si Si5 0.249498 0.092675 0.724115
Si Si6 0.495640 0.250000 0.250000
O O1 0.463726 0.392612 0.129106
O O2 0.664862 0.388814 0.036857
O O3 0.567988 0.289900 0.095414
O O4 0.513910 0.346009 0.749961
O O5 0.671872 0.951937 0.393134
O O6 0.500000 0.000000 0.500000
O O7 0.646998 0.979504 0.801450
O O8 0.296506 0.945350 0.923833
O O9 0.611110 0.750000 0.250000
O O10 0.694039 0.649504 0.326183
O O11 0.572408 0.702668 0.611801
#
# Coordination Sequence:
#
# PCOD8215974 Si02
#       6
#     8   8   4   8   8   4
#     4  10  22  39  63  92 131 171 218 279 338 408
#     4  11  24  43  63  90 136 174 224 283 342 408
#     4  12  24  40  66  98 126 180 228 282 342 406
#     4   9  21  42  66  91 132 173 218 279 334 400
#     4  11  24  40  66  99 130 175 230 274 339 412
#     4  10  20  40  64  94 126 170 220 276 346 392
#
# _framework density 22.658238000000001
#
# number of rings (size 3 to 8) (size 9 to 14) (size 15 to 20)
#    0.000    1.600    0.000    4.200    1.400    8.000 
#    0.000    0.000    8.800    0.000    0.000    0.000 
#    0.000    0.000    0.000    0.000    0.000    0.000 
#
# Total GULP energy -495669.475355 kJ/mol
# GULP energy per Si atom -12391.736884 kJ/mol
# Density = 2.260667 g / cm^3
# Si number density = 22.658238 Si / 1000 Ang^3
#
#
#
# Elastic Constant Matrix: (Units=GPa)
#
#
# Indices 1 2 3 4 5 6 
#
# 1 107.0180 49.7787 50.9754 0.0000 0.0000 0.0000
# 2 49.7787 121.1084 55.1242 0.0000 0.0000 0.0000
# 3 50.9754 55.1242 109.7394 0.0000 0.0000 0.0000
# 4 0.0000 0.0000 0.0000 48.0856 0.0000 0.0000
# 5 0.0000 0.0000 0.0000 0.0000 25.1199 0.0000
# 6 0.0000 0.0000 0.0000 0.0000 0.0000 43.6614
#
#
#
# Elastic Compliance Matrix: (Units=1/GPa)
#
#
# Indices 1 2 3 4 5 6 
#
# 1 0.012973 -0.003357 -0.004340 0.000000 0.000000 0.000000
# 2 -0.003357 0.011573 -0.004254 0.000000 0.000000 0.000000
# 3 -0.004340 -0.004254 0.013265 0.000000 0.000000 0.000000
# 4 0.000000 0.000000 0.000000 0.020796 0.000000 0.000000
# 5 0.000000 0.000000 0.000000 0.000000 0.039809 0.000000
# 6 0.000000 0.000000 0.000000 0.000000 0.000000 0.022904
#
#
# Mechanical properties :
#
#
# Convention : Reuss Voigt Hill
#
# Bulk Modulus (GPa) = 71.89223 72.18026 72.03625
# Shear Modulus (GPa) = 33.36485 35.50586 34.43535
#
# Velocity S-wave (km/s) = 3.84151 3.96285 3.90265
# Velocity P-wave (km/s) = 7.17455 7.27077 7.22282
#
# Compressibility (1/GPa) = 0.01390971
#
# Stress axis : x y z
#
# Youngs Moduli (GPa) = 77.08430 86.40700 75.38443
#
# Poissons Ratio (x) = 0.29005 0.32716
# Poissons Ratio (y) = 0.25876 0.32069
# Poissons Ratio (z) = 0.33453 0.36759
#
# Static dielectric constant tensor:
#      x y z
#    x 3.884650 0.000000 0.000000 
#    y 0.000000 4.469830 0.000000 
#    z 0.000000 0.000000 4.258180 
# 
# 
# High freq. dielectric constant tensor:
#      x y z
#    x 1.868180 0.000000 0.000000 
#    y 0.000000 1.926390 0.000000 
#    z 0.000000 0.000000 1.886960 
# 
# From -- ./inp_files/1436.got.cif
#   From: 2010.06.25/outbox.cif.g09.slc.cpg/sg52_1_cif.got.tgz:1436.got - 2010.06.26 19:32:48.
