data_PCOD8215123
_publ_section_title
;
Structure prediction by ZEFSAII (Michael W. Deem and Ramdas Pophale) SiO2 
 PCOD8215123
Probable space group: P N N A
;
_chemical_formula_sum "Si O2"
_cell_formula_units_Z 40
_cell_length_a 17.605342
_cell_length_b 21.752959
_cell_length_c 4.943628
_cell_angle_alpha 90.000000
_cell_angle_beta 90.000000
_cell_angle_gamma 90.000000
_cell_volume 1893.252726
_symmetry_space_group_name_H-M "P N N A"
_symmetry_group_IT_number 52
_symmetry_cell_setting 'orthorhombic'
loop_
_space_group_symop_operation_xyz
x,y,z
1/2-x,-y,z
x,1/2-y,1/2-z
1/2-x,1/2+y,1/2-z
-x,-y,-z
1/2+x,y,-z
-x,1/2+y,1/2+z
1/2+x,1/2-y,1/2+z
loop_
_atom_site_type_symbol
_atom_site_label
_atom_site_fract_x
_atom_site_fract_y
_atom_site_fract_z
Si Si1 0.391009 0.418143 0.186500
Si Si2 0.601660 0.710433 0.013696
Si Si3 0.936331 0.817033 0.736595
Si Si4 0.565390 0.395947 0.243633
Si Si5 0.837770 0.487949 0.311362
O O1 0.482095 0.421939 0.174844
O O2 0.364739 0.433118 0.491096
O O3 0.357244 0.352351 0.084338
O O4 0.355430 0.469976 0.996005
O O5 0.645666 0.750000 0.250000
O O6 0.521957 0.691081 0.138017
O O7 0.587908 0.750000 0.750000
O O8 0.895215 0.750000 0.750000
O O9 0.897182 0.864559 0.525029
O O10 0.939188 0.842746 0.036336
O O11 0.617093 0.449350 0.367076
O O12 0.750000 0.500000 0.357366
#
# Coordination Sequence:
#
# PCOD8215123 Si02
#       5
#     8   8   8   8   8
#     4  11  21  38  61  86 113 148 191 235 279 338
#     4  10  18  32  56  89 117 141 178 234 290 335
#     4  10  18  32  56  89 117 142 179 235 289 335
#     4  11  21  36  60  87 113 147 191 236 278 336
#     4  12  25  40  57  81 117 156 192 236 286 334
#
# _framework density 21.127662000000001
#
# number of rings (size 3 to 8) (size 9 to 14) (size 15 to 20)
#    0.000    1.200    0.000   12.000    0.000    0.000 
#    0.000    0.000    0.000   12.000    0.000    0.000 
#    0.000    0.000    0.000    0.000    0.000    0.000 
#
# Total GULP energy -495904.122000 kJ/mol
# GULP energy per Si atom -12397.603050 kJ/mol
# Density = 2.107957 g / cm^3
# Si number density = 21.127662 Si / 1000 Ang^3
#
#
#
# Elastic Constant Matrix: (Units=GPa)
#
#
# Indices 1 2 3 4 5 6 
#
# 1 68.3114 38.4950 14.4759 0.0000 0.0000 0.0000
# 2 38.4950 124.7000 31.2854 0.0000 0.0000 0.0000
# 3 14.4759 31.2854 99.8534 0.0000 0.0000 0.0000
# 4 0.0000 0.0000 0.0000 70.0951 0.0000 0.0000
# 5 0.0000 0.0000 0.0000 0.0000 11.5381 0.0000
# 6 0.0000 0.0000 0.0000 0.0000 0.0000 0.8939
#
#
#
# Elastic Compliance Matrix: (Units=1/GPa)
#
#
# Indices 1 2 3 4 5 6 
#
# 1 0.017801 -0.005261 -0.000932 0.000000 0.000000 0.000000
# 2 -0.005261 0.010258 -0.002451 0.000000 0.000000 0.000000
# 3 -0.000932 -0.002451 0.010918 0.000000 0.000000 0.000000
# 4 0.000000 0.000000 0.000000 0.014266 0.000000 0.000000
# 5 0.000000 0.000000 0.000000 0.000000 0.086669 0.000000
# 6 0.000000 0.000000 0.000000 0.000000 0.000000 1.118685
#
#
# Mechanical properties :
#
#
# Convention : Reuss Voigt Hill
#
# Bulk Modulus (GPa) = 46.10910 51.26415 48.68662
# Shear Modulus (GPa) = 3.89676 30.41266 17.15471
#
# Velocity S-wave (km/s) = 1.35956 3.79815 2.85257
# Velocity P-wave (km/s) = 4.93315 6.59934 5.82611
#
# Compressibility (1/GPa) = 0.02168769
#
# Stress axis : x y z
#
# Youngs Moduli (GPa) = 56.17562 97.48056 91.59299
#
# Poissons Ratio (x) = 0.51288 0.08538
# Poissons Ratio (y) = 0.29556 0.22453
# Poissons Ratio (z) = 0.05237 0.23896
#
# Static dielectric constant tensor:
#      x y z
#    x 3.189910 0.000000 0.000000 
#    y 0.000000 4.716760 0.000000 
#    z 0.000000 0.000000 4.356500 
# 
# 
# High freq. dielectric constant tensor:
#      x y z
#    x 1.754750 0.000000 0.000000 
#    y 0.000000 1.853620 0.000000 
#    z 0.000000 0.000000 1.855860 
# 
# From -- ./inp_files/4285.got.cif
#   From: 2010.06.25/outbox.cif.g09.slc.cpg/sg52_3_cif.got.tgz:4285.got - 2010.06.26 19:32:48.
