data_PCOD8215311
_publ_section_title
;
Structure prediction by ZEFSAII (Michael W. Deem and Ramdas Pophale) SiO2 
 PCOD8215311
Probable space group: P N N A
;
_chemical_formula_sum "Si O2"
_cell_formula_units_Z 32
_cell_length_a 13.656292
_cell_length_b 9.761696
_cell_length_c 13.743458
_cell_angle_alpha 90.000000
_cell_angle_beta 90.000000
_cell_angle_gamma 90.000000
_cell_volume 1832.120746
_symmetry_space_group_name_H-M "P N N A"
_symmetry_group_IT_number 52
_symmetry_cell_setting 'orthorhombic'
loop_
_space_group_symop_operation_xyz
x,y,z
1/2-x,-y,z
x,1/2-y,1/2-z
1/2-x,1/2+y,1/2-z
-x,-y,-z
1/2+x,y,-z
-x,1/2+y,1/2+z
1/2+x,1/2-y,1/2+z
loop_
_atom_site_type_symbol
_atom_site_label
_atom_site_fract_x
_atom_site_fract_y
_atom_site_fract_z
Si Si1 0.327213 0.191339 0.650892
Si Si2 0.108299 0.095873 0.666454
Si Si3 0.473051 0.864926 0.878272
Si Si4 0.349021 0.070585 0.004581
O O1 0.375779 0.250000 0.750000
O O2 0.218416 0.147983 0.681504
O O3 0.327544 0.298913 0.563540
O O4 0.389911 0.056320 0.620003
O O5 0.050905 0.093602 0.768541
O O6 0.052320 0.205367 0.598578
O O7 0.407920 0.957222 0.946914
O O8 0.588209 0.884432 0.901384
O O9 0.250000 0.000000 0.042458
#
# Coordination Sequence:
#
# PCOD8215311 Si02
#       4
#     8   8   8   8
#     4  11  18  30  55  80 110 139 178 234 277 317
#     4  10  19  33  53  81 106 142 185 225 275 326
#     4  10  20  32  54  79 109 140 181 225 274 329
#     4  11  20  34  52  82 111 142 178 227 278 322
#
# _framework density 17.466097000000001
#
# number of rings (size 3 to 8) (size 9 to 14) (size 15 to 20)
#    0.000    1.500    7.500    0.000    0.000    1.000 
#    0.000    0.000    0.000   12.000    6.500    0.000 
#    0.000    0.000    0.000    0.000    0.000    0.000 
#
# Total GULP energy -396556.379175 kJ/mol
# GULP energy per Si atom -12392.386849 kJ/mol
# Density = 1.742634 g / cm^3
# Si number density = 17.466097 Si / 1000 Ang^3
#
#
#
# Elastic Constant Matrix: (Units=GPa)
#
#
# Indices 1 2 3 4 5 6 
#
# 1 89.1027 75.1643 36.7643 0.0000 0.0000 0.0000
# 2 75.1643 138.0992 41.5463 0.0000 0.0000 0.0000
# 3 36.7643 41.5463 54.6887 0.0000 0.0000 0.0000
# 4 0.0000 0.0000 0.0000 9.3184 0.0000 0.0000
# 5 0.0000 0.0000 0.0000 0.0000 20.3553 0.0000
# 6 0.0000 0.0000 0.0000 0.0000 0.0000 13.5358
#
#
#
# Elastic Compliance Matrix: (Units=1/GPa)
#
#
# Indices 1 2 3 4 5 6 
#
# 1 0.023017 -0.010205 -0.007721 0.000000 0.000000 0.000000
# 2 -0.010205 0.013911 -0.003708 0.000000 0.000000 0.000000
# 3 -0.007721 -0.003708 0.026292 0.000000 0.000000 0.000000
# 4 0.000000 0.000000 0.000000 0.107315 0.000000 0.000000
# 5 0.000000 0.000000 0.000000 0.000000 0.049127 0.000000
# 6 0.000000 0.000000 0.000000 0.000000 0.000000 0.073878
#
#
# Mechanical properties :
#
#
# Convention : Reuss Voigt Hill
#
# Bulk Modulus (GPa) = 50.11612 65.42672 57.77142
# Shear Modulus (GPa) = 14.55781 17.20295 15.88038
#
# Velocity S-wave (km/s) = 2.89015 3.14177 3.01858
# Velocity P-wave (km/s) = 6.31609 7.12050 6.73032
#
# Compressibility (1/GPa) = 0.01995366
#
# Stress axis : x y z
#
# Youngs Moduli (GPa) = 43.44563 71.88560 38.03420
#
# Poissons Ratio (x) = 0.73360 0.29365
# Poissons Ratio (y) = 0.44337 0.14102
# Poissons Ratio (z) = 0.33543 0.26653
#
# Static dielectric constant tensor:
#      x y z
#    x 3.353850 0.000000 0.000000 
#    y 0.000000 3.827280 0.000000 
#    z 0.000000 0.000000 3.003500 
# 
# 
# High freq. dielectric constant tensor:
#      x y z
#    x 1.657620 0.000000 0.000000 
#    y 0.000000 1.703520 0.000000 
#    z 0.000000 0.000000 1.635030 
# 
# From -- ./inp_files/17637.got.cif
#   From: 2010.06.25/outbox.cif.g09.slc.cpg/sg52_9_cif.got.tgz:17637.got - 2010.06.26 19:32:48.
