data_PCOD8215837
_publ_section_title
;
Structure prediction by ZEFSAII (Michael W. Deem and Ramdas Pophale) SiO2 
 PCOD8215837
Probable space group: P N N A
;
_chemical_formula_sum "Si O2"
_cell_formula_units_Z 48
_cell_length_a 12.075301
_cell_length_b 9.312367
_cell_length_c 22.758598
_cell_angle_alpha 90.000000
_cell_angle_beta 90.000000
_cell_angle_gamma 90.000000
_cell_volume 2559.196028
_symmetry_space_group_name_H-M "P N N A"
_symmetry_group_IT_number 52
_symmetry_cell_setting 'orthorhombic'
loop_
_space_group_symop_operation_xyz
x,y,z
1/2-x,-y,z
x,1/2-y,1/2-z
1/2-x,1/2+y,1/2-z
-x,-y,-z
1/2+x,y,-z
-x,1/2+y,1/2+z
1/2+x,1/2-y,1/2+z
loop_
_atom_site_type_symbol
_atom_site_label
_atom_site_fract_x
_atom_site_fract_y
_atom_site_fract_z
Si Si1 0.862371 0.580538 0.040659
Si Si2 0.480719 0.750000 0.750000
Si Si3 0.045081 0.374707 0.075866
Si Si4 0.643520 0.318971 0.367583
Si Si5 0.620820 0.002448 0.691915
Si Si6 0.601122 0.640281 0.363857
Si Si7 0.506858 0.750000 0.250000
O O1 0.750000 0.500000 0.056451
O O2 0.901471 0.698768 0.088296
O O3 0.945814 0.449396 0.042430
O O4 0.863285 0.654435 0.975449
O O5 0.398630 0.702751 0.698498
O O6 0.561014 0.627976 0.775367
O O7 0.098007 0.487167 0.122288
O O8 0.995534 0.226603 0.102205
O O9 0.597843 0.475712 0.385837
O O10 0.775504 0.301653 0.373671
O O11 0.573597 0.150238 0.714255
O O12 0.750000 0.000000 0.705950
O O13 0.581974 0.655392 0.293844
#
# Coordination Sequence:
#
# PCOD8215837 Si02
#       7
#     8   4   8   8   8   8   4
#     4  11  21  39  62  89 114 155 200 251 298 352
#     4  12  22  38  58  90 120 156 198 250 300 356
#     4  10  22  38  62  84 119 154 202 248 294 355
#     4  11  22  37  60  89 123 153 198 245 304 362
#     4  11  22  38  59  85 117 160 199 245 298 360
#     4  10  21  38  58  89 121 159 192 245 306 360
#     4  10  20  38  56  84 124 156 196 244 300 362
#
# _framework density 18.755890000000001
#
# number of rings (size 3 to 8) (size 9 to 14) (size 15 to 20)
#    0.000    1.333    5.000    1.500    0.000    0.667 
#    3.000    0.000    0.000    0.000    0.000    0.000 
#    0.000    0.000    0.000    0.000    0.000    0.000 
#
# Total GULP energy -594790.381300 kJ/mol
# GULP energy per Si atom -12391.466277 kJ/mol
# Density = 1.871320 g / cm^3
# Si number density = 18.755890 Si / 1000 Ang^3
#
#
#
# Elastic Constant Matrix: (Units=GPa)
#
#
# Indices 1 2 3 4 5 6 
#
# 1 35.8878 34.9197 3.9829 0.0000 0.0000 0.0000
# 2 34.9197 94.4866 42.9784 0.0000 0.0000 0.0000
# 3 3.9829 42.9784 106.5349 0.0000 0.0000 0.0000
# 4 0.0000 0.0000 0.0000 23.2772 0.0000 0.0000
# 5 0.0000 0.0000 0.0000 0.0000 25.3218 0.0000
# 6 0.0000 0.0000 0.0000 0.0000 0.0000 -658.4072
#
#
#
# Elastic Compliance Matrix: (Units=1/GPa)
#
#
# Indices 1 2 3 4 5 6 
#
# 1 0.046829 -0.020221 0.006407 0.000000 0.000000 0.000000
# 2 -0.020221 0.021694 -0.007996 0.000000 0.000000 0.000000
# 3 0.006407 -0.007996 0.012373 0.000000 0.000000 0.000000
# 4 0.000000 0.000000 0.000000 0.042960 0.000000 0.000000
# 5 0.000000 0.000000 0.000000 0.000000 0.039492 0.000000
# 6 0.000000 0.000000 0.000000 0.000000 0.000000 -0.001519
#
#
# Mechanical properties :
#
#
# Convention : Reuss Voigt Hill
#
# Bulk Modulus (GPa) = 26.82711 44.51904 35.67307
# Shear Modulus (GPa) = 22.94908 -111.62641 -44.33867
#
# Velocity S-wave (km/s) = 3.50175 -7.72299 -4.86736
# Velocity P-wave (km/s) = 5.53931 7.46583 3.53939
#
# Compressibility (1/GPa) = 0.03727573
#
# Stress axis : x y z
#
# Youngs Moduli (GPa) = 21.35422 46.09655 80.82310
#
# Poissons Ratio (x) = 0.93212 -0.51782
# Poissons Ratio (y) = 0.43180 0.64624
# Poissons Ratio (z) = -0.13681 0.36857
#
# Static dielectric constant tensor:
#      x y z
#    x 3.511750 0.000000 0.000000 
#    y 0.000000 3.407720 0.000000 
#    z 0.000000 0.000000 4.519700 
# 
# 
# High freq. dielectric constant tensor:
#      x y z
#    x 1.725310 0.000000 0.000000 
#    y 0.000000 1.728020 0.000000 
#    z 0.000000 0.000000 1.735740 
# 
# From -- ./inp_files/40186.got.cif
#   From: 2010.06.25/outbox.cif.g09.slc.cpg/sg52_21_cif.got.tgz:40186.got - 2010.06.26 19:32:48.
