data_PCOD8215606
_publ_section_title
;
Structure prediction by ZEFSAII (Michael W. Deem and Ramdas Pophale) SiO2 
 PCOD8215606
Probable space group: P N N A
;
_chemical_formula_sum "Si O2"
_cell_formula_units_Z 48
_cell_length_a 14.779858
_cell_length_b 7.205703
_cell_length_c 22.716341
_cell_angle_alpha 90.000000
_cell_angle_beta 90.000000
_cell_angle_gamma 90.000000
_cell_volume 2419.273668
_symmetry_space_group_name_H-M "P N N A"
_symmetry_group_IT_number 52
_symmetry_cell_setting 'orthorhombic'
loop_
_space_group_symop_operation_xyz
x,y,z
1/2-x,-y,z
x,1/2-y,1/2-z
1/2-x,1/2+y,1/2-z
-x,-y,-z
1/2+x,y,-z
-x,1/2+y,1/2+z
1/2+x,1/2-y,1/2+z
loop_
_atom_site_type_symbol
_atom_site_label
_atom_site_fract_x
_atom_site_fract_y
_atom_site_fract_z
Si Si1 0.876076 0.344099 0.991614
Si Si2 0.970650 0.910664 0.864145
Si Si3 0.683637 0.827495 0.875644
Si Si4 0.152141 0.548595 0.579255
Si Si5 0.896148 0.750000 0.750000
Si Si6 0.750000 0.500000 0.794119
Si Si7 0.577125 0.249288 0.990246
O O1 0.815046 0.266354 0.939342
O O2 0.862770 0.565386 0.994801
O O3 0.980407 0.287222 0.979590
O O4 0.843201 0.256791 0.053254
O O5 0.957988 0.775845 0.807928
O O6 0.934377 0.804602 0.922028
O O7 0.916098 0.102901 0.856876
O O8 0.076936 0.960972 0.869574
O O9 0.720035 0.677674 0.830487
O O10 0.750000 0.000000 0.877090
O O11 0.250000 0.500000 0.606484
O O12 0.126622 0.415137 0.524662
O O13 0.834225 0.564924 0.754290
#
# Coordination Sequence:
#
# PCOD8215606 Si02
#       7
#     8   8   8   8   4   4   8
#     4  10  20  33  61  89 125 161 190 243 305 368
#     4  11  22  42  60  86 126 164 200 254 309 364
#     4  12  22  38  60  90 128 159 195 240 304 380
#     4  11  22  39  62  90 123 161 210 255 305 364
#     4  12  24  42  62  86 122 160 206 256 308 368
#     4  12  26  40  62  94 120 158 206 244 304 386
#     4  10  20  38  58  91 123 160 201 241 309 376
#
# _framework density 19.840664
#
# number of rings (size 3 to 8) (size 9 to 14) (size 15 to 20)
#    0.000    1.000    5.000    3.500    0.000    0.667 
#    0.000    0.000    0.000    2.000    0.000    0.000 
#    0.000    0.000    0.000    0.000    0.000    0.000 
#
# Total GULP energy -595356.514162 kJ/mol
# GULP energy per Si atom -12403.260712 kJ/mol
# Density = 1.979551 g / cm^3
# Si number density = 19.840664 Si / 1000 Ang^3
#
#
#
# Elastic Constant Matrix: (Units=GPa)
#
#
# Indices 1 2 3 4 5 6 
#
# 1 120.4633 40.7406 47.2586 0.0000 0.0000 0.0000
# 2 40.7406 118.8874 35.1930 0.0000 0.0000 0.0000
# 3 47.2586 35.1930 98.0420 0.0000 0.0000 0.0000
# 4 0.0000 0.0000 0.0000 8.7608 0.0000 0.0000
# 5 0.0000 0.0000 0.0000 0.0000 24.9370 0.0000
# 6 0.0000 0.0000 0.0000 0.0000 0.0000 21.1358
#
#
#
# Elastic Compliance Matrix: (Units=1/GPa)
#
#
# Indices 1 2 3 4 5 6 
#
# 1 0.010827 -0.002423 -0.004349 0.000000 0.000000 0.000000
# 2 -0.002423 0.009953 -0.002405 0.000000 0.000000 0.000000
# 3 -0.004349 -0.002405 0.013159 0.000000 0.000000 0.000000
# 4 0.000000 0.000000 0.000000 0.114144 0.000000 0.000000
# 5 0.000000 0.000000 0.000000 0.000000 0.040101 0.000000
# 6 0.000000 0.000000 0.000000 0.000000 0.000000 0.047313
#
#
# Mechanical properties :
#
#
# Convention : Reuss Voigt Hill
#
# Bulk Modulus (GPa) = 64.16071 64.86413 64.51242
# Shear Modulus (GPa) = 19.30150 25.24677 22.27413
#
# Velocity S-wave (km/s) = 3.12240 3.57105 3.35423
# Velocity P-wave (km/s) = 6.73850 7.05455 6.89833
#
# Compressibility (1/GPa) = 0.01558586
#
# Stress axis : x y z
#
# Youngs Moduli (GPa) = 92.36293 100.46722 75.99116
#
# Poissons Ratio (x) = 0.24341 0.33050
# Poissons Ratio (y) = 0.22377 0.18276
# Poissons Ratio (z) = 0.40170 0.24163
#
# Static dielectric constant tensor:
#      x y z
#    x 3.835400 0.000000 0.000000 
#    y 0.000000 5.241510 0.000000 
#    z 0.000000 0.000000 3.434190 
# 
# 
# High freq. dielectric constant tensor:
#      x y z
#    x 1.769750 0.000000 0.000000 
#    y 0.000000 1.786480 0.000000 
#    z 0.000000 0.000000 1.744810 
# 
# From -- ./inp_files/37220.got.cif
#   From: 2010.06.25/outbox.cif.g09.slc.cpg/sg52_19_cif.got.tgz:37220.got - 2010.06.26 19:32:48.
