data_PCOD8215318
_publ_section_title
;
Structure prediction by ZEFSAII (Michael W. Deem and Ramdas Pophale) SiO2 
 PCOD8215318
Probable space group: P N N A
;
_chemical_formula_sum "Si O2"
_cell_formula_units_Z 48
_cell_length_a 7.812579
_cell_length_b 17.640117
_cell_length_c 20.191517
_cell_angle_alpha 90.000000
_cell_angle_beta 90.000000
_cell_angle_gamma 90.000000
_cell_volume 2782.690031
_symmetry_space_group_name_H-M "P N N A"
_symmetry_group_IT_number 52
_symmetry_cell_setting 'orthorhombic'
loop_
_space_group_symop_operation_xyz
x,y,z
1/2-x,-y,z
x,1/2-y,1/2-z
1/2-x,1/2+y,1/2-z
-x,-y,-z
1/2+x,y,-z
-x,1/2+y,1/2+z
1/2+x,1/2-y,1/2+z
loop_
_atom_site_type_symbol
_atom_site_label
_atom_site_fract_x
_atom_site_fract_y
_atom_site_fract_z
Si Si1 0.937622 0.282105 0.925624
Si Si2 0.942369 0.807660 0.192622
Si Si3 0.437622 0.782105 0.425624
Si Si4 0.750000 0.085920 0.782114
Si Si5 0.057631 0.692340 0.692622
Si Si6 0.750000 0.585787 0.875032
O O1 0.750000 0.243325 0.920889
O O2 0.919542 0.370406 0.902291
O O3 0.062846 0.236587 0.877263
O O4 0.000000 0.278459 1.000000
O O5 0.001118 0.750000 0.250000
O O6 0.750000 0.838628 0.206030
O O7 0.077455 0.875747 0.190115
O O8 0.562846 0.736587 0.377263
O O9 0.419542 0.870406 0.402291
O O10 0.577455 0.124253 0.809885
O O11 0.750000 0.089063 0.703504
O O12 0.750000 0.000000 0.808128
O O13 0.998882 0.750000 0.750000
O O14 0.750000 0.500000 0.901632
#
# Coordination Sequence:
#
# PCOD8215318 Si02
#       6
#     8   8   8   8   8   8
#     4  10  19  33  54  78 111 144 195 226 277 322
#     4  11  20  35  59  83 110 144 189 238 274 324
#     4  10  19  33  54  78 111 144 195 226 277 322
#     4  11  20  38  60  82 116 148 179 232 287 333
#     4  11  20  35  59  83 110 144 189 238 274 324
#     4   9  19  33  53  77 119 156 180 222 280 335
#
# _framework density 17.249497000000002
#
# number of rings (size 3 to 8) (size 9 to 14) (size 15 to 20)
#    1.000    0.667    5.000    1.500    0.000    1.333 
#    0.000    0.000    0.000    1.000    0.000    0.000 
#    0.000    0.000    0.000    0.000    0.000    0.000 
#
# Total GULP energy -594885.585975 kJ/mol
# GULP energy per Si atom -12393.449708 kJ/mol
# Density = 1.721024 g / cm^3
# Si number density = 17.249497 Si / 1000 Ang^3
#
#
#
# Elastic Constant Matrix: (Units=GPa)
#
#
# Indices 1 2 3 4 5 6 
#
# 1 99.5713 53.0509 13.2007 0.0000 0.0000 0.0000
# 2 53.0509 116.2356 46.5206 0.0000 0.0000 0.0000
# 3 13.2007 46.5206 105.1933 0.0000 0.0000 0.0000
# 4 0.0000 0.0000 0.0000 16.6585 0.0000 0.0000
# 5 0.0000 0.0000 0.0000 0.0000 28.8397 0.0000
# 6 0.0000 0.0000 0.0000 0.0000 0.0000 10.1202
#
#
#
# Elastic Compliance Matrix: (Units=1/GPa)
#
#
# Indices 1 2 3 4 5 6 
#
# 1 0.013402 -0.006615 0.001243 0.000000 0.000000 0.000000
# 2 -0.006615 0.013718 -0.005237 0.000000 0.000000 0.000000
# 3 0.001243 -0.005237 0.011666 0.000000 0.000000 0.000000
# 4 0.000000 0.000000 0.000000 0.060030 0.000000 0.000000
# 5 0.000000 0.000000 0.000000 0.000000 0.034674 0.000000
# 6 0.000000 0.000000 0.000000 0.000000 0.000000 0.098813
#
#
# Mechanical properties :
#
#
# Convention : Reuss Voigt Hill
#
# Bulk Modulus (GPa) = 56.91227 60.72718 58.81973
# Shear Modulus (GPa) = 19.27707 25.00554 22.14130
#
# Velocity S-wave (km/s) = 3.34660 3.81154 3.58661
# Velocity P-wave (km/s) = 6.92807 7.39271 7.16416
#
# Compressibility (1/GPa) = 0.01757090
#
# Stress axis : x y z
#
# Youngs Moduli (GPa) = 74.61334 72.89701 85.71850
#
# Poissons Ratio (x) = 0.48218 -0.10658
# Poissons Ratio (y) = 0.49354 0.44887
# Poissons Ratio (z) = -0.09277 0.38173
#
# Static dielectric constant tensor:
#      x y z
#    x 3.142100 0.000000 0.000000 
#    y 0.000000 3.144430 0.000000 
#    z 0.000000 0.000000 3.071200 
# 
# 
# High freq. dielectric constant tensor:
#      x y z
#    x 1.664470 0.000000 0.000000 
#    y 0.000000 1.639350 0.000000 
#    z 0.000000 0.000000 1.667110 
# 
# From -- ./inp_files/36105.got.cif
#   From: 2010.06.25/outbox.cif.g09.slc.cpg/sg52_19_cif.got.tgz:36105.got - 2010.06.26 19:32:48.
