data_PCOD8215441
_publ_section_title
;
Structure prediction by ZEFSAII (Michael W. Deem and Ramdas Pophale) SiO2 
 PCOD8215441
Probable space group: P N N A
;
_chemical_formula_sum "Si O2"
_cell_formula_units_Z 64
_cell_length_a 13.754157
_cell_length_b 17.403289
_cell_length_c 14.279141
_cell_angle_alpha 90.000000
_cell_angle_beta 90.000000
_cell_angle_gamma 90.000000
_cell_volume 3417.963272
_symmetry_space_group_name_H-M "P N N A"
_symmetry_group_IT_number 52
_symmetry_cell_setting 'orthorhombic'
loop_
_space_group_symop_operation_xyz
x,y,z
1/2-x,-y,z
x,1/2-y,1/2-z
1/2-x,1/2+y,1/2-z
-x,-y,-z
1/2+x,y,-z
-x,1/2+y,1/2+z
1/2+x,1/2-y,1/2+z
loop_
_atom_site_type_symbol
_atom_site_label
_atom_site_fract_x
_atom_site_fract_y
_atom_site_fract_z
Si Si1 0.110776 0.340211 0.860331
Si Si2 0.906941 0.571525 0.608144
Si Si3 0.444011 0.061513 0.437085
Si Si4 0.658279 0.453926 0.804862
Si Si5 0.056853 0.906647 0.039236
Si Si6 0.879576 0.838190 0.149112
Si Si7 0.752787 0.857269 0.526919
Si Si8 0.248989 0.822796 0.016267
O O1 0.090993 0.250062 0.859936
O O2 0.138497 0.366417 0.755083
O O3 0.010371 0.371179 0.899342
O O4 0.194163 0.372630 0.928423
O O5 0.904560 0.581424 0.720336
O O6 0.888758 0.484983 0.570143
O O7 0.823699 0.630433 0.578935
O O8 0.012839 0.592740 0.566278
O O9 0.351810 0.102267 0.487127
O O10 0.500000 0.000000 0.500000
O O11 0.411527 0.017269 0.346077
O O12 0.750000 0.500000 0.762231
O O13 0.689589 0.392938 0.884508
O O14 0.138327 0.842171 0.039228
O O15 0.967680 0.889021 0.108888
O O16 0.778595 0.844737 0.090779
O O17 0.753184 0.766488 0.542894
#
# Coordination Sequence:
#
# PCOD8215441 Si02
#       8
#     8   8   8   8   8   8   8   8
#     4  10  19  37  57  82 115 148 195 234 280 337
#     4  10  21  35  57  82 114 145 183 240 284 335
#     4  11  21  36  59  82 112 152 188 232 285 336
#     4  10  20  36  55  83 114 146 186 231 283 339
#     4  10  19  36  58  82 114 146 191 231 292 342
#     4   9  20  35  58  84 112 151 190 238 277 341
#     4  10  22  37  57  80 114 148 190 234 283 342
#     4  10  20  37  58  82 111 149 186 233 289 338
#
# _framework density 18.724601
#
# number of rings (size 3 to 8) (size 9 to 14) (size 15 to 20)
#    0.000    2.000    1.250    2.625    0.000    1.500 
#    2.250    0.000    5.500    0.000    0.000    0.000 
#    0.000    0.000    0.000    0.000    0.000    0.000 
#
# Total GULP energy -793067.792106 kJ/mol
# GULP energy per Si atom -12391.684252 kJ/mol
# Density = 1.868198 g / cm^3
# Si number density = 18.724601 Si / 1000 Ang^3
#
#
#
# Elastic Constant Matrix: (Units=GPa)
#
#
# Indices 1 2 3 4 5 6 
#
# 1 95.8636 47.8612 55.0918 0.0000 0.0000 0.0000
# 2 47.8612 83.8512 45.4863 0.0000 0.0000 0.0000
# 3 55.0918 45.4863 121.4884 0.0000 0.0000 0.0000
# 4 0.0000 0.0000 0.0000 22.9531 0.0000 0.0000
# 5 0.0000 0.0000 0.0000 0.0000 15.4439 0.0000
# 6 0.0000 0.0000 0.0000 0.0000 0.0000 27.2010
#
#
#
# Elastic Compliance Matrix: (Units=1/GPa)
#
#
# Indices 1 2 3 4 5 6 
#
# 1 0.016728 -0.006818 -0.005033 0.000000 0.000000 0.000000
# 2 -0.006818 0.017744 -0.003552 0.000000 0.000000 0.000000
# 3 -0.005033 -0.003552 0.011843 0.000000 0.000000 0.000000
# 4 0.000000 0.000000 0.000000 0.043567 0.000000 0.000000
# 5 0.000000 0.000000 0.000000 0.000000 0.064751 0.000000
# 6 0.000000 0.000000 0.000000 0.000000 0.000000 0.036763
#
#
# Mechanical properties :
#
#
# Convention : Reuss Voigt Hill
#
# Bulk Modulus (GPa) = 64.47423 66.45353 65.46388
# Shear Modulus (GPa) = 21.99044 23.30387 22.64715
#
# Velocity S-wave (km/s) = 3.43069 3.53166 3.48154
# Velocity P-wave (km/s) = 7.08523 7.22476 7.15534
#
# Compressibility (1/GPa) = 0.01551007
#
# Stress axis : x y z
#
# Youngs Moduli (GPa) = 59.78091 56.35655 84.43515
#
# Poissons Ratio (x) = 0.38423 0.42496
# Poissons Ratio (y) = 0.40757 0.29990
# Poissons Ratio (z) = 0.30087 0.20017
#
# Static dielectric constant tensor:
#      x y z
#    x 3.342710 0.000000 0.000000 
#    y 0.000000 3.477250 0.000000 
#    z 0.000000 0.000000 4.127670 
# 
# 
# High freq. dielectric constant tensor:
#      x y z
#    x 1.725890 0.000000 0.000000 
#    y 0.000000 1.733060 0.000000 
#    z 0.000000 0.000000 1.727680 
# 
# From -- ./inp_files/26361.got.cif
#   From: 2010.06.25/outbox.cif.g09.slc.cpg/sg52_14_cif.got.tgz:26361.got - 2010.06.26 19:32:48.
