data_PCOD8215038
_publ_section_title
;
Structure prediction by ZEFSAII (Michael W. Deem and Ramdas Pophale) SiO2 
 PCOD8215038
Probable space group: P N N A
;
_chemical_formula_sum "Si O2"
_cell_formula_units_Z 40
_cell_length_a 14.980550
_cell_length_b 8.067455
_cell_length_c 15.680942
_cell_angle_alpha 90.000000
_cell_angle_beta 90.000000
_cell_angle_gamma 90.000000
_cell_volume 1895.118881
_symmetry_space_group_name_H-M "P N N A"
_symmetry_group_IT_number 52
_symmetry_cell_setting 'orthorhombic'
loop_
_space_group_symop_operation_xyz
x,y,z
1/2-x,-y,z
x,1/2-y,1/2-z
1/2-x,1/2+y,1/2-z
-x,-y,-z
1/2+x,y,-z
-x,1/2+y,1/2+z
1/2+x,1/2-y,1/2+z
loop_
_atom_site_type_symbol
_atom_site_label
_atom_site_fract_x
_atom_site_fract_y
_atom_site_fract_z
Si Si1 0.917846 0.176755 0.425946
Si Si2 0.497917 0.502962 0.396671
Si Si3 0.253662 0.805150 0.006148
Si Si4 0.322036 0.122891 0.179795
Si Si5 0.565702 0.182563 0.433246
O O1 0.957106 0.324094 0.365518
O O2 0.814626 0.212406 0.444009
O O3 0.973928 0.169989 0.513437
O O4 0.922291 0.992743 0.383328
O O5 0.500000 0.500000 0.500000
O O6 0.399102 0.493677 0.359153
O O7 0.552891 0.337340 0.367489
O O8 0.225015 0.775377 0.103805
O O9 0.250000 0.000000 0.983937
O O10 0.350643 0.723186 0.994458
O O11 0.359389 0.250000 0.250000
O O12 0.250000 0.000000 0.222840
#
# Coordination Sequence:
#
# PCOD8215038 Si02
#       5
#     8   8   8   8   8
#     4  10  18  31  51  82 108 148 195 247 307 346
#     4  10  17  38  55  74 113 153 203 252 292 350
#     4  11  18  33  56  78 124 158 191 256 321 367
#     4  11  23  38  54  81 124 170 201 244 317 401
#     4  10  19  29  52  83 107 147 199 253 300 350
#
# _framework density 21.106854999999999
#
# number of rings (size 3 to 8) (size 9 to 14) (size 15 to 20)
#    0.000    1.600    6.000    4.200    0.000    1.600 
#    3.600    0.000    0.000    0.000    0.000    0.000 
#   12.000    0.000    0.000    0.000    0.000    0.000 
#
# Total GULP energy -495573.253828 kJ/mol
# GULP energy per Si atom -12389.331346 kJ/mol
# Density = 2.105881 g / cm^3
# Si number density = 21.106855 Si / 1000 Ang^3
#
#
#
# Elastic Constant Matrix: (Units=GPa)
#
#
# Indices 1 2 3 4 5 6 
#
# 1 97.3355 26.9296 21.1963 0.0000 0.0000 0.0000
# 2 26.9296 203.8016 23.2326 0.0000 0.0000 0.0000
# 3 21.1963 23.2326 23.3976 0.0000 0.0000 0.0000
# 4 0.0000 0.0000 0.0000 18.1019 0.0000 0.0000
# 5 0.0000 0.0000 0.0000 0.0000 9.5503 0.0000
# 6 0.0000 0.0000 0.0000 0.0000 0.0000 36.1036
#
#
#
# Elastic Compliance Matrix: (Units=1/GPa)
#
#
# Indices 1 2 3 4 5 6 
#
# 1 0.012830 -0.000418 -0.011208 0.000000 0.000000 0.000000
# 2 -0.000418 0.005547 -0.005129 0.000000 0.000000 0.000000
# 3 -0.011208 -0.005129 0.057986 0.000000 0.000000 0.000000
# 4 0.000000 0.000000 0.000000 0.055243 0.000000 0.000000
# 5 0.000000 0.000000 0.000000 0.000000 0.104708 0.000000
# 6 0.000000 0.000000 0.000000 0.000000 0.000000 0.027698
#
#
# Mechanical properties :
#
#
# Convention : Reuss Voigt Hill
#
# Bulk Modulus (GPa) = 23.33571 51.91687 37.62629
# Shear Modulus (GPa) = 16.03555 29.62956 22.83255
#
# Velocity S-wave (km/s) = 2.75931 3.75078 3.29258
# Velocity P-wave (km/s) = 4.60779 6.58850 5.68507
#
# Compressibility (1/GPa) = 0.04285278
#
# Stress axis : x y z
#
# Youngs Moduli (GPa) = 77.94179 180.28989 17.24541
#
# Poissons Ratio (x) = 0.07529 0.19329
# Poissons Ratio (y) = 0.03255 0.08846
# Poissons Ratio (z) = 0.87360 0.92474
#
# Static dielectric constant tensor:
#      x y z
#    x 3.941660 0.000000 0.000000 
#    y 0.000000 5.235810 0.000000 
#    z 0.000000 0.000000 2.939800 
# 
# 
# High freq. dielectric constant tensor:
#      x y z
#    x 1.841370 0.000000 0.000000 
#    y 0.000000 1.857730 0.000000 
#    z 0.000000 0.000000 1.726660 
# 
# From -- ./inp_files/26900.got.cif
#   From: 2010.06.25/outbox.cif.g09.slc.cpg/sg52_14_cif.got.tgz:26900.got - 2010.06.26 19:32:48.
