data_PCOD8215793
_publ_section_title
;
Structure prediction by ZEFSAII (Michael W. Deem and Ramdas Pophale) SiO2 
 PCOD8215793
Probable space group: P N N A
;
_chemical_formula_sum "Si O2"
_cell_formula_units_Z 48
_cell_length_a 8.719961
_cell_length_b 14.981393
_cell_length_c 18.416734
_cell_angle_alpha 90.000000
_cell_angle_beta 90.000000
_cell_angle_gamma 90.000000
_cell_volume 2405.909876
_symmetry_space_group_name_H-M "P N N A"
_symmetry_group_IT_number 52
_symmetry_cell_setting 'orthorhombic'
loop_
_space_group_symop_operation_xyz
x,y,z
1/2-x,-y,z
x,1/2-y,1/2-z
1/2-x,1/2+y,1/2-z
-x,-y,-z
1/2+x,y,-z
-x,1/2+y,1/2+z
1/2+x,1/2-y,1/2+z
loop_
_atom_site_type_symbol
_atom_site_label
_atom_site_fract_x
_atom_site_fract_y
_atom_site_fract_z
Si Si1 0.322984 0.262050 0.075095
Si Si2 0.361574 0.154042 0.280672
Si Si3 0.321669 0.404253 0.648093
Si Si4 0.184469 0.262287 0.925605
Si Si5 0.316659 0.593026 0.354208
Si Si6 0.807690 0.903457 0.302096
O O1 0.286148 0.332195 0.139824
O O2 0.503987 0.249859 0.068121
O O3 0.247012 0.167248 0.091725
O O4 0.251617 0.299956 0.001088
O O5 0.417548 0.250000 0.250000
O O6 0.235717 0.110105 0.228831
O O7 0.510355 0.090866 0.285495
O O8 0.250000 0.500000 0.629535
O O9 0.258936 0.333285 0.590639
O O10 0.502446 0.409557 0.641537
O O11 0.277881 0.373326 0.729037
O O12 0.231371 0.332556 0.864041
O O13 0.250000 0.500000 0.382428
O O14 0.750000 0.000000 0.328327
#
# Coordination Sequence:
#
# PCOD8215793 Si02
#       6
#     8   8   8   8   8   8
#     4  10  22  38  57  81 114 152 191 230 284 338
#     4   9  19  38  58  80 114 151 187 235 286 336
#     4  11  22  36  59  88 115 148 190 232 283 340
#     4  11  22  39  58  81 117 154 189 236 283 337
#     4  11  21  36  59  86 114 145 187 236 284 340
#     4  10  20  37  59  84 113 150 192 235 283 333
#
# _framework density 19.950872
#
# number of rings (size 3 to 8) (size 9 to 14) (size 15 to 20)
#    0.000    1.667    0.000    7.500    0.000    6.000 
#    0.000    7.500    0.000    0.000    0.000    0.000 
#    0.000    0.000    0.000    0.000    0.000    0.000 
#
# Total GULP energy -595400.565011 kJ/mol
# GULP energy per Si atom -12404.178438 kJ/mol
# Density = 1.990546 g / cm^3
# Si number density = 19.950872 Si / 1000 Ang^3
#
#
#
# Elastic Constant Matrix: (Units=GPa)
#
#
# Indices 1 2 3 4 5 6 
#
# 1 112.7854 29.0029 16.7743 0.0000 0.0000 0.0000
# 2 29.0029 64.2444 6.8650 0.0000 0.0000 0.0000
# 3 16.7743 6.8650 88.2444 0.0000 0.0000 0.0000
# 4 0.0000 0.0000 0.0000 19.6860 0.0000 0.0000
# 5 0.0000 0.0000 0.0000 0.0000 32.1603 0.0000
# 6 0.0000 0.0000 0.0000 0.0000 0.0000 32.6131
#
#
#
# Elastic Compliance Matrix: (Units=1/GPa)
#
#
# Indices 1 2 3 4 5 6 
#
# 1 0.010251 -0.004456 -0.001602 0.000000 0.000000 0.000000
# 2 -0.004456 0.017633 -0.000525 0.000000 0.000000 0.000000
# 3 -0.001602 -0.000525 0.011677 0.000000 0.000000 0.000000
# 4 0.000000 0.000000 0.000000 0.050798 0.000000 0.000000
# 5 0.000000 0.000000 0.000000 0.000000 0.031094 0.000000
# 6 0.000000 0.000000 0.000000 0.000000 0.000000 0.030663
#
#
# Mechanical properties :
#
#
# Convention : Reuss Voigt Hill
#
# Bulk Modulus (GPa) = 37.88503 41.17317 39.52910
# Shear Modulus (GPa) = 28.72238 31.06735 29.89487
#
# Velocity S-wave (km/s) = 3.79840 3.95041 3.87515
# Velocity P-wave (km/s) = 6.18607 6.44125 6.31495
#
# Compressibility (1/GPa) = 0.02639565
#
# Stress axis : x y z
#
# Youngs Moduli (GPa) = 97.55521 56.71040 85.63496
#
# Poissons Ratio (x) = 0.25273 0.13717
# Poissons Ratio (y) = 0.43475 0.04493
# Poissons Ratio (z) = 0.15627 0.02975
#
# Static dielectric constant tensor:
#      x y z
#    x 3.606550 0.000000 0.000000 
#    y 0.000000 3.635210 0.000000 
#    z 0.000000 0.000000 3.800650 
# 
# 
# High freq. dielectric constant tensor:
#      x y z
#    x 1.786480 0.000000 0.000000 
#    y 0.000000 1.770520 0.000000 
#    z 0.000000 0.000000 1.781610 
# 
# From -- ./inp_files/31248.got.cif
#   From: 2010.06.25/outbox.cif.g09.slc.cpg/sg52_16_cif.got.tgz:31248.got - 2010.06.26 19:32:48.
