data_PCOD8215758
_publ_section_title
;
Structure prediction by ZEFSAII (Michael W. Deem and Ramdas Pophale) SiO2 
 PCOD8215758
Probable space group: P N N A
;
_chemical_formula_sum "Si O2"
_cell_formula_units_Z 60
_cell_length_a 30.264801
_cell_length_b 18.501000
_cell_length_c 5.147779
_cell_angle_alpha 90.000000
_cell_angle_beta 90.000000
_cell_angle_gamma 90.000000
_cell_volume 2882.391177
_symmetry_space_group_name_H-M "P N N A"
_symmetry_group_IT_number 52
_symmetry_cell_setting 'orthorhombic'
loop_
_space_group_symop_operation_xyz
x,y,z
1/2-x,-y,z
x,1/2-y,1/2-z
1/2-x,1/2+y,1/2-z
-x,-y,-z
1/2+x,y,-z
-x,1/2+y,1/2+z
1/2+x,1/2-y,1/2+z
loop_
_atom_site_type_symbol
_atom_site_label
_atom_site_fract_x
_atom_site_fract_y
_atom_site_fract_z
Si Si1 0.905355 0.750000 0.750000
Si Si2 0.561159 0.833111 0.812803
Si Si3 0.459657 0.828656 0.865240
Si Si4 0.149803 0.380812 0.174292
Si Si5 0.604398 0.895362 0.303117
Si Si6 0.746085 0.334161 0.760126
Si Si7 0.390297 0.941596 0.803318
Si Si8 0.698967 0.665526 0.256547
O O1 0.937812 0.687053 0.643177
O O2 0.871100 0.697895 0.906040
O O3 0.567180 0.750000 0.750000
O O4 0.510122 0.853334 0.858909
O O5 0.582162 0.880996 0.583303
O O6 0.584805 0.842804 0.086360
O O7 0.451123 0.750000 0.750000
O O8 0.432460 0.892001 0.724393
O O9 0.200175 0.375741 0.268115
O O10 0.125751 0.422082 0.409546
O O11 0.147362 0.428943 0.913963
O O12 0.656532 0.882313 0.310024
O O13 0.593780 0.976147 0.210764
O O14 0.735840 0.250000 0.750000
O O15 0.780326 0.356673 0.533620
O O16 0.765822 0.354529 0.037930
O O17 0.685934 0.750000 0.250000
#
# Coordination Sequence:
#
# PCOD8215758 Si02
#       8
#     4   8   8   8   8   8   8   8
#     4  10  20  36  66  88 136 150 202 260 314 372
#     4  11  25  40  70  92 121 158 221 269 314 369
#     4  10  22  39  63  97 125 164 208 267 320 371
#     4  11  21  39  62  96 122 167 203 254 314 384
#     4  12  25  45  61  92 128 174 212 259 312 381
#     4  10  20  36  62  97 120 155 208 270 313 366
#     4  11  25  40  63  90 135 173 205 248 324 383
#     4  10  21  38  62  84 122 159 211 266 317 360
#
# _framework density 20.816050000000001
#
# number of rings (size 3 to 8) (size 9 to 14) (size 15 to 20)
#    0.000    1.333    2.000    3.600    3.733    2.133 
#    0.000    4.000    0.000    0.000    0.000    0.000 
#    0.000    0.000    0.000    0.000    0.000    0.000 
#
# Total GULP energy -743615.694793 kJ/mol
# GULP energy per Si atom -12393.594913 kJ/mol
# Density = 2.076867 g / cm^3
# Si number density = 20.816050 Si / 1000 Ang^3
#
#
#
# Elastic Constant Matrix: (Units=GPa)
#
#
# Indices 1 2 3 4 5 6 
#
# 1 110.4269 29.1965 15.9319 0.0000 0.0000 0.0000
# 2 29.1965 50.7862 7.2402 0.0000 0.0000 0.0000
# 3 15.9319 7.2402 92.0086 0.0000 0.0000 0.0000
# 4 0.0000 0.0000 0.0000 28.7571 0.0000 0.0000
# 5 0.0000 0.0000 0.0000 0.0000 50.7658 0.0000
# 6 0.0000 0.0000 0.0000 0.0000 0.0000 22.9694
#
#
#
# Elastic Compliance Matrix: (Units=1/GPa)
#
#
# Indices 1 2 3 4 5 6 
#
# 1 0.010855 -0.006040 -0.001404 0.000000 0.000000 0.000000
# 2 -0.006040 0.023275 -0.000786 0.000000 0.000000 0.000000
# 3 -0.001404 -0.000786 0.011174 0.000000 0.000000 0.000000
# 4 0.000000 0.000000 0.000000 0.034774 0.000000 0.000000
# 5 0.000000 0.000000 0.000000 0.000000 0.019698 0.000000
# 6 0.000000 0.000000 0.000000 0.000000 0.000000 0.043536
#
#
# Mechanical properties :
#
#
# Convention : Reuss Voigt Hill
#
# Bulk Modulus (GPa) = 34.67029 39.77322 37.22175
# Shear Modulus (GPa) = 29.51806 33.88866 31.70336
#
# Velocity S-wave (km/s) = 3.76978 4.03923 3.90683
# Velocity P-wave (km/s) = 5.96992 6.39549 6.18637
#
# Compressibility (1/GPa) = 0.02884314
#
# Stress axis : x y z
#
# Youngs Moduli (GPa) = 92.11947 42.96454 89.49716
#
# Poissons Ratio (x) = 0.25953 0.12569
# Poissons Ratio (y) = 0.55645 0.07031
# Poissons Ratio (z) = 0.12937 0.03375
#
# Static dielectric constant tensor:
#      x y z
#    x 3.793680 0.000000 0.000000 
#    y 0.000000 3.633170 0.000000 
#    z 0.000000 0.000000 3.501450 
# 
# 
# High freq. dielectric constant tensor:
#      x y z
#    x 1.820970 0.000000 0.000000 
#    y 0.000000 1.802610 0.000000 
#    z 0.000000 0.000000 1.820010 
# 
# From -- ./inp_files/5960.got.cif
#   From: 2010.06.25/outbox.cif.g09.slc.cpg/sg52_3_cif.got.tgz:5960.got - 2010.06.26 19:32:48.
