data_PCOD8215313
_publ_section_title
;
Structure prediction by ZEFSAII (Michael W. Deem and Ramdas Pophale) SiO2 
 PCOD8215313
Probable space group: P N N A
;
_chemical_formula_sum "Si O2"
_cell_formula_units_Z 60
_cell_length_a 12.865351
_cell_length_b 19.127738
_cell_length_c 12.725010
_cell_angle_alpha 90.000000
_cell_angle_beta 90.000000
_cell_angle_gamma 90.000000
_cell_volume 3131.434890
_symmetry_space_group_name_H-M "P N N A"
_symmetry_group_IT_number 52
_symmetry_cell_setting 'orthorhombic'
loop_
_space_group_symop_operation_xyz
x,y,z
1/2-x,-y,z
x,1/2-y,1/2-z
1/2-x,1/2+y,1/2-z
-x,-y,-z
1/2+x,y,-z
-x,1/2+y,1/2+z
1/2+x,1/2-y,1/2+z
loop_
_atom_site_type_symbol
_atom_site_label
_atom_site_fract_x
_atom_site_fract_y
_atom_site_fract_z
Si Si1 0.250000 0.500000 0.075973
Si Si2 0.890393 0.884535 0.500748
Si Si3 0.269478 0.185429 0.624831
Si Si4 0.530972 0.599567 0.176380
Si Si5 0.540690 0.945789 0.663003
Si Si6 0.273336 0.840069 0.852395
Si Si7 0.971845 0.586287 0.389196
Si Si8 0.411637 0.071943 0.902391
O O1 0.335427 0.458072 0.146568
O O2 0.183902 0.451871 0.998463
O O3 0.813724 0.822583 0.468328
O O4 0.928880 0.868329 0.619895
O O5 0.990533 0.894632 0.424534
O O6 0.374076 0.139613 0.618729
O O7 0.210083 0.157801 0.727632
O O8 0.289294 0.268657 0.622006
O O9 0.528005 0.516637 0.152421
O O10 0.528560 0.608649 0.302890
O O11 0.532752 0.911327 0.778683
O O12 0.388210 0.850947 0.898653
O O13 0.207537 0.905599 0.893862
O O14 0.916225 0.511362 0.399070
O O15 0.046785 0.600421 0.487105
#
# Coordination Sequence:
#
# PCOD8215313 Si02
#       8
#     4   8   8   8   8   8   8   8
#     4  10  20  32  50  84 120 140 174 218 276 330
#     4  11  18  32  54  81 109 146 174 220 266 322
#     4  10  20  33  54  79 107 142 183 219 264 322
#     4   9  19  33  52  80 109 140 177 217 268 319
#     4  10  19  33  53  82 113 144 173 222 272 320
#     4  10  20  36  54  77 107 140 181 227 264 315
#     4  10  19  37  56  81 105 138 182 225 271 320
#     4   9  20  36  55  79 104 140 178 224 271 317
#
# _framework density 19.160544000000002
#
# number of rings (size 3 to 8) (size 9 to 14) (size 15 to 20)
#    0.000    2.133    1.333    3.600    0.000    1.067 
#    9.600    0.000    0.000    0.000    0.000    0.000 
#    0.000    0.000    0.000    0.000    0.000    0.000 
#
# Total GULP energy -743304.052041 kJ/mol
# GULP energy per Si atom -12388.400867 kJ/mol
# Density = 1.911693 g / cm^3
# Si number density = 19.160544 Si / 1000 Ang^3
#
#
#
# Elastic Constant Matrix: (Units=GPa)
#
#
# Indices 1 2 3 4 5 6 
#
# 1 88.9351 21.3741 42.1078 0.0000 0.0000 0.0000
# 2 21.3741 33.6315 18.2504 0.0000 0.0000 0.0000
# 3 42.1078 18.2504 96.9529 0.0000 0.0000 0.0000
# 4 0.0000 0.0000 0.0000 17.0142 0.0000 0.0000
# 5 0.0000 0.0000 0.0000 0.0000 30.8604 0.0000
# 6 0.0000 0.0000 0.0000 0.0000 0.0000 22.2188
#
#
#
# Elastic Compliance Matrix: (Units=1/GPa)
#
#
# Indices 1 2 3 4 5 6 
#
# 1 0.015466 -0.006888 -0.005420 0.000000 0.000000 0.000000
# 2 -0.006888 0.036184 -0.003820 0.000000 0.000000 0.000000
# 3 -0.005420 -0.003820 0.013388 0.000000 0.000000 0.000000
# 4 0.000000 0.000000 0.000000 0.058775 0.000000 0.000000
# 5 0.000000 0.000000 0.000000 0.000000 0.032404 0.000000
# 6 0.000000 0.000000 0.000000 0.000000 0.000000 0.045007
#
#
# Mechanical properties :
#
#
# Convention : Reuss Voigt Hill
#
# Bulk Modulus (GPa) = 30.50494 42.55377 36.52935
# Shear Modulus (GPa) = 20.45771 23.20450 21.83110
#
# Velocity S-wave (km/s) = 3.27111 3.48380 3.37913
# Velocity P-wave (km/s) = 5.49747 6.19998 5.85926
#
# Compressibility (1/GPa) = 0.03278158
#
# Stress axis : x y z
#
# Youngs Moduli (GPa) = 64.65821 27.63623 74.69639
#
# Poissons Ratio (x) = 0.19035 0.40489
# Poissons Ratio (y) = 0.44535 0.28533
# Poissons Ratio (z) = 0.35048 0.10557
#
# Static dielectric constant tensor:
#      x y z
#    x 3.414020 0.000000 0.000000 
#    y 0.000000 3.237000 0.000000 
#    z 0.000000 0.000000 3.631500 
# 
# 
# High freq. dielectric constant tensor:
#      x y z
#    x 1.739200 0.000000 0.000000 
#    y 0.000000 1.717210 0.000000 
#    z 0.000000 0.000000 1.744160 
# 
# From -- ./inp_files/18410.got.cif
#   From: 2010.06.25/outbox.cif.g09.slc.cpg/sg52_10_cif.got.tgz:18410.got - 2010.06.26 19:32:48.
