data_PCOD8215678
_publ_section_title
;
Structure prediction by ZEFSAII (Michael W. Deem and Ramdas Pophale) SiO2 
 PCOD8215678
Probable space group: P N N A
;
_chemical_formula_sum "Si O2"
_cell_formula_units_Z 32
_cell_length_a 14.205323
_cell_length_b 8.792876
_cell_length_c 10.643682
_cell_angle_alpha 90.000000
_cell_angle_beta 90.000000
_cell_angle_gamma 90.000000
_cell_volume 1329.455951
_symmetry_space_group_name_H-M "P N N A"
_symmetry_group_IT_number 52
_symmetry_cell_setting 'orthorhombic'
loop_
_space_group_symop_operation_xyz
x,y,z
1/2-x,-y,z
x,1/2-y,1/2-z
1/2-x,1/2+y,1/2-z
-x,-y,-z
1/2+x,y,-z
-x,1/2+y,1/2+z
1/2+x,1/2-y,1/2+z
loop_
_atom_site_type_symbol
_atom_site_label
_atom_site_fract_x
_atom_site_fract_y
_atom_site_fract_z
Si Si1 0.015420 0.646164 0.363500
Si Si2 0.791031 0.665033 0.373833
Si Si3 0.987421 0.800736 0.873308
Si Si4 0.713281 0.329593 0.875428
O O1 0.054853 0.750000 0.250000
O O2 0.903316 0.651791 0.372524
O O3 0.049658 0.712727 0.499538
O O4 0.051331 0.473449 0.352753
O O5 0.750000 0.500000 0.371706
O O6 0.755060 0.750000 0.250000
O O7 0.751176 0.747667 0.497965
O O8 0.048502 0.750000 0.750000
O O9 0.900229 0.682621 0.874744
O O10 0.750000 0.500000 0.878039
O O11 0.755672 0.250000 0.750000
#
# Coordination Sequence:
#
# PCOD8215678 Si02
#       4
#     8   8   8   8
#     4   9  19  36  55  77 110 146 183 228 273 327
#     4  10  20  35  56  83 114 149 188 229 277 331
#     4   9  19  36  55  80 109 142 185 226 276 330
#     4  10  20  37  58  81 111 145 186 233 282 336
#
# _framework density 24.069997000000001
#
# number of rings (size 3 to 8) (size 9 to 14) (size 15 to 20)
#    0.000    2.500    0.000    1.500    0.000    2.000 
#    0.000   20.000    0.000    0.000    0.000    0.000 
#    0.000    0.000    0.000    0.000    0.000    0.000 
#
# Total GULP energy -396528.568940 kJ/mol
# GULP energy per Si atom -12391.517779 kJ/mol
# Density = 2.401521 g / cm^3
# Si number density = 24.069997 Si / 1000 Ang^3
#
#
#
# Elastic Constant Matrix: (Units=GPa)
#
#
# Indices 1 2 3 4 5 6 
#
# 1 38.8172 23.0024 -5.3943 0.0000 0.0000 0.0000
# 2 23.0024 161.8289 93.7245 0.0000 0.0000 0.0000
# 3 -5.3943 93.7245 289.0620 0.0000 0.0000 0.0000
# 4 0.0000 0.0000 0.0000 58.9338 0.0000 0.0000
# 5 0.0000 0.0000 0.0000 0.0000 -19.4456 0.0000
# 6 0.0000 0.0000 0.0000 0.0000 0.0000 35.6105
#
#
#
# Elastic Compliance Matrix: (Units=1/GPa)
#
#
# Indices 1 2 3 4 5 6 
#
# 1 0.029364 -0.005529 0.002341 0.000000 0.000000 0.000000
# 2 -0.005529 0.008649 -0.002908 0.000000 0.000000 0.000000
# 3 0.002341 -0.002908 0.004446 0.000000 0.000000 0.000000
# 4 0.000000 0.000000 0.000000 0.016968 0.000000 0.000000
# 5 0.000000 0.000000 0.000000 0.000000 -0.051425 0.000000
# 6 0.000000 0.000000 0.000000 0.000000 0.000000 0.028082
#
#
# Mechanical properties :
#
#
# Convention : Reuss Voigt Hill
#
# Bulk Modulus (GPa) = 33.03990 79.15257 56.09624
# Shear Modulus (GPa) = 85.66841 40.24477 62.95659
#
# Velocity S-wave (km/s) = 5.97232 4.09343 5.11981
# Velocity P-wave (km/s) = 7.83036 7.43622 7.63583
#
# Compressibility (1/GPa) = 0.03026643
#
# Stress axis : x y z
#
# Youngs Moduli (GPa) = 34.05561 115.61648 224.92636
#
# Poissons Ratio (x) = 0.63930 -0.52651
# Poissons Ratio (y) = 0.18831 0.65400
# Poissons Ratio (z) = -0.07972 0.33617
#
# Static dielectric constant tensor:
#      x y z
#    x 4.485270 0.000000 0.000000 
#    y 0.000000 4.142150 0.000000 
#    z 0.000000 0.000000 4.835190 
# 
# 
# High freq. dielectric constant tensor:
#      x y z
#    x 1.921710 0.000000 0.000000 
#    y 0.000000 1.948100 0.000000 
#    z 0.000000 0.000000 1.993720 
# 
# From -- ./inp_files/18854.got.cif
#   From: 2010.06.25/outbox.cif.g09.slc.cpg/sg52_10_cif.got.tgz:18854.got - 2010.06.26 19:32:48.
