data_PCOD8215487
_publ_section_title
;
Structure prediction by ZEFSAII (Michael W. Deem and Ramdas Pophale) SiO2 
 PCOD8215487
Probable space group: P N N A
;
_chemical_formula_sum "Si O2"
_cell_formula_units_Z 40
_cell_length_a 8.849790
_cell_length_b 21.442960
_cell_length_c 10.265593
_cell_angle_alpha 90.000000
_cell_angle_beta 90.000000
_cell_angle_gamma 90.000000
_cell_volume 1948.057369
_symmetry_space_group_name_H-M "P N N A"
_symmetry_group_IT_number 52
_symmetry_cell_setting 'orthorhombic'
loop_
_space_group_symop_operation_xyz
x,y,z
1/2-x,-y,z
x,1/2-y,1/2-z
1/2-x,1/2+y,1/2-z
-x,-y,-z
1/2+x,y,-z
-x,1/2+y,1/2+z
1/2+x,1/2-y,1/2+z
loop_
_atom_site_type_symbol
_atom_site_label
_atom_site_fract_x
_atom_site_fract_y
_atom_site_fract_z
Si Si1 0.301800 0.562252 0.324915
Si Si2 0.580116 0.597814 0.462373
Si Si3 0.152423 0.166617 0.852609
Si Si4 0.448395 0.697646 0.911500
Si Si5 0.214846 0.310627 0.167018
O O1 0.250000 0.500000 0.243228
O O2 0.479204 0.556436 0.362747
O O3 0.195378 0.557028 0.453279
O O4 0.268809 0.627761 0.254658
O O5 0.461422 0.632551 0.552248
O O6 0.674839 0.646979 0.376405
O O7 0.139896 0.238854 0.885565
O O8 0.107694 0.150912 0.702797
O O9 0.627638 0.706578 0.901228
O O10 0.407339 0.673232 0.055369
O O11 0.162679 0.250000 0.250000
#
# Coordination Sequence:
#
# PCOD8215487 Si02
#       5
#     8   8   8   8   8
#     4  11  23  41  65  92 128 167 213 261 315 375
#     4  10  20  38  64  91 123 163 207 258 320 367
#     4  10  19  37  62  94 125 160 205 257 314 378
#     4  11  22  37  60  91 129 160 205 259 311 373
#     4  12  24  42  63  92 124 168 207 260 315 373
#
# _framework density 20.533275
#
# number of rings (size 3 to 8) (size 9 to 14) (size 15 to 20)
#    0.000    1.200    4.000    4.200    2.800    0.000 
#    0.000    1.000    0.000    0.000    0.000    0.000 
#    0.000    0.000    0.000    0.000    0.000    0.000 
#
# Total GULP energy -495813.234228 kJ/mol
# GULP energy per Si atom -12395.330856 kJ/mol
# Density = 2.048654 g / cm^3
# Si number density = 20.533275 Si / 1000 Ang^3
#
#
#
# Elastic Constant Matrix: (Units=GPa)
#
#
# Indices 1 2 3 4 5 6 
#
# 1 95.8696 -0.9107 21.8408 0.0000 0.0000 0.0000
# 2 -0.9107 75.8296 8.6574 0.0000 0.0000 0.0000
# 3 21.8408 8.6574 84.1358 0.0000 0.0000 0.0000
# 4 0.0000 0.0000 0.0000 17.1125 0.0000 0.0000
# 5 0.0000 0.0000 0.0000 0.0000 39.2076 0.0000
# 6 0.0000 0.0000 0.0000 0.0000 0.0000 21.6811
#
#
#
# Elastic Compliance Matrix: (Units=1/GPa)
#
#
# Indices 1 2 3 4 5 6 
#
# 1 0.011103 0.000468 -0.002930 0.000000 0.000000 0.000000
# 2 0.000468 0.013364 -0.001497 0.000000 0.000000 0.000000
# 3 -0.002930 -0.001497 0.012800 0.000000 0.000000 0.000000
# 4 0.000000 0.000000 0.000000 0.058437 0.000000 0.000000
# 5 0.000000 0.000000 0.000000 0.000000 0.025505 0.000000
# 6 0.000000 0.000000 0.000000 0.000000 0.000000 0.046123
#
#
# Mechanical properties :
#
#
# Convention : Reuss Voigt Hill
#
# Bulk Modulus (GPa) = 34.07271 35.00111 34.53691
# Shear Modulus (GPa) = 27.02215 30.68339 28.85277
#
# Velocity S-wave (km/s) = 3.63163 3.86984 3.75263
# Velocity P-wave (km/s) = 5.84935 6.08692 5.96932
#
# Compressibility (1/GPa) = 0.02934900
#
# Stress axis : x y z
#
# Youngs Moduli (GPa) = 90.06687 74.82817 78.12358
#
# Poissons Ratio (x) = -0.03501 0.22893
# Poissons Ratio (y) = -0.04214 0.11692
# Poissons Ratio (z) = 0.26393 0.11199
#
# Static dielectric constant tensor:
#      x y z
#    x 4.060230 0.000000 0.000000 
#    y 0.000000 3.601200 0.000000 
#    z 0.000000 0.000000 4.085240 
# 
# 
# High freq. dielectric constant tensor:
#      x y z
#    x 1.819640 0.000000 0.000000 
#    y 0.000000 1.781820 0.000000 
#    z 0.000000 0.000000 1.789300 
# 
# From -- ./inp_files/7411.got.cif
#   From: 2010.06.25/outbox.cif.g09.slc.cpg/sg52_4_cif.got.tgz:7411.got - 2010.06.26 19:32:48.
