data_PCOD8215006
_publ_section_title
;
Structure prediction by ZEFSAII (Michael W. Deem and Ramdas Pophale) SiO2 
 PCOD8215006
Probable space group: P N N A
;
_chemical_formula_sum "Si O2"
_cell_formula_units_Z 52
_cell_length_a 5.177089
_cell_length_b 20.710518
_cell_length_c 28.608899
_cell_angle_alpha 90.000000
_cell_angle_beta 90.000000
_cell_angle_gamma 90.000000
_cell_volume 3067.451727
_symmetry_space_group_name_H-M "P N N A"
_symmetry_group_IT_number 52
_symmetry_cell_setting 'orthorhombic'
loop_
_space_group_symop_operation_xyz
x,y,z
1/2-x,-y,z
x,1/2-y,1/2-z
1/2-x,1/2+y,1/2-z
-x,-y,-z
1/2+x,y,-z
-x,1/2+y,1/2+z
1/2+x,1/2-y,1/2+z
loop_
_atom_site_type_symbol
_atom_site_label
_atom_site_fract_x
_atom_site_fract_y
_atom_site_fract_z
Si Si1 0.184055 0.350717 0.227659
Si Si2 0.903672 0.429060 0.028137
Si Si3 0.679987 0.286649 0.678780
Si Si4 0.176317 0.115206 0.677589
Si Si5 0.683382 0.252656 0.371169
Si Si6 0.250000 0.000000 0.612731
Si Si7 0.151744 0.722968 0.972890
O O1 0.185136 0.345246 0.283990
O O2 0.189736 0.280032 0.206133
O O3 0.445232 0.387026 0.214447
O O4 0.940409 0.390190 0.207275
O O5 0.951510 0.462032 0.078818
O O6 0.878806 0.353020 0.035071
O O7 0.626622 0.451277 0.007415
O O8 0.408977 0.293256 0.652917
O O9 0.915623 0.288752 0.641622
O O10 0.174466 0.178763 0.645601
O O11 0.119316 0.053847 0.644974
O O12 0.745282 0.255761 0.425905
O O13 0.363598 0.744317 0.011827
#
# Coordination Sequence:
#
# PCOD8215006 Si02
#       7
#     8   8   8   8   8   4   8
#     4   9  18  33  43  68  80 107 124 186 231 278
#     4  10  22  35  47  59  79 114 160 200 233 262
#     4   9  17  28  52  61  85  98 138 172 236 266
#     4  10  21  30  46  60  90 104 148 179 233 264
#     4  10  17  31  44  69  78 113 140 186 212 279
#     4  12  22  36  46  66  82 124 148 204 222 282
#     4  10  19  31  44  61  89 116 144 189 229 260
#
# _framework density 16.952183000000002
#
# number of rings (size 3 to 8) (size 9 to 14) (size 15 to 20)
#    0.000    2.154    1.538    2.308    0.000    6.769 
#    0.000    0.000    0.000    0.000    0.000    0.000 
#    0.000    0.000    0.000    0.000    0.000    0.000 
#
# Total GULP energy -644506.986340 kJ/mol
# GULP energy per Si atom -12394.365122 kJ/mol
# Density = 1.691360 g / cm^3
# Si number density = 16.952183 Si / 1000 Ang^3
#
#
#
# Elastic Constant Matrix: (Units=GPa)
#
#
# Indices 1 2 3 4 5 6 
#
# 1 107.0636 15.9186 30.7142 0.0000 0.0000 0.0000
# 2 15.9186 20.5273 28.7402 0.0000 0.0000 0.0000
# 3 30.7142 28.7402 94.5680 0.0000 0.0000 0.0000
# 4 0.0000 0.0000 0.0000 30.0293 0.0000 0.0000
# 5 0.0000 0.0000 0.0000 0.0000 21.6919 0.0000
# 6 0.0000 0.0000 0.0000 0.0000 0.0000 8.5590
#
#
#
# Elastic Compliance Matrix: (Units=1/GPa)
#
#
# Indices 1 2 3 4 5 6 
#
# 1 0.010705 -0.005977 -0.001660 0.000000 0.000000 0.000000
# 2 -0.005977 0.088134 -0.024844 0.000000 0.000000 0.000000
# 3 -0.001660 -0.024844 0.018664 0.000000 0.000000 0.000000
# 4 0.000000 0.000000 0.000000 0.033301 0.000000 0.000000
# 5 0.000000 0.000000 0.000000 0.000000 0.046100 0.000000
# 6 0.000000 0.000000 0.000000 0.000000 0.000000 0.116835
#
#
# Mechanical properties :
#
#
# Convention : Reuss Voigt Hill
#
# Bulk Modulus (GPa) = 19.03270 41.43389 30.23329
# Shear Modulus (GPa) = 12.61940 21.84179 17.23059
#
# Velocity S-wave (km/s) = 2.73135 3.59337 3.19160
# Velocity P-wave (km/s) = 4.60420 6.45841 5.60847
#
# Compressibility (1/GPa) = 0.05254116
#
# Stress axis : x y z
#
# Youngs Moduli (GPa) = 93.41199 11.34635 53.57931
#
# Poissons Ratio (x) = 0.06782 0.08896
# Poissons Ratio (y) = 0.55832 1.33110
# Poissons Ratio (z) = 0.15510 0.28188
#
# Static dielectric constant tensor:
#      x y z
#    x 3.381130 0.000000 0.000000 
#    y 0.000000 2.727130 0.000000 
#    z 0.000000 0.000000 3.268860 
# 
# 
# High freq. dielectric constant tensor:
#      x y z
#    x 1.669970 0.000000 0.000000 
#    y 0.000000 1.583480 0.000000 
#    z 0.000000 0.000000 1.652800 
# 
# From -- ./inp_files/41780.got.cif
#   From: 2010.06.25/outbox.cif.g09.slc.cpg/sg52_21_cif.got.tgz:41780.got - 2010.06.26 19:32:48.
