data_PCOD8215692
_publ_section_title
;
Structure prediction by ZEFSAII (Michael W. Deem and Ramdas Pophale) SiO2 
 PCOD8215692
Probable space group: P N N A
;
_chemical_formula_sum "Si O2"
_cell_formula_units_Z 64
_cell_length_a 8.474164
_cell_length_b 16.731901
_cell_length_c 22.272419
_cell_angle_alpha 90.000000
_cell_angle_beta 90.000000
_cell_angle_gamma 90.000000
_cell_volume 3157.981191
_symmetry_space_group_name_H-M "P N N A"
_symmetry_group_IT_number 52
_symmetry_cell_setting 'orthorhombic'
loop_
_space_group_symop_operation_xyz
x,y,z
1/2-x,-y,z
x,1/2-y,1/2-z
1/2-x,1/2+y,1/2-z
-x,-y,-z
1/2+x,y,-z
-x,1/2+y,1/2+z
1/2+x,1/2-y,1/2+z
loop_
_atom_site_type_symbol
_atom_site_label
_atom_site_fract_x
_atom_site_fract_y
_atom_site_fract_z
Si Si1 0.636213 0.071930 0.147645
Si Si2 0.600467 0.671979 0.293461
Si Si3 0.398945 0.810146 0.956896
Si Si4 0.045571 0.778918 0.925022
Si Si5 0.952464 0.144407 0.561961
Si Si6 0.571626 0.479716 0.139682
Si Si7 0.932983 0.983765 0.762467
Si Si8 0.413916 0.609756 0.060073
O O1 0.727581 0.131762 0.193994
O O2 0.572505 0.115341 0.087536
O O3 0.750000 0.000000 0.127031
O O4 0.483323 0.033308 0.178737
O O5 0.617423 0.750000 0.250000
O O6 0.526374 0.687315 0.358679
O O7 0.475017 0.610494 0.264818
O O8 0.221264 0.781511 0.950765
O O9 0.518377 0.738812 0.940121
O O10 0.434707 0.828199 0.027602
O O11 0.006626 0.686741 0.917341
O O12 0.769351 0.127098 0.562633
O O13 0.035086 0.111512 0.621901
O O14 0.033089 0.094096 0.508093
O O15 0.750000 0.500000 0.124032
O O16 0.541262 0.483032 0.209760
O O17 0.452648 0.536349 0.103105
O O18 0.750000 0.000000 0.749865
#
# Coordination Sequence:
#
# PCOD8215692 Si02
#       8
#     8   8   8   8   8   8   8   8
#     4   9  21  42  63  85 117 156 199 246 301 364
#     4  10  21  40  64  88 117 159 203 244 296 359
#     4  10  20  37  59  87 120 152 195 243 296 355
#     4  10  20  35  59  88 117 154 197 246 301 355
#     4  11  22  35  55  84 116 152 195 241 293 352
#     4  12  23  38  57  78 113 157 196 238 292 354
#     4  11  24  41  60  87 119 152 194 247 300 356
#     4  11  21  36  55  83 119 152 193 241 293 351
#
# _framework density 20.266110999999999
#
# number of rings (size 3 to 8) (size 9 to 14) (size 15 to 20)
#    0.000    1.500    0.000    7.875    0.000    5.000 
#    0.000    6.875    0.000    0.000    0.000    0.000 
#    0.000    0.000    0.000    0.000    0.000    0.000 
#
# Total GULP energy -793402.971637 kJ/mol
# GULP energy per Si atom -12396.921432 kJ/mol
# Density = 2.021998 g / cm^3
# Si number density = 20.266111 Si / 1000 Ang^3
#
#
#
# Elastic Constant Matrix: (Units=GPa)
#
#
# Indices 1 2 3 4 5 6 
#
# 1 94.0645 19.1173 26.7423 0.0000 0.0000 0.0000
# 2 19.1173 78.9011 45.0316 0.0000 0.0000 0.0000
# 3 26.7423 45.0316 113.2808 0.0000 0.0000 0.0000
# 4 0.0000 0.0000 0.0000 46.6278 0.0000 0.0000
# 5 0.0000 0.0000 0.0000 0.0000 28.3230 0.0000
# 6 0.0000 0.0000 0.0000 0.0000 0.0000 31.4300
#
#
#
# Elastic Compliance Matrix: (Units=1/GPa)
#
#
# Indices 1 2 3 4 5 6 
#
# 1 0.011551 -0.001607 -0.002088 0.000000 0.000000 0.000000
# 2 -0.001607 0.016617 -0.006226 0.000000 0.000000 0.000000
# 3 -0.002088 -0.006226 0.011796 0.000000 0.000000 0.000000
# 4 0.000000 0.000000 0.000000 0.021446 0.000000 0.000000
# 5 0.000000 0.000000 0.000000 0.000000 0.035307 0.000000
# 6 0.000000 0.000000 0.000000 0.000000 0.000000 0.031817
#
#
# Mechanical properties :
#
#
# Convention : Reuss Voigt Hill
#
# Bulk Modulus (GPa) = 49.69901 52.00319 50.85110
# Shear Modulus (GPa) = 32.24063 34.29984 33.27024
#
# Velocity S-wave (km/s) = 3.99289 4.11843 4.05615
# Velocity P-wave (km/s) = 6.77008 6.95206 6.86168
#
# Compressibility (1/GPa) = 0.02012112
#
# Stress axis : x y z
#
# Youngs Moduli (GPa) = 86.57068 60.17936 84.77722
#
# Poissons Ratio (x) = 0.09671 0.17702
# Poissons Ratio (y) = 0.13912 0.52784
# Poissons Ratio (z) = 0.18077 0.37469
#
# Static dielectric constant tensor:
#      x y z
#    x 3.637030 0.000000 0.000000 
#    y 0.000000 3.863620 0.000000 
#    z 0.000000 0.000000 3.877410 
# 
# 
# High freq. dielectric constant tensor:
#      x y z
#    x 1.793570 0.000000 0.000000 
#    y 0.000000 1.789790 0.000000 
#    z 0.000000 0.000000 1.796740 
# 
# From -- ./inp_files/36173.got.cif
#   From: 2010.06.25/outbox.cif.g09.slc.cpg/sg52_19_cif.got.tgz:36173.got - 2010.06.26 19:32:48.
