data_PCOD8215913
_publ_section_title
;
Structure prediction by ZEFSAII (Michael W. Deem and Ramdas Pophale) SiO2 
 PCOD8215913
Probable space group: P N N A
;
_chemical_formula_sum "Si O2"
_cell_formula_units_Z 48
_cell_length_a 8.565130
_cell_length_b 8.728427
_cell_length_c 29.578528
_cell_angle_alpha 90.000000
_cell_angle_beta 90.000000
_cell_angle_gamma 90.000000
_cell_volume 2211.294065
_symmetry_space_group_name_H-M "P N N A"
_symmetry_group_IT_number 52
_symmetry_cell_setting 'orthorhombic'
loop_
_space_group_symop_operation_xyz
x,y,z
1/2-x,-y,z
x,1/2-y,1/2-z
1/2-x,1/2+y,1/2-z
-x,-y,-z
1/2+x,y,-z
-x,1/2+y,1/2+z
1/2+x,1/2-y,1/2+z
loop_
_atom_site_type_symbol
_atom_site_label
_atom_site_fract_x
_atom_site_fract_y
_atom_site_fract_z
Si Si1 0.068596 0.004175 0.320341
Si Si2 0.858010 0.349339 0.109321
Si Si3 0.419263 0.155027 0.051904
Si Si4 0.420575 0.795538 0.035014
Si Si5 0.912372 0.926454 0.236875
Si Si6 0.571441 0.304988 0.355282
O O1 0.042652 0.021440 0.265878
O O2 0.980229 0.849756 0.331901
O O3 0.250000 0.000000 0.332246
O O4 0.983583 0.132783 0.350252
O O5 0.750000 0.500000 0.099301
O O6 0.746991 0.209846 0.125015
O O7 0.955039 0.297970 0.065175
O O8 0.257863 0.248652 0.044684
O O9 0.454707 0.166224 0.104283
O O10 0.423989 0.976468 0.042111
O O11 0.541131 0.237772 0.017903
O O12 0.908997 0.750000 0.250000
O O13 0.941188 0.939552 0.182578
O O14 0.750000 0.000000 0.251081
#
# Coordination Sequence:
#
# PCOD8215913 Si02
#       6
#     8   8   8   8   8   8
#     4  10  20  39  59  82 120 155 189 245 297 346
#     4  10  21  38  62  88 117 157 198 239 302 360
#     4  10  21  38  59  87 117 151 197 242 296 346
#     4  10  21  38  60  85 119 154 191 245 295 352
#     4  10  21  39  59  86 117 156 201 246 300 359
#     4  10  21  37  59  85 116 153 198 242 287 358
#
# _framework density 21.706748000000001
#
# number of rings (size 3 to 8) (size 9 to 14) (size 15 to 20)
#    0.000    2.000    0.000    4.500    2.333    1.333 
#    3.000   15.833    0.000    0.000    0.000    0.000 
#    0.000    0.000    0.000    0.000    0.000    0.000 
#
# Total GULP energy -594719.856940 kJ/mol
# GULP energy per Si atom -12389.997020 kJ/mol
# Density = 2.165734 g / cm^3
# Si number density = 21.706748 Si / 1000 Ang^3
#
#
#
# Elastic Constant Matrix: (Units=GPa)
#
#
# Indices 1 2 3 4 5 6 
#
# 1 131.9183 8.6858 42.7730 0.0000 0.0000 0.0000
# 2 8.6858 14.0649 9.0779 0.0000 0.0000 0.0000
# 3 42.7730 9.0779 143.3081 0.0000 0.0000 0.0000
# 4 0.0000 0.0000 0.0000 225.7464 0.0000 0.0000
# 5 0.0000 0.0000 0.0000 0.0000 41.6874 0.0000
# 6 0.0000 0.0000 0.0000 0.0000 0.0000 22.4372
#
#
#
# Elastic Compliance Matrix: (Units=1/GPa)
#
#
# Indices 1 2 3 4 5 6 
#
# 1 0.008583 -0.003803 -0.002321 0.000000 0.000000 0.000000
# 2 -0.003803 0.075814 -0.003668 0.000000 0.000000 0.000000
# 3 -0.002321 -0.003668 0.007903 0.000000 0.000000 0.000000
# 4 0.000000 0.000000 0.000000 0.004430 0.000000 0.000000
# 5 0.000000 0.000000 0.000000 0.000000 0.023988 0.000000
# 6 0.000000 0.000000 0.000000 0.000000 0.000000 0.044569
#
#
# Mechanical properties :
#
#
# Convention : Reuss Voigt Hill
#
# Bulk Modulus (GPa) = 13.75164 45.59608 29.67386
# Shear Modulus (GPa) = 23.91094 73.22452 48.56773
#
# Velocity S-wave (km/s) = 3.32255 5.81436 4.73530
# Velocity P-wave (km/s) = 4.59000 8.13184 6.60283
#
# Compressibility (1/GPa) = 0.07271858
#
# Stress axis : x y z
#
# Youngs Moduli (GPa) = 116.50422 13.19009 126.53363
#
# Poissons Ratio (x) = 0.05016 0.29368
# Poissons Ratio (y) = 0.44303 0.46406
# Poissons Ratio (z) = 0.27041 0.04837
#
# Static dielectric constant tensor:
#      x y z
#    x 4.081370 0.000000 0.000000 
#    y 0.000000 3.568830 0.000000 
#    z 0.000000 0.000000 4.917970 
# 
# 
# High freq. dielectric constant tensor:
#      x y z
#    x 1.853640 0.000000 0.000000 
#    y 0.000000 1.820690 0.000000 
#    z 0.000000 0.000000 1.873980 
# 
# From -- ./inp_files/44414.got.cif
#   From: 2010.06.25/outbox.cif.g09.slc.cpg/sg52_23_cif.got.tgz:44414.got - 2010.06.26 19:32:48.
