data_PCOD8215717
_publ_section_title
;
Structure prediction by ZEFSAII (Michael W. Deem and Ramdas Pophale) SiO2 
 PCOD8215717
Probable space group: P N N A
;
_chemical_formula_sum "Si O2"
_cell_formula_units_Z 48
_cell_length_a 28.882002
_cell_length_b 9.804182
_cell_length_c 8.160934
_cell_angle_alpha 90.000000
_cell_angle_beta 90.000000
_cell_angle_gamma 90.000000
_cell_volume 2310.886013
_symmetry_space_group_name_H-M "P N N A"
_symmetry_group_IT_number 52
_symmetry_cell_setting 'orthorhombic'
loop_
_space_group_symop_operation_xyz
x,y,z
1/2-x,-y,z
x,1/2-y,1/2-z
1/2-x,1/2+y,1/2-z
-x,-y,-z
1/2+x,y,-z
-x,1/2+y,1/2+z
1/2+x,1/2-y,1/2+z
loop_
_atom_site_type_symbol
_atom_site_label
_atom_site_fract_x
_atom_site_fract_y
_atom_site_fract_z
Si Si1 0.932044 0.482923 0.595905
Si Si2 0.614443 0.895922 0.332916
Si Si3 0.362716 0.866733 0.885124
Si Si4 0.020159 0.898588 0.779782
Si Si5 0.850607 0.390496 0.805339
Si Si6 0.210889 0.388266 0.344671
O O1 0.906472 0.615121 0.510998
O O2 0.954795 0.392174 0.455864
O O3 0.896395 0.390672 0.694537
O O4 0.973411 0.514275 0.723264
O O5 0.613733 0.750000 0.250000
O O6 0.560443 0.947901 0.347558
O O7 0.639179 0.889335 0.504600
O O8 0.644138 0.993550 0.214950
O O9 0.371964 0.750000 0.750000
O O10 0.316016 0.841411 0.990343
O O11 0.000930 0.750000 0.750000
O O12 0.824406 0.250000 0.750000
O O13 0.822471 0.528774 0.776891
O O14 0.250000 0.500000 0.391573
O O15 0.227975 0.250000 0.250000
#
# Coordination Sequence:
#
# PCOD8215717 Si02
#       6
#     8   8   8   8   8   8
#     4   9  20  34  53  82 114 154 202 245 289 346
#     4  10  20  36  57  83 118 157 197 243 293 346
#     4  10  21  40  61  86 119 154 196 242 296 357
#     4   9  17  33  51  76 116 155 198 248 292 339
#     4  11  21  38  63  86 114 155 198 242 295 352
#     4  11  24  43  66  92 119 148 189 238 293 358
#
# _framework density 20.771253999999999
#
# number of rings (size 3 to 8) (size 9 to 14) (size 15 to 20)
#    0.000    2.000    0.000    5.500    0.000    4.667 
#    0.000   21.667    0.000    0.000    0.000    0.000 
#    0.000    0.000    0.000    0.000    0.000    0.000 
#
# Total GULP energy -594628.204825 kJ/mol
# GULP energy per Si atom -12388.087601 kJ/mol
# Density = 2.072398 g / cm^3
# Si number density = 20.771254 Si / 1000 Ang^3
#
#
#
# Elastic Constant Matrix: (Units=GPa)
#
#
# Indices 1 2 3 4 5 6 
#
# 1 74.2749 26.0513 31.7992 0.0000 0.0000 0.0000
# 2 26.0513 104.8947 25.5752 0.0000 0.0000 0.0000
# 3 31.7992 25.5752 82.7833 0.0000 0.0000 0.0000
# 4 0.0000 0.0000 0.0000 38.3043 0.0000 0.0000
# 5 0.0000 0.0000 0.0000 0.0000 7.7877 0.0000
# 6 0.0000 0.0000 0.0000 0.0000 0.0000 20.4009
#
#
#
# Elastic Compliance Matrix: (Units=1/GPa)
#
#
# Indices 1 2 3 4 5 6 
#
# 1 0.016851 -0.002819 -0.005602 0.000000 0.000000 0.000000
# 2 -0.002819 0.010782 -0.002248 0.000000 0.000000 0.000000
# 3 -0.005602 -0.002248 0.014926 0.000000 0.000000 0.000000
# 4 0.000000 0.000000 0.000000 0.026107 0.000000 0.000000
# 5 0.000000 0.000000 0.000000 0.000000 0.128408 0.000000
# 6 0.000000 0.000000 0.000000 0.000000 0.000000 0.049017
#
#
# Mechanical properties :
#
#
# Convention : Reuss Voigt Hill
#
# Bulk Modulus (GPa) = 47.12451 47.64493 47.38472
# Shear Modulus (GPa) = 18.21483 25.20039 21.70761
#
# Velocity S-wave (km/s) = 2.96450 3.48693 3.23628
# Velocity P-wave (km/s) = 5.86978 6.26093 6.06851
#
# Compressibility (1/GPa) = 0.02122038
#
# Stress axis : x y z
#
# Youngs Moduli (GPa) = 59.34512 92.75047 66.99703
#
# Poissons Ratio (x) = 0.26148 0.37530
# Poissons Ratio (y) = 0.16730 0.15061
# Poissons Ratio (z) = 0.33244 0.20850
#
# Static dielectric constant tensor:
#      x y z
#    x 3.882980 0.000000 0.000000 
#    y 0.000000 3.643920 0.000000 
#    z 0.000000 0.000000 4.588560 
# 
# 
# High freq. dielectric constant tensor:
#      x y z
#    x 1.802990 0.000000 0.000000 
#    y 0.000000 1.812010 0.000000 
#    z 0.000000 0.000000 1.811370 
# 
# From -- ./inp_files/15547.got.cif
#   From: 2010.06.25/outbox.cif.g09.slc.cpg/sg52_8_cif.got.tgz:15547.got - 2010.06.26 19:32:48.
