data_PCOD8215721
_publ_section_title
;
Structure prediction by ZEFSAII (Michael W. Deem and Ramdas Pophale) SiO2 
 PCOD8215721
Probable space group: P N N A
;
_chemical_formula_sum "Si O2"
_cell_formula_units_Z 40
_cell_length_a 7.831643
_cell_length_b 14.274787
_cell_length_c 17.375981
_cell_angle_alpha 90.000000
_cell_angle_beta 90.000000
_cell_angle_gamma 90.000000
_cell_volume 1942.548416
_symmetry_space_group_name_H-M "P N N A"
_symmetry_group_IT_number 52
_symmetry_cell_setting 'orthorhombic'
loop_
_space_group_symop_operation_xyz
x,y,z
1/2-x,-y,z
x,1/2-y,1/2-z
1/2-x,1/2+y,1/2-z
-x,-y,-z
1/2+x,y,-z
-x,1/2+y,1/2+z
1/2+x,1/2-y,1/2+z
loop_
_atom_site_type_symbol
_atom_site_label
_atom_site_fract_x
_atom_site_fract_y
_atom_site_fract_z
Si Si1 0.432831 0.713554 0.963645
Si Si2 0.250000 0.000000 0.176952
Si Si3 0.742695 0.199838 0.894847
Si Si4 0.423121 0.049943 0.733886
Si Si5 0.147198 0.914779 0.564467
Si Si6 0.958717 0.750000 0.750000
O O1 0.564581 0.763799 0.906893
O O2 0.272339 0.673723 0.915233
O O3 0.368840 0.786476 0.028316
O O4 0.509925 0.620911 0.003661
O O5 0.254159 0.909929 0.122564
O O6 0.416546 0.005088 0.230815
O O7 0.661709 0.259833 0.825101
O O8 0.439181 0.046030 0.641847
O O9 0.423824 0.158481 0.760395
O O10 0.250000 0.000000 0.763118
O O11 0.250000 0.000000 0.525056
#
# Coordination Sequence:
#
# PCOD8215721 Si02
#       6
#     8   4   8   8   8   4
#     4  10  21  39  62  93 125 168 210 257 331 380
#     4  10  24  44  62  92 126 168 218 272 314 368
#     4  10  22  41  65  92 125 170 214 263 323 381
#     4  10  22  40  62  92 125 164 214 262 321 377
#     4  10  20  36  57  91 126 162 202 259 316 388
#     4  10  20  40  64  88 130 162 212 272 314 382
#
# _framework density 20.591508000000001
#
# number of rings (size 3 to 8) (size 9 to 14) (size 15 to 20)
#    0.000    2.000    2.000    0.600    0.000    8.800 
#    5.400    1.000    0.000    0.000    0.000    0.000 
#    0.000    0.000    0.000    0.000    0.000    0.000 
#
# Total GULP energy -495986.639782 kJ/mol
# GULP energy per Si atom -12399.665995 kJ/mol
# Density = 2.054464 g / cm^3
# Si number density = 20.591508 Si / 1000 Ang^3
#
#
#
# Elastic Constant Matrix: (Units=GPa)
#
#
# Indices 1 2 3 4 5 6 
#
# 1 113.2846 43.6174 38.7956 0.0000 0.0000 0.0000
# 2 43.6174 116.5309 35.7873 0.0000 0.0000 0.0000
# 3 38.7956 35.7873 78.5161 0.0000 0.0000 0.0000
# 4 0.0000 0.0000 0.0000 6.3179 0.0000 0.0000
# 5 0.0000 0.0000 0.0000 0.0000 15.3991 0.0000
# 6 0.0000 0.0000 0.0000 0.0000 0.0000 37.9712
#
#
#
# Elastic Compliance Matrix: (Units=1/GPa)
#
#
# Indices 1 2 3 4 5 6 
#
# 1 0.011441 -0.002961 -0.004304 0.000000 0.000000 0.000000
# 2 -0.002961 0.010744 -0.003434 0.000000 0.000000 0.000000
# 3 -0.004304 -0.003434 0.016428 0.000000 0.000000 0.000000
# 4 0.000000 0.000000 0.000000 0.158279 0.000000 0.000000
# 5 0.000000 0.000000 0.000000 0.000000 0.064939 0.000000
# 6 0.000000 0.000000 0.000000 0.000000 0.000000 0.026336
#
#
# Mechanical properties :
#
#
# Convention : Reuss Voigt Hill
#
# Bulk Modulus (GPa) = 58.08516 60.52581 59.30549
# Shear Modulus (GPa) = 15.85772 24.61306 20.23539
#
# Velocity S-wave (km/s) = 2.77810 3.46106 3.13821
# Velocity P-wave (km/s) = 6.20967 6.74013 6.48033
#
# Compressibility (1/GPa) = 0.01721610
#
# Stress axis : x y z
#
# Youngs Moduli (GPa) = 87.40402 93.07265 60.87146
#
# Poissons Ratio (x) = 0.27556 0.26197
# Poissons Ratio (y) = 0.25878 0.20905
# Poissons Ratio (z) = 0.37616 0.31964
#
# Static dielectric constant tensor:
#      x y z
#    x 3.913460 0.000000 0.000000 
#    y 0.000000 3.728640 0.000000 
#    z 0.000000 0.000000 3.514630 
# 
# 
# High freq. dielectric constant tensor:
#      x y z
#    x 1.813080 0.000000 0.000000 
#    y 0.000000 1.809760 0.000000 
#    z 0.000000 0.000000 1.789500 
# 
# From -- ./inp_files/31089.got.cif
#   From: 2010.06.25/outbox.cif.g09.slc.cpg/sg52_16_cif.got.tgz:31089.got - 2010.06.26 19:32:48.
