data_PCOD8215923
_publ_section_title
;
Structure prediction by ZEFSAII (Michael W. Deem and Ramdas Pophale) SiO2 
 PCOD8215923
Probable space group: P N N A
;
_chemical_formula_sum "Si O2"
_cell_formula_units_Z 36
_cell_length_a 23.640334
_cell_length_b 10.346255
_cell_length_c 7.284347
_cell_angle_alpha 90.000000
_cell_angle_beta 90.000000
_cell_angle_gamma 90.000000
_cell_volume 1781.670594
_symmetry_space_group_name_H-M "P N N A"
_symmetry_group_IT_number 52
_symmetry_cell_setting 'orthorhombic'
loop_
_space_group_symop_operation_xyz
x,y,z
1/2-x,-y,z
x,1/2-y,1/2-z
1/2-x,1/2+y,1/2-z
-x,-y,-z
1/2+x,y,-z
-x,1/2+y,1/2+z
1/2+x,1/2-y,1/2+z
loop_
_atom_site_type_symbol
_atom_site_label
_atom_site_fract_x
_atom_site_fract_y
_atom_site_fract_z
Si Si1 0.689241 0.936913 0.620763
Si Si2 0.145137 0.666410 0.482298
Si Si3 0.057373 0.250000 0.750000
Si Si4 0.531936 0.701015 0.054723
Si Si5 0.885308 0.500861 0.185758
O O1 0.687017 0.791139 0.533251
O O2 0.659707 0.933784 0.820484
O O3 0.656230 0.033283 0.483525
O O4 0.750000 0.000000 0.645967
O O5 0.079952 0.709634 0.460911
O O6 0.148858 0.597114 0.679950
O O7 0.097570 0.371362 0.701256
O O8 0.021452 0.202717 0.577458
O O9 0.509814 0.750000 0.250000
O O10 0.558571 0.560714 0.093668
#
# Coordination Sequence:
#
# PCOD8215923 Si02
#       5
#     8   8   4   8   8
#     4  10  20  39  63  84 105 154 202 245 293 350
#     4   9  20  41  61  85 114 153 198 239 297 355
#     4  12  22  34  56  94 122 158 194 240 288 340
#     4   9  19  36  62  82 116 162 195 234 290 352
#     4  10  22  39  55  87 124 154 195 244 290 354
#
# _framework density 20.205756000000001
#
# number of rings (size 3 to 8) (size 9 to 14) (size 15 to 20)
#    0.000    2.222    0.000    5.333    0.000    6.222 
#   12.000    0.000    0.000    0.000    0.000    0.000 
#    0.000    0.000    0.000    0.000    0.000    0.000 
#
# Total GULP energy -446090.962655 kJ/mol
# GULP energy per Si atom -12391.415629 kJ/mol
# Density = 2.015977 g / cm^3
# Si number density = 20.205756 Si / 1000 Ang^3
#
#
#
# Elastic Constant Matrix: (Units=GPa)
#
#
# Indices 1 2 3 4 5 6 
#
# 1 61.5761 46.9175 48.0186 0.0000 0.0000 0.0000
# 2 46.9175 86.5851 48.6240 0.0000 0.0000 0.0000
# 3 48.0186 48.6240 114.3186 0.0000 0.0000 0.0000
# 4 0.0000 0.0000 0.0000 20.3750 0.0000 0.0000
# 5 0.0000 0.0000 0.0000 0.0000 1.9922 0.0000
# 6 0.0000 0.0000 0.0000 0.0000 0.0000 17.2681
#
#
#
# Elastic Compliance Matrix: (Units=1/GPa)
#
#
# Indices 1 2 3 4 5 6 
#
# 1 0.032514 -0.013071 -0.008098 0.000000 0.000000 0.000000
# 2 -0.013071 0.020428 -0.003199 0.000000 0.000000 0.000000
# 3 -0.008098 -0.003199 0.013509 0.000000 0.000000 0.000000
# 4 0.000000 0.000000 0.000000 0.049080 0.000000 0.000000
# 5 0.000000 0.000000 0.000000 0.000000 0.501962 0.000000
# 6 0.000000 0.000000 0.000000 0.000000 0.000000 0.057910
#
#
# Mechanical properties :
#
#
# Convention : Reuss Voigt Hill
#
# Bulk Modulus (GPa) = 56.44187 61.06667 58.75427
# Shear Modulus (GPa) = 6.84890 15.85504 11.35197
#
# Velocity S-wave (km/s) = 1.84308 2.80425 2.37284
# Velocity P-wave (km/s) = 5.70293 6.38538 6.05378
#
# Compressibility (1/GPa) = 0.01771734
#
# Stress axis : x y z
#
# Youngs Moduli (GPa) = 30.75583 48.95193 74.02266
#
# Poissons Ratio (x) = 0.63984 0.59942
# Poissons Ratio (y) = 0.40200 0.23677
# Poissons Ratio (z) = 0.24905 0.15658
#
# Static dielectric constant tensor:
#      x y z
#    x 3.349550 0.000000 0.000000 
#    y 0.000000 3.678660 0.000000 
#    z 0.000000 0.000000 3.839980 
# 
# 
# High freq. dielectric constant tensor:
#      x y z
#    x 1.758880 0.000000 0.000000 
#    y 0.000000 1.771890 0.000000 
#    z 0.000000 0.000000 1.804520 
# 
# From -- ./inp_files/12941.got.cif
#   From: 2010.06.25/outbox.cif.g09.slc.cpg/sg52_7_cif.got.tgz:12941.got - 2010.06.26 19:32:48.
