data_PCOD8215424
_publ_section_title
;
Structure prediction by ZEFSAII (Michael W. Deem and Ramdas Pophale) SiO2 
 PCOD8215424
Probable space group: P N N A
;
_chemical_formula_sum "Si O2"
_cell_formula_units_Z 52
_cell_length_a 9.559208
_cell_length_b 15.013670
_cell_length_c 19.557380
_cell_angle_alpha 90.000000
_cell_angle_beta 90.000000
_cell_angle_gamma 90.000000
_cell_volume 2806.851599
_symmetry_space_group_name_H-M "P N N A"
_symmetry_group_IT_number 52
_symmetry_cell_setting 'orthorhombic'
loop_
_space_group_symop_operation_xyz
x,y,z
1/2-x,-y,z
x,1/2-y,1/2-z
1/2-x,1/2+y,1/2-z
-x,-y,-z
1/2+x,y,-z
-x,1/2+y,1/2+z
1/2+x,1/2-y,1/2+z
loop_
_atom_site_type_symbol
_atom_site_label
_atom_site_fract_x
_atom_site_fract_y
_atom_site_fract_z
Si Si1 0.103610 0.896958 0.105534
Si Si2 0.582997 0.406065 0.625008
Si Si3 0.151092 0.574169 0.730937
Si Si4 0.750000 0.000000 0.363557
Si Si5 0.691605 0.176923 0.434327
Si Si6 0.384221 0.698380 0.688938
Si Si7 0.534760 0.767915 0.018596
O O1 0.255923 0.880744 0.139319
O O2 0.987838 0.878406 0.163298
O O3 0.081473 0.000016 0.083814
O O4 0.088901 0.833468 0.040458
O O5 0.501527 0.416726 0.697065
O O6 0.510483 0.329839 0.581080
O O7 0.250000 0.500000 0.693831
O O8 0.136876 0.548421 0.812226
O O9 0.237773 0.664550 0.720502
O O10 0.820632 0.926781 0.413018
O O11 0.646218 0.234893 0.371113
O O12 0.588776 0.201725 0.496330
O O13 0.846772 0.200617 0.457329
O O14 0.463209 0.750000 0.750000
#
# Coordination Sequence:
#
# PCOD8215424 Si02
#       7
#     8   8   8   4   8   8   8
#     4  10  22  35  55  86 129 154 185 241 299 368
#     4  11  20  36  57  89 124 153 188 241 301 360
#     4  10  19  35  62  90 114 142 203 241 298 346
#     4  10  22  40  60  92 106 158 208 264 284 342
#     4  11  23  38  63  81 123 151 208 247 295 352
#     4  11  19  37  61  87 114 158 194 248 302 355
#     4  11  22  38  56  88 117 163 194 237 297 360
#
# _framework density 18.526095999999999
#
# number of rings (size 3 to 8) (size 9 to 14) (size 15 to 20)
#    0.462    0.923    6.154    0.462    0.000    0.615 
#    2.769    2.308    0.000    1.846    0.000    0.000 
#    0.000    0.000    0.000    0.000    0.000    0.000 
#
# Total GULP energy -644443.352214 kJ/mol
# GULP energy per Si atom -12393.141389 kJ/mol
# Density = 1.848393 g / cm^3
# Si number density = 18.526096 Si / 1000 Ang^3
#
#
#
# Elastic Constant Matrix: (Units=GPa)
#
#
# Indices 1 2 3 4 5 6 
#
# 1 102.0508 36.8211 29.7486 0.0000 0.0000 0.0000
# 2 36.8211 93.5941 31.0824 0.0000 0.0000 0.0000
# 3 29.7486 31.0824 67.2988 0.0000 0.0000 0.0000
# 4 0.0000 0.0000 0.0000 26.1292 0.0000 0.0000
# 5 0.0000 0.0000 0.0000 0.0000 16.5108 0.0000
# 6 0.0000 0.0000 0.0000 0.0000 0.0000 -113.5061
#
#
#
# Elastic Compliance Matrix: (Units=1/GPa)
#
#
# Indices 1 2 3 4 5 6 
#
# 1 0.012169 -0.003545 -0.003742 0.000000 0.000000 0.000000
# 2 -0.003545 0.013653 -0.004739 0.000000 0.000000 0.000000
# 3 -0.003742 -0.004739 0.018702 0.000000 0.000000 0.000000
# 4 0.000000 0.000000 0.000000 0.038271 0.000000 0.000000
# 5 0.000000 0.000000 0.000000 0.000000 0.060566 0.000000
# 6 0.000000 0.000000 0.000000 0.000000 0.000000 -0.008810
#
#
# Mechanical properties :
#
#
# Convention : Reuss Voigt Hill
#
# Bulk Modulus (GPa) = 48.84569 50.91644 49.88106
# Shear Modulus (GPa) = 30.22503 -3.15378 13.53563
#
# Velocity S-wave (km/s) = 4.04355 -1.30615 2.70594
# Velocity P-wave (km/s) = 6.94431 5.02679 6.06185
#
# Compressibility (1/GPa) = 0.02047264
#
# Stress axis : x y z
#
# Youngs Moduli (GPa) = 82.17739 73.24569 53.47079
#
# Poissons Ratio (x) = 0.25963 0.20008
# Poissons Ratio (y) = 0.29129 0.25338
# Poissons Ratio (z) = 0.30750 0.34709
#
# Static dielectric constant tensor:
#      x y z
#    x 3.448000 0.000000 0.000000 
#    y 0.000000 3.492950 0.000000 
#    z 0.000000 0.000000 3.268500 
# 
# 
# High freq. dielectric constant tensor:
#      x y z
#    x 1.707920 0.000000 0.000000 
#    y 0.000000 1.725050 0.000000 
#    z 0.000000 0.000000 1.703980 
# 
# From -- ./inp_files/35959.got.cif
#   From: 2010.06.25/outbox.cif.g09.slc.cpg/sg52_18_cif.got.tgz:35959.got - 2010.06.26 19:32:48.
