data_PCOD8215580
_publ_section_title
;
Structure prediction by ZEFSAII (Michael W. Deem and Ramdas Pophale) SiO2 
 PCOD8215580
Probable space group: P N N A
;
_chemical_formula_sum "Si O2"
_cell_formula_units_Z 44
_cell_length_a 5.238065
_cell_length_b 19.901661
_cell_length_c 21.663159
_cell_angle_alpha 90.000000
_cell_angle_beta 90.000000
_cell_angle_gamma 90.000000
_cell_volume 2258.301874
_symmetry_space_group_name_H-M "P N N A"
_symmetry_group_IT_number 52
_symmetry_cell_setting 'orthorhombic'
loop_
_space_group_symop_operation_xyz
x,y,z
1/2-x,-y,z
x,1/2-y,1/2-z
1/2-x,1/2+y,1/2-z
-x,-y,-z
1/2+x,y,-z
-x,1/2+y,1/2+z
1/2+x,1/2-y,1/2+z
loop_
_atom_site_type_symbol
_atom_site_label
_atom_site_fract_x
_atom_site_fract_y
_atom_site_fract_z
Si Si1 0.705663 0.078060 0.529714
Si Si2 0.874320 0.571635 0.828947
Si Si3 0.815666 0.825450 0.769102
Si Si4 0.742525 0.079161 0.036398
Si Si5 0.250000 0.500000 0.751679
Si Si6 0.663142 0.380852 0.326129
O O1 0.480798 0.110590 0.487286
O O2 0.620286 0.091139 0.599580
O O3 0.750000 0.000000 0.514721
O O4 0.750000 0.500000 0.816614
O O5 0.742221 0.632507 0.792658
O O6 0.146449 0.557865 0.797824
O O7 0.875428 0.750000 0.750000
O O8 0.566860 0.828855 0.812882
O O9 0.063777 0.855493 0.801978
O O10 0.690133 0.114855 0.100869
O O11 0.750000 0.000000 0.046911
O O12 0.515338 0.101992 0.990643
O O13 0.416600 0.546660 0.704715
#
# Coordination Sequence:
#
# PCOD8215580 Si02
#       6
#     8   8   8   8   4   8
#     4   9  19  30  48  75 108 139 174 222 278 328
#     4  10  20  34  57  82 113 142 187 235 285 345
#     4  11  24  39  59  87 118 156 193 245 300 355
#     4  10  20  34  56  89 123 155 194 247 301 349
#     4  10  20  32  54  90 110 148 186 242 288 342
#     4  11  21  38  60  83 121 153 199 237 298 352
#
# _framework density 19.483665999999999
#
# number of rings (size 3 to 8) (size 9 to 14) (size 15 to 20)
#    0.000    1.818    2.727    1.636    6.364    0.000 
#    0.000    0.000    0.000    6.545    0.000    0.000 
#    0.000    0.000    0.000    0.000    0.000    0.000 
#
# Total GULP energy -545083.119648 kJ/mol
# GULP energy per Si atom -12388.252719 kJ/mol
# Density = 1.943932 g / cm^3
# Si number density = 19.483666 Si / 1000 Ang^3
#
#
#
# Elastic Constant Matrix: (Units=GPa)
#
#
# Indices 1 2 3 4 5 6 
#
# 1 118.7984 7.9485 48.2412 0.0000 0.0000 0.0000
# 2 7.9485 56.9802 38.2774 0.0000 0.0000 0.0000
# 3 48.2412 38.2774 142.0713 0.0000 0.0000 0.0000
# 4 0.0000 0.0000 0.0000 9.1795 0.0000 0.0000
# 5 0.0000 0.0000 0.0000 0.0000 34.1452 0.0000
# 6 0.0000 0.0000 0.0000 0.0000 0.0000 16.2678
#
#
#
# Elastic Compliance Matrix: (Units=1/GPa)
#
#
# Indices 1 2 3 4 5 6 
#
# 1 0.009816 0.001062 -0.003619 0.000000 0.000000 0.000000
# 2 0.001062 0.021543 -0.006165 0.000000 0.000000 0.000000
# 3 -0.003619 -0.006165 0.009929 0.000000 0.000000 0.000000
# 4 0.000000 0.000000 0.000000 0.108939 0.000000 0.000000
# 5 0.000000 0.000000 0.000000 0.000000 0.029287 0.000000
# 6 0.000000 0.000000 0.000000 0.000000 0.000000 0.061471
#
#
# Mechanical properties :
#
#
# Convention : Reuss Voigt Hill
#
# Bulk Modulus (GPa) = 41.93971 56.30935 49.12453
# Shear Modulus (GPa) = 18.77039 26.81068 22.79054
#
# Velocity S-wave (km/s) = 3.10722 3.71355 3.42384
# Velocity P-wave (km/s) = 5.86902 6.88119 6.39516
#
# Compressibility (1/GPa) = 0.02384375
#
# Stress axis : x y z
#
# Youngs Moduli (GPa) = 101.87162 46.41847 100.71879
#
# Poissons Ratio (x) = -0.04930 0.36453
# Poissons Ratio (y) = -0.10819 0.62092
# Poissons Ratio (z) = 0.36870 0.28616
#
# Static dielectric constant tensor:
#      x y z
#    x 4.796080 0.000000 0.000000 
#    y 0.000000 3.226200 0.000000 
#    z 0.000000 0.000000 3.546480 
# 
# 
# High freq. dielectric constant tensor:
#      x y z
#    x 1.766890 0.000000 0.000000 
#    y 0.000000 1.708000 0.000000 
#    z 0.000000 0.000000 1.768330 
# 
# From -- ./inp_files/35113.got.cif
#   From: 2010.06.25/outbox.cif.g09.slc.cpg/sg52_18_cif.got.tgz:35113.got - 2010.06.26 19:32:48.
