data_PCOD8215922
_publ_section_title
;
Structure prediction by ZEFSAII (Michael W. Deem and Ramdas Pophale) SiO2 
 PCOD8215922
Probable space group: P N N A
;
_chemical_formula_sum "Si O2"
_cell_formula_units_Z 64
_cell_length_a 9.389517
_cell_length_b 22.715038
_cell_length_c 14.259311
_cell_angle_alpha 90.000000
_cell_angle_beta 90.000000
_cell_angle_gamma 90.000000
_cell_volume 3041.271985
_symmetry_space_group_name_H-M "P N N A"
_symmetry_group_IT_number 52
_symmetry_cell_setting 'orthorhombic'
loop_
_space_group_symop_operation_xyz
x,y,z
1/2-x,-y,z
x,1/2-y,1/2-z
1/2-x,1/2+y,1/2-z
-x,-y,-z
1/2+x,y,-z
-x,1/2+y,1/2+z
1/2+x,1/2-y,1/2+z
loop_
_atom_site_type_symbol
_atom_site_label
_atom_site_fract_x
_atom_site_fract_y
_atom_site_fract_z
Si Si1 0.024089 0.144217 0.813791
Si Si2 0.589123 0.982957 0.785457
Si Si3 0.106267 0.969936 0.428398
Si Si4 0.669444 0.716618 0.562264
Si Si5 0.399077 0.031554 0.926842
Si Si6 0.121212 0.315859 0.285465
Si Si7 0.846243 0.343596 0.859796
Si Si8 0.662811 0.845513 0.122431
O O1 0.951260 0.080470 0.829248
O O2 0.974875 0.189771 0.894041
O O3 0.979551 0.167339 0.710390
O O4 0.194702 0.141228 0.818945
O O5 0.560737 0.986840 0.675857
O O6 0.750000 0.000000 0.813830
O O7 0.480246 0.030287 0.827409
O O8 0.124570 0.898672 0.429539
O O9 0.250000 0.000000 0.458988
O O10 0.000000 0.000000 0.500000
O O11 0.799962 0.683053 0.613684
O O12 0.674638 0.786774 0.576034
O O13 0.677067 0.708721 0.449819
O O14 0.373885 0.100124 0.947061
O O15 0.250000 0.000000 0.921957
O O16 0.500000 0.000000 0.000000
O O17 0.127425 0.250000 0.250000
O O18 0.206837 0.355484 0.207954
O O19 0.959267 0.336005 0.299512
#
# Coordination Sequence:
#
# PCOD8215922 Si02
#       8
#     8   8   8   8   8   8   8   8
#     4  10  20  39  62  94 125 168 219 266 327 381
#     4  10  22  42  67  91 128 180 218 264 333 388
#     4  10  23  45  70  97 125 164 218 271 327 388
#     4  10  21  40  63  88 125 172 208 261 324 392
#     4  12  26  40  59  97 137 177 219 266 326 398
#     4   9  21  40  63  89 125 168 218 255 325 401
#     4   9  21  45  69  87 124 175 210 258 332 397
#     4  12  24  36  62  98 131 160 217 278 315 383
#
# _framework density 21.043824999999998
#
# number of rings (size 3 to 8) (size 9 to 14) (size 15 to 20)
#    0.000    1.750    1.250    3.000    8.750    1.500 
#    6.750    0.000    0.000    0.000    0.000    0.000 
#    0.000    0.000    0.000    0.000    0.000    0.000 
#
# Total GULP energy -793379.803919 kJ/mol
# GULP energy per Si atom -12396.559436 kJ/mol
# Density = 2.099593 g / cm^3
# Si number density = 21.043825 Si / 1000 Ang^3
#
#
#
# Elastic Constant Matrix: (Units=GPa)
#
#
# Indices 1 2 3 4 5 6 
#
# 1 163.7103 47.2325 60.6627 0.0000 0.0000 0.0000
# 2 47.2325 90.6546 43.7242 0.0000 0.0000 0.0000
# 3 60.6627 43.7242 81.7307 0.0000 0.0000 0.0000
# 4 0.0000 0.0000 0.0000 25.0888 0.0000 0.0000
# 5 0.0000 0.0000 0.0000 0.0000 15.3877 0.0000
# 6 0.0000 0.0000 0.0000 0.0000 0.0000 29.7159
#
#
#
# Elastic Compliance Matrix: (Units=1/GPa)
#
#
# Indices 1 2 3 4 5 6 
#
# 1 0.008663 -0.001903 -0.005411 0.000000 0.000000 0.000000
# 2 -0.001903 0.015285 -0.006765 0.000000 0.000000 0.000000
# 3 -0.005411 -0.006765 0.019871 0.000000 0.000000 0.000000
# 4 0.000000 0.000000 0.000000 0.039858 0.000000 0.000000
# 5 0.000000 0.000000 0.000000 0.000000 0.064987 0.000000
# 6 0.000000 0.000000 0.000000 0.000000 0.000000 0.033652
#
#
# Mechanical properties :
#
#
# Convention : Reuss Voigt Hill
#
# Bulk Modulus (GPa) = 63.85719 71.03716 67.44717
# Shear Modulus (GPa) = 23.18093 26.33689 24.75891
#
# Velocity S-wave (km/s) = 3.32257 3.54153 3.43379
# Velocity P-wave (km/s) = 6.71789 7.11008 6.91677
#
# Compressibility (1/GPa) = 0.01565994
#
# Stress axis : x y z
#
# Youngs Moduli (GPa) = 115.43742 65.42264 50.32537
#
# Poissons Ratio (x) = 0.12452 0.27233
# Poissons Ratio (y) = 0.21972 0.34043
# Poissons Ratio (z) = 0.62468 0.44255
#
# Static dielectric constant tensor:
#      x y z
#    x 3.720230 0.000000 0.000000 
#    y 0.000000 3.976980 0.000000 
#    z 0.000000 0.000000 3.642410 
# 
# 
# High freq. dielectric constant tensor:
#      x y z
#    x 1.827000 0.000000 0.000000 
#    y 0.000000 1.831870 0.000000 
#    z 0.000000 0.000000 1.805820 
# 
# From -- ./inp_files/25139.got.cif
#   From: 2010.06.25/outbox.cif.g09.slc.cpg/sg52_13_cif.got.tgz:25139.got - 2010.06.26 19:32:48.
