data_PCOD8215942
_publ_section_title
;
Structure prediction by ZEFSAII (Michael W. Deem and Ramdas Pophale) SiO2 
 PCOD8215942
Probable space group: P N N A
;
_chemical_formula_sum "Si O2"
_cell_formula_units_Z 40
_cell_length_a 17.235692
_cell_length_b 7.963413
_cell_length_c 12.074757
_cell_angle_alpha 90.000000
_cell_angle_beta 90.000000
_cell_angle_gamma 90.000000
_cell_volume 1657.319972
_symmetry_space_group_name_H-M "P N N A"
_symmetry_group_IT_number 52
_symmetry_cell_setting 'orthorhombic'
loop_
_space_group_symop_operation_xyz
x,y,z
1/2-x,-y,z
x,1/2-y,1/2-z
1/2-x,1/2+y,1/2-z
-x,-y,-z
1/2+x,y,-z
-x,1/2+y,1/2+z
1/2+x,1/2-y,1/2+z
loop_
_atom_site_type_symbol
_atom_site_label
_atom_site_fract_x
_atom_site_fract_y
_atom_site_fract_z
Si Si1 0.952367 0.433849 0.621408
Si Si2 0.443011 0.245442 0.880167
Si Si3 0.196382 0.639556 0.492303
Si Si4 0.541957 0.552210 0.882338
Si Si5 0.693473 0.133244 0.653444
O O1 0.861356 0.462630 0.592801
O O2 0.965188 0.425783 0.751130
O O3 0.965254 0.243366 0.568173
O O4 0.009066 0.581098 0.573040
O O5 0.455402 0.250000 0.750000
O O6 0.473137 0.428674 0.926217
O O7 0.352706 0.228490 0.910458
O O8 0.250000 0.500000 0.549955
O O9 0.251460 0.773224 0.433454
O O10 0.623657 0.461412 0.909405
O O11 0.657235 0.250000 0.750000
O O12 0.750000 0.000000 0.714046
#
# Coordination Sequence:
#
# PCOD8215942 Si02
#       5
#     8   8   8   8   8
#     4  10  20  39  66  97 123 164 206 265 327 384
#     4  10  23  44  66  89 124 172 224 267 307 370
#     4  12  24  40  63  94 129 170 213 263 324 383
#     4  10  20  39  66  95 129 160 209 262 328 386
#     4  12  22  37  62  98 136 163 196 259 335 401
#
# _framework density 24.135352000000001
#
# number of rings (size 3 to 8) (size 9 to 14) (size 15 to 20)
#    0.000    1.200    2.000    6.600    0.000    0.800 
#    3.600    1.000    4.400    0.000    0.000    0.000 
#    0.000    0.000    0.000    0.000    0.000    0.000 
#
# Total GULP energy -495989.419029 kJ/mol
# GULP energy per Si atom -12399.735476 kJ/mol
# Density = 2.408042 g / cm^3
# Si number density = 24.135352 Si / 1000 Ang^3
#
#
#
# Elastic Constant Matrix: (Units=GPa)
#
#
# Indices 1 2 3 4 5 6 
#
# 1 155.7148 112.3789 47.3478 0.0000 0.0000 0.0000
# 2 112.3789 187.6660 74.3697 0.0000 0.0000 0.0000
# 3 47.3478 74.3697 67.7240 0.0000 0.0000 0.0000
# 4 0.0000 0.0000 0.0000 49.9316 0.0000 0.0000
# 5 0.0000 0.0000 0.0000 0.0000 39.6945 0.0000
# 6 0.0000 0.0000 0.0000 0.0000 0.0000 61.2611
#
#
#
# Elastic Compliance Matrix: (Units=1/GPa)
#
#
# Indices 1 2 3 4 5 6 
#
# 1 0.011336 -0.006458 -0.000834 0.000000 0.000000 0.000000
# 2 -0.006458 0.013113 -0.009885 0.000000 0.000000 0.000000
# 3 -0.000834 -0.009885 0.026204 0.000000 0.000000 0.000000
# 4 0.000000 0.000000 0.000000 0.020027 0.000000 0.000000
# 5 0.000000 0.000000 0.000000 0.000000 0.025192 0.000000
# 6 0.000000 0.000000 0.000000 0.000000 0.000000 0.016324
#
#
# Mechanical properties :
#
#
# Convention : Reuss Voigt Hill
#
# Bulk Modulus (GPa) = 61.35112 97.69971 79.52542
# Shear Modulus (GPa) = 32.89846 41.97800 37.43823
#
# Velocity S-wave (km/s) = 3.69600 4.17499 3.94277
# Velocity P-wave (km/s) = 6.60974 7.98802 7.33134
#
# Compressibility (1/GPa) = 0.01629962
#
# Stress axis : x y z
#
# Youngs Moduli (GPa) = 88.21265 76.25980 38.16270
#
# Poissons Ratio (x) = 0.49249 0.03182
# Poissons Ratio (y) = 0.56968 0.37723
# Poissons Ratio (z) = 0.07355 0.75382
#
# Static dielectric constant tensor:
#      x y z
#    x 4.229110 0.000000 0.000000 
#    y 0.000000 5.228420 0.000000 
#    z 0.000000 0.000000 4.413350 
# 
# 
# High freq. dielectric constant tensor:
#      x y z
#    x 1.945710 0.000000 0.000000 
#    y 0.000000 1.998320 0.000000 
#    z 0.000000 0.000000 1.988400 
# 
# From -- ./inp_files/26864.got.cif
#   From: 2010.06.25/outbox.cif.g09.slc.cpg/sg52_14_cif.got.tgz:26864.got - 2010.06.26 19:32:48.
