data_PCOD8215028
_publ_section_title
;
Structure prediction by ZEFSAII (Michael W. Deem and Ramdas Pophale) SiO2 
 PCOD8215028
Probable space group: P N N A
;
_chemical_formula_sum "Si O2"
_cell_formula_units_Z 32
_cell_length_a 9.582700
_cell_length_b 8.915771
_cell_length_c 16.658161
_cell_angle_alpha 90.000000
_cell_angle_beta 90.000000
_cell_angle_gamma 90.000000
_cell_volume 1423.225946
_symmetry_space_group_name_H-M "P N N A"
_symmetry_group_IT_number 52
_symmetry_cell_setting 'orthorhombic'
loop_
_space_group_symop_operation_xyz
x,y,z
1/2-x,-y,z
x,1/2-y,1/2-z
1/2-x,1/2+y,1/2-z
-x,-y,-z
1/2+x,y,-z
-x,1/2+y,1/2+z
1/2+x,1/2-y,1/2+z
loop_
_atom_site_type_symbol
_atom_site_label
_atom_site_fract_x
_atom_site_fract_y
_atom_site_fract_z
Si Si1 0.250000 0.000000 0.383829
Si Si2 0.878439 0.802781 0.098486
Si Si3 0.750000 0.000000 0.229046
Si Si4 0.631352 0.742209 0.998807
Si Si5 0.449933 0.464113 0.858519
O O1 0.220402 0.856307 0.437960
O O2 0.111742 0.027030 0.329687
O O3 0.857886 0.896601 0.179733
O O4 0.741744 0.844949 0.045888
O O5 0.886109 0.626012 0.117727
O O6 0.019550 0.845299 0.049586
O O7 0.854203 0.098856 0.285998
O O8 0.550084 0.639006 0.062899
#
# Coordination Sequence:
#
# PCOD8215028 Si02
#       5
#     4   8   4   8   8
#     4  10  17  34  62  95 106 146 218 272 294 343
#     4  11  22  37  62  88 124 158 214 254 317 378
#     4  12  25  38  56  91 132 172 188 260 344 385
#     4  11  18  37  65  92 111 157 213 267 296 371
#     4  11  20  36  64  91 117 158 214 265 312 369
#
# _framework density 22.484131999999999
#
# number of rings (size 3 to 8) (size 9 to 14) (size 15 to 20)
#    0.000    1.000    7.500    2.250    0.000    1.000 
#    0.000    2.500   11.000    0.000    0.000    0.000 
#    0.000    0.000    0.000    0.000    0.000    0.000 
#
# Total GULP energy -396564.971305 kJ/mol
# GULP energy per Si atom -12392.655353 kJ/mol
# Density = 2.243296 g / cm^3
# Si number density = 22.484132 Si / 1000 Ang^3
#
#
#
# Elastic Constant Matrix: (Units=GPa)
#
#
# Indices 1 2 3 4 5 6 
#
# 1 195.9160 11.1761 78.0100 0.0000 0.0000 0.0000
# 2 11.1761 25.9255 20.4051 0.0000 0.0000 0.0000
# 3 78.0100 20.4051 107.7651 0.0000 0.0000 0.0000
# 4 0.0000 0.0000 0.0000 23.9860 0.0000 0.0000
# 5 0.0000 0.0000 0.0000 0.0000 35.0253 0.0000
# 6 0.0000 0.0000 0.0000 0.0000 0.0000 20.0424
#
#
#
# Elastic Compliance Matrix: (Units=1/GPa)
#
#
# Indices 1 2 3 4 5 6 
#
# 1 0.007202 0.001173 -0.005435 0.000000 0.000000 0.000000
# 2 0.001173 0.045518 -0.009468 0.000000 0.000000 0.000000
# 3 -0.005435 -0.009468 0.015007 0.000000 0.000000 0.000000
# 4 0.000000 0.000000 0.000000 0.041691 0.000000 0.000000
# 5 0.000000 0.000000 0.000000 0.000000 0.028551 0.000000
# 6 0.000000 0.000000 0.000000 0.000000 0.000000 0.049894
#
#
# Mechanical properties :
#
#
# Convention : Reuss Voigt Hill
#
# Bulk Modulus (GPa) = 24.83456 60.97654 42.90555
# Shear Modulus (GPa) = 21.85840 30.47843 26.16842
#
# Velocity S-wave (km/s) = 3.12135 3.68578 3.41524
# Velocity P-wave (km/s) = 4.90507 6.72993 5.88862
#
# Compressibility (1/GPa) = 0.04026647
#
# Stress axis : x y z
#
# Youngs Moduli (GPa) = 138.85967 21.96918 66.63658
#
# Poissons Ratio (x) = -0.02578 0.36219
# Poissons Ratio (y) = -0.16295 0.63093
# Poissons Ratio (z) = 0.75474 0.20801
#
# Static dielectric constant tensor:
#      x y z
#    x 4.381820 0.000000 0.000000 
#    y 0.000000 3.460640 0.000000 
#    z 0.000000 0.000000 4.157740 
# 
# 
# High freq. dielectric constant tensor:
#      x y z
#    x 1.910060 0.000000 0.000000 
#    y 0.000000 1.844140 0.000000 
#    z 0.000000 0.000000 1.871850 
# 
# From -- ./inp_files/25545.got.cif
#   From: 2010.06.25/outbox.cif.g09.slc.cpg/sg52_13_cif.got.tgz:25545.got - 2010.06.26 19:32:48.
