data_PCOD8215012
_publ_section_title
;
Structure prediction by ZEFSAII (Michael W. Deem and Ramdas Pophale) SiO2 
 PCOD8215012
Probable space group: P N N A
;
_chemical_formula_sum "Si O2"
_cell_formula_units_Z 52
_cell_length_a 16.221665
_cell_length_b 12.029986
_cell_length_c 13.538367
_cell_angle_alpha 90.000000
_cell_angle_beta 90.000000
_cell_angle_gamma 90.000000
_cell_volume 2641.963620
_symmetry_space_group_name_H-M "P N N A"
_symmetry_group_IT_number 52
_symmetry_cell_setting 'orthorhombic'
loop_
_space_group_symop_operation_xyz
x,y,z
1/2-x,-y,z
x,1/2-y,1/2-z
1/2-x,1/2+y,1/2-z
-x,-y,-z
1/2+x,y,-z
-x,1/2+y,1/2+z
1/2+x,1/2-y,1/2+z
loop_
_atom_site_type_symbol
_atom_site_label
_atom_site_fract_x
_atom_site_fract_y
_atom_site_fract_z
Si Si1 0.194474 0.791646 0.855490
Si Si2 0.019993 0.657220 0.586281
Si Si3 0.250000 0.000000 0.963894
Si Si4 0.842192 0.454225 0.793798
Si Si5 0.118251 0.313716 0.149865
Si Si6 0.592545 0.949587 0.908491
Si Si7 0.730685 0.871748 0.526530
O O1 0.227876 0.750000 0.750000
O O2 0.100415 0.833713 0.844425
O O3 0.252266 0.891117 0.894390
O O4 0.195758 0.688729 0.931128
O O5 0.048968 0.647259 0.471793
O O6 0.964294 0.765303 0.601199
O O7 0.971178 0.546991 0.617253
O O8 0.331304 0.997920 0.031214
O O9 0.750000 0.500000 0.775048
O O10 0.900020 0.558635 0.822127
O O11 0.876062 0.396428 0.694464
O O12 0.838373 0.368516 0.885693
O O13 0.144536 0.250000 0.250000
O O14 0.189852 0.305533 0.067643
O O15 0.750000 0.000000 0.499570
#
# Coordination Sequence:
#
# PCOD8215012 Si02
#       7
#     8   8   4   8   8   8   8
#     4  11  24  39  60  83 121 161 204 242 292 356
#     4  10  21  32  53  86 117 158 192 231 291 364
#     4  10  22  38  62  88 108 158 204 250 288 336
#     4   9  18  32  58  89 111 146 188 252 304 341
#     4  10  17  31  59  83 115 150 194 236 300 352
#     4  10  18  34  58  85 123 143 198 245 290 354
#     4   9  22  39  60  91 115 151 202 257 299 347
#
# _framework density 19.682328999999999
#
# number of rings (size 3 to 8) (size 9 to 14) (size 15 to 20)
#    0.000    2.462    2.308    1.385    1.077    1.231 
#    0.000    3.077    0.000    5.538    0.000    0.000 
#    0.000    0.000    0.000    0.000    0.000    0.000 
#
# Total GULP energy -644563.278999 kJ/mol
# GULP energy per Si atom -12395.447673 kJ/mol
# Density = 1.963753 g / cm^3
# Si number density = 19.682329 Si / 1000 Ang^3
#
#
#
# Elastic Constant Matrix: (Units=GPa)
#
#
# Indices 1 2 3 4 5 6 
#
# 1 77.4063 34.5504 38.6508 0.0000 0.0000 0.0000
# 2 34.5504 76.5055 51.1441 0.0000 0.0000 0.0000
# 3 38.6508 51.1441 155.1825 0.0000 0.0000 0.0000
# 4 0.0000 0.0000 0.0000 27.0032 0.0000 0.0000
# 5 0.0000 0.0000 0.0000 0.0000 16.8818 0.0000
# 6 0.0000 0.0000 0.0000 0.0000 0.0000 29.4197
#
#
#
# Elastic Compliance Matrix: (Units=1/GPa)
#
#
# Indices 1 2 3 4 5 6 
#
# 1 0.016721 -0.006114 -0.002150 0.000000 0.000000 0.000000
# 2 -0.006114 0.019000 -0.004739 0.000000 0.000000 0.000000
# 3 -0.002150 -0.004739 0.008541 0.000000 0.000000 0.000000
# 4 0.000000 0.000000 0.000000 0.037033 0.000000 0.000000
# 5 0.000000 0.000000 0.000000 0.000000 0.059235 0.000000
# 6 0.000000 0.000000 0.000000 0.000000 0.000000 0.033991
#
#
# Mechanical properties :
#
#
# Convention : Reuss Voigt Hill
#
# Bulk Modulus (GPa) = 54.77429 61.97609 58.37519
# Shear Modulus (GPa) = 24.19972 26.97754 25.58863
#
# Velocity S-wave (km/s) = 3.51025 3.70624 3.60958
# Velocity P-wave (km/s) = 6.65723 7.06198 6.86259
#
# Compressibility (1/GPa) = 0.01825674
#
# Stress axis : x y z
#
# Youngs Moduli (GPa) = 59.80366 52.63043 117.07821
#
# Poissons Ratio (x) = 0.32181 0.25167
# Poissons Ratio (y) = 0.36567 0.55485
# Poissons Ratio (z) = 0.12855 0.24942
#
# Static dielectric constant tensor:
#      x y z
#    x 3.534180 0.000000 0.000000 
#    y 0.000000 3.524560 0.000000 
#    z 0.000000 0.000000 3.662780 
# 
# 
# High freq. dielectric constant tensor:
#      x y z
#    x 1.751800 0.000000 0.000000 
#    y 0.000000 1.757730 0.000000 
#    z 0.000000 0.000000 1.765570 
# 
# From -- ./inp_files/28216.got.cif
#   From: 2010.06.25/outbox.cif.g09.slc.cpg/sg52_15_cif.got.tgz:28216.got - 2010.06.26 19:32:48.
