data_PCOD8215412
_publ_section_title
;
Structure prediction by ZEFSAII (Michael W. Deem and Ramdas Pophale) SiO2 
 PCOD8215412
Probable space group: P N N A
;
_chemical_formula_sum "Si O2"
_cell_formula_units_Z 32
_cell_length_a 27.790209
_cell_length_b 5.833004
_cell_length_c 9.126154
_cell_angle_alpha 90.000000
_cell_angle_beta 90.000000
_cell_angle_gamma 90.000000
_cell_volume 1479.353216
_symmetry_space_group_name_H-M "P N N A"
_symmetry_group_IT_number 52
_symmetry_cell_setting 'orthorhombic'
loop_
_space_group_symop_operation_xyz
x,y,z
1/2-x,-y,z
x,1/2-y,1/2-z
1/2-x,1/2+y,1/2-z
-x,-y,-z
1/2+x,y,-z
-x,1/2+y,1/2+z
1/2+x,1/2-y,1/2+z
loop_
_atom_site_type_symbol
_atom_site_label
_atom_site_fract_x
_atom_site_fract_y
_atom_site_fract_z
Si Si1 0.103092 0.750000 0.750000
Si Si2 0.360736 0.250000 0.250000
Si Si3 0.121971 0.067051 0.998247
Si Si4 0.797456 0.889022 0.605297
Si Si5 0.961696 0.617081 0.106862
O O1 0.134523 0.593704 0.640819
O O2 0.070244 0.594810 0.849802
O O3 0.390195 0.426956 0.352233
O O4 0.329385 0.392043 0.137395
O O5 0.170169 0.221513 0.005944
O O6 0.072674 0.206159 0.978298
O O7 0.780850 0.750000 0.750000
O O8 0.750000 0.000000 0.527892
O O9 0.983990 0.750000 0.250000
O O10 0.000000 0.500000 0.000000
#
# Coordination Sequence:
#
# PCOD8215412 Si02
#       5
#     4   4   8   8   8
#     4  10  22  46  62  91 134 179 216 270 324 394
#     4  10  20  38  60 105 126 165 214 274 318 396
#     4  10  22  39  67  97 128 179 216 266 336 390
#     4  10  19  35  60 101 135 165 207 272 333 381
#     4  10  23  46  67  97 131 179 222 279 334 398
#
# _framework density 21.631074000000002
#
# number of rings (size 3 to 8) (size 9 to 14) (size 15 to 20)
#    0.000    2.000    1.250    1.500    0.000    4.000 
#   29.250    0.000    0.000    0.000  146.250    0.000 
#    0.000    0.000    0.000    0.000    0.000    0.000 
#
# Total GULP energy -396446.420514 kJ/mol
# GULP energy per Si atom -12388.950641 kJ/mol
# Density = 2.158184 g / cm^3
# Si number density = 21.631074 Si / 1000 Ang^3
#
#
#
# Elastic Constant Matrix: (Units=GPa)
#
#
# Indices 1 2 3 4 5 6 
#
# 1 108.3568 70.9519 88.3361 0.0000 0.0000 0.0000
# 2 70.9519 152.5559 78.3869 0.0000 0.0000 0.0000
# 3 88.3361 78.3869 127.1863 0.0000 0.0000 0.0000
# 4 0.0000 0.0000 0.0000 54.9250 0.0000 0.0000
# 5 0.0000 0.0000 0.0000 0.0000 27.2678 0.0000
# 6 0.0000 0.0000 0.0000 0.0000 0.0000 66.6185
#
#
#
# Elastic Compliance Matrix: (Units=1/GPa)
#
#
# Indices 1 2 3 4 5 6 
#
# 1 0.022528 -0.003568 -0.013448 0.000000 0.000000 0.000000
# 2 -0.003568 0.010158 -0.003783 0.000000 0.000000 0.000000
# 3 -0.013448 -0.003783 0.019534 0.000000 0.000000 0.000000
# 4 0.000000 0.000000 0.000000 0.018207 0.000000 0.000000
# 5 0.000000 0.000000 0.000000 0.000000 0.036673 0.000000
# 6 0.000000 0.000000 0.000000 0.000000 0.000000 0.015011
#
#
# Mechanical properties :
#
#
# Convention : Reuss Voigt Hill
#
# Bulk Modulus (GPa) = 94.13039 95.93874 95.03456
# Shear Modulus (GPa) = 29.89581 39.79053 34.84317
#
# Velocity S-wave (km/s) = 3.72166 4.29360 4.01782
# Velocity P-wave (km/s) = 7.87899 8.30834 8.09651
#
# Compressibility (1/GPa) = 0.01062356
#
# Stress axis : x y z
#
# Youngs Moduli (GPa) = 44.38922 98.44651 51.19343
#
# Poissons Ratio (x) = 0.35123 0.68844
# Poissons Ratio (y) = 0.15837 0.19364
# Poissons Ratio (z) = 0.59694 0.37237
#
# Static dielectric constant tensor:
#      x y z
#    x 3.708650 0.000000 0.000000 
#    y 0.000000 4.490330 0.000000 
#    z 0.000000 0.000000 3.961080 
# 
# 
# High freq. dielectric constant tensor:
#      x y z
#    x 1.820500 0.000000 0.000000 
#    y 0.000000 1.888070 0.000000 
#    z 0.000000 0.000000 1.835540 
# 
# From -- ./inp_files/15193.got.cif
#   From: 2010.06.25/outbox.cif.g09.slc.cpg/sg52_8_cif.got.tgz:15193.got - 2010.06.26 19:32:48.
