data_PCOD8215614
_publ_section_title
;
Structure prediction by ZEFSAII (Michael W. Deem and Ramdas Pophale) SiO2 
 PCOD8215614
Probable space group: P N N A
;
_chemical_formula_sum "Si O2"
_cell_formula_units_Z 40
_cell_length_a 5.036152
_cell_length_b 12.652055
_cell_length_c 33.015333
_cell_angle_alpha 90.000000
_cell_angle_beta 90.000000
_cell_angle_gamma 90.000000
_cell_volume 2103.660162
_symmetry_space_group_name_H-M "P N N A"
_symmetry_group_IT_number 52
_symmetry_cell_setting 'orthorhombic'
loop_
_space_group_symop_operation_xyz
x,y,z
1/2-x,-y,z
x,1/2-y,1/2-z
1/2-x,1/2+y,1/2-z
-x,-y,-z
1/2+x,y,-z
-x,1/2+y,1/2+z
1/2+x,1/2-y,1/2+z
loop_
_atom_site_type_symbol
_atom_site_label
_atom_site_fract_x
_atom_site_fract_y
_atom_site_fract_z
Si Si1 0.864759 0.286378 0.848260
Si Si2 0.008885 0.069922 0.724099
Si Si3 0.837079 0.381944 0.112523
Si Si4 0.317026 0.380599 0.980441
Si Si5 0.996566 0.569570 0.313905
O O1 0.960716 0.332267 0.805433
O O2 0.574061 0.331629 0.860313
O O3 0.070838 0.314500 0.883367
O O4 0.896426 0.160502 0.843903
O O5 0.086315 0.112504 0.769125
O O6 0.750000 0.000000 0.724803
O O7 0.250000 0.000000 0.706587
O O8 0.750000 0.500000 0.126033
O O9 0.917868 0.376574 0.065667
O O10 0.250000 0.500000 0.994637
O O11 0.537721 0.323850 0.009039
O O12 0.750000 0.500000 0.332027
O O13 0.250000 0.500000 0.306578
#
# Coordination Sequence:
#
# PCOD8215614 Si02
#       5
#     8   8   8   8   8
#     4  12  21  34  53  76 107 138 173 219 271 306
#     4  10  20  34  52  74 101 135 173 212 261 316
#     4  11  22  33  51  81 112 139 169 207 255 316
#     4   9  17  31  49  70 103 143 170 192 235 304
#     4  10  22  38  53  71  98 138 187 227 258 305
#
# _framework density 19.014478
#
# number of rings (size 3 to 8) (size 9 to 14) (size 15 to 20)
#    0.000    1.600    0.000    6.600    0.000    3.200 
#    0.000    8.000    0.000    0.000    0.000    0.000 
#    0.000   56.000    0.000    0.000    0.000    0.000 
#
# Total GULP energy -495565.895098 kJ/mol
# GULP energy per Si atom -12389.147377 kJ/mol
# Density = 1.897120 g / cm^3
# Si number density = 19.014478 Si / 1000 Ang^3
#
#
#
# Elastic Constant Matrix: (Units=GPa)
#
#
# Indices 1 2 3 4 5 6 
#
# 1 135.8975 34.0027 31.5960 0.0000 0.0000 0.0000
# 2 34.0027 73.2757 33.8025 0.0000 0.0000 0.0000
# 3 31.5960 33.8025 64.9702 0.0000 0.0000 0.0000
# 4 0.0000 0.0000 0.0000 10.6853 0.0000 0.0000
# 5 0.0000 0.0000 0.0000 0.0000 35.7279 0.0000
# 6 0.0000 0.0000 0.0000 0.0000 0.0000 27.2095
#
#
#
# Elastic Compliance Matrix: (Units=1/GPa)
#
#
# Indices 1 2 3 4 5 6 
#
# 1 0.008696 -0.002743 -0.002802 0.000000 0.000000 0.000000
# 2 -0.002743 0.018822 -0.008459 0.000000 0.000000 0.000000
# 3 -0.002802 -0.008459 0.021155 0.000000 0.000000 0.000000
# 4 0.000000 0.000000 0.000000 0.093587 0.000000 0.000000
# 5 0.000000 0.000000 0.000000 0.000000 0.027989 0.000000
# 6 0.000000 0.000000 0.000000 0.000000 0.000000 0.036752
#
#
# Mechanical properties :
#
#
# Convention : Reuss Voigt Hill
#
# Bulk Modulus (GPa) = 48.38829 52.54953 50.46891
# Shear Modulus (GPa) = 20.66994 26.37402 23.52198
#
# Velocity S-wave (km/s) = 3.30064 3.72835 3.52100
# Velocity P-wave (km/s) = 6.32685 6.79932 6.56733
#
# Compressibility (1/GPa) = 0.02066616
#
# Stress axis : x y z
#
# Youngs Moduli (GPa) = 114.99233 53.12961 47.26954
#
# Poissons Ratio (x) = 0.14572 0.13246
# Poissons Ratio (y) = 0.31539 0.39984
# Poissons Ratio (z) = 0.32222 0.44941
#
# Static dielectric constant tensor:
#      x y z
#    x 3.800030 0.000000 0.000000 
#    y 0.000000 3.069870 0.000000 
#    z 0.000000 0.000000 3.325580 
# 
# 
# High freq. dielectric constant tensor:
#      x y z
#    x 1.766990 0.000000 0.000000 
#    y 0.000000 1.689500 0.000000 
#    z 0.000000 0.000000 1.726980 
# 
# From -- ./inp_files/43663.got.cif
#   From: 2010.06.25/outbox.cif.g09.slc.cpg/sg52_22_cif.got.tgz:43663.got - 2010.06.26 19:32:48.
