data_PCOD8215064
_publ_section_title
;
Structure prediction by ZEFSAII (Michael W. Deem and Ramdas Pophale) SiO2 
 PCOD8215064
Probable space group: P N N A
;
_chemical_formula_sum "Si O2"
_cell_formula_units_Z 52
_cell_length_a 20.799452
_cell_length_b 21.080237
_cell_length_c 6.486757
_cell_angle_alpha 90.000000
_cell_angle_beta 90.000000
_cell_angle_gamma 90.000000
_cell_volume 2844.166464
_symmetry_space_group_name_H-M "P N N A"
_symmetry_group_IT_number 52
_symmetry_cell_setting 'orthorhombic'
loop_
_space_group_symop_operation_xyz
x,y,z
1/2-x,-y,z
x,1/2-y,1/2-z
1/2-x,1/2+y,1/2-z
-x,-y,-z
1/2+x,y,-z
-x,1/2+y,1/2+z
1/2+x,1/2-y,1/2+z
loop_
_atom_site_type_symbol
_atom_site_label
_atom_site_fract_x
_atom_site_fract_y
_atom_site_fract_z
Si Si1 0.118568 0.308461 0.378481
Si Si2 0.033016 0.076445 0.210122
Si Si3 0.187552 0.250000 0.750000
Si Si4 0.780493 0.647155 0.942996
Si Si5 0.192076 0.951783 0.260078
Si Si6 0.121638 0.455858 0.948455
Si Si7 0.409488 0.470866 0.556845
O O1 0.087432 0.250000 0.250000
O O2 0.066237 0.363874 0.399982
O O3 0.139337 0.290492 0.608329
O O4 0.182513 0.329873 0.259419
O O5 0.056205 0.073650 0.449621
O O6 0.955831 0.080574 0.172801
O O7 0.053694 0.008602 0.120811
O O8 0.232166 0.204821 0.604751
O O9 0.715298 0.614651 0.859965
O O10 0.822973 0.596222 0.063285
O O11 0.250000 0.000000 0.205118
O O12 0.145222 0.983354 0.424931
O O13 0.152594 0.937225 0.048245
O O14 0.111152 0.475280 0.715797
#
# Coordination Sequence:
#
# PCOD8215064 Si02
#       7
#     8   8   4   8   8   8   8
#     4   9  18  32  49  74  96 122 163 214 255 287
#     4   9  18  31  47  74 105 123 158 210 248 301
#     4  10  18  30  52  76  88 130 174 204 262 294
#     4   9  18  31  47  72 105 126 165 216 248 290
#     4   9  19  31  44  71 104 134 163 202 246 301
#     4   9  17  30  48  73 103 131 160 199 252 306
#     4  10  18  29  49  74 102 134 160 190 259 307
#
# _framework density 18.283037
#
# number of rings (size 3 to 8) (size 9 to 14) (size 15 to 20)
#    0.000    2.769    0.000    2.308    0.000    3.077 
#    0.000    0.000    0.000    0.000   26.000    0.000 
#    0.000    0.000    0.000    0.000    0.000    0.000 
#
# Total GULP energy -644413.461240 kJ/mol
# GULP energy per Si atom -12392.566562 kJ/mol
# Density = 1.824142 g / cm^3
# Si number density = 18.283037 Si / 1000 Ang^3
#
#
#
# Elastic Constant Matrix: (Units=GPa)
#
#
# Indices 1 2 3 4 5 6 
#
# 1 79.6651 37.1808 34.5040 0.0000 0.0000 0.0000
# 2 37.1808 88.6306 29.2901 0.0000 0.0000 0.0000
# 3 34.5040 29.2901 86.1067 0.0000 0.0000 0.0000
# 4 0.0000 0.0000 0.0000 31.7787 0.0000 0.0000
# 5 0.0000 0.0000 0.0000 0.0000 19.3255 0.0000
# 6 0.0000 0.0000 0.0000 0.0000 0.0000 19.5974
#
#
#
# Elastic Compliance Matrix: (Units=1/GPa)
#
#
# Indices 1 2 3 4 5 6 
#
# 1 0.017358 -0.005614 -0.005046 0.000000 0.000000 0.000000
# 2 -0.005614 0.014528 -0.002692 0.000000 0.000000 0.000000
# 3 -0.005046 -0.002692 0.014551 0.000000 0.000000 0.000000
# 4 0.000000 0.000000 0.000000 0.031468 0.000000 0.000000
# 5 0.000000 0.000000 0.000000 0.000000 0.051745 0.000000
# 6 0.000000 0.000000 0.000000 0.000000 0.000000 0.051027
#
#
# Mechanical properties :
#
#
# Convention : Reuss Voigt Hill
#
# Bulk Modulus (GPa) = 50.67746 50.70581 50.69164
# Shear Modulus (GPa) = 23.36896 24.36882 23.86889
#
# Velocity S-wave (km/s) = 3.57904 3.65480 3.61712
# Velocity P-wave (km/s) = 6.69760 6.75308 6.72540
#
# Compressibility (1/GPa) = 0.01973264
#
# Stress axis : x y z
#
# Youngs Moduli (GPa) = 57.60943 68.83423 68.72307
#
# Poissons Ratio (x) = 0.38646 0.34677
# Poissons Ratio (y) = 0.32344 0.18500
# Poissons Ratio (z) = 0.29069 0.18530
#
# Static dielectric constant tensor:
#      x y z
#    x 3.355930 0.000000 0.000000 
#    y 0.000000 3.405600 0.000000 
#    z 0.000000 0.000000 3.389750 
# 
# 
# High freq. dielectric constant tensor:
#      x y z
#    x 1.678690 0.000000 0.000000 
#    y 0.000000 1.691300 0.000000 
#    z 0.000000 0.000000 1.716390 
# 
# From -- ./inp_files/4433.got.cif
#   From: 2010.06.25/outbox.cif.g09.slc.cpg/sg52_3_cif.got.tgz:4433.got - 2010.06.26 19:32:48.
