data_PCOD8215652
_publ_section_title
;
Structure prediction by ZEFSAII (Michael W. Deem and Ramdas Pophale) SiO2 
 PCOD8215652
Probable space group: P N N A
;
_chemical_formula_sum "Si O2"
_cell_formula_units_Z 40
_cell_length_a 21.521885
_cell_length_b 18.047700
_cell_length_c 4.878852
_cell_angle_alpha 90.000000
_cell_angle_beta 90.000000
_cell_angle_gamma 90.000000
_cell_volume 1895.046250
_symmetry_space_group_name_H-M "P N N A"
_symmetry_group_IT_number 52
_symmetry_cell_setting 'orthorhombic'
loop_
_space_group_symop_operation_xyz
x,y,z
1/2-x,-y,z
x,1/2-y,1/2-z
1/2-x,1/2+y,1/2-z
-x,-y,-z
1/2+x,y,-z
-x,1/2+y,1/2+z
1/2+x,1/2-y,1/2+z
loop_
_atom_site_type_symbol
_atom_site_label
_atom_site_fract_x
_atom_site_fract_y
_atom_site_fract_z
Si Si1 0.212918 0.075650 0.615283
Si Si2 0.503875 0.579223 0.350029
Si Si3 0.869152 0.941878 0.874860
Si Si4 0.692807 0.700895 0.001364
Si Si5 0.416340 0.098039 0.312134
O O1 0.186921 0.085356 0.311515
O O2 0.257519 0.146173 0.643283
O O3 0.250000 0.000000 0.660526
O O4 0.153835 0.074283 0.817666
O O5 0.500000 0.500000 0.500000
O O6 0.432353 0.604938 0.312789
O O7 0.540752 0.631497 0.566136
O O8 0.540159 0.573113 0.064465
O O9 0.878985 0.028569 0.812273
O O10 0.720531 0.750000 0.750000
O O11 0.632622 0.659061 0.892784
O O12 0.668511 0.750000 0.250000
#
# Coordination Sequence:
#
# PCOD8215652 Si02
#       5
#     8   8   8   8   8
#     4  12  24  39  66  93 131 169 220 272 319 385
#     4  10  20  34  62  96 129 156 200 261 334 381
#     4  11  21  37  64  98 128 160 208 276 328 369
#     4  12  27  44  64  92 133 180 219 266 332 402
#     4  11  21  39  63  93 130 164 209 271 324 388
#
# _framework density 21.107665999999998
#
# number of rings (size 3 to 8) (size 9 to 14) (size 15 to 20)
#    0.000    0.800    2.000    9.000    2.800    0.000 
#    0.000    0.000    0.000   24.000    0.000    0.000 
#    0.000    0.000    0.000    0.000    0.000    0.000 
#
# Total GULP energy -495849.383717 kJ/mol
# GULP energy per Si atom -12396.234593 kJ/mol
# Density = 2.105962 g / cm^3
# Si number density = 21.107666 Si / 1000 Ang^3
#
#
#
# Elastic Constant Matrix: (Units=GPa)
#
#
# Indices 1 2 3 4 5 6 
#
# 1 117.5226 45.8902 26.5977 0.0000 0.0000 0.0000
# 2 45.8902 84.7343 32.0484 0.0000 0.0000 0.0000
# 3 26.5977 32.0484 103.2091 0.0000 0.0000 0.0000
# 4 0.0000 0.0000 0.0000 21.9997 0.0000 0.0000
# 5 0.0000 0.0000 0.0000 0.0000 56.0312 0.0000
# 6 0.0000 0.0000 0.0000 0.0000 0.0000 12.3403
#
#
#
# Elastic Compliance Matrix: (Units=1/GPa)
#
#
# Indices 1 2 3 4 5 6 
#
# 1 0.010901 -0.005486 -0.001106 0.000000 0.000000 0.000000
# 2 -0.005486 0.016132 -0.003596 0.000000 0.000000 0.000000
# 3 -0.001106 -0.003596 0.011091 0.000000 0.000000 0.000000
# 4 0.000000 0.000000 0.000000 0.045455 0.000000 0.000000
# 5 0.000000 0.000000 0.000000 0.000000 0.017847 0.000000
# 6 0.000000 0.000000 0.000000 0.000000 0.000000 0.081036
#
#
# Mechanical properties :
#
#
# Convention : Reuss Voigt Hill
#
# Bulk Modulus (GPa) = 56.33878 57.17096 56.75487
# Shear Modulus (GPa) = 23.95169 31.46955 27.71062
#
# Velocity S-wave (km/s) = 3.37224 3.86541 3.62722
# Velocity P-wave (km/s) = 6.47393 6.86047 6.67000
#
# Compressibility (1/GPa) = 0.01774976
#
# Stress axis : x y z
#
# Youngs Moduli (GPa) = 91.73195 61.98676 90.16610
#
# Poissons Ratio (x) = 0.34004 0.09972
# Poissons Ratio (y) = 0.50321 0.32422
# Poissons Ratio (z) = 0.10145 0.22289
#
# Static dielectric constant tensor:
#      x y z
#    x 4.532110 0.000000 0.000000 
#    y 0.000000 3.589580 0.000000 
#    z 0.000000 0.000000 4.313960 
# 
# 
# High freq. dielectric constant tensor:
#      x y z
#    x 1.846490 0.000000 0.000000 
#    y 0.000000 1.779170 0.000000 
#    z 0.000000 0.000000 1.853670 
# 
# From -- ./inp_files/3165.got.cif
#   From: 2010.06.25/outbox.cif.g09.slc.cpg/sg52_2_cif.got.tgz:3165.got - 2010.06.26 19:32:48.
