data_PCOD8215586
_publ_section_title
;
Structure prediction by ZEFSAII (Michael W. Deem and Ramdas Pophale) SiO2 
 PCOD8215586
Probable space group: P N N A
;
_chemical_formula_sum "Si O2"
_cell_formula_units_Z 32
_cell_length_a 15.521952
_cell_length_b 5.042808
_cell_length_c 23.670840
_cell_angle_alpha 90.000000
_cell_angle_beta 90.000000
_cell_angle_gamma 90.000000
_cell_volume 1852.816626
_symmetry_space_group_name_H-M "P N N A"
_symmetry_group_IT_number 52
_symmetry_cell_setting 'orthorhombic'
loop_
_space_group_symop_operation_xyz
x,y,z
1/2-x,-y,z
x,1/2-y,1/2-z
1/2-x,1/2+y,1/2-z
-x,-y,-z
1/2+x,y,-z
-x,1/2+y,1/2+z
1/2+x,1/2-y,1/2+z
loop_
_atom_site_type_symbol
_atom_site_label
_atom_site_fract_x
_atom_site_fract_y
_atom_site_fract_z
Si Si1 0.555634 0.617206 0.901533
Si Si2 0.806622 0.253766 0.504434
Si Si3 0.151076 0.998280 0.288048
Si Si4 0.463666 0.098154 0.941127
O O1 0.635287 0.681505 0.941943
O O2 0.589252 0.518872 0.841496
O O3 0.502380 0.380738 0.927727
O O4 0.491303 0.872919 0.895472
O O5 0.750000 0.500000 0.525191
O O6 0.861332 0.352860 0.449571
O O7 0.750000 0.000000 0.486574
O O8 0.131071 0.750000 0.250000
O O9 0.250000 0.000000 0.308817
O O10 0.128200 0.250000 0.250000
O O11 0.500000 0.000000 0.000000
#
# Coordination Sequence:
#
# PCOD8215586 Si02
#       4
#     8   8   8   8
#     4  11  20  34  51  69 101 140 168 195 246 292
#     4  11  20  31  49  74 102 132 167 201 241 296
#     4  10  21  34  49  72 100 130 170 211 237 273
#     4  10  20  33  48  71 100 132 167 203 240 293
#
# _framework density 17.271000000000001
#
# number of rings (size 3 to 8) (size 9 to 14) (size 15 to 20)
#    0.000    1.500    0.000    9.750    0.000    3.000 
#    0.000    0.000    0.000    0.000    0.000    0.000 
#    0.000   56.000    0.000    0.000    0.000    0.000 
#
# Total GULP energy -396688.970861 kJ/mol
# GULP energy per Si atom -12396.530339 kJ/mol
# Density = 1.723169 g / cm^3
# Si number density = 17.271000 Si / 1000 Ang^3
#
#
#
# Elastic Constant Matrix: (Units=GPa)
#
#
# Indices 1 2 3 4 5 6 
#
# 1 85.9043 55.2845 42.3926 0.0000 0.0000 0.0000
# 2 55.2845 149.2144 29.1357 0.0000 0.0000 0.0000
# 3 42.3926 29.1357 69.7390 0.0000 0.0000 0.0000
# 4 0.0000 0.0000 0.0000 62.8542 0.0000 0.0000
# 5 0.0000 0.0000 0.0000 0.0000 15.6311 0.0000
# 6 0.0000 0.0000 0.0000 0.0000 0.0000 44.2266
#
#
#
# Elastic Compliance Matrix: (Units=1/GPa)
#
#
# Indices 1 2 3 4 5 6 
#
# 1 0.020067 -0.005502 -0.009900 0.000000 0.000000 0.000000
# 2 -0.005502 0.008806 -0.000334 0.000000 0.000000 0.000000
# 3 -0.009900 -0.000334 0.020497 0.000000 0.000000 0.000000
# 4 0.000000 0.000000 0.000000 0.015910 0.000000 0.000000
# 5 0.000000 0.000000 0.000000 0.000000 0.063975 0.000000
# 6 0.000000 0.000000 0.000000 0.000000 0.000000 0.022611
#
#
# Mechanical properties :
#
#
# Convention : Reuss Voigt Hill
#
# Bulk Modulus (GPa) = 55.87400 62.05368 58.96384
# Shear Modulus (GPa) = 26.41280 36.41203 31.41242
#
# Velocity S-wave (km/s) = 3.91489 4.59658 4.26936
# Velocity P-wave (km/s) = 7.27026 8.01117 7.64969
#
# Compressibility (1/GPa) = 0.01789741
#
# Stress axis : x y z
#
# Youngs Moduli (GPa) = 49.83310 113.56517 48.78860
#
# Poissons Ratio (x) = 0.62482 0.48299
# Poissons Ratio (y) = 0.27418 0.01631
# Poissons Ratio (z) = 0.49333 0.03797
#
# Static dielectric constant tensor:
#      x y z
#    x 3.560440 0.000000 0.000000 
#    y 0.000000 3.826410 0.000000 
#    z 0.000000 0.000000 3.006670 
# 
# 
# High freq. dielectric constant tensor:
#      x y z
#    x 1.658240 0.000000 0.000000 
#    y 0.000000 1.701730 0.000000 
#    z 0.000000 0.000000 1.630500 
# 
# From -- ./inp_files/36441.got.cif
#   From: 2010.06.25/outbox.cif.g09.slc.cpg/sg52_19_cif.got.tgz:36441.got - 2010.06.26 19:32:48.
