data_PCOD8215320
_publ_section_title
;
Structure prediction by ZEFSAII (Michael W. Deem and Ramdas Pophale) SiO2 
 PCOD8215320
Probable space group: P N N A
;
_chemical_formula_sum "Si O2"
_cell_formula_units_Z 48
_cell_length_a 5.241060
_cell_length_b 17.196139
_cell_length_c 25.374656
_cell_angle_alpha 90.000000
_cell_angle_beta 90.000000
_cell_angle_gamma 90.000000
_cell_volume 2286.916152
_symmetry_space_group_name_H-M "P N N A"
_symmetry_group_IT_number 52
_symmetry_cell_setting 'orthorhombic'
loop_
_space_group_symop_operation_xyz
x,y,z
1/2-x,-y,z
x,1/2-y,1/2-z
1/2-x,1/2+y,1/2-z
-x,-y,-z
1/2+x,y,-z
-x,1/2+y,1/2+z
1/2+x,1/2-y,1/2+z
loop_
_atom_site_type_symbol
_atom_site_label
_atom_site_fract_x
_atom_site_fract_y
_atom_site_fract_z
Si Si1 0.929974 0.854259 0.634382
Si Si2 0.498044 0.966431 0.059394
Si Si3 0.697914 0.088465 0.523577
Si Si4 0.069629 0.152417 0.696968
Si Si5 0.921567 0.672173 0.623353
Si Si6 0.583906 0.335222 0.313667
O O1 0.891238 0.907427 0.583599
O O2 0.697445 0.874408 0.672726
O O3 0.930938 0.764539 0.614987
O O4 0.190564 0.879718 0.663325
O O5 0.470165 0.872506 0.067063
O O6 0.250000 0.000000 0.088960
O O7 0.750000 0.000000 0.087923
O O8 0.500000 0.000000 0.000000
O O9 0.473310 0.128867 0.487967
O O10 0.750000 0.000000 0.505997
O O11 0.085324 0.244290 0.697012
O O12 0.072543 0.121319 0.757106
O O13 0.656220 0.644394 0.649325
O O14 0.149187 0.641489 0.660235
#
# Coordination Sequence:
#
# PCOD8215320 Si02
#       6
#     8   8   8   8   8   8
#     4  10  19  33  54  83 109 138 178 230 267 316
#     4  10  21  38  54  72 101 144 189 227 280 330
#     4  10  21  38  56  77 107 146 177 206 267 328
#     4   9  17  30  52  81 114 138 172 218 281 326
#     4  10  19  33  54  80 106 138 188 227 269 318
#     4   9  17  30  52  81 110 142 172 222 275 331
#
# _framework density 20.988966000000001
#
# number of rings (size 3 to 8) (size 9 to 14) (size 15 to 20)
#    0.000    2.333    0.000    3.000    0.000    4.000 
#    6.000    0.000    0.000   10.000    0.000    0.000 
#    0.000    0.000    0.000    0.000    0.000    0.000 
#
# Total GULP energy -594637.854092 kJ/mol
# GULP energy per Si atom -12388.288627 kJ/mol
# Density = 2.094119 g / cm^3
# Si number density = 20.988966 Si / 1000 Ang^3
#
#
#
# Elastic Constant Matrix: (Units=GPa)
#
#
# Indices 1 2 3 4 5 6 
#
# 1 187.5146 19.0975 32.8882 0.0000 0.0000 0.0000
# 2 19.0975 21.2546 11.9839 0.0000 0.0000 0.0000
# 3 32.8882 11.9839 94.6042 0.0000 0.0000 0.0000
# 4 0.0000 0.0000 0.0000 15.0988 0.0000 0.0000
# 5 0.0000 0.0000 0.0000 0.0000 3.0495 0.0000
# 6 0.0000 0.0000 0.0000 0.0000 0.0000 12.4228
#
#
#
# Elastic Compliance Matrix: (Units=1/GPa)
#
#
# Indices 1 2 3 4 5 6 
#
# 1 0.006069 -0.004591 -0.001528 0.000000 0.000000 0.000000
# 2 -0.004591 0.054141 -0.005262 0.000000 0.000000 0.000000
# 3 -0.001528 -0.005262 0.011768 0.000000 0.000000 0.000000
# 4 0.000000 0.000000 0.000000 0.066231 0.000000 0.000000
# 5 0.000000 0.000000 0.000000 0.000000 0.327918 0.000000
# 6 0.000000 0.000000 0.000000 0.000000 0.000000 0.080497
#
#
# Mechanical properties :
#
#
# Convention : Reuss Voigt Hill
#
# Bulk Modulus (GPa) = 20.31911 47.92358 34.12134
# Shear Modulus (GPa) = 8.53547 22.07447 15.30497
#
# Velocity S-wave (km/s) = 2.01878 3.24654 2.70328
# Velocity P-wave (km/s) = 3.89048 6.07747 5.10252
#
# Compressibility (1/GPa) = 0.04921477
#
# Stress axis : x y z
#
# Youngs Moduli (GPa) = 164.78521 18.47040 84.97503
#
# Poissons Ratio (x) = 0.08480 0.12985
# Poissons Ratio (y) = 0.75653 0.44715
# Poissons Ratio (z) = 0.25181 0.09719
#
# Static dielectric constant tensor:
#      x y z
#    x 13.465760 0.000000 0.000000 
#    y 0.000000 2.334160 0.000000 
#    z 0.000000 0.000000 3.718210 
# 
# 
# High freq. dielectric constant tensor:
#      x y z
#    x 1.858130 0.000000 0.000000 
#    y 0.000000 1.772310 0.000000 
#    z 0.000000 0.000000 1.809660 
# 
# From -- ./inp_files/38777.got.cif
#   From: 2010.06.25/outbox.cif.g09.slc.cpg/sg52_20_cif.got.tgz:38777.got - 2010.06.26 19:32:48.
