data_PCOD8215246
_publ_section_title
;
Structure prediction by ZEFSAII (Michael W. Deem and Ramdas Pophale) SiO2 
 PCOD8215246
Probable space group: P N N A
;
_chemical_formula_sum "Si O2"
_cell_formula_units_Z 56
_cell_length_a 14.758377
_cell_length_b 13.872278
_cell_length_c 11.490602
_cell_angle_alpha 90.000000
_cell_angle_beta 90.000000
_cell_angle_gamma 90.000000
_cell_volume 2352.497474
_symmetry_space_group_name_H-M "P N N A"
_symmetry_group_IT_number 52
_symmetry_cell_setting 'orthorhombic'
loop_
_space_group_symop_operation_xyz
x,y,z
1/2-x,-y,z
x,1/2-y,1/2-z
1/2-x,1/2+y,1/2-z
-x,-y,-z
1/2+x,y,-z
-x,1/2+y,1/2+z
1/2+x,1/2-y,1/2+z
loop_
_atom_site_type_symbol
_atom_site_label
_atom_site_fract_x
_atom_site_fract_y
_atom_site_fract_z
Si Si1 0.935824 0.583109 0.778337
Si Si2 0.973568 0.725512 0.371295
Si Si3 0.420598 0.250000 0.750000
Si Si4 0.410854 0.526236 0.681660
Si Si5 0.750000 0.500000 0.144789
Si Si6 0.872715 0.146872 0.029873
Si Si7 0.354615 0.860927 0.501185
Si Si8 0.718060 0.311087 0.644191
O O1 0.898399 0.563466 0.908962
O O2 0.852390 0.610164 0.693388
O O3 0.013524 0.663636 0.786368
O O4 0.985853 0.488036 0.729065
O O5 0.023970 0.750000 0.250000
O O6 0.900202 0.638194 0.353173
O O7 0.924564 0.827131 0.399958
O O8 0.041045 0.695420 0.471337
O O9 0.355173 0.214003 0.855730
O O10 0.339058 0.488031 0.777231
O O11 0.394906 0.462377 0.566297
O O12 0.734151 0.407606 0.060857
O O13 0.791487 0.139206 0.938235
O O14 0.336974 0.763504 0.432441
O O15 0.763482 0.250000 0.750000
#
# Coordination Sequence:
#
# PCOD8215246 Si02
#       8
#     8   8   4   8   4   8   8   8
#     4  10  20  48  73 101 146 194 236 293 369 448
#     4  12  24  48  72 101 144 190 236 308 367 434
#     4  10  18  40  70 102 136 196 234 282 372 434
#     4  11  27  47  70 105 146 187 247 295 376 435
#     4  12  28  46  64 112 140 192 250 310 352 432
#     4  11  24  41  74 106 141 189 248 294 360 441
#     4  11  23  44  74  97 147 194 238 297 368 430
#     4  10  22  43  75 109 146 185 244 301 364 433
#
# _framework density 23.804489
#
# number of rings (size 3 to 8) (size 9 to 14) (size 15 to 20)
#    0.000    1.143    5.000    1.714    6.000    0.571 
#    7.714    0.000    0.000    0.000    0.000    0.000 
#    0.000    0.000    0.000    0.000    0.000    0.000 
#
# Total GULP energy -694157.083035 kJ/mol
# GULP energy per Si atom -12395.662197 kJ/mol
# Density = 2.375031 g / cm^3
# Si number density = 23.804489 Si / 1000 Ang^3
#
#
#
# Elastic Constant Matrix: (Units=GPa)
#
#
# Indices 1 2 3 4 5 6 
#
# 1 116.6099 32.0134 61.8378 0.0000 0.0000 0.0000
# 2 32.0134 59.9441 37.5575 0.0000 0.0000 0.0000
# 3 61.8378 37.5575 144.3389 0.0000 0.0000 0.0000
# 4 0.0000 0.0000 0.0000 18.5092 0.0000 0.0000
# 5 0.0000 0.0000 0.0000 0.0000 34.9055 0.0000
# 6 0.0000 0.0000 0.0000 0.0000 0.0000 -142.4862
#
#
#
# Elastic Compliance Matrix: (Units=1/GPa)
#
#
# Indices 1 2 3 4 5 6 
#
# 1 0.011756 -0.003731 -0.004066 0.000000 0.000000 0.000000
# 2 -0.003731 0.021116 -0.003896 0.000000 0.000000 0.000000
# 3 -0.004066 -0.003896 0.009684 0.000000 0.000000 0.000000
# 4 0.000000 0.000000 0.000000 0.054027 0.000000 0.000000
# 5 0.000000 0.000000 0.000000 0.000000 0.028649 0.000000
# 6 0.000000 0.000000 0.000000 0.000000 0.000000 -0.007018
#
#
# Mechanical properties :
#
#
# Convention : Reuss Voigt Hill
#
# Bulk Modulus (GPa) = 52.16451 64.85671 58.51061
# Shear Modulus (GPa) = 33.78644 -5.18203 14.30220
#
# Velocity S-wave (km/s) = 3.77149 -1.47704 2.45382
# Velocity P-wave (km/s) = 6.39741 4.93922 5.71501
#
# Compressibility (1/GPa) = 0.01917012
#
# Stress axis : x y z
#
# Youngs Moduli (GPa) = 85.06377 47.35807 103.26632
#
# Poissons Ratio (x) = 0.17669 0.41985
# Poissons Ratio (y) = 0.31737 0.40232
# Poissons Ratio (z) = 0.34584 0.18451
#
# Static dielectric constant tensor:
#      x y z
#    x 4.101210 0.000000 0.000000 
#    y 0.000000 4.471600 0.000000 
#    z 0.000000 0.000000 5.029330 
# 
# 
# High freq. dielectric constant tensor:
#      x y z
#    x 1.919980 0.000000 0.000000 
#    y 0.000000 1.931790 0.000000 
#    z 0.000000 0.000000 1.970210 
# 
# From -- ./inp_files/19694.got.cif
#   From: 2010.06.25/outbox.cif.g09.slc.cpg/sg52_10_cif.got.tgz:19694.got - 2010.06.26 19:32:48.
