data_PCOD8215409
_publ_section_title
;
Structure prediction by ZEFSAII (Michael W. Deem and Ramdas Pophale) SiO2 
 PCOD8215409
Probable space group: P N N A
;
_chemical_formula_sum "Si O2"
_cell_formula_units_Z 32
_cell_length_a 35.914822
_cell_length_b 8.054445
_cell_length_c 5.136596
_cell_angle_alpha 90.000000
_cell_angle_beta 90.000000
_cell_angle_gamma 90.000000
_cell_volume 1485.883458
_symmetry_space_group_name_H-M "P N N A"
_symmetry_group_IT_number 52
_symmetry_cell_setting 'orthorhombic'
loop_
_space_group_symop_operation_xyz
x,y,z
1/2-x,-y,z
x,1/2-y,1/2-z
1/2-x,1/2+y,1/2-z
-x,-y,-z
1/2+x,y,-z
-x,1/2+y,1/2+z
1/2+x,1/2-y,1/2+z
loop_
_atom_site_type_symbol
_atom_site_label
_atom_site_fract_x
_atom_site_fract_y
_atom_site_fract_z
Si Si1 0.605499 0.442864 0.723251
Si Si2 0.222063 0.356114 0.987416
Si Si3 0.477488 0.444653 0.253224
Si Si4 0.857735 0.562358 0.215761
O O1 0.615846 0.250000 0.750000
O O2 0.561612 0.464786 0.709758
O O3 0.629444 0.524734 0.485866
O O4 0.620157 0.531238 0.985875
O O5 0.250000 0.500000 0.076002
O O6 0.240272 0.250000 0.750000
O O7 0.185835 0.439756 0.855228
O O8 0.212517 0.250000 0.250000
O O9 0.470704 0.250000 0.250000
O O10 0.500000 0.500000 0.500000
O O11 0.500000 0.500000 0.000000
O O12 0.872302 0.750000 0.250000
#
# Coordination Sequence:
#
# PCOD8215409 Si02
#       4
#     8   8   8   8
#     4  10  19  35  59  85 112 153 202 248 297 358
#     4  11  22  39  62  91 125 164 209 258 309 369
#     4  12  25  42  63  91 125 161 202 252 307 368
#     4   9  18  34  58  83 114 156 201 242 296 367
#
# _framework density 21.536009
#
# number of rings (size 3 to 8) (size 9 to 14) (size 15 to 20)
#    0.000    1.500    0.000    8.250    0.000    2.000 
#    0.000    3.750    0.000    0.000    0.000    0.000 
#    0.000    0.000    0.000    0.000    0.000    0.000 
#
# Total GULP energy -396510.451760 kJ/mol
# GULP energy per Si atom -12390.951617 kJ/mol
# Density = 2.148699 g / cm^3
# Si number density = 21.536009 Si / 1000 Ang^3
#
#
#
# Elastic Constant Matrix: (Units=GPa)
#
#
# Indices 1 2 3 4 5 6 
#
# 1 145.1094 17.2233 86.5117 0.0000 0.0000 0.0000
# 2 17.2233 31.7945 26.5029 0.0000 0.0000 0.0000
# 3 86.5117 26.5029 212.5679 0.0000 0.0000 0.0000
# 4 0.0000 0.0000 0.0000 20.6721 0.0000 0.0000
# 5 0.0000 0.0000 0.0000 0.0000 45.0452 0.0000
# 6 0.0000 0.0000 0.0000 0.0000 0.0000 28.6199
#
#
#
# Elastic Compliance Matrix: (Units=1/GPa)
#
#
# Indices 1 2 3 4 5 6 
#
# 1 0.009221 -0.002083 -0.003493 0.000000 0.000000 0.000000
# 2 -0.002083 0.035571 -0.003587 0.000000 0.000000 0.000000
# 3 -0.003493 -0.003587 0.006573 0.000000 0.000000 0.000000
# 4 0.000000 0.000000 0.000000 0.048374 0.000000 0.000000
# 5 0.000000 0.000000 0.000000 0.000000 0.022200 0.000000
# 6 0.000000 0.000000 0.000000 0.000000 0.000000 0.034941
#
#
# Mechanical properties :
#
#
# Convention : Reuss Voigt Hill
#
# Bulk Modulus (GPa) = 30.26827 72.21641 51.24234
# Shear Modulus (GPa) = 26.85002 36.14970 31.49986
#
# Velocity S-wave (km/s) = 3.53477 4.10148 3.82862
# Velocity P-wave (km/s) = 5.54479 7.48567 6.58710
#
# Compressibility (1/GPa) = 0.03303789
#
# Stress axis : x y z
#
# Youngs Moduli (GPa) = 108.44624 28.11314 152.13197
#
# Poissons Ratio (x) = 0.05857 0.53141
# Poissons Ratio (y) = 0.22594 0.54570
# Poissons Ratio (z) = 0.37881 0.10084
#
# Static dielectric constant tensor:
#      x y z
#    x 3.645730 0.000000 0.000000 
#    y 0.000000 3.519120 0.000000 
#    z 0.000000 0.000000 4.720520 
# 
# 
# High freq. dielectric constant tensor:
#      x y z
#    x 1.849220 0.000000 0.000000 
#    y 0.000000 1.800030 0.000000 
#    z 0.000000 0.000000 1.882700 
# 
# From -- ./inp_files/6117.got.cif
#   From: 2010.06.25/outbox.cif.g09.slc.cpg/sg52_4_cif.got.tgz:6117.got - 2010.06.26 19:32:48.
