data_PCOD8215958
_publ_section_title
;
Structure prediction by ZEFSAII (Michael W. Deem and Ramdas Pophale) SiO2 
 PCOD8215958
Probable space group: P N N A
;
_chemical_formula_sum "Si O2"
_cell_formula_units_Z 48
_cell_length_a 32.066107
_cell_length_b 4.996919
_cell_length_c 14.573263
_cell_angle_alpha 90.000000
_cell_angle_beta 90.000000
_cell_angle_gamma 90.000000
_cell_volume 2335.099278
_symmetry_space_group_name_H-M "P N N A"
_symmetry_group_IT_number 52
_symmetry_cell_setting 'orthorhombic'
loop_
_space_group_symop_operation_xyz
x,y,z
1/2-x,-y,z
x,1/2-y,1/2-z
1/2-x,1/2+y,1/2-z
-x,-y,-z
1/2+x,y,-z
-x,1/2+y,1/2+z
1/2+x,1/2-y,1/2+z
loop_
_atom_site_type_symbol
_atom_site_label
_atom_site_fract_x
_atom_site_fract_y
_atom_site_fract_z
Si Si1 0.152748 0.663711 0.498581
Si Si2 0.277583 0.250340 0.356669
Si Si3 0.514488 0.254094 0.057298
Si Si4 0.777737 0.253139 0.356549
Si Si5 0.401880 0.848363 0.482883
Si Si6 0.953320 0.488518 0.807067
O O1 0.179016 0.748872 0.409695
O O2 0.179384 0.710673 0.589870
O O3 0.136258 0.361971 0.483742
O O4 0.113647 0.858514 0.509702
O O5 0.250000 0.500000 0.386422
O O6 0.288987 0.250000 0.250000
O O7 0.250000 0.000000 0.385897
O O8 0.492682 0.308637 0.155327
O O9 0.500000 0.500000 0.000000
O O10 0.564916 0.253839 0.060504
O O11 0.500000 0.000000 0.000000
O O12 0.750000 0.500000 0.384742
O O13 0.789684 0.250000 0.250000
O O14 0.750000 0.000000 0.385816
O O15 0.423131 0.880304 0.383045
O O16 0.968752 0.750000 0.750000
O O17 0.929473 0.250000 0.750000
#
# Coordination Sequence:
#
# PCOD8215958 Si02
#       6
#     8   8   8   8   8   8
#     4  12  22  37  60  88 121 158 193 246 313 367
#     4  10  21  37  55  78 112 156 202 240 280 348
#     4  10  20  40  61  80 113 158 199 238 292 358
#     4  10  21  39  63  87 114 154 206 257 302 361
#     4  11  24  38  58  88 123 154 190 246 309 362
#     4  11  22  39  63  89 117 158 211 253 291 356
#
# _framework density 20.555872999999998
#
# number of rings (size 3 to 8) (size 9 to 14) (size 15 to 20)
#    0.000    1.333    0.000    8.000    0.000    2.000 
#    0.000    2.500    0.000    0.000    0.000    0.000 
#    0.000    0.000    0.000    0.000    0.000    0.000 
#
# Total GULP energy -594884.246910 kJ/mol
# GULP energy per Si atom -12393.421811 kJ/mol
# Density = 2.050909 g / cm^3
# Si number density = 20.555873 Si / 1000 Ang^3
#
#
#
# Elastic Constant Matrix: (Units=GPa)
#
#
# Indices 1 2 3 4 5 6 
#
# 1 101.6280 32.9526 44.5062 0.0000 0.0000 0.0000
# 2 32.9526 152.5417 35.2730 0.0000 0.0000 0.0000
# 3 44.5062 35.2730 92.4366 0.0000 0.0000 0.0000
# 4 0.0000 0.0000 0.0000 35.7641 0.0000 0.0000
# 5 0.0000 0.0000 0.0000 0.0000 19.3951 0.0000
# 6 0.0000 0.0000 0.0000 0.0000 0.0000 -14.2743
#
#
#
# Elastic Compliance Matrix: (Units=1/GPa)
#
#
# Indices 1 2 3 4 5 6 
#
# 1 0.012761 -0.001465 -0.005585 0.000000 0.000000 0.000000
# 2 -0.001465 0.007358 -0.002102 0.000000 0.000000 0.000000
# 3 -0.005585 -0.002102 0.014309 0.000000 0.000000 0.000000
# 4 0.000000 0.000000 0.000000 0.027961 0.000000 0.000000
# 5 0.000000 0.000000 0.000000 0.000000 0.051559 0.000000
# 6 0.000000 0.000000 0.000000 0.000000 0.000000 -0.070056
#
#
# Mechanical properties :
#
#
# Convention : Reuss Voigt Hill
#
# Bulk Modulus (GPa) = 62.02133 63.56334 62.79233
# Shear Modulus (GPa) = 73.99495 23.76863 48.88179
#
# Velocity S-wave (km/s) = 6.00626 3.40412 4.88176
# Velocity P-wave (km/s) = 8.85086 6.81470 7.89867
#
# Compressibility (1/GPa) = 0.01612348
#
# Stress axis : x y z
#
# Youngs Moduli (GPa) = 78.36562 135.90200 69.88367
#
# Poissons Ratio (x) = 0.19912 0.39029
# Poissons Ratio (y) = 0.11482 0.14692
# Poissons Ratio (z) = 0.43766 0.28572
#
# Static dielectric constant tensor:
#      x y z
#    x 1.580240 0.000000 0.000000 
#    y 0.000000 3.912120 0.000000 
#    z 0.000000 0.000000 2.982200 
# 
# 
# High freq. dielectric constant tensor:
#      x y z
#    x 1.795920 0.000000 0.000000 
#    y 0.000000 1.832210 0.000000 
#    z 0.000000 0.000000 1.799080 
# 
# From -- ./inp_files/29618.got.cif
#   From: 2010.06.25/outbox.cif.g09.slc.cpg/sg52_15_cif.got.tgz:29618.got - 2010.06.26 19:32:48.
