data_PCOD8215055
_publ_section_title
;
Structure prediction by ZEFSAII (Michael W. Deem and Ramdas Pophale) SiO2 
 PCOD8215055
Probable space group: P N N A
;
_chemical_formula_sum "Si O2"
_cell_formula_units_Z 48
_cell_length_a 8.650564
_cell_length_b 7.579890
_cell_length_c 30.738421
_cell_angle_alpha 90.000000
_cell_angle_beta 90.000000
_cell_angle_gamma 90.000000
_cell_volume 2015.528211
_symmetry_space_group_name_H-M "P N N A"
_symmetry_group_IT_number 52
_symmetry_cell_setting 'orthorhombic'
loop_
_space_group_symop_operation_xyz
x,y,z
1/2-x,-y,z
x,1/2-y,1/2-z
1/2-x,1/2+y,1/2-z
-x,-y,-z
1/2+x,y,-z
-x,1/2+y,1/2+z
1/2+x,1/2-y,1/2+z
loop_
_atom_site_type_symbol
_atom_site_label
_atom_site_fract_x
_atom_site_fract_y
_atom_site_fract_z
Si Si1 0.611002 0.196572 0.547102
Si Si2 0.674320 0.308736 0.112040
Si Si3 0.368485 0.250000 0.250000
Si Si4 0.425400 0.977935 0.694261
Si Si5 0.989271 0.201919 0.138313
Si Si6 0.556425 0.787944 0.535628
Si Si7 0.750000 0.500000 0.680788
O O1 0.558988 0.206800 0.596218
O O2 0.776768 0.296535 0.545190
O O3 0.501705 0.288315 0.510820
O O4 0.601878 0.992813 0.533905
O O5 0.750000 0.500000 0.100184
O O6 0.567635 0.336829 0.154572
O O7 0.571015 0.238636 0.072276
O O8 0.809167 0.166383 0.124827
O O9 0.472973 0.087150 0.265723
O O10 0.268549 0.325012 0.289833
O O11 0.250000 0.000000 0.710887
O O12 0.494419 0.163622 0.678668
O O13 0.094170 0.032207 0.151518
#
# Coordination Sequence:
#
# PCOD8215055 Si02
#       7
#     8   8   4   8   8   8   4
#     4  10  19  28  54  89 133 164 214 262 317 375
#     4   9  17  35  57  89 128 165 209 263 322 377
#     4  12  26  44  66  94 128 164 220 270 334 412
#     4   9  21  40  67  94 125 163 211 274 328 393
#     4  10  21  41  61  90 130 168 214 272 327 393
#     4  10  18  28  54  95 126 171 209 267 316 366
#     4  12  28  42  66  92 130 174 216 272 338 398
#
# _framework density 23.815097000000002
#
# number of rings (size 3 to 8) (size 9 to 14) (size 15 to 20)
#    0.000    2.333    3.333    2.000    4.667    2.667 
#    0.000    0.000    0.000    4.000    0.000    0.000 
#    0.000    0.000    0.000    0.000    0.000    0.000 
#
# Total GULP energy -594667.263169 kJ/mol
# GULP energy per Si atom -12388.901316 kJ/mol
# Density = 2.376089 g / cm^3
# Si number density = 23.815097 Si / 1000 Ang^3
#
#
#
# Elastic Constant Matrix: (Units=GPa)
#
#
# Indices 1 2 3 4 5 6 
#
# 1 125.3973 28.7629 42.1555 0.0000 0.0000 0.0000
# 2 28.7629 43.8206 10.8482 0.0000 0.0000 0.0000
# 3 42.1555 10.8482 66.4984 0.0000 0.0000 0.0000
# 4 0.0000 0.0000 0.0000 8.5647 0.0000 0.0000
# 5 0.0000 0.0000 0.0000 0.0000 17.5165 0.0000
# 6 0.0000 0.0000 0.0000 0.0000 0.0000 31.5553
#
#
#
# Elastic Compliance Matrix: (Units=1/GPa)
#
#
# Indices 1 2 3 4 5 6 
#
# 1 0.011457 -0.005963 -0.006290 0.000000 0.000000 0.000000
# 2 -0.005963 0.026884 -0.000606 0.000000 0.000000 0.000000
# 3 -0.006290 -0.000606 0.019124 0.000000 0.000000 0.000000
# 4 0.000000 0.000000 0.000000 0.116758 0.000000 0.000000
# 5 0.000000 0.000000 0.000000 0.000000 0.057089 0.000000
# 6 0.000000 0.000000 0.000000 0.000000 0.000000 0.031690
#
#
# Mechanical properties :
#
#
# Convention : Reuss Voigt Hill
#
# Bulk Modulus (GPa) = 31.49810 44.36105 37.92958
# Shear Modulus (GPa) = 16.70548 21.79064 19.24806
#
# Velocity S-wave (km/s) = 2.65139 3.02817 2.84602
# Velocity P-wave (km/s) = 4.75689 5.55825 5.17311
#
# Compressibility (1/GPa) = 0.03174795
#
# Stress axis : x y z
#
# Youngs Moduli (GPa) = 87.28283 37.19663 52.28943
#
# Poissons Ratio (x) = 0.22180 0.32891
# Poissons Ratio (y) = 0.52046 0.03167
# Poissons Ratio (z) = 0.54903 0.02253
#
# Static dielectric constant tensor:
#      x y z
#    x 5.086260 0.000000 0.000000 
#    y 0.000000 3.659760 0.000000 
#    z 0.000000 0.000000 4.158680 
# 
# 
# High freq. dielectric constant tensor:
#      x y z
#    x 1.958610 0.000000 0.000000 
#    y 0.000000 1.895020 0.000000 
#    z 0.000000 0.000000 1.944880 
# 
# From -- ./inp_files/44427.got.cif
#   From: 2010.06.25/outbox.cif.g09.slc.cpg/sg52_23_cif.got.tgz:44427.got - 2010.06.26 19:32:48.
