data_PCOD8215454
_publ_section_title
;
Structure prediction by ZEFSAII (Michael W. Deem and Ramdas Pophale) SiO2 
 PCOD8215454
Probable space group: P N N A
;
_chemical_formula_sum "Si O2"
_cell_formula_units_Z 40
_cell_length_a 10.191965
_cell_length_b 20.069903
_cell_length_c 10.938604
_cell_angle_alpha 90.000000
_cell_angle_beta 90.000000
_cell_angle_gamma 90.000000
_cell_volume 2237.510579
_symmetry_space_group_name_H-M "P N N A"
_symmetry_group_IT_number 52
_symmetry_cell_setting 'orthorhombic'
loop_
_space_group_symop_operation_xyz
x,y,z
1/2-x,-y,z
x,1/2-y,1/2-z
1/2-x,1/2+y,1/2-z
-x,-y,-z
1/2+x,y,-z
-x,1/2+y,1/2+z
1/2+x,1/2-y,1/2+z
loop_
_atom_site_type_symbol
_atom_site_label
_atom_site_fract_x
_atom_site_fract_y
_atom_site_fract_z
Si Si1 0.125821 0.544306 0.975121
Si Si2 0.992185 0.356886 0.196343
Si Si3 0.526685 0.281902 0.568653
Si Si4 0.235475 0.576336 0.221348
Si Si5 0.182131 0.700452 0.365927
O O1 0.250000 0.500000 0.942421
O O2 0.118067 0.595484 0.861303
O O3 0.145610 0.583523 0.101728
O O4 0.000000 0.500000 0.000000
O O5 0.969048 0.338094 0.338489
O O6 0.997700 0.290543 0.118262
O O7 0.124464 0.397432 0.180526
O O8 0.450815 0.287592 0.440876
O O9 0.684638 0.290215 0.553944
O O10 0.250000 0.500000 0.268100
O O11 0.173589 0.623343 0.324901
O O12 0.189834 0.750000 0.250000
#
# Coordination Sequence:
#
# PCOD8215454 Si02
#       5
#     8   8   8   8   8
#     4  11  20  34  58  88 114 152 195 242 299 347
#     4  10  19  39  57  83 120 151 191 247 298 345
#     4  10  22  39  63  83 117 161 195 246 300 351
#     4  10  19  36  60  84 116 157 189 244 303 343
#     4  11  21  43  60  87 120 159 201 244 301 357
#
# _framework density 17.877011
#
# number of rings (size 3 to 8) (size 9 to 14) (size 15 to 20)
#    0.000    1.600    8.000    1.200    0.000    0.000 
#    7.200    5.000    0.000    0.000    0.000    0.000 
#    0.000    0.000    0.000    0.000    0.000    0.000 
#
# Total GULP energy -495733.969184 kJ/mol
# GULP energy per Si atom -12393.349230 kJ/mol
# Density = 1.783632 g / cm^3
# Si number density = 17.877011 Si / 1000 Ang^3
#
#
#
# Elastic Constant Matrix: (Units=GPa)
#
#
# Indices 1 2 3 4 5 6 
#
# 1 111.0024 44.9230 56.6716 0.0000 0.0000 0.0000
# 2 44.9230 87.2036 40.8246 0.0000 0.0000 0.0000
# 3 56.6716 40.8246 75.5272 0.0000 0.0000 0.0000
# 4 0.0000 0.0000 0.0000 34.7319 0.0000 0.0000
# 5 0.0000 0.0000 0.0000 0.0000 45.5626 0.0000
# 6 0.0000 0.0000 0.0000 0.0000 0.0000 30.6995
#
#
#
# Elastic Compliance Matrix: (Units=1/GPa)
#
#
# Indices 1 2 3 4 5 6 
#
# 1 0.015304 -0.003357 -0.009668 0.000000 0.000000 0.000000
# 2 -0.003357 0.016089 -0.006177 0.000000 0.000000 0.000000
# 3 -0.009668 -0.006177 0.023834 0.000000 0.000000 0.000000
# 4 0.000000 0.000000 0.000000 0.028792 0.000000 0.000000
# 5 0.000000 0.000000 0.000000 0.000000 0.021948 0.000000
# 6 0.000000 0.000000 0.000000 0.000000 0.000000 0.032574
#
#
# Mechanical properties :
#
#
# Convention : Reuss Voigt Hill
#
# Bulk Modulus (GPa) = 59.45154 62.06351 60.75752
# Shear Modulus (GPa) = 27.38936 30.95306 29.17121
#
# Velocity S-wave (km/s) = 3.91845 4.16558 4.04390
# Velocity P-wave (km/s) = 7.33488 7.61107 7.47425
#
# Compressibility (1/GPa) = 0.01682042
#
# Stress axis : x y z
#
# Youngs Moduli (GPa) = 65.34398 62.15461 41.95725
#
# Poissons Ratio (x) = 0.20868 0.40565
# Poissons Ratio (y) = 0.21939 0.25918
# Poissons Ratio (z) = 0.63176 0.38395
#
# Static dielectric constant tensor:
#      x y z
#    x 3.241500 0.000000 0.000000 
#    y 0.000000 3.555130 0.000000 
#    z 0.000000 0.000000 3.531640 
# 
# 
# High freq. dielectric constant tensor:
#      x y z
#    x 1.687330 0.000000 0.000000 
#    y 0.000000 1.709640 0.000000 
#    z 0.000000 0.000000 1.672960 
# 
# From -- ./inp_files/16812.got.cif
#   From: 2010.06.25/outbox.cif.g09.slc.cpg/sg52_9_cif.got.tgz:16812.got - 2010.06.26 19:32:48.
