data_PCOD8215461
_publ_section_title
;
Structure prediction by ZEFSAII (Michael W. Deem and Ramdas Pophale) SiO2 
 PCOD8215461
Probable space group: P N N A
;
_chemical_formula_sum "Si O2"
_cell_formula_units_Z 36
_cell_length_a 10.619742
_cell_length_b 7.192133
_cell_length_c 19.054510
_cell_angle_alpha 90.000000
_cell_angle_beta 90.000000
_cell_angle_gamma 90.000000
_cell_volume 1455.356738
_symmetry_space_group_name_H-M "P N N A"
_symmetry_group_IT_number 52
_symmetry_cell_setting 'orthorhombic'
loop_
_space_group_symop_operation_xyz
x,y,z
1/2-x,-y,z
x,1/2-y,1/2-z
1/2-x,1/2+y,1/2-z
-x,-y,-z
1/2+x,y,-z
-x,1/2+y,1/2+z
1/2+x,1/2-y,1/2+z
loop_
_atom_site_type_symbol
_atom_site_label
_atom_site_fract_x
_atom_site_fract_y
_atom_site_fract_z
Si Si1 0.250000 0.500000 0.038134
Si Si2 0.641600 0.750000 0.750000
Si Si3 0.509015 0.637748 0.418212
Si Si4 0.250000 0.000000 0.138848
Si Si5 0.018950 0.507503 0.142927
Si Si6 0.118353 0.274447 0.551198
O O1 0.130819 0.522272 0.087206
O O2 0.240311 0.313209 0.988665
O O3 0.729084 0.817897 0.813300
O O4 0.559287 0.575401 0.779086
O O5 0.374632 0.532931 0.406700
O O6 0.497375 0.731366 0.494977
O O7 0.624353 0.488155 0.419260
O O8 0.532627 0.794301 0.358116
O O9 0.909336 0.644277 0.117547
#
# Coordination Sequence:
#
# PCOD8215461 Si02
#       6
#     4   4   8   4   8   8
#     4  10  19  36  62  82 123 160 212 264 324 376
#     4  12  22  34  58  82 126 168 208 248 322 390
#     4  10  21  36  57  83 127 153 210 248 321 375
#     4  12  21  36  56  92 119 170 194 250 312 390
#     4  11  22  39  55  90 123 165 201 258 315 388
#     4  10  21  38  56  87 118 163 200 265 309 372
#
# _framework density 24.736205000000002
#
# number of rings (size 3 to 8) (size 9 to 14) (size 15 to 20)
#    0.000    1.333    2.222    7.333    0.000    0.000 
#    0.000    0.000    0.000    0.000    0.000    7.778 
#    0.000    0.000    0.000    0.000    0.000    0.000 
#
# Total GULP energy -446046.562795 kJ/mol
# GULP energy per Si atom -12390.182300 kJ/mol
# Density = 2.467990 g / cm^3
# Si number density = 24.736205 Si / 1000 Ang^3
#
#
#
# Elastic Constant Matrix: (Units=GPa)
#
#
# Indices 1 2 3 4 5 6 
#
# 1 33.9172 17.6266 19.3603 0.0000 0.0000 0.0000
# 2 17.6266 186.1948 38.7614 0.0000 0.0000 0.0000
# 3 19.3603 38.7614 69.3706 0.0000 0.0000 0.0000
# 4 0.0000 0.0000 0.0000 51.9261 0.0000 0.0000
# 5 0.0000 0.0000 0.0000 0.0000 19.3224 0.0000
# 6 0.0000 0.0000 0.0000 0.0000 0.0000 28.7554
#
#
#
# Elastic Compliance Matrix: (Units=1/GPa)
#
#
# Indices 1 2 3 4 5 6 
#
# 1 0.035420 -0.001466 -0.009066 0.000000 0.000000 0.000000
# 2 -0.001466 0.006138 -0.003021 0.000000 0.000000 0.000000
# 3 -0.009066 -0.003021 0.018633 0.000000 0.000000 0.000000
# 4 0.000000 0.000000 0.000000 0.019258 0.000000 0.000000
# 5 0.000000 0.000000 0.000000 0.000000 0.051753 0.000000
# 6 0.000000 0.000000 0.000000 0.000000 0.000000 0.034776
#
#
# Mechanical properties :
#
#
# Convention : Reuss Voigt Hill
#
# Bulk Modulus (GPa) = 30.22370 48.99767 39.61069
# Shear Modulus (GPa) = 24.49605 34.24971 29.37288
#
# Velocity S-wave (km/s) = 3.15030 3.72506 3.44967
# Velocity P-wave (km/s) = 5.04752 6.19294 5.64933
#
# Compressibility (1/GPa) = 0.03308661
#
# Stress axis : x y z
#
# Youngs Moduli (GPa) = 28.23224 162.91063 53.66691
#
# Poissons Ratio (x) = 0.23879 0.48656
# Poissons Ratio (y) = 0.04138 0.16211
# Poissons Ratio (z) = 0.25596 0.49211
#
# Static dielectric constant tensor:
#      x y z
#    x 3.994930 0.000000 0.000000 
#    y 0.000000 5.262630 0.000000 
#    z 0.000000 0.000000 4.307890 
# 
# 
# High freq. dielectric constant tensor:
#      x y z
#    x 1.936450 0.000000 0.000000 
#    y 0.000000 2.012010 0.000000 
#    z 0.000000 0.000000 1.954510 
# 
# From -- ./inp_files/35614.got.cif
#   From: 2010.06.25/outbox.cif.g09.slc.cpg/sg52_18_cif.got.tgz:35614.got - 2010.06.26 19:32:48.
