data_PCOD8215768
_publ_section_title
;
Structure prediction by ZEFSAII (Michael W. Deem and Ramdas Pophale) SiO2 
 PCOD8215768
Probable space group: P N N A
;
_chemical_formula_sum "Si O2"
_cell_formula_units_Z 48
_cell_length_a 8.565761
_cell_length_b 10.045843
_cell_length_c 28.068939
_cell_angle_alpha 90.000000
_cell_angle_beta 90.000000
_cell_angle_gamma 90.000000
_cell_volume 2415.340346
_symmetry_space_group_name_H-M "P N N A"
_symmetry_group_IT_number 52
_symmetry_cell_setting 'orthorhombic'
loop_
_space_group_symop_operation_xyz
x,y,z
1/2-x,-y,z
x,1/2-y,1/2-z
1/2-x,1/2+y,1/2-z
-x,-y,-z
1/2+x,y,-z
-x,1/2+y,1/2+z
1/2+x,1/2-y,1/2+z
loop_
_atom_site_type_symbol
_atom_site_label
_atom_site_fract_x
_atom_site_fract_y
_atom_site_fract_z
Si Si1 0.932603 0.489976 0.391643
Si Si2 0.564551 0.482815 0.901794
Si Si3 0.546964 0.738583 0.559774
Si Si4 0.586877 0.227936 0.957593
Si Si5 0.603118 0.096480 0.801687
Si Si6 0.393135 0.599229 0.196854
O O1 0.750000 0.500000 0.400371
O O2 0.007347 0.634482 0.399021
O O3 0.010389 0.392595 0.429576
O O4 0.966941 0.441721 0.338200
O O5 0.750000 0.500000 0.898542
O O6 0.489958 0.618668 0.920566
O O7 0.515747 0.366795 0.938446
O O8 0.500987 0.445124 0.848515
O O9 0.728645 0.729889 0.548708
O O10 0.448241 0.707615 0.512842
O O11 0.661338 0.247776 0.811464
O O12 0.525356 0.086219 0.748770
O O13 0.750000 0.000000 0.808888
O O14 0.250000 0.500000 0.199411
#
# Coordination Sequence:
#
# PCOD8215768 Si02
#       6
#     8   8   8   8   8   8
#     4  12  25  40  58  84 121 159 200 242 292 349
#     4   9  19  35  60  90 118 151 191 240 290 351
#     4  11  23  38  63  88 118 152 197 245 296 354
#     4  11  21  40  61  87 118 153 196 242 297 349
#     4  10  20  36  65  92 118 154 195 245 295 346
#     4   9  18  35  63  94 121 145 196 243 292 347
#
# _framework density 19.872976000000001
#
# number of rings (size 3 to 8) (size 9 to 14) (size 15 to 20)
#    0.000    1.667    1.667    3.500    4.667    0.000 
#    0.000    2.500    7.333    0.000    0.000    0.000 
#    0.000    0.000    0.000    0.000    0.000    0.000 
#
# Total GULP energy -595058.386466 kJ/mol
# GULP energy per Si atom -12397.049718 kJ/mol
# Density = 1.982774 g / cm^3
# Si number density = 19.872976 Si / 1000 Ang^3
#
#
#
# Elastic Constant Matrix: (Units=GPa)
#
#
# Indices 1 2 3 4 5 6 
#
# 1 56.7090 28.9605 19.6003 0.0000 0.0000 0.0000
# 2 28.9605 131.6892 36.3284 0.0000 0.0000 0.0000
# 3 19.6003 36.3284 122.3918 0.0000 0.0000 0.0000
# 4 0.0000 0.0000 0.0000 35.2665 0.0000 0.0000
# 5 0.0000 0.0000 0.0000 0.0000 15.7106 0.0000
# 6 0.0000 0.0000 0.0000 0.0000 0.0000 13.9703
#
#
#
# Elastic Compliance Matrix: (Units=1/GPa)
#
#
# Indices 1 2 3 4 5 6 
#
# 1 0.020350 -0.003895 -0.002103 0.000000 0.000000 0.000000
# 2 -0.003895 0.009016 -0.002052 0.000000 0.000000 0.000000
# 3 -0.002103 -0.002052 0.009116 0.000000 0.000000 0.000000
# 4 0.000000 0.000000 0.000000 0.028355 0.000000 0.000000
# 5 0.000000 0.000000 0.000000 0.000000 0.063651 0.000000
# 6 0.000000 0.000000 0.000000 0.000000 0.000000 0.071580
#
#
# Mechanical properties :
#
#
# Convention : Reuss Voigt Hill
#
# Bulk Modulus (GPa) = 44.67882 53.39649 49.03765
# Shear Modulus (GPa) = 22.16004 28.04954 25.10479
#
# Velocity S-wave (km/s) = 3.34291 3.76099 3.55810
# Velocity P-wave (km/s) = 6.11809 6.76663 6.45052
#
# Compressibility (1/GPa) = 0.02238197
#
# Stress axis : x y z
#
# Youngs Moduli (GPa) = 49.14037 110.90833 109.69190
#
# Poissons Ratio (x) = 0.43201 0.23065
# Poissons Ratio (y) = 0.19141 0.22514
# Poissons Ratio (z) = 0.10333 0.22764
#
# Static dielectric constant tensor:
#      x y z
#    x 3.096800 0.000000 0.000000 
#    y 0.000000 4.017870 0.000000 
#    z 0.000000 0.000000 4.223400 
# 
# 
# High freq. dielectric constant tensor:
#      x y z
#    x 1.720910 0.000000 0.000000 
#    y 0.000000 1.800420 0.000000 
#    z 0.000000 0.000000 1.798810 
# 
# From -- ./inp_files/44376.got.cif
#   From: 2010.06.25/outbox.cif.g09.slc.cpg/sg52_23_cif.got.tgz:44376.got - 2010.06.26 19:32:48.
