data_PCOD8215830
_publ_section_title
;
Structure prediction by ZEFSAII (Michael W. Deem and Ramdas Pophale) SiO2 
 PCOD8215830
Probable space group: P N N A
;
_chemical_formula_sum "Si O2"
_cell_formula_units_Z 48
_cell_length_a 23.436947
_cell_length_b 10.627787
_cell_length_c 10.020947
_cell_angle_alpha 90.000000
_cell_angle_beta 90.000000
_cell_angle_gamma 90.000000
_cell_volume 2496.046346
_symmetry_space_group_name_H-M "P N N A"
_symmetry_group_IT_number 52
_symmetry_cell_setting 'orthorhombic'
loop_
_space_group_symop_operation_xyz
x,y,z
1/2-x,-y,z
x,1/2-y,1/2-z
1/2-x,1/2+y,1/2-z
-x,-y,-z
1/2+x,y,-z
-x,1/2+y,1/2+z
1/2+x,1/2-y,1/2+z
loop_
_atom_site_type_symbol
_atom_site_label
_atom_site_fract_x
_atom_site_fract_y
_atom_site_fract_z
Si Si1 0.621096 0.777641 0.100905
Si Si2 0.533774 0.250000 0.250000
Si Si3 0.624887 0.023160 0.783349
Si Si4 0.956555 0.404042 0.931857
Si Si5 0.937807 0.964693 0.050585
Si Si6 0.282921 0.122964 0.070665
Si Si7 0.196223 0.250000 0.250000
O O1 0.635997 0.750000 0.250000
O O2 0.585203 0.904167 0.103512
O O3 0.587470 0.660862 0.033543
O O4 0.683231 0.798526 0.038432
O O5 0.494855 0.295745 0.129601
O O6 0.568210 0.137548 0.173001
O O7 0.656389 0.134683 0.705393
O O8 0.575766 0.971855 0.688745
O O9 0.671514 0.915246 0.814211
O O10 0.599096 0.078476 0.922036
O O11 0.000000 0.500000 0.000000
O O12 0.000000 0.000000 0.000000
O O13 0.235121 0.216356 0.124676
O O14 0.250000 0.000000 0.012824
#
# Coordination Sequence:
#
# PCOD8215830 Si02
#       7
#     8   4   8   8   8   8   4
#     4  11  23  40  61  88 124 163 209 258 311 385
#     4  12  22  39  58  84 128 172 199 244 296 366
#     4  10  22  37  61  93 118 158 207 255 309 369
#     4  12  24  36  59  91 128 168 206 238 305 381
#     4  11  21  39  62  86 127 172 202 245 310 371
#     4   9  19  40  64  84 111 156 205 260 324 354
#     4  10  20  37  66  86 116 146 211 278 298 356
#
# _framework density 19.230411
#
# number of rings (size 3 to 8) (size 9 to 14) (size 15 to 20)
#    0.000    1.333    3.333    3.000    2.333    0.000 
#    0.000    1.667   12.833    0.000    0.000    0.000 
#    0.000    0.000    0.000    0.000    0.000    0.000 
#
# Total GULP energy -594922.307629 kJ/mol
# GULP energy per Si atom -12394.214742 kJ/mol
# Density = 1.918664 g / cm^3
# Si number density = 19.230411 Si / 1000 Ang^3
#
#
#
# Elastic Constant Matrix: (Units=GPa)
#
#
# Indices 1 2 3 4 5 6 
#
# 1 90.7480 47.2315 31.8829 0.0000 0.0000 0.0000
# 2 47.2315 100.1914 58.0839 0.0000 0.0000 0.0000
# 3 31.8829 58.0839 96.0127 0.0000 0.0000 0.0000
# 4 0.0000 0.0000 0.0000 41.5131 0.0000 0.0000
# 5 0.0000 0.0000 0.0000 0.0000 28.8299 0.0000
# 6 0.0000 0.0000 0.0000 0.0000 0.0000 28.4159
#
#
#
# Elastic Compliance Matrix: (Units=1/GPa)
#
#
# Indices 1 2 3 4 5 6 
#
# 1 0.014672 -0.006302 -0.001059 0.000000 0.000000 0.000000
# 2 -0.006302 0.018079 -0.008844 0.000000 0.000000 0.000000
# 3 -0.001059 -0.008844 0.016118 0.000000 0.000000 0.000000
# 4 0.000000 0.000000 0.000000 0.024089 0.000000 0.000000
# 5 0.000000 0.000000 0.000000 0.000000 0.034686 0.000000
# 6 0.000000 0.000000 0.000000 0.000000 0.000000 0.035192
#
#
# Mechanical properties :
#
#
# Convention : Reuss Voigt Hill
#
# Bulk Modulus (GPa) = 60.76660 62.37208 61.56934
# Shear Modulus (GPa) = 27.66507 29.73536 28.70022
#
# Velocity S-wave (km/s) = 3.79702 3.93653 3.86740
# Velocity P-wave (km/s) = 7.13379 7.29151 7.21308
#
# Compressibility (1/GPa) = 0.01645641
#
# Stress axis : x y z
#
# Youngs Moduli (GPa) = 68.15743 55.31194 62.04382
#
# Poissons Ratio (x) = 0.34859 0.06573
# Poissons Ratio (y) = 0.42955 0.54874
# Poissons Ratio (z) = 0.07221 0.48920
#
# Static dielectric constant tensor:
#      x y z
#    x 3.732280 0.000000 0.000000 
#    y 0.000000 3.813440 0.000000 
#    z 0.000000 0.000000 3.091230 
# 
# 
# High freq. dielectric constant tensor:
#      x y z
#    x 1.756620 0.000000 0.000000 
#    y 0.000000 1.757180 0.000000 
#    z 0.000000 0.000000 1.735000 
# 
# From -- ./inp_files/14346.got.cif
#   From: 2010.06.25/outbox.cif.g09.slc.cpg/sg52_8_cif.got.tgz:14346.got - 2010.06.26 19:32:48.
