data_PCOD8215232
_publ_section_title
;
Structure prediction by ZEFSAII (Michael W. Deem and Ramdas Pophale) SiO2 
 PCOD8215232
Probable space group: P N N A
;
_chemical_formula_sum "Si O2"
_cell_formula_units_Z 64
_cell_length_a 13.897126
_cell_length_b 9.333709
_cell_length_c 24.320024
_cell_angle_alpha 90.000000
_cell_angle_beta 90.000000
_cell_angle_gamma 90.000000
_cell_volume 3154.592387
_symmetry_space_group_name_H-M "P N N A"
_symmetry_group_IT_number 52
_symmetry_cell_setting 'orthorhombic'
loop_
_space_group_symop_operation_xyz
x,y,z
1/2-x,-y,z
x,1/2-y,1/2-z
1/2-x,1/2+y,1/2-z
-x,-y,-z
1/2+x,y,-z
-x,1/2+y,1/2+z
1/2+x,1/2-y,1/2+z
loop_
_atom_site_type_symbol
_atom_site_label
_atom_site_fract_x
_atom_site_fract_y
_atom_site_fract_z
Si Si1 0.157786 0.854415 0.888929
Si Si2 0.138620 0.964244 0.332205
Si Si3 0.044097 0.255079 0.358836
Si Si4 0.962543 0.501378 0.722805
Si Si5 0.163835 0.586266 0.734489
Si Si6 0.356630 0.944782 0.056578
Si Si7 0.142945 0.344119 0.562569
Si Si8 0.455291 0.193181 0.115851
O O1 0.183329 0.918907 0.830179
O O2 0.252439 0.782648 0.917562
O O3 0.063955 0.752809 0.884843
O O4 0.128486 0.988550 0.925444
O O5 0.113409 0.827177 0.370007
O O6 0.250000 0.000000 0.339819
O O7 0.071865 0.091598 0.352889
O O8 0.116292 0.946744 0.266831
O O9 0.050175 0.335946 0.299853
O O10 0.122978 0.332919 0.395546
O O11 0.964198 0.394427 0.671954
O O12 0.066927 0.502869 0.752181
O O13 0.250000 0.500000 0.764374
O O14 0.161670 0.750000 0.750000
O O15 0.250000 0.000000 0.060296
O O16 0.418409 0.090422 0.066198
O O17 0.372622 0.846591 0.002778
O O18 0.060243 0.253753 0.594493
#
# Coordination Sequence:
#
# PCOD8215232 Si02
#       8
#     8   8   8   8   8   8   8   8
#     4  10  18  38  61  89 126 153 199 258 300 341
#     4  12  26  43  60  85 128 167 192 252 322 368
#     4  10  22  40  61  90 126 161 206 250 307 371
#     4  10  21  40  62  87 117 162 215 253 293 358
#     4  11  20  34  56  89 126 166 198 247 302 363
#     4  11  21  35  65  95 114 158 213 259 296 354
#     4  11  19  37  66  93 118 153 203 264 303 343
#     4  11  23  39  62  93 122 156 212 257 299 369
#
# _framework density 20.287883000000001
#
# number of rings (size 3 to 8) (size 9 to 14) (size 15 to 20)
#    0.000    1.250    6.250    3.375    0.000    6.000 
#    0.000    1.250    0.000    1.500    0.000    0.000 
#    0.000    0.000    0.000    0.000    0.000    0.000 
#
# Total GULP energy -792985.280198 kJ/mol
# GULP energy per Si atom -12390.395003 kJ/mol
# Density = 2.024171 g / cm^3
# Si number density = 20.287883 Si / 1000 Ang^3
#
#
#
# Elastic Constant Matrix: (Units=GPa)
#
#
# Indices 1 2 3 4 5 6 
#
# 1 134.1981 39.3631 33.2595 0.0000 0.0000 0.0000
# 2 39.3631 62.5967 11.0623 0.0000 0.0000 0.0000
# 3 33.2595 11.0623 62.4672 0.0000 0.0000 0.0000
# 4 0.0000 0.0000 0.0000 31.5876 0.0000 0.0000
# 5 0.0000 0.0000 0.0000 0.0000 28.1159 0.0000
# 6 0.0000 0.0000 0.0000 0.0000 0.0000 32.1202
#
#
#
# Elastic Compliance Matrix: (Units=1/GPa)
#
#
# Indices 1 2 3 4 5 6 
#
# 1 0.010203 -0.005632 -0.004435 0.000000 0.000000 0.000000
# 2 -0.005632 0.019600 -0.000472 0.000000 0.000000 0.000000
# 3 -0.004435 -0.000472 0.018453 0.000000 0.000000 0.000000
# 4 0.000000 0.000000 0.000000 0.031658 0.000000 0.000000
# 5 0.000000 0.000000 0.000000 0.000000 0.035567 0.000000
# 6 0.000000 0.000000 0.000000 0.000000 0.000000 0.031133
#
#
# Mechanical properties :
#
#
# Convention : Reuss Voigt Hill
#
# Bulk Modulus (GPa) = 36.79465 47.40355 42.09910
# Shear Modulus (GPa) = 28.28809 30.06988 29.17899
#
# Velocity S-wave (km/s) = 3.73813 3.85406 3.79654
# Velocity P-wave (km/s) = 6.06689 6.57428 6.32568
#
# Compressibility (1/GPa) = 0.02717786
#
# Stress axis : x y z
#
# Youngs Moduli (GPa) = 98.01189 51.01922 54.19075
#
# Poissons Ratio (x) = 0.28735 0.24033
# Poissons Ratio (y) = 0.55202 0.02559
# Poissons Ratio (z) = 0.43467 0.02410
#
# Static dielectric constant tensor:
#      x y z
#    x 4.106620 0.000000 0.000000 
#    y 0.000000 3.405070 0.000000 
#    z 0.000000 0.000000 3.627440 
# 
# 
# High freq. dielectric constant tensor:
#      x y z
#    x 1.811590 0.000000 0.000000 
#    y 0.000000 1.756710 0.000000 
#    z 0.000000 0.000000 1.786350 
# 
# From -- ./inp_files/40702.got.cif
#   From: 2010.06.25/outbox.cif.g09.slc.cpg/sg52_21_cif.got.tgz:40702.got - 2010.06.26 19:32:48.
