data_PCOD8215490
_publ_section_title
;
Structure prediction by ZEFSAII (Michael W. Deem and Ramdas Pophale) SiO2 
 PCOD8215490
Probable space group: P N N A
;
_chemical_formula_sum "Si O2"
_cell_formula_units_Z 56
_cell_length_a 9.342869
_cell_length_b 13.977325
_cell_length_c 20.461962
_cell_angle_alpha 90.000000
_cell_angle_beta 90.000000
_cell_angle_gamma 90.000000
_cell_volume 2672.093169
_symmetry_space_group_name_H-M "P N N A"
_symmetry_group_IT_number 52
_symmetry_cell_setting 'orthorhombic'
loop_
_space_group_symop_operation_xyz
x,y,z
1/2-x,-y,z
x,1/2-y,1/2-z
1/2-x,1/2+y,1/2-z
-x,-y,-z
1/2+x,y,-z
-x,1/2+y,1/2+z
1/2+x,1/2-y,1/2+z
loop_
_atom_site_type_symbol
_atom_site_label
_atom_site_fract_x
_atom_site_fract_y
_atom_site_fract_z
Si Si1 0.898139 0.543487 0.747588
Si Si2 0.808573 0.897086 0.883035
Si Si3 0.343872 0.908785 0.750009
Si Si4 0.515694 0.747850 0.440169
Si Si5 0.915994 0.249041 0.914725
Si Si6 0.789368 0.755825 0.353046
Si Si7 0.807081 0.602808 0.885925
O O1 0.750000 0.500000 0.726601
O O2 0.913990 0.607978 0.681906
O O3 0.885897 0.601271 0.815179
O O4 0.997920 0.451080 0.755331
O O5 0.659546 0.839070 0.877487
O O6 0.909866 0.844180 0.936372
O O7 0.750000 0.000000 0.906915
O O8 0.294405 0.858267 0.683283
O O9 0.325265 0.832320 0.806512
O O10 0.250000 0.000000 0.766546
O O11 0.604459 0.746305 0.507159
O O12 0.633669 0.744528 0.383419
O O13 0.419948 0.845273 0.434119
O O14 0.841231 0.340423 0.882085
O O15 0.085980 0.254032 0.906363
O O16 0.750000 0.500000 0.910402
#
# Coordination Sequence:
#
# PCOD8215490 Si02
#       7
#     8   8   8   8   8   8   8
#     4  10  19  37  63  90 115 146 197 250 297 355
#     4  10  22  41  65  90 118 158 204 254 305 357
#     4  11  23  38  60  92 124 153 193 245 308 373
#     4  11  24  41  60  87 126 165 206 248 296 367
#     4  11  24  41  60  89 122 159 210 250 292 363
#     4  11  22  38  62  90 124 161 192 250 318 357
#     4  10  22  41  65  90 118 158 204 254 305 357
#
# _framework density 20.957353000000001
#
# number of rings (size 3 to 8) (size 9 to 14) (size 15 to 20)
#    0.000    1.429    0.000    6.857    0.000    5.714 
#    0.000    5.714    0.000    0.000    0.000    0.000 
#    0.000    0.000    0.000    0.000    0.000    0.000 
#
# Total GULP energy -693768.931899 kJ/mol
# GULP energy per Si atom -12388.730927 kJ/mol
# Density = 2.090965 g / cm^3
# Si number density = 20.957353 Si / 1000 Ang^3
#
#
#
# Elastic Constant Matrix: (Units=GPa)
#
#
# Indices 1 2 3 4 5 6 
#
# 1 118.6201 47.7582 17.5058 0.0000 0.0000 0.0000
# 2 47.7582 143.1310 34.9970 0.0000 0.0000 0.0000
# 3 17.5058 34.9970 88.3565 0.0000 0.0000 0.0000
# 4 0.0000 0.0000 0.0000 12.4947 0.0000 0.0000
# 5 0.0000 0.0000 0.0000 0.0000 35.3494 0.0000
# 6 0.0000 0.0000 0.0000 0.0000 0.0000 45.4271
#
#
#
# Elastic Compliance Matrix: (Units=1/GPa)
#
#
# Indices 1 2 3 4 5 6 
#
# 1 0.009779 -0.003088 -0.000714 0.000000 0.000000 0.000000
# 2 -0.003088 0.008711 -0.002839 0.000000 0.000000 0.000000
# 3 -0.000714 -0.002839 0.012584 0.000000 0.000000 0.000000
# 4 0.000000 0.000000 0.000000 0.080034 0.000000 0.000000
# 5 0.000000 0.000000 0.000000 0.000000 0.028289 0.000000
# 6 0.000000 0.000000 0.000000 0.000000 0.000000 0.022013
#
#
# Mechanical properties :
#
#
# Convention : Reuss Voigt Hill
#
# Bulk Modulus (GPa) = 56.20610 61.18108 58.69359
# Shear Modulus (GPa) = 27.68199 35.31066 31.49633
#
# Velocity S-wave (km/s) = 3.63832 4.10918 3.88090
# Velocity P-wave (km/s) = 6.67288 7.19516 6.93894
#
# Compressibility (1/GPa) = 0.01779166
#
# Stress axis : x y z
#
# Youngs Moduli (GPa) = 102.25898 114.79575 79.46851
#
# Poissons Ratio (x) = 0.35453 0.05676
# Poissons Ratio (y) = 0.31581 0.22557
# Poissons Ratio (z) = 0.07304 0.32585
#
# Static dielectric constant tensor:
#      x y z
#    x 3.798480 0.000000 0.000000 
#    y 0.000000 3.831250 0.000000 
#    z 0.000000 0.000000 3.679770 
# 
# 
# High freq. dielectric constant tensor:
#      x y z
#    x 1.837320 0.000000 0.000000 
#    y 0.000000 1.825320 0.000000 
#    z 0.000000 0.000000 1.810550 
# 
# From -- ./inp_files/36057.got.cif
#   From: 2010.06.25/outbox.cif.g09.slc.cpg/sg52_19_cif.got.tgz:36057.got - 2010.06.26 19:32:48.
