data_PCOD8215133
_publ_section_title
;
Structure prediction by ZEFSAII (Michael W. Deem and Ramdas Pophale) SiO2 
 PCOD8215133
Probable space group: P N N A
;
_chemical_formula_sum "Si O2"
_cell_formula_units_Z 56
_cell_length_a 27.222368
_cell_length_b 15.607299
_cell_length_c 6.799603
_cell_angle_alpha 90.000000
_cell_angle_beta 90.000000
_cell_angle_gamma 90.000000
_cell_volume 2888.931258
_symmetry_space_group_name_H-M "P N N A"
_symmetry_group_IT_number 52
_symmetry_cell_setting 'orthorhombic'
loop_
_space_group_symop_operation_xyz
x,y,z
1/2-x,-y,z
x,1/2-y,1/2-z
1/2-x,1/2+y,1/2-z
-x,-y,-z
1/2+x,y,-z
-x,1/2+y,1/2+z
1/2+x,1/2-y,1/2+z
loop_
_atom_site_type_symbol
_atom_site_label
_atom_site_fract_x
_atom_site_fract_y
_atom_site_fract_z
Si Si1 0.734101 0.667180 0.633052
Si Si2 0.128325 0.650657 0.305030
Si Si3 0.042123 0.412660 0.309293
Si Si4 0.433043 0.441676 0.613650
Si Si5 0.729736 0.250000 0.250000
Si Si6 0.179820 0.137497 0.430684
Si Si7 0.400796 0.750000 0.250000
Si Si8 0.607155 0.505891 0.984624
O O1 0.718477 0.750000 0.750000
O O2 0.683517 0.613607 0.647992
O O3 0.740762 0.691390 0.404526
O O4 0.782553 0.629916 0.743610
O O5 0.124071 0.750000 0.250000
O O6 0.094732 0.633263 0.496118
O O7 0.108060 0.596887 0.122765
O O8 0.058393 0.475993 0.479827
O O9 0.064749 0.319427 0.359236
O O10 0.062699 0.447828 0.101226
O O11 0.983534 0.403895 0.299244
O O12 0.399453 0.476040 0.787661
O O13 0.701949 0.176332 0.370884
O O14 0.134634 0.201498 0.399432
O O15 0.159499 0.042196 0.462108
#
# Coordination Sequence:
#
# PCOD8215133 Si02
#       8
#     8   8   8   8   4   8   4   8
#     4   9  19  37  55  82 117 151 191 243 300 348
#     4  10  23  40  59  79 112 156 202 250 295 352
#     4   9  21  38  58  86 124 151 191 247 303 346
#     4  10  21  40  60  85 116 158 200 244 296 363
#     4  10  18  32  61  84 110 153 190 232 296 354
#     4  10  20  34  56  87 118 148 190 242 295 359
#     4  10  18  36  57  86 118 153 186 240 298 356
#     4  10  22  37  59  84 118 156 191 244 304 354
#
# _framework density 19.384332000000001
#
# number of rings (size 3 to 8) (size 9 to 14) (size 15 to 20)
#    0.000    2.286    2.143    0.429    2.000    6.857 
#    0.000    2.857    0.000    0.000    0.000    0.000 
#    0.000    0.000    0.000    0.000    0.000    0.000 
#
# Total GULP energy -693866.344754 kJ/mol
# GULP energy per Si atom -12390.470442 kJ/mol
# Density = 1.934021 g / cm^3
# Si number density = 19.384332 Si / 1000 Ang^3
#
#
#
# Elastic Constant Matrix: (Units=GPa)
#
#
# Indices 1 2 3 4 5 6 
#
# 1 121.0294 46.7586 39.8563 0.0000 0.0000 0.0000
# 2 46.7586 92.7186 28.7114 0.0000 0.0000 0.0000
# 3 39.8563 28.7114 116.2798 0.0000 0.0000 0.0000
# 4 0.0000 0.0000 0.0000 16.8655 0.0000 0.0000
# 5 0.0000 0.0000 0.0000 0.0000 90.6078 0.0000
# 6 0.0000 0.0000 0.0000 0.0000 0.0000 29.8950
#
#
#
# Elastic Compliance Matrix: (Units=1/GPa)
#
#
# Indices 1 2 3 4 5 6 
#
# 1 0.010935 -0.004714 -0.002584 0.000000 0.000000 0.000000
# 2 -0.004714 0.013711 -0.001770 0.000000 0.000000 0.000000
# 3 -0.002584 -0.001770 0.009923 0.000000 0.000000 0.000000
# 4 0.000000 0.000000 0.000000 0.059293 0.000000 0.000000
# 5 0.000000 0.000000 0.000000 0.000000 0.011037 0.000000
# 6 0.000000 0.000000 0.000000 0.000000 0.000000 0.033450
#
#
# Mechanical properties :
#
#
# Convention : Reuss Voigt Hill
#
# Bulk Modulus (GPa) = 60.85530 62.29783 61.57657
# Shear Modulus (GPa) = 30.87167 41.78708 36.32938
#
# Velocity S-wave (km/s) = 3.99508 4.64800 4.33386
# Velocity P-wave (km/s) = 7.26245 7.81110 7.54176
#
# Compressibility (1/GPa) = 0.01643242
#
# Stress axis : x y z
#
# Youngs Moduli (GPa) = 91.45189 72.93565 100.78044
#
# Poissons Ratio (x) = 0.34384 0.26041
# Poissons Ratio (y) = 0.43113 0.17833
# Poissons Ratio (z) = 0.23631 0.12906
#
# Static dielectric constant tensor:
#      x y z
#    x 3.842410 0.000000 0.000000 
#    y 0.000000 3.488970 0.000000 
#    z 0.000000 0.000000 3.343590 
# 
# 
# High freq. dielectric constant tensor:
#      x y z
#    x 1.763670 0.000000 0.000000 
#    y 0.000000 1.746190 0.000000 
#    z 0.000000 0.000000 1.750270 
# 
# From -- ./inp_files/6453.got.cif
#   From: 2010.06.25/outbox.cif.g09.slc.cpg/sg52_4_cif.got.tgz:6453.got - 2010.06.26 19:32:48.
