data_PCOD8215079
_publ_section_title
;
Structure prediction by ZEFSAII (Michael W. Deem and Ramdas Pophale) SiO2 
 PCOD8215079
Probable space group: P N N A
;
_chemical_formula_sum "Si O2"
_cell_formula_units_Z 60
_cell_length_a 13.620966
_cell_length_b 22.858583
_cell_length_c 10.851854
_cell_angle_alpha 90.000000
_cell_angle_beta 90.000000
_cell_angle_gamma 90.000000
_cell_volume 3378.789657
_symmetry_space_group_name_H-M "P N N A"
_symmetry_group_IT_number 52
_symmetry_cell_setting 'orthorhombic'
loop_
_space_group_symop_operation_xyz
x,y,z
1/2-x,-y,z
x,1/2-y,1/2-z
1/2-x,1/2+y,1/2-z
-x,-y,-z
1/2+x,y,-z
-x,1/2+y,1/2+z
1/2+x,1/2-y,1/2+z
loop_
_atom_site_type_symbol
_atom_site_label
_atom_site_fract_x
_atom_site_fract_y
_atom_site_fract_z
Si Si1 0.157032 0.750000 0.750000
Si Si2 0.294969 0.175096 0.140161
Si Si3 0.739987 0.690722 0.906083
Si Si4 0.095604 0.133017 0.546801
Si Si5 0.407275 0.355283 0.908990
Si Si6 0.293544 0.839343 0.893105
Si Si7 0.243972 0.067706 0.691952
Si Si8 0.492268 0.685295 0.708645
O O1 0.089741 0.704311 0.826482
O O2 0.225510 0.787206 0.841384
O O3 0.285359 0.242270 0.104903
O O4 0.241601 0.162382 0.270773
O O5 0.409837 0.156930 0.149398
O O6 0.240744 0.140704 0.029726
O O7 0.833533 0.684129 0.995427
O O8 0.645690 0.658715 0.962657
O O9 0.166094 0.077798 0.579451
O O10 0.015968 0.120561 0.440059
O O11 0.042626 0.151598 0.670801
O O12 0.351609 0.407971 0.841227
O O13 0.291184 0.897786 0.812153
O O14 0.405809 0.815884 0.893444
O O15 0.250000 0.000000 0.723553
O O16 0.521312 0.750000 0.750000
#
# Coordination Sequence:
#
# PCOD8215079 Si02
#       8
#     4   8   8   8   8   8   8   8
#     4  10  18  30  50  78 114 140 174 218 278 328
#     4  11  19  31  50  80 114 148 174 218 269 338
#     4  10  19  31  48  80 117 140 175 214 265 334
#     4  10  20  34  55  77 109 149 181 228 281 328
#     4  10  18  34  53  80 113 139 180 227 272 338
#     4  10  20  34  53  77 108 142 183 226 271 332
#     4   9  21  38  58  79 101 146 198 238 274 315
#     4  11  18  31  53  74 109 152 179 203 270 342
#
# _framework density 17.757838
#
# number of rings (size 3 to 8) (size 9 to 14) (size 15 to 20)
#    0.000    1.867    4.667    1.600    0.000    1.600 
#    4.800    0.000    0.000    6.400    0.000    0.000 
#    0.000    0.000    0.000    0.000    0.000    0.000 
#
# Total GULP energy -743621.367908 kJ/mol
# GULP energy per Si atom -12393.689465 kJ/mol
# Density = 1.771742 g / cm^3
# Si number density = 17.757838 Si / 1000 Ang^3
#
#
#
# Elastic Constant Matrix: (Units=GPa)
#
#
# Indices 1 2 3 4 5 6 
#
# 1 107.2930 17.2305 40.3540 0.0000 0.0000 0.0000
# 2 17.2305 74.5124 19.7528 0.0000 0.0000 0.0000
# 3 40.3540 19.7528 102.8531 0.0000 0.0000 0.0000
# 4 0.0000 0.0000 0.0000 11.8035 0.0000 0.0000
# 5 0.0000 0.0000 0.0000 0.0000 35.4595 0.0000
# 6 0.0000 0.0000 0.0000 0.0000 0.0000 9.6923
#
#
#
# Elastic Compliance Matrix: (Units=1/GPa)
#
#
# Indices 1 2 3 4 5 6 
#
# 1 0.011088 -0.001486 -0.004065 0.000000 0.000000 0.000000
# 2 -0.001486 0.014340 -0.002171 0.000000 0.000000 0.000000
# 3 -0.004065 -0.002171 0.011734 0.000000 0.000000 0.000000
# 4 0.000000 0.000000 0.000000 0.084721 0.000000 0.000000
# 5 0.000000 0.000000 0.000000 0.000000 0.028201 0.000000
# 6 0.000000 0.000000 0.000000 0.000000 0.000000 0.103175
#
#
# Mechanical properties :
#
#
# Convention : Reuss Voigt Hill
#
# Bulk Modulus (GPa) = 46.04486 48.81478 47.42982
# Shear Modulus (GPa) = 18.11976 25.21246 21.66611
#
# Velocity S-wave (km/s) = 3.19781 3.77210 3.49676
# Velocity P-wave (km/s) = 6.29446 6.82059 6.56280
#
# Compressibility (1/GPa) = 0.02171795
#
# Stress axis : x y z
#
# Youngs Moduli (GPa) = 90.18925 69.73614 85.22030
#
# Poissons Ratio (x) = 0.10366 0.34640
# Poissons Ratio (y) = 0.13406 0.18499
# Poissons Ratio (z) = 0.36660 0.15138
#
# Static dielectric constant tensor:
#      x y z
#    x 3.565780 0.000000 0.000000 
#    y 0.000000 2.802640 0.000000 
#    z 0.000000 0.000000 3.769640 
# 
# 
# High freq. dielectric constant tensor:
#      x y z
#    x 1.692650 0.000000 0.000000 
#    y 0.000000 1.629970 0.000000 
#    z 0.000000 0.000000 1.692900 
# 
# From -- ./inp_files/19970.got.cif
#   From: 2010.06.25/outbox.cif.g09.slc.cpg/sg52_10_cif.got.tgz:19970.got - 2010.06.26 19:32:48.
