data_PCOD8215020
_publ_section_title
;
Structure prediction by ZEFSAII (Michael W. Deem and Ramdas Pophale) SiO2 
 PCOD8215020
Probable space group: P N N A
;
_chemical_formula_sum "Si O2"
_cell_formula_units_Z 48
_cell_length_a 9.151165
_cell_length_b 16.693852
_cell_length_c 18.480781
_cell_angle_alpha 90.000000
_cell_angle_beta 90.000000
_cell_angle_gamma 90.000000
_cell_volume 2823.275540
_symmetry_space_group_name_H-M "P N N A"
_symmetry_group_IT_number 52
_symmetry_cell_setting 'orthorhombic'
loop_
_space_group_symop_operation_xyz
x,y,z
1/2-x,-y,z
x,1/2-y,1/2-z
1/2-x,1/2+y,1/2-z
-x,-y,-z
1/2+x,y,-z
-x,1/2+y,1/2+z
1/2+x,1/2-y,1/2+z
loop_
_atom_site_type_symbol
_atom_site_label
_atom_site_fract_x
_atom_site_fract_y
_atom_site_fract_z
Si Si1 0.088040 0.982490 0.841791
Si Si2 0.537437 0.217769 0.669332
Si Si3 0.641551 0.436750 0.768962
Si Si4 0.684731 0.694584 0.685597
Si Si5 0.368113 0.326114 0.573406
Si Si6 0.036989 0.362854 0.572360
O O1 0.079737 0.892403 0.870030
O O2 0.976475 0.989246 0.775418
O O3 0.250000 0.000000 0.811849
O O4 0.049798 0.043015 0.907842
O O5 0.497541 0.250000 0.750000
O O6 0.559103 0.121304 0.673737
O O7 0.689628 0.256926 0.642322
O O8 0.416262 0.241094 0.609289
O O9 0.750000 0.500000 0.808999
O O10 0.742429 0.387273 0.713297
O O11 0.626445 0.750000 0.750000
O O12 0.543385 0.680742 0.637745
O O13 0.195228 0.323782 0.561532
O O14 0.443332 0.347701 0.498427
#
# Coordination Sequence:
#
# PCOD8215020 Si02
#       6
#     8   8   8   8   8   8
#     4  10  20  32  46  76 108 141 171 206 258 317
#     4   9  18  33  52  71 102 140 175 215 254 312
#     4  10  17  32  56  73 104 137 176 220 260 308
#     4   9  18  33  50  74  98 133 172 213 259 308
#     4  11  21  34  47  74 105 144 175 208 262 309
#     4  11  22  32  51  73 106 139 173 216 256 318
#
# _framework density 17.001529000000001
#
# number of rings (size 3 to 8) (size 9 to 14) (size 15 to 20)
#    0.000    2.333    5.000    1.500    0.000    0.667 
#    0.000    0.000    0.000    0.000    0.000   10.500 
#    0.000    0.000    0.000    0.167    0.000    0.000 
#
# Total GULP energy -594921.852706 kJ/mol
# GULP energy per Si atom -12394.205265 kJ/mol
# Density = 1.696283 g / cm^3
# Si number density = 17.001529 Si / 1000 Ang^3
#
#
#
# Elastic Constant Matrix: (Units=GPa)
#
#
# Indices 1 2 3 4 5 6 
#
# 1 115.7727 44.3815 44.4580 0.0000 0.0000 0.0000
# 2 44.3815 82.7296 33.3956 0.0000 0.0000 0.0000
# 3 44.4580 33.3956 34.0411 0.0000 0.0000 0.0000
# 4 0.0000 0.0000 0.0000 17.7873 0.0000 0.0000
# 5 0.0000 0.0000 0.0000 0.0000 22.9976 0.0000
# 6 0.0000 0.0000 0.0000 0.0000 0.0000 24.4144
#
#
#
# Elastic Compliance Matrix: (Units=1/GPa)
#
#
# Indices 1 2 3 4 5 6 
#
# 1 0.017331 -0.000266 -0.022374 0.000000 0.000000 0.000000
# 2 -0.000266 0.020017 -0.019290 0.000000 0.000000 0.000000
# 3 -0.022374 -0.019290 0.077521 0.000000 0.000000 0.000000
# 4 0.000000 0.000000 0.000000 0.056220 0.000000 0.000000
# 5 0.000000 0.000000 0.000000 0.000000 0.043483 0.000000
# 6 0.000000 0.000000 0.000000 0.000000 0.000000 0.040959
#
#
# Mechanical properties :
#
#
# Convention : Reuss Voigt Hill
#
# Bulk Modulus (GPa) = 32.24824 53.00149 42.62486
# Shear Modulus (GPa) = 14.29678 20.39376 17.34527
#
# Velocity S-wave (km/s) = 2.90299 3.46717 3.19755
# Velocity P-wave (km/s) = 5.49959 6.87536 6.22560
#
# Compressibility (1/GPa) = 0.03100944
#
# Stress axis : x y z
#
# Youngs Moduli (GPa) = 57.69856 49.95722 12.89966
#
# Poissons Ratio (x) = 0.01328 0.28862
# Poissons Ratio (y) = 0.01534 0.24884
# Poissons Ratio (z) = 1.29096 0.96369
#
# Static dielectric constant tensor:
#      x y z
#    x 3.258420 0.000000 0.000000 
#    y 0.000000 3.260830 0.000000 
#    z 0.000000 0.000000 2.856810 
# 
# 
# High freq. dielectric constant tensor:
#      x y z
#    x 1.665810 0.000000 0.000000 
#    y 0.000000 1.645840 0.000000 
#    z 0.000000 0.000000 1.615910 
# 
# From -- ./inp_files/31372.got.cif
#   From: 2010.06.25/outbox.cif.g09.slc.cpg/sg52_16_cif.got.tgz:31372.got - 2010.06.26 19:32:48.
