data_PCOD8215288
_publ_section_title
;
Structure prediction by ZEFSAII (Michael W. Deem and Ramdas Pophale) SiO2 
 PCOD8215288
Probable space group: P N N A
;
_chemical_formula_sum "Si O2"
_cell_formula_units_Z 64
_cell_length_a 17.842075
_cell_length_b 12.035924
_cell_length_c 17.410469
_cell_angle_alpha 90.000000
_cell_angle_beta 90.000000
_cell_angle_gamma 90.000000
_cell_volume 3738.826116
_symmetry_space_group_name_H-M "P N N A"
_symmetry_group_IT_number 52
_symmetry_cell_setting 'orthorhombic'
loop_
_space_group_symop_operation_xyz
x,y,z
1/2-x,-y,z
x,1/2-y,1/2-z
1/2-x,1/2+y,1/2-z
-x,-y,-z
1/2+x,y,-z
-x,1/2+y,1/2+z
1/2+x,1/2-y,1/2+z
loop_
_atom_site_type_symbol
_atom_site_label
_atom_site_fract_x
_atom_site_fract_y
_atom_site_fract_z
Si Si1 0.945470 0.627326 0.569967
Si Si2 0.439963 0.376815 0.430800
Si Si3 0.445551 0.231218 0.664956
Si Si4 0.830344 0.237241 0.472915
Si Si5 0.453406 0.734111 0.836975
Si Si6 0.501582 0.506884 0.118183
Si Si7 0.377549 0.004804 0.490200
Si Si8 0.337958 0.737636 0.970233
O O1 0.919996 0.502970 0.593582
O O2 0.873761 0.699607 0.543598
O O3 0.000389 0.623785 0.498318
O O4 0.988021 0.683936 0.641370
O O5 0.366063 0.314306 0.460910
O O6 0.475658 0.312038 0.358223
O O7 0.413516 0.250000 0.750000
O O8 0.376302 0.242438 0.606418
O O9 0.482345 0.109771 0.673370
O O10 0.746398 0.281010 0.457416
O O11 0.823547 0.111395 0.505167
O O12 0.426813 0.750000 0.750000
O O13 0.477581 0.607129 0.841912
O O14 0.384019 0.762377 0.892631
O O15 0.413827 0.506581 0.094535
O O16 0.552454 0.531332 0.044463
O O17 0.334624 0.893847 0.513955
#
# Coordination Sequence:
#
# PCOD8215288 Si02
#       8
#     8   8   8   8   8   8   8   8
#     4   9  18  33  51  71  96 132 176 210 239 286
#     4   9  18  33  51  71  96 132 176 210 239 286
#     4  10  20  32  51  77 104 133 165 205 250 300
#     4  10  19  32  52  77 104 133 165 204 251 300
#     4  10  20  32  51  77 104 133 165 205 250 300
#     4   9  16  30  52  74  97 126 172 213 245 284
#     4   9  15  30  52  76  98 124 168 217 246 282
#     4  10  19  32  52  77 104 133 165 204 251 300
#
# _framework density 17.117671999999999
#
# number of rings (size 3 to 8) (size 9 to 14) (size 15 to 20)
#    0.000    2.500    2.500    0.375    1.750    1.000 
#    0.000    0.000    0.000    0.750    0.000    0.000 
#    0.000    0.000    0.000    0.000    0.000    0.000 
#
# Total GULP energy -793272.211255 kJ/mol
# GULP energy per Si atom -12394.878301 kJ/mol
# Density = 1.707871 g / cm^3
# Si number density = 17.117672 Si / 1000 Ang^3
#
#
#
# Elastic Constant Matrix: (Units=GPa)
#
#
# Indices 1 2 3 4 5 6 
#
# 1 99.9372 31.2655 47.5880 0.0000 0.0000 0.0000
# 2 31.2655 102.4165 19.7706 0.0000 0.0000 0.0000
# 3 47.5880 19.7706 44.8251 0.0000 0.0000 0.0000
# 4 0.0000 0.0000 0.0000 13.7692 0.0000 0.0000
# 5 0.0000 0.0000 0.0000 0.0000 12.3438 0.0000
# 6 0.0000 0.0000 0.0000 0.0000 0.0000 12.8081
#
#
#
# Elastic Compliance Matrix: (Units=1/GPa)
#
#
# Indices 1 2 3 4 5 6 
#
# 1 0.020709 -0.002271 -0.020983 0.000000 0.000000 0.000000
# 2 -0.002271 0.010922 -0.002406 0.000000 0.000000 0.000000
# 3 -0.020983 -0.002406 0.045647 0.000000 0.000000 0.000000
# 4 0.000000 0.000000 0.000000 0.072626 0.000000 0.000000
# 5 0.000000 0.000000 0.000000 0.000000 0.081012 0.000000
# 6 0.000000 0.000000 0.000000 0.000000 0.000000 0.078076
#
#
# Mechanical properties :
#
#
# Convention : Reuss Voigt Hill
#
# Bulk Modulus (GPa) = 38.52639 49.38077 43.95358
# Shear Modulus (GPa) = 13.55144 17.68786 15.61965
#
# Velocity S-wave (km/s) = 2.81670 3.21800 3.02402
# Velocity P-wave (km/s) = 5.75622 6.53589 6.15841
#
# Compressibility (1/GPa) = 0.02595624
#
# Stress axis : x y z
#
# Youngs Moduli (GPa) = 48.28893 91.55942 21.90736
#
# Poissons Ratio (x) = 0.20796 0.45969
# Poissons Ratio (y) = 0.10968 0.05271
# Poissons Ratio (z) = 1.01326 0.22029
#
# Static dielectric constant tensor:
#      x y z
#    x 2.962310 0.000000 0.000000 
#    y 0.000000 3.491530 0.000000 
#    z 0.000000 0.000000 2.893780 
# 
# 
# High freq. dielectric constant tensor:
#      x y z
#    x 1.637560 0.000000 0.000000 
#    y 0.000000 1.676100 0.000000 
#    z 0.000000 0.000000 1.628980 
# 
# From -- ./inp_files/33839.got.cif
#   From: 2010.06.25/outbox.cif.g09.slc.cpg/sg52_17_cif.got.tgz:33839.got - 2010.06.26 19:32:48.
