data_PCOD8215690
_publ_section_title
;
Structure prediction by ZEFSAII (Michael W. Deem and Ramdas Pophale) SiO2 
 PCOD8215690
Probable space group: P N N A
;
_chemical_formula_sum "Si O2"
_cell_formula_units_Z 48
_cell_length_a 20.469906
_cell_length_b 14.483928
_cell_length_c 8.878528
_cell_angle_alpha 90.000000
_cell_angle_beta 90.000000
_cell_angle_gamma 90.000000
_cell_volume 2632.347219
_symmetry_space_group_name_H-M "P N N A"
_symmetry_group_IT_number 52
_symmetry_cell_setting 'orthorhombic'
loop_
_space_group_symop_operation_xyz
x,y,z
1/2-x,-y,z
x,1/2-y,1/2-z
1/2-x,1/2+y,1/2-z
-x,-y,-z
1/2+x,y,-z
-x,1/2+y,1/2+z
1/2+x,1/2-y,1/2+z
loop_
_atom_site_type_symbol
_atom_site_label
_atom_site_fract_x
_atom_site_fract_y
_atom_site_fract_z
Si Si1 0.009407 0.583772 0.887050
Si Si2 0.861465 0.735548 0.418626
Si Si3 0.682681 0.448891 0.554342
Si Si4 0.440416 0.443092 0.566741
Si Si5 0.515144 0.761047 0.923848
Si Si6 0.869622 0.648433 0.820512
O O1 0.941654 0.607612 0.807506
O O2 0.058323 0.558316 0.750020
O O3 0.000000 0.500000 0.000000
O O4 0.034985 0.669096 0.986014
O O5 0.839716 0.750000 0.250000
O O6 0.818520 0.650212 0.474235
O O7 0.846064 0.831972 0.507935
O O8 0.938505 0.713862 0.436876
O O9 0.750000 0.500000 0.525233
O O10 0.626852 0.512932 0.486675
O O11 0.675323 0.425528 0.733010
O O12 0.500000 0.500000 0.500000
O O13 0.442408 0.340586 0.499957
O O14 0.535465 0.750000 0.750000
O O15 0.870504 0.750000 0.750000
#
# Coordination Sequence:
#
# PCOD8215690 Si02
#       6
#     8   8   8   8   8   8
#     4  11  21  32  59  93 119 146 195 246 299 352
#     4   9  18  35  62  85 114 154 202 238 290 360
#     4  11  23  38  58  86 118 158 202 241 296 354
#     4  12  20  36  59  86 119 150 192 250 299 346
#     4  10  20  35  57  93 121 150 191 248 301 353
#     4   9  18  36  59  82 113 155 196 233 290 356
#
# _framework density 18.234677000000001
#
# number of rings (size 3 to 8) (size 9 to 14) (size 15 to 20)
#    0.000    1.667    3.333    3.500    4.667    0.000 
#    0.000    5.000    0.000    0.000    0.000    0.000 
#    0.000    0.000    0.000    0.000    0.000    0.000 
#
# Total GULP energy -595004.805475 kJ/mol
# GULP energy per Si atom -12395.933447 kJ/mol
# Density = 1.819317 g / cm^3
# Si number density = 18.234677 Si / 1000 Ang^3
#
#
#
# Elastic Constant Matrix: (Units=GPa)
#
#
# Indices 1 2 3 4 5 6 
#
# 1 87.5260 44.4466 41.8104 0.0000 0.0000 0.0000
# 2 44.4466 111.9547 58.3748 0.0000 0.0000 0.0000
# 3 41.8104 58.3748 164.3176 0.0000 0.0000 0.0000
# 4 0.0000 0.0000 0.0000 26.9667 0.0000 0.0000
# 5 0.0000 0.0000 0.0000 0.0000 12.0189 0.0000
# 6 0.0000 0.0000 0.0000 0.0000 0.0000 25.2516
#
#
#
# Elastic Compliance Matrix: (Units=1/GPa)
#
#
# Indices 1 2 3 4 5 6 
#
# 1 0.014862 -0.004822 -0.002069 0.000000 0.000000 0.000000
# 2 -0.004822 0.012527 -0.003223 0.000000 0.000000 0.000000
# 3 -0.002069 -0.003223 0.007757 0.000000 0.000000 0.000000
# 4 0.000000 0.000000 0.000000 0.037083 0.000000 0.000000
# 5 0.000000 0.000000 0.000000 0.000000 0.083202 0.000000
# 6 0.000000 0.000000 0.000000 0.000000 0.000000 0.039601
#
#
# Mechanical properties :
#
#
# Convention : Reuss Voigt Hill
#
# Bulk Modulus (GPa) = 67.02965 72.56244 69.79605
# Shear Modulus (GPa) = 22.70322 27.45855 25.08089
#
# Velocity S-wave (km/s) = 3.53237 3.88473 3.71273
# Velocity P-wave (km/s) = 7.31273 7.74607 7.53252
#
# Compressibility (1/GPa) = 0.01491877
#
# Stress axis : x y z
#
# Youngs Moduli (GPa) = 67.28650 79.82656 128.91064
#
# Poissons Ratio (x) = 0.38489 0.26667
# Poissons Ratio (y) = 0.32443 0.41554
# Poissons Ratio (z) = 0.13919 0.25732
#
# Static dielectric constant tensor:
#      x y z
#    x 2.900370 0.000000 0.000000 
#    y 0.000000 3.645750 0.000000 
#    z 0.000000 0.000000 3.622620 
# 
# 
# High freq. dielectric constant tensor:
#      x y z
#    x 1.648310 0.000000 0.000000 
#    y 0.000000 1.718920 0.000000 
#    z 0.000000 0.000000 1.730100 
# 
# From -- ./inp_files/12072.got.cif
#   From: 2010.06.25/outbox.cif.g09.slc.cpg/sg52_7_cif.got.tgz:12072.got - 2010.06.26 19:32:48.
