data_PCOD8215224
_publ_section_title
;
Structure prediction by ZEFSAII (Michael W. Deem and Ramdas Pophale) SiO2 
 PCOD8215224
Probable space group: P N N A
;
_chemical_formula_sum "Si O2"
_cell_formula_units_Z 56
_cell_length_a 10.120419
_cell_length_b 13.952505
_cell_length_c 20.610895
_cell_angle_alpha 90.000000
_cell_angle_beta 90.000000
_cell_angle_gamma 90.000000
_cell_volume 2910.365483
_symmetry_space_group_name_H-M "P N N A"
_symmetry_group_IT_number 52
_symmetry_cell_setting 'orthorhombic'
loop_
_space_group_symop_operation_xyz
x,y,z
1/2-x,-y,z
x,1/2-y,1/2-z
1/2-x,1/2+y,1/2-z
-x,-y,-z
1/2+x,y,-z
-x,1/2+y,1/2+z
1/2+x,1/2-y,1/2+z
loop_
_atom_site_type_symbol
_atom_site_label
_atom_site_fract_x
_atom_site_fract_y
_atom_site_fract_z
Si Si1 0.396741 0.999972 0.124630
Si Si2 0.213584 0.110466 0.744499
Si Si3 0.405333 0.115607 0.241500
Si Si4 0.314772 0.277952 0.144502
Si Si5 0.218040 0.744864 0.644885
Si Si6 0.548931 0.292179 0.585513
Si Si7 0.030232 0.186720 0.933550
O O1 0.386985 0.015525 0.203315
O O2 0.483073 0.080482 0.087882
O O3 0.250000 0.000000 0.093637
O O4 0.460692 0.897062 0.116562
O O5 0.249125 0.150529 0.673604
O O6 0.298880 0.166378 0.798245
O O7 0.060745 0.136035 0.755381
O O8 0.250000 0.000000 0.748590
O O9 0.335742 0.192041 0.194658
O O10 0.338617 0.123497 0.313521
O O11 0.170220 0.271591 0.112758
O O12 0.423290 0.267011 0.087669
O O13 0.329346 0.707631 0.597036
O O14 0.083838 0.761433 0.605522
O O15 0.555532 0.305624 0.509215
#
# Coordination Sequence:
#
# PCOD8215224 Si02
#       7
#     8   8   8   8   8   8   8
#     4  11  21  37  57  88 121 163 202 242 308 372
#     4  11  21  40  63  87 121 156 204 258 307 366
#     4  10  18  37  62  75 115 163 202 241 304 372
#     4  10  19  38  59  80 114 168 204 243 301 363
#     4  11  23  38  61  92 117 158 206 250 307 359
#     4  12  24  36  56  96 124 154 202 259 299 365
#     4  11  21  40  60  79 128 173 199 233 307 390
#
# _framework density 19.241569999999999
#
# number of rings (size 3 to 8) (size 9 to 14) (size 15 to 20)
#    0.000    1.143    7.143    3.000    0.000    2.286 
#    2.571    0.000    0.000    0.857    0.000    0.000 
#    0.000    0.000    0.000    0.000    0.000    0.000 
#
# Total GULP energy -694102.068249 kJ/mol
# GULP energy per Si atom -12394.679790 kJ/mol
# Density = 1.919778 g / cm^3
# Si number density = 19.241570 Si / 1000 Ang^3
#
#
#
# Elastic Constant Matrix: (Units=GPa)
#
#
# Indices 1 2 3 4 5 6 
#
# 1 123.1607 8.9626 39.2636 0.0000 0.0000 0.0000
# 2 8.9626 52.3737 44.1080 0.0000 0.0000 0.0000
# 3 39.2636 44.1080 113.0618 0.0000 0.0000 0.0000
# 4 0.0000 0.0000 0.0000 22.3695 0.0000 0.0000
# 5 0.0000 0.0000 0.0000 0.0000 17.4040 0.0000
# 6 0.0000 0.0000 0.0000 0.0000 0.0000 17.0600
#
#
#
# Elastic Compliance Matrix: (Units=1/GPa)
#
#
# Indices 1 2 3 4 5 6 
#
# 1 0.009227 0.001667 -0.003855 0.000000 0.000000 0.000000
# 2 0.001667 0.028738 -0.011790 0.000000 0.000000 0.000000
# 3 -0.003855 -0.011790 0.014783 0.000000 0.000000 0.000000
# 4 0.000000 0.000000 0.000000 0.044704 0.000000 0.000000
# 5 0.000000 0.000000 0.000000 0.000000 0.057458 0.000000
# 6 0.000000 0.000000 0.000000 0.000000 0.000000 0.058616
#
#
# Mechanical properties :
#
#
# Convention : Reuss Voigt Hill
#
# Bulk Modulus (GPa) = 40.33479 52.58496 46.45988
# Shear Modulus (GPa) = 20.02035 24.45083 22.23559
#
# Velocity S-wave (km/s) = 3.22914 3.56860 3.40310
# Velocity P-wave (km/s) = 5.90855 6.66093 6.29599
#
# Compressibility (1/GPa) = 0.02479249
#
# Stress axis : x y z
#
# Youngs Moduli (GPa) = 108.37689 34.79738 67.64482
#
# Poissons Ratio (x) = -0.05802 0.26076
# Poissons Ratio (y) = -0.18071 0.79756
# Poissons Ratio (z) = 0.41778 0.41027
#
# Static dielectric constant tensor:
#      x y z
#    x 3.612210 0.000000 0.000000 
#    y 0.000000 3.515990 0.000000 
#    z 0.000000 0.000000 3.833350 
# 
# 
# High freq. dielectric constant tensor:
#      x y z
#    x 1.762120 0.000000 0.000000 
#    y 0.000000 1.711980 0.000000 
#    z 0.000000 0.000000 1.746400 
# 
# From -- ./inp_files/36019.got.cif
#   From: 2010.06.25/outbox.cif.g09.slc.cpg/sg52_19_cif.got.tgz:36019.got - 2010.06.26 19:32:48.
