data_PCOD8215703
_publ_section_title
;
Structure prediction by ZEFSAII (Michael W. Deem and Ramdas Pophale) SiO2 
 PCOD8215703
Probable space group: P N N A
;
_chemical_formula_sum "Si O2"
_cell_formula_units_Z 64
_cell_length_a 12.860610
_cell_length_b 9.002574
_cell_length_c 25.103798
_cell_angle_alpha 90.000000
_cell_angle_beta 90.000000
_cell_angle_gamma 90.000000
_cell_volume 2906.482417
_symmetry_space_group_name_H-M "P N N A"
_symmetry_group_IT_number 52
_symmetry_cell_setting 'orthorhombic'
loop_
_space_group_symop_operation_xyz
x,y,z
1/2-x,-y,z
x,1/2-y,1/2-z
1/2-x,1/2+y,1/2-z
-x,-y,-z
1/2+x,y,-z
-x,1/2+y,1/2+z
1/2+x,1/2-y,1/2+z
loop_
_atom_site_type_symbol
_atom_site_label
_atom_site_fract_x
_atom_site_fract_y
_atom_site_fract_z
Si Si1 0.181684 0.855719 0.010712
Si Si2 0.274628 0.824590 0.806446
Si Si3 0.366916 0.264698 0.595322
Si Si4 0.703037 0.656473 0.801424
Si Si5 0.501612 0.241809 0.353685
Si Si6 0.014678 0.007242 0.435965
Si Si7 0.034726 0.007919 0.079388
Si Si8 0.813825 0.783256 0.593120
O O1 0.063623 0.912599 0.025508
O O2 0.213060 0.740355 0.056620
O O3 0.250000 0.000000 0.008366
O O4 0.201632 0.756524 0.958081
O O5 0.247058 0.750000 0.750000
O O6 0.197391 0.756771 0.850635
O O7 0.391094 0.776723 0.822627
O O8 0.250000 0.000000 0.802788
O O9 0.445686 0.129398 0.594428
O O10 0.418194 0.427882 0.583280
O O11 0.750000 0.500000 0.786480
O O12 0.722266 0.750000 0.750000
O O13 0.579690 0.654393 0.815940
O O14 0.774693 0.722576 0.847269
O O15 0.452044 0.399388 0.369945
O O16 0.518180 0.147020 0.408209
O O17 0.132600 0.058681 0.422036
O O18 0.000000 0.000000 0.500000
O O19 0.110382 0.145900 0.084955
#
# Coordination Sequence:
#
# PCOD8215703 Si02
#       8
#     8   8   8   8   8   8   8   8
#     4  10  20  35  70 102 140 180 228 289 361 440
#     4  12  29  52  75 104 140 191 257 315 363 433
#     4  11  24  45  69 102 140 191 243 294 360 432
#     4  12  27  47  74 104 144 187 237 297 363 436
#     4  12  25  47  73 102 144 186 240 297 365 432
#     4  11  26  44  69 110 150 190 232 297 364 439
#     4  10  21  40  69 100 141 179 228 291 355 429
#     4  10  23  44  65 106 144 180 231 292 363 434
#
# _framework density 22.019745
#
# number of rings (size 3 to 8) (size 9 to 14) (size 15 to 20)
#    0.000    1.000    3.750    1.875    5.250    1.000 
#    0.000    2.500    0.000    0.000    0.000    0.000 
#    0.000    0.000    0.000    0.000    0.000    0.000 
#
# Total GULP energy -793061.072087 kJ/mol
# GULP energy per Si atom -12391.579251 kJ/mol
# Density = 2.196963 g / cm^3
# Si number density = 22.019745 Si / 1000 Ang^3
#
#
#
# Elastic Constant Matrix: (Units=GPa)
#
#
# Indices 1 2 3 4 5 6 
#
# 1 69.4618 14.8615 34.4003 0.0000 0.0000 0.0000
# 2 14.8615 89.7276 31.1149 0.0000 0.0000 0.0000
# 3 34.4003 31.1149 162.1274 0.0000 0.0000 0.0000
# 4 0.0000 0.0000 0.0000 41.8433 0.0000 0.0000
# 5 0.0000 0.0000 0.0000 0.0000 38.1350 0.0000
# 6 0.0000 0.0000 0.0000 0.0000 0.0000 17.8941
#
#
#
# Elastic Compliance Matrix: (Units=1/GPa)
#
#
# Indices 1 2 3 4 5 6 
#
# 1 0.016300 -0.001607 -0.003150 0.000000 0.000000 0.000000
# 2 -0.001607 0.012098 -0.001981 0.000000 0.000000 0.000000
# 3 -0.003150 -0.001981 0.007217 0.000000 0.000000 0.000000
# 4 0.000000 0.000000 0.000000 0.023899 0.000000 0.000000
# 5 0.000000 0.000000 0.000000 0.000000 0.026223 0.000000
# 6 0.000000 0.000000 0.000000 0.000000 0.000000 0.055884
#
#
# Mechanical properties :
#
#
# Convention : Reuss Voigt Hill
#
# Bulk Modulus (GPa) = 45.17071 53.56336 49.36704
# Shear Modulus (GPa) = 30.77370 35.63717 33.20543
#
# Velocity S-wave (km/s) = 3.74244 4.02732 3.88749
# Velocity P-wave (km/s) = 6.26360 6.78260 6.52826
#
# Compressibility (1/GPa) = 0.02213824
#
# Stress axis : x y z
#
# Youngs Moduli (GPa) = 61.34824 82.65867 138.57098
#
# Poissons Ratio (x) = 0.13287 0.43652
# Poissons Ratio (y) = 0.09861 0.27447
# Poissons Ratio (z) = 0.19325 0.16372
#
# Static dielectric constant tensor:
#      x y z
#    x 4.192190 0.000000 0.000000 
#    y 0.000000 4.231340 0.000000 
#    z 0.000000 0.000000 4.013530 
# 
# 
# High freq. dielectric constant tensor:
#      x y z
#    x 1.867990 0.000000 0.000000 
#    y 0.000000 1.878400 0.000000 
#    z 0.000000 0.000000 1.867140 
# 
# From -- ./inp_files/40679.got.cif
#   From: 2010.06.25/outbox.cif.g09.slc.cpg/sg52_21_cif.got.tgz:40679.got - 2010.06.26 19:32:48.
