data_PCOD8215814
_publ_section_title
;
Structure prediction by ZEFSAII (Michael W. Deem and Ramdas Pophale) SiO2 
 PCOD8215814
Probable space group: P N N A
;
_chemical_formula_sum "Si O2"
_cell_formula_units_Z 40
_cell_length_a 20.396110
_cell_length_b 11.077194
_cell_length_c 9.223972
_cell_angle_alpha 90.000000
_cell_angle_beta 90.000000
_cell_angle_gamma 90.000000
_cell_volume 2083.987373
_symmetry_space_group_name_H-M "P N N A"
_symmetry_group_IT_number 52
_symmetry_cell_setting 'orthorhombic'
loop_
_space_group_symop_operation_xyz
x,y,z
1/2-x,-y,z
x,1/2-y,1/2-z
1/2-x,1/2+y,1/2-z
-x,-y,-z
1/2+x,y,-z
-x,1/2+y,1/2+z
1/2+x,1/2-y,1/2+z
loop_
_atom_site_type_symbol
_atom_site_label
_atom_site_fract_x
_atom_site_fract_y
_atom_site_fract_z
Si Si1 0.564753 0.455391 0.682266
Si Si2 0.664895 0.250000 0.750000
Si Si3 0.178761 0.750000 0.750000
Si Si4 0.734568 0.638594 0.969678
Si Si5 0.090908 0.660779 0.126135
Si Si6 0.570354 0.860653 0.079050
O O1 0.620999 0.356470 0.685827
O O2 0.561705 0.529118 0.834699
O O3 0.583208 0.544567 0.549840
O O4 0.494945 0.392428 0.665049
O O5 0.707488 0.296005 0.884246
O O6 0.226302 0.800484 0.626271
O O7 0.132626 0.858846 0.812544
O O8 0.750000 0.500000 0.995230
O O9 0.669247 0.651404 0.875142
O O10 0.066876 0.750000 0.250000
O O11 0.063786 0.721128 0.978250
#
# Coordination Sequence:
#
# PCOD8215814 Si02
#       6
#     8   4   4   8   8   8
#     4  10  20  37  62  91 117 149 202 253 288 356
#     4  12  23  36  64  94 115 152 210 246 288 354
#     4  10  23  40  58  82 121 160 194 238 306 356
#     4  11  22  38  57  86 119 155 197 241 293 352
#     4   9  17  35  60  83 113 154 192 237 292 346
#     4   9  20  39  60  87 119 156 194 243 310 350
#
# _framework density 19.193974000000001
#
# number of rings (size 3 to 8) (size 9 to 14) (size 15 to 20)
#    0.000    2.000    3.000    0.600    0.000    1.600 
#    3.600    3.000    2.200    0.000    0.000    0.000 
#    0.000    0.000    0.000    0.000    0.000    0.000 
#
# Total GULP energy -495838.500188 kJ/mol
# GULP energy per Si atom -12395.962505 kJ/mol
# Density = 1.915029 g / cm^3
# Si number density = 19.193974 Si / 1000 Ang^3
#
#
#
# Elastic Constant Matrix: (Units=GPa)
#
#
# Indices 1 2 3 4 5 6 
#
# 1 98.1455 75.9550 53.1246 0.0000 0.0000 0.0000
# 2 75.9550 130.5209 58.0435 0.0000 0.0000 0.0000
# 3 53.1246 58.0435 100.4857 0.0000 0.0000 0.0000
# 4 0.0000 0.0000 0.0000 15.7472 0.0000 0.0000
# 5 0.0000 0.0000 0.0000 0.0000 56.2843 0.0000
# 6 0.0000 0.0000 0.0000 0.0000 0.0000 26.1200
#
#
#
# Elastic Compliance Matrix: (Units=1/GPa)
#
#
# Indices 1 2 3 4 5 6 
#
# 1 0.020437 -0.009538 -0.005295 0.000000 0.000000 0.000000
# 2 -0.009538 0.014762 -0.003484 0.000000 0.000000 0.000000
# 3 -0.005295 -0.003484 0.014763 0.000000 0.000000 0.000000
# 4 0.000000 0.000000 0.000000 0.063503 0.000000 0.000000
# 5 0.000000 0.000000 0.000000 0.000000 0.017767 0.000000
# 6 0.000000 0.000000 0.000000 0.000000 0.000000 0.038285
#
#
# Mechanical properties :
#
#
# Convention : Reuss Voigt Hill
#
# Bulk Modulus (GPa) = 75.03341 78.15536 76.59438
# Shear Modulus (GPa) = 23.74240 29.09888 26.42064
#
# Velocity S-wave (km/s) = 3.52088 3.89786 3.71416
# Velocity P-wave (km/s) = 7.46363 7.81440 7.64103
#
# Compressibility (1/GPa) = 0.01332740
#
# Stress axis : x y z
#
# Youngs Moduli (GPa) = 48.93196 67.74320 67.73466
#
# Poissons Ratio (x) = 0.64614 0.35864
# Poissons Ratio (y) = 0.46672 0.23600
# Poissons Ratio (z) = 0.25909 0.23603
#
# Static dielectric constant tensor:
#      x y z
#    x 3.384640 0.000000 0.000000 
#    y 0.000000 3.717650 0.000000 
#    z 0.000000 0.000000 3.664120 
# 
# 
# High freq. dielectric constant tensor:
#      x y z
#    x 1.737440 0.000000 0.000000 
#    y 0.000000 1.752180 0.000000 
#    z 0.000000 0.000000 1.751500 
# 
# From -- ./inp_files/11686.got.cif
#   From: 2010.06.25/outbox.cif.g09.slc.cpg/sg52_6_cif.got.tgz:11686.got - 2010.06.26 19:32:48.
