data_PCOD8215271
_publ_section_title
;
Structure prediction by ZEFSAII (Michael W. Deem and Ramdas Pophale) SiO2 
 PCOD8215271
Probable space group: P N N A
;
_chemical_formula_sum "Si O2"
_cell_formula_units_Z 64
_cell_length_a 9.729379
_cell_length_b 22.316552
_cell_length_c 18.110812
_cell_angle_alpha 90.000000
_cell_angle_beta 90.000000
_cell_angle_gamma 90.000000
_cell_volume 3932.331650
_symmetry_space_group_name_H-M "P N N A"
_symmetry_group_IT_number 52
_symmetry_cell_setting 'orthorhombic'
loop_
_space_group_symop_operation_xyz
x,y,z
1/2-x,-y,z
x,1/2-y,1/2-z
1/2-x,1/2+y,1/2-z
-x,-y,-z
1/2+x,y,-z
-x,1/2+y,1/2+z
1/2+x,1/2-y,1/2+z
loop_
_atom_site_type_symbol
_atom_site_label
_atom_site_fract_x
_atom_site_fract_y
_atom_site_fract_z
Si Si1 0.524672 0.427143 0.417324
Si Si2 0.160798 0.316216 0.218765
Si Si3 0.226955 0.863302 0.139689
Si Si4 0.140992 0.815665 0.717689
Si Si5 0.787632 0.133987 0.139516
Si Si6 0.327475 0.760208 0.428279
Si Si7 0.535422 0.438870 0.590299
Si Si8 0.344410 0.260093 0.929797
O O1 0.430733 0.375663 0.380711
O O2 0.679286 0.411844 0.394444
O O3 0.506315 0.426894 0.504634
O O4 0.487889 0.492504 0.386588
O O5 0.149515 0.250000 0.250000
O O6 0.261161 0.355041 0.271343
O O7 0.212799 0.309386 0.134296
O O8 0.009811 0.346317 0.218426
O O9 0.282783 0.805945 0.096155
O O10 0.309833 0.921488 0.111815
O O11 0.121300 0.750000 0.750000
O O12 0.241034 0.852651 0.772973
O O13 0.195158 0.808818 0.633816
O O14 0.789906 0.194722 0.092482
O O15 0.935685 0.103328 0.136766
O O16 0.240321 0.780641 0.498907
O O17 0.491349 0.759503 0.443882
#
# Coordination Sequence:
#
# PCOD8215271 Si02
#       8
#     8   8   8   8   8   8   8   8
#     4  11  24  30  45  72  95 119 166 205 230 254
#     4   8  15  31  49  66  89 125 158 182 225 287
#     4  11  19  33  49  66  93 131 159 189 231 276
#     4   8  15  31  49  66  89 125 158 182 225 287
#     4  11  19  33  49  66  93 131 159 189 231 276
#     4  10  19  31  50  72  95 124 157 188 228 283
#     4  11  20  36  47  62  95 131 160 197 230 270
#     4  10  19  31  50  72  95 124 157 188 228 283
#
# _framework density 16.275331000000001
#
# number of rings (size 3 to 8) (size 9 to 14) (size 15 to 20)
#    0.000    2.000    2.500    4.500    1.750    2.000 
#    2.250    1.875    0.000    0.000    0.000    0.000 
#    0.000    6.000    0.000    0.000    0.000    0.000 
#
# Total GULP energy -793245.467984 kJ/mol
# GULP energy per Si atom -12394.460437 kJ/mol
# Density = 1.623829 g / cm^3
# Si number density = 16.275331 Si / 1000 Ang^3
#
#
#
# Elastic Constant Matrix: (Units=GPa)
#
#
# Indices 1 2 3 4 5 6 
#
# 1 43.9209 6.2185 30.0288 0.0000 0.0000 0.0000
# 2 6.2185 37.4144 29.0563 0.0000 0.0000 0.0000
# 3 30.0288 29.0563 121.9853 0.0000 0.0000 0.0000
# 4 0.0000 0.0000 0.0000 18.7899 0.0000 0.0000
# 5 0.0000 0.0000 0.0000 0.0000 22.3487 0.0000
# 6 0.0000 0.0000 0.0000 0.0000 0.0000 11.5721
#
#
#
# Elastic Compliance Matrix: (Units=1/GPa)
#
#
# Indices 1 2 3 4 5 6 
#
# 1 0.027397 0.000839 -0.006944 0.000000 0.000000 0.000000
# 2 0.000839 0.032820 -0.008024 0.000000 0.000000 0.000000
# 3 -0.006944 -0.008024 0.011818 0.000000 0.000000 0.000000
# 4 0.000000 0.000000 0.000000 0.053220 0.000000 0.000000
# 5 0.000000 0.000000 0.000000 0.000000 0.044745 0.000000
# 6 0.000000 0.000000 0.000000 0.000000 0.000000 0.086415
#
#
# Mechanical properties :
#
#
# Convention : Reuss Voigt Hill
#
# Bulk Modulus (GPa) = 22.84282 37.10308 29.97295
# Shear Modulus (GPa) = 16.70754 19.74328 18.22541
#
# Velocity S-wave (km/s) = 3.20747 3.48671 3.35000
# Velocity P-wave (km/s) = 5.27094 6.24949 5.78096
#
# Compressibility (1/GPa) = 0.04377743
#
# Stress axis : x y z
#
# Youngs Moduli (GPa) = 36.50018 30.46943 84.61338
#
# Poissons Ratio (x) = -0.02558 0.58757
# Poissons Ratio (y) = -0.03064 0.67895
# Poissons Ratio (z) = 0.25346 0.24449
#
# Static dielectric constant tensor:
#      x y z
#    x 2.955840 0.000000 0.000000 
#    y 0.000000 2.838590 0.000000 
#    z 0.000000 0.000000 3.387340 
# 
# 
# High freq. dielectric constant tensor:
#      x y z
#    x 1.621180 0.000000 0.000000 
#    y 0.000000 1.586630 0.000000 
#    z 0.000000 0.000000 1.625670 
# 
# From -- ./inp_files/31602.got.cif
#   From: 2010.06.25/outbox.cif.g09.slc.cpg/sg52_16_cif.got.tgz:31602.got - 2010.06.26 19:32:48.
