data_PCOD8215949
_publ_section_title
;
Structure prediction by ZEFSAII (Michael W. Deem and Ramdas Pophale) SiO2 
 PCOD8215949
Probable space group: P N N A
;
_chemical_formula_sum "Si O2"
_cell_formula_units_Z 40
_cell_length_a 14.555446
_cell_length_b 15.796898
_cell_length_c 7.921501
_cell_angle_alpha 90.000000
_cell_angle_beta 90.000000
_cell_angle_gamma 90.000000
_cell_volume 1821.397821
_symmetry_space_group_name_H-M "P N N A"
_symmetry_group_IT_number 52
_symmetry_cell_setting 'orthorhombic'
loop_
_space_group_symop_operation_xyz
x,y,z
1/2-x,-y,z
x,1/2-y,1/2-z
1/2-x,1/2+y,1/2-z
-x,-y,-z
1/2+x,y,-z
-x,1/2+y,1/2+z
1/2+x,1/2-y,1/2+z
loop_
_atom_site_type_symbol
_atom_site_label
_atom_site_fract_x
_atom_site_fract_y
_atom_site_fract_z
Si Si1 0.425933 0.115214 0.438780
Si Si2 0.268313 0.906256 0.352741
Si Si3 0.583643 0.223855 0.556044
Si Si4 0.458733 0.015765 0.764159
Si Si5 0.883825 0.904833 0.967195
O O1 0.327105 0.145525 0.368172
O O2 0.487691 0.197376 0.472480
O O3 0.470527 0.055246 0.299092
O O4 0.409620 0.063590 0.611874
O O5 0.346237 0.855813 0.458370
O O6 0.297692 0.916937 0.157534
O O7 0.250000 0.000000 0.429176
O O8 0.572333 0.250000 0.750000
O O9 0.618605 0.308317 0.459987
O O10 0.519105 0.082843 0.869439
O O11 0.379930 0.971691 0.878966
#
# Coordination Sequence:
#
# PCOD8215949 Si02
#       5
#     8   8   8   8   8
#     4  11  20  39  73  96 123 186 222 264 340 420
#     4  11  20  39  68  93 131 175 226 270 335 404
#     4  10  21  42  65  94 144 170 217 291 333 390
#     4  10  20  39  70  93 128 176 224 268 339 411
#     4  10  21  42  64  95 139 170 214 295 332 387
#
# _framework density 21.961155999999999
#
# number of rings (size 3 to 8) (size 9 to 14) (size 15 to 20)
#    0.000    1.600    6.000    1.200    0.000    0.800 
#   10.800    3.000    8.800    0.000    0.000    0.000 
#    0.000    0.000    0.000    0.000    0.000    0.000 
#
# Total GULP energy -495892.261164 kJ/mol
# GULP energy per Si atom -12397.306529 kJ/mol
# Density = 2.191117 g / cm^3
# Si number density = 21.961156 Si / 1000 Ang^3
#
#
#
# Elastic Constant Matrix: (Units=GPa)
#
#
# Indices 1 2 3 4 5 6 
#
# 1 124.1994 39.2805 34.8742 0.0000 0.0000 0.0000
# 2 39.2805 121.5372 11.0986 0.0000 0.0000 0.0000
# 3 34.8742 11.0986 65.6219 0.0000 0.0000 0.0000
# 4 0.0000 0.0000 0.0000 14.8787 0.0000 0.0000
# 5 0.0000 0.0000 0.0000 0.0000 31.1522 0.0000
# 6 0.0000 0.0000 0.0000 0.0000 0.0000 28.8378
#
#
#
# Elastic Compliance Matrix: (Units=1/GPa)
#
#
# Indices 1 2 3 4 5 6 
#
# 1 0.010379 -0.002895 -0.005026 0.000000 0.000000 0.000000
# 2 -0.002895 0.009165 -0.000011 0.000000 0.000000 0.000000
# 3 -0.005026 -0.000011 0.017912 0.000000 0.000000 0.000000
# 4 0.000000 0.000000 0.000000 0.067210 0.000000 0.000000
# 5 0.000000 0.000000 0.000000 0.000000 0.032100 0.000000
# 6 0.000000 0.000000 0.000000 0.000000 0.000000 0.034677
#
#
# Mechanical properties :
#
#
# Convention : Reuss Voigt Hill
#
# Bulk Modulus (GPa) = 46.31810 53.54058 49.92934
# Shear Modulus (GPa) = 25.70644 30.04743 27.87693
#
# Velocity S-wave (km/s) = 3.42503 3.70294 3.56669
# Velocity P-wave (km/s) = 6.06447 6.53567 6.30447
#
# Compressibility (1/GPa) = 0.02158983
#
# Stress axis : x y z
#
# Youngs Moduli (GPa) = 96.35300 109.11389 55.82947
#
# Poissons Ratio (x) = 0.31592 0.28059
# Poissons Ratio (y) = 0.27898 0.00063
# Poissons Ratio (z) = 0.48426 0.00124
#
# Static dielectric constant tensor:
#      x y z
#    x 3.798920 0.000000 0.000000 
#    y 0.000000 4.348260 0.000000 
#    z 0.000000 0.000000 3.838190 
# 
# 
# High freq. dielectric constant tensor:
#      x y z
#    x 1.842940 0.000000 0.000000 
#    y 0.000000 1.869320 0.000000 
#    z 0.000000 0.000000 1.845960 
# 
# From -- ./inp_files/10035.got.cif
#   From: 2010.06.25/outbox.cif.g09.slc.cpg/sg52_6_cif.got.tgz:10035.got - 2010.06.26 19:32:48.
