data_PCOD8215452
_publ_section_title
;
Structure prediction by ZEFSAII (Michael W. Deem and Ramdas Pophale) SiO2 
 PCOD8215452
Probable space group: P N N A
;
_chemical_formula_sum "Si O2"
_cell_formula_units_Z 64
_cell_length_a 10.015918
_cell_length_b 28.266889
_cell_length_c 12.568364
_cell_angle_alpha 90.000000
_cell_angle_beta 90.000000
_cell_angle_gamma 90.000000
_cell_volume 3558.340666
_symmetry_space_group_name_H-M "P N N A"
_symmetry_group_IT_number 52
_symmetry_cell_setting 'orthorhombic'
loop_
_space_group_symop_operation_xyz
x,y,z
1/2-x,-y,z
x,1/2-y,1/2-z
1/2-x,1/2+y,1/2-z
-x,-y,-z
1/2+x,y,-z
-x,1/2+y,1/2+z
1/2+x,1/2-y,1/2+z
loop_
_atom_site_type_symbol
_atom_site_label
_atom_site_fract_x
_atom_site_fract_y
_atom_site_fract_z
Si Si1 0.230832 0.947523 0.882166
Si Si2 0.499595 0.246315 0.984942
Si Si3 0.245196 0.696594 0.961098
Si Si4 0.744702 0.643849 0.248766
Si Si5 0.776526 0.302715 0.796862
Si Si6 0.014250 0.666976 0.354264
Si Si7 0.960093 0.830616 0.824513
Si Si8 0.032264 0.088942 0.020080
O O1 0.246055 0.911530 0.782148
O O2 0.343306 0.939685 0.972565
O O3 0.250000 0.000000 0.835051
O O4 0.085219 0.944792 0.936753
O O5 0.605526 0.283297 0.032874
O O6 0.449959 0.214870 0.083238
O O7 0.371869 0.267930 0.921976
O O8 0.576390 0.213477 0.900652
O O9 0.248185 0.651669 0.879726
O O10 0.191830 0.687301 0.080217
O O11 0.615294 0.668505 0.297678
O O12 0.866891 0.670663 0.304461
O O13 0.794615 0.250000 0.750000
O O14 0.878035 0.338000 0.738355
O O15 0.626285 0.322358 0.781010
O O16 0.032294 0.622147 0.430188
O O17 0.914315 0.878652 0.883212
#
# Coordination Sequence:
#
# PCOD8215452 Si02
#       8
#     8   8   8   8   8   8   8   8
#     4  10  19  36  59  85 107 132 171 220 285 337
#     4  11  20  32  49  72  96 144 173 220 244 305
#     4  12  23  31  47  69 101 138 193 207 255 294
#     4  10  23  35  50  75 105 141 173 226 266 316
#     4  12  21  34  48  71  99 145 188 223 251 287
#     4  10  20  35  50  72 109 137 179 213 264 303
#     4  10  20  35  50  72 109 137 179 213 264 303
#     4   9  19  34  57  84 108 138 165 216 277 331
#
# _framework density 17.985913
#
# number of rings (size 3 to 8) (size 9 to 14) (size 15 to 20)
#    0.000    1.500    2.500    3.375    0.000    5.000 
#    0.000    0.000    0.000    0.000    0.000   25.375 
#    0.000    0.000    0.000    0.000    0.000    0.000 
#
# Total GULP energy -793270.081287 kJ/mol
# GULP energy per Si atom -12394.845020 kJ/mol
# Density = 1.794498 g / cm^3
# Si number density = 17.985913 Si / 1000 Ang^3
#
#
#
# Elastic Constant Matrix: (Units=GPa)
#
#
# Indices 1 2 3 4 5 6 
#
# 1 77.3906 22.2168 5.9816 0.0000 0.0000 0.0000
# 2 22.2168 73.2118 30.8771 0.0000 0.0000 0.0000
# 3 5.9816 30.8771 88.6988 0.0000 0.0000 0.0000
# 4 0.0000 0.0000 0.0000 16.0620 0.0000 0.0000
# 5 0.0000 0.0000 0.0000 0.0000 29.9684 0.0000
# 6 0.0000 0.0000 0.0000 0.0000 0.0000 15.5725
#
#
#
# Elastic Compliance Matrix: (Units=1/GPa)
#
#
# Indices 1 2 3 4 5 6 
#
# 1 0.014185 -0.004572 0.000635 0.000000 0.000000 0.000000
# 2 -0.004572 0.017483 -0.005778 0.000000 0.000000 0.000000
# 3 0.000635 -0.005778 0.013243 0.000000 0.000000 0.000000
# 4 0.000000 0.000000 0.000000 0.062259 0.000000 0.000000
# 5 0.000000 0.000000 0.000000 0.000000 0.033368 0.000000
# 6 0.000000 0.000000 0.000000 0.000000 0.000000 0.064216
#
#
# Mechanical properties :
#
#
# Convention : Reuss Voigt Hill
#
# Bulk Modulus (GPa) = 39.24540 39.71693 39.48117
# Shear Modulus (GPa) = 21.48897 24.33564 22.91231
#
# Velocity S-wave (km/s) = 3.46029 3.68236 3.57305
# Velocity P-wave (km/s) = 6.15079 6.34113 6.24668
#
# Compressibility (1/GPa) = 0.02548069
#
# Stress axis : x y z
#
# Youngs Moduli (GPa) = 70.49700 57.19728 75.51386
#
# Poissons Ratio (x) = 0.26153 -0.04796
# Poissons Ratio (y) = 0.32234 0.43630
# Poissons Ratio (z) = -0.04477 0.33048
#
# Static dielectric constant tensor:
#      x y z
#    x 3.454720 0.000000 0.000000 
#    y 0.000000 3.043380 0.000000 
#    z 0.000000 0.000000 3.382840 
# 
# 
# High freq. dielectric constant tensor:
#      x y z
#    x 1.718680 0.000000 0.000000 
#    y 0.000000 1.652210 0.000000 
#    z 0.000000 0.000000 1.691290 
# 
# From -- ./inp_files/18510.got.cif
#   From: 2010.06.25/outbox.cif.g09.slc.cpg/sg52_10_cif.got.tgz:18510.got - 2010.06.26 19:32:48.
