data_PCOD8215053
_publ_section_title
;
Structure prediction by ZEFSAII (Michael W. Deem and Ramdas Pophale) SiO2 
 PCOD8215053
Probable space group: P N N A
;
_chemical_formula_sum "Si O2"
_cell_formula_units_Z 40
_cell_length_a 9.086551
_cell_length_b 13.706351
_cell_length_c 17.793778
_cell_angle_alpha 90.000000
_cell_angle_beta 90.000000
_cell_angle_gamma 90.000000
_cell_volume 2216.098632
_symmetry_space_group_name_H-M "P N N A"
_symmetry_group_IT_number 52
_symmetry_cell_setting 'orthorhombic'
loop_
_space_group_symop_operation_xyz
x,y,z
1/2-x,-y,z
x,1/2-y,1/2-z
1/2-x,1/2+y,1/2-z
-x,-y,-z
1/2+x,y,-z
-x,1/2+y,1/2+z
1/2+x,1/2-y,1/2+z
loop_
_atom_site_type_symbol
_atom_site_label
_atom_site_fract_x
_atom_site_fract_y
_atom_site_fract_z
Si Si1 0.652023 0.779578 0.140621
Si Si2 0.549250 0.912594 0.830287
Si Si3 0.134931 0.124935 0.133625
Si Si4 0.675393 0.100906 0.040792
Si Si5 0.786229 0.607686 0.230425
O O1 0.472950 0.780728 0.144905
O O2 0.710554 0.810035 0.058271
O O3 0.732541 0.680127 0.164675
O O4 0.695614 0.869006 0.194918
O O5 0.703386 0.852732 0.833146
O O6 0.468574 0.884473 0.907920
O O7 0.458231 0.881095 0.755031
O O8 0.574955 0.028514 0.825068
O O9 0.135223 0.100276 0.045756
O O10 0.750000 0.000000 0.064048
O O11 0.750000 0.500000 0.201220
#
# Coordination Sequence:
#
# PCOD8215053 Si02
#       5
#     8   8   8   8   8
#     4  10  20  32  51  76 102 147 181 217 271 334
#     4  10  18  28  49  79 110 141 167 222 278 323
#     4  11  18  28  51  84 110 131 167 231 282 325
#     4  11  17  29  49  81 118 142 164 208 284 342
#     4  10  19  36  52  68 103 146 193 221 259 331
#
# _framework density 18.049738999999999
#
# number of rings (size 3 to 8) (size 9 to 14) (size 15 to 20)
#    0.000    1.600    6.000    3.000    0.000    0.000 
#    0.000    8.000    0.000    1.200    0.000    0.000 
#    0.000    0.000    0.000    0.000    0.000    0.000 
#
# Total GULP energy -495583.061455 kJ/mol
# GULP energy per Si atom -12389.576536 kJ/mol
# Density = 1.800866 g / cm^3
# Si number density = 18.049739 Si / 1000 Ang^3
#
#
#
# Elastic Constant Matrix: (Units=GPa)
#
#
# Indices 1 2 3 4 5 6 
#
# 1 153.1334 49.6380 26.1239 0.0000 0.0000 0.0000
# 2 49.6380 94.7012 34.0742 0.0000 0.0000 0.0000
# 3 26.1239 34.0742 36.9990 0.0000 0.0000 0.0000
# 4 0.0000 0.0000 0.0000 19.9724 0.0000 0.0000
# 5 0.0000 0.0000 0.0000 0.0000 20.0193 0.0000
# 6 0.0000 0.0000 0.0000 0.0000 0.0000 22.2946
#
#
#
# Elastic Compliance Matrix: (Units=1/GPa)
#
#
# Indices 1 2 3 4 5 6 
#
# 1 0.008041 -0.003248 -0.002686 0.000000 0.000000 0.000000
# 2 -0.003248 0.017105 -0.013459 0.000000 0.000000 0.000000
# 3 -0.002686 -0.013459 0.041320 0.000000 0.000000 0.000000
# 4 0.000000 0.000000 0.000000 0.050069 0.000000 0.000000
# 5 0.000000 0.000000 0.000000 0.000000 0.049952 0.000000
# 6 0.000000 0.000000 0.000000 0.000000 0.000000 0.044854
#
#
# Mechanical properties :
#
#
# Convention : Reuss Voigt Hill
#
# Bulk Modulus (GPa) = 36.12922 56.05620 46.09271
# Shear Modulus (GPa) = 19.27864 24.12376 21.70120
#
# Velocity S-wave (km/s) = 3.27170 3.65981 3.47118
# Velocity P-wave (km/s) = 5.85935 6.99877 6.45425
#
# Compressibility (1/GPa) = 0.02767843
#
# Stress axis : x y z
#
# Youngs Moduli (GPa) = 124.35508 58.46272 24.20160
#
# Poissons Ratio (x) = 0.18991 0.06501
# Poissons Ratio (y) = 0.40396 0.32573
# Poissons Ratio (z) = 0.33404 0.78686
#
# Static dielectric constant tensor:
#      x y z
#    x 3.810040 0.000000 0.000000 
#    y 0.000000 2.969180 0.000000 
#    z 0.000000 0.000000 3.014700 
# 
# 
# High freq. dielectric constant tensor:
#      x y z
#    x 1.721740 0.000000 0.000000 
#    y 0.000000 1.657310 0.000000 
#    z 0.000000 0.000000 1.662890 
# 
# From -- ./inp_files/31069.got.cif
#   From: 2010.06.25/outbox.cif.g09.slc.cpg/sg52_16_cif.got.tgz:31069.got - 2010.06.26 19:32:48.
