data_PCOD8215917
_publ_section_title
;
Structure prediction by ZEFSAII (Michael W. Deem and Ramdas Pophale) SiO2 
 PCOD8215917
Probable space group: P N N A
;
_chemical_formula_sum "Si O2"
_cell_formula_units_Z 52
_cell_length_a 12.237320
_cell_length_b 26.752934
_cell_length_c 7.390660
_cell_angle_alpha 90.000000
_cell_angle_beta 90.000000
_cell_angle_gamma 90.000000
_cell_volume 2419.585417
_symmetry_space_group_name_H-M "P N N A"
_symmetry_group_IT_number 52
_symmetry_cell_setting 'orthorhombic'
loop_
_space_group_symop_operation_xyz
x,y,z
1/2-x,-y,z
x,1/2-y,1/2-z
1/2-x,1/2+y,1/2-z
-x,-y,-z
1/2+x,y,-z
-x,1/2+y,1/2+z
1/2+x,1/2-y,1/2+z
loop_
_atom_site_type_symbol
_atom_site_label
_atom_site_fract_x
_atom_site_fract_y
_atom_site_fract_z
Si Si1 0.494636 0.750000 0.250000
Si Si2 0.483256 0.595823 0.081751
Si Si3 0.770452 0.868994 0.120203
Si Si4 0.603592 0.545818 0.391789
Si Si5 0.448045 0.940278 0.798332
Si Si6 0.818418 0.669224 0.758490
Si Si7 0.153878 0.682238 0.937908
O O1 0.415478 0.705271 0.313929
O O2 0.573556 0.729756 0.090477
O O3 0.506882 0.562732 0.257250
O O4 0.370490 0.624505 0.124821
O O5 0.581285 0.633241 0.027861
O O6 0.467135 0.558003 0.916011
O O7 0.707844 0.920946 0.148294
O O8 0.895225 0.886003 0.154468
O O9 0.729029 0.826733 0.259625
O O10 0.754154 0.848819 0.918129
O O11 0.562867 0.554962 0.596711
O O12 0.628256 0.487294 0.357239
O O13 0.730242 0.695473 0.890639
#
# Coordination Sequence:
#
# PCOD8215917 Si02
#       7
#     4   8   8   8   8   8   8
#     4  10  26  44  64 100 118 154 218 264 316 398
#     4  10  20  39  60  89 123 166 207 254 313 369
#     4  11  22  39  64  88 120 169 202 248 318 367
#     4  10  22  36  58  90 129 158 215 255 284 372
#     4  11  20  37  61  89 123 168 205 251 306 352
#     4  11  22  43  65  89 128 160 207 263 320 386
#     4  10  23  43  64  89 124 156 208 261 316 388
#
# _framework density 21.491282999999999
#
# number of rings (size 3 to 8) (size 9 to 14) (size 15 to 20)
#    0.000    1.538    3.077    1.846    2.154    0.000 
#    0.000    1.538    0.000    0.000    0.000    0.000 
#    0.000    0.000    0.000    0.000    0.000    0.000 
#
# Total GULP energy -644772.726672 kJ/mol
# GULP energy per Si atom -12399.475513 kJ/mol
# Density = 2.144237 g / cm^3
# Si number density = 21.491283 Si / 1000 Ang^3
#
#
#
# Elastic Constant Matrix: (Units=GPa)
#
#
# Indices 1 2 3 4 5 6 
#
# 1 65.9865 20.4935 33.1997 0.0000 0.0000 0.0000
# 2 20.4935 69.0502 31.3436 0.0000 0.0000 0.0000
# 3 33.1997 31.3436 133.2569 0.0000 0.0000 0.0000
# 4 0.0000 0.0000 0.0000 29.3445 0.0000 0.0000
# 5 0.0000 0.0000 0.0000 0.0000 23.9961 0.0000
# 6 0.0000 0.0000 0.0000 0.0000 0.0000 29.9599
#
#
#
# Elastic Compliance Matrix: (Units=1/GPa)
#
#
# Indices 1 2 3 4 5 6 
#
# 1 0.018147 -0.003732 -0.003643 0.000000 0.000000 0.000000
# 2 -0.003732 0.016981 -0.003064 0.000000 0.000000 0.000000
# 3 -0.003643 -0.003064 0.009133 0.000000 0.000000 0.000000
# 4 0.000000 0.000000 0.000000 0.034078 0.000000 0.000000
# 5 0.000000 0.000000 0.000000 0.000000 0.041673 0.000000
# 6 0.000000 0.000000 0.000000 0.000000 0.000000 0.033378
#
#
# Mechanical properties :
#
#
# Convention : Reuss Voigt Hill
#
# Bulk Modulus (GPa) = 42.76959 48.70748 45.73853
# Shear Modulus (GPa) = 27.46308 28.87719 28.17014
#
# Velocity S-wave (km/s) = 3.57861 3.66959 3.62438
# Velocity P-wave (km/s) = 6.08435 6.37711 6.23245
#
# Compressibility (1/GPa) = 0.02338110
#
# Stress axis : x y z
#
# Youngs Moduli (GPa) = 55.10643 58.88996 109.49603
#
# Poissons Ratio (x) = 0.21978 0.39892
# Poissons Ratio (y) = 0.20566 0.33553
# Poissons Ratio (z) = 0.20077 0.18046
#
# Static dielectric constant tensor:
#      x y z
#    x 3.772320 0.000000 0.000000 
#    y 0.000000 3.783810 0.000000 
#    z 0.000000 0.000000 3.694870 
# 
# 
# High freq. dielectric constant tensor:
#      x y z
#    x 1.839930 0.000000 0.000000 
#    y 0.000000 1.838180 0.000000 
#    z 0.000000 0.000000 1.837750 
# 
# From -- ./inp_files/8987.got.cif
#   From: 2010.06.25/outbox.cif.g09.slc.cpg/sg52_5_cif.got.tgz:8987.got - 2010.06.26 19:32:48.
