data_PCOD8215912
_publ_section_title
;
Structure prediction by ZEFSAII (Michael W. Deem and Ramdas Pophale) SiO2 
 PCOD8215912
Probable space group: P N N A
;
_chemical_formula_sum "Si O2"
_cell_formula_units_Z 60
_cell_length_a 10.608937
_cell_length_b 29.275771
_cell_length_c 9.518642
_cell_angle_alpha 90.000000
_cell_angle_beta 90.000000
_cell_angle_gamma 90.000000
_cell_volume 2956.345619
_symmetry_space_group_name_H-M "P N N A"
_symmetry_group_IT_number 52
_symmetry_cell_setting 'orthorhombic'
loop_
_space_group_symop_operation_xyz
x,y,z
1/2-x,-y,z
x,1/2-y,1/2-z
1/2-x,1/2+y,1/2-z
-x,-y,-z
1/2+x,y,-z
-x,1/2+y,1/2+z
1/2+x,1/2-y,1/2+z
loop_
_atom_site_type_symbol
_atom_site_label
_atom_site_fract_x
_atom_site_fract_y
_atom_site_fract_z
Si Si1 0.848564 0.815225 0.068705
Si Si2 0.430053 0.370627 0.343897
Si Si3 0.188844 0.750000 0.750000
Si Si4 0.772090 0.700054 0.729763
Si Si5 0.649094 0.611302 0.361082
Si Si6 0.986516 0.173357 0.354303
Si Si7 0.226230 0.553129 0.895682
Si Si8 0.002710 0.093594 0.560515
O O1 0.781983 0.774825 0.147525
O O2 0.773016 0.861388 0.097711
O O3 0.988036 0.825701 0.121239
O O4 0.857069 0.799069 0.909485
O O5 0.311146 0.345279 0.276229
O O6 0.409270 0.401307 0.485372
O O7 0.485918 0.404826 0.228542
O O8 0.107244 0.783526 0.650481
O O9 0.705147 0.750000 0.750000
O O10 0.871499 0.692075 0.854374
O O11 0.545097 0.640638 0.277573
O O12 0.692868 0.569479 0.262848
O O13 0.976702 0.144154 0.497490
O O14 0.250000 0.500000 0.885729
O O15 0.352037 0.577031 0.962442
O O16 0.103640 0.560448 0.994799
#
# Coordination Sequence:
#
# PCOD8215912 Si02
#       8
#     8   8   4   8   8   8   8   8
#     4  10  21  38  57  79 120 163 217 262 310 370
#     4  11  22  39  62  89 123 168 217 261 321 393
#     4  10  22  36  58  80 120 172 220 268 306 364
#     4  11  23  34  54  85 120 163 216 269 307 356
#     4   9  20  41  63  85 119 173 203 255 326 385
#     4  10  20  39  58  84 126 169 214 258 316 377
#     4  11  23  45  71 101 130 165 213 272 335 410
#     4  11  24  41  69  98 130 170 212 267 336 398
#
# _framework density 20.295328000000001
#
# number of rings (size 3 to 8) (size 9 to 14) (size 15 to 20)
#    0.000    1.600    3.333    1.200    2.800    1.067 
#    0.000    1.333    0.000    0.000    0.000    0.000 
#    0.000    0.000    0.000    0.000    0.000    0.000 
#
# Total GULP energy -743452.990044 kJ/mol
# GULP energy per Si atom -12390.883167 kJ/mol
# Density = 2.024914 g / cm^3
# Si number density = 20.295328 Si / 1000 Ang^3
#
#
#
# Elastic Constant Matrix: (Units=GPa)
#
#
# Indices 1 2 3 4 5 6 
#
# 1 92.0948 19.4101 24.2152 0.0000 0.0000 0.0000
# 2 19.4101 89.4188 33.0590 0.0000 0.0000 0.0000
# 3 24.2152 33.0590 104.1494 0.0000 0.0000 0.0000
# 4 0.0000 0.0000 0.0000 23.8507 0.0000 0.0000
# 5 0.0000 0.0000 0.0000 0.0000 29.8856 0.0000
# 6 0.0000 0.0000 0.0000 0.0000 0.0000 24.6036
#
#
#
# Elastic Compliance Matrix: (Units=1/GPa)
#
#
# Indices 1 2 3 4 5 6 
#
# 1 0.011803 -0.001753 -0.002188 0.000000 0.000000 0.000000
# 2 -0.001753 0.012931 -0.003697 0.000000 0.000000 0.000000
# 3 -0.002188 -0.003697 0.011284 0.000000 0.000000 0.000000
# 4 0.000000 0.000000 0.000000 0.041927 0.000000 0.000000
# 5 0.000000 0.000000 0.000000 0.000000 0.033461 0.000000
# 6 0.000000 0.000000 0.000000 0.000000 0.000000 0.040644
#
#
# Mechanical properties :
#
#
# Convention : Reuss Voigt Hill
#
# Bulk Modulus (GPa) = 48.21175 48.78131 48.49653
# Shear Modulus (GPa) = 28.69606 29.59989 29.14797
#
# Velocity S-wave (km/s) = 3.76430 3.82312 3.79382
# Velocity P-wave (km/s) = 6.53452 6.60123 6.56796
#
# Compressibility (1/GPa) = 0.02074183
#
# Stress axis : x y z
#
# Youngs Moduli (GPa) = 84.72319 77.33558 88.62352
#
# Poissons Ratio (x) = 0.13559 0.19389
# Poissons Ratio (y) = 0.14854 0.32762
# Poissons Ratio (z) = 0.18535 0.28589
#
# Static dielectric constant tensor:
#      x y z
#    x 3.858860 0.000000 0.000000 
#    y 0.000000 3.371740 0.000000 
#    z 0.000000 0.000000 3.751720 
# 
# 
# High freq. dielectric constant tensor:
#      x y z
#    x 1.805340 0.000000 0.000000 
#    y 0.000000 1.761090 0.000000 
#    z 0.000000 0.000000 1.796420 
# 
# From -- ./inp_files/9098.got.cif
#   From: 2010.06.25/outbox.cif.g09.slc.cpg/sg52_5_cif.got.tgz:9098.got - 2010.06.26 19:32:48.
