data_PCOD8215675
_publ_section_title
;
Structure prediction by ZEFSAII (Michael W. Deem and Ramdas Pophale) SiO2 
 PCOD8215675
Probable space group: P N N A
;
_chemical_formula_sum "Si O2"
_cell_formula_units_Z 56
_cell_length_a 9.389476
_cell_length_b 14.907317
_cell_length_c 19.297729
_cell_angle_alpha 90.000000
_cell_angle_beta 90.000000
_cell_angle_gamma 90.000000
_cell_volume 2701.139701
_symmetry_space_group_name_H-M "P N N A"
_symmetry_group_IT_number 52
_symmetry_cell_setting 'orthorhombic'
loop_
_space_group_symop_operation_xyz
x,y,z
1/2-x,-y,z
x,1/2-y,1/2-z
1/2-x,1/2+y,1/2-z
-x,-y,-z
1/2+x,y,-z
-x,1/2+y,1/2+z
1/2+x,1/2-y,1/2+z
loop_
_atom_site_type_symbol
_atom_site_label
_atom_site_fract_x
_atom_site_fract_y
_atom_site_fract_z
Si Si1 0.090953 0.033096 0.435748
Si Si2 0.347948 0.419804 0.617983
Si Si3 0.910135 0.706933 0.007598
Si Si4 0.626926 0.351368 0.271793
Si Si5 0.863785 0.930489 0.373834
Si Si6 0.603322 0.957588 0.849384
Si Si7 0.841254 0.328930 0.522157
O O1 0.080881 0.141687 0.439940
O O2 0.250000 0.000000 0.439032
O O3 0.000000 0.000000 0.500000
O O4 0.015726 0.983850 0.370858
O O5 0.250000 0.500000 0.589957
O O6 0.257113 0.363580 0.674406
O O7 0.495278 0.458852 0.646721
O O8 0.390182 0.360274 0.553331
O O9 0.849966 0.654081 0.074373
O O10 0.819699 0.793272 0.983438
O O11 0.060085 0.742916 0.036798
O O12 0.604567 0.250000 0.250000
O O13 0.673588 0.405096 0.204088
O O14 0.473142 0.384496 0.300245
O O15 0.750000 0.000000 0.403284
O O16 0.750000 0.000000 0.818896
O O17 0.640369 0.908585 0.922236
#
# Coordination Sequence:
#
# PCOD8215675 Si02
#       7
#     8   8   8   8   8   8   8
#     4  10  20  35  55  83 122 162 201 242 293 358
#     4  10  21  40  62  86 115 158 206 244 295 368
#     4  11  21  34  57  92 121 152 197 250 299 351
#     4  11  24  43  65  89 118 158 209 258 304 362
#     4  11  21  39  61  84 119 164 202 246 302 366
#     4  11  23  40  59  86 121 157 197 247 306 372
#     4  12  21  35  59  88 120 153 194 253 305 345
#
# _framework density 20.73199
#
# number of rings (size 3 to 8) (size 9 to 14) (size 15 to 20)
#    0.000    1.143    0.000   10.714    0.000    0.571 
#    0.000    0.714    0.000    0.000    0.000    0.000 
#    0.000    0.000    0.000    0.000    0.000    0.000 
#
# Total GULP energy -694051.171767 kJ/mol
# GULP energy per Si atom -12393.770924 kJ/mol
# Density = 2.068480 g / cm^3
# Si number density = 20.731990 Si / 1000 Ang^3
#
#
#
# Elastic Constant Matrix: (Units=GPa)
#
#
# Indices 1 2 3 4 5 6 
#
# 1 131.7709 42.1285 17.1214 0.0000 0.0000 0.0000
# 2 42.1285 103.4658 36.9903 0.0000 0.0000 0.0000
# 3 17.1214 36.9903 86.0899 0.0000 0.0000 0.0000
# 4 0.0000 0.0000 0.0000 29.4383 0.0000 0.0000
# 5 0.0000 0.0000 0.0000 0.0000 -46.6950 0.0000
# 6 0.0000 0.0000 0.0000 0.0000 0.0000 37.4394
#
#
#
# Elastic Compliance Matrix: (Units=1/GPa)
#
#
# Indices 1 2 3 4 5 6 
#
# 1 0.008729 -0.003466 -0.000247 0.000000 0.000000 0.000000
# 2 -0.003466 0.012795 -0.004808 0.000000 0.000000 0.000000
# 3 -0.000247 -0.004808 0.013731 0.000000 0.000000 0.000000
# 4 0.000000 0.000000 0.000000 0.033969 0.000000 0.000000
# 5 0.000000 0.000000 0.000000 0.000000 -0.021416 0.000000
# 6 0.000000 0.000000 0.000000 0.000000 0.000000 0.026710
#
#
# Mechanical properties :
#
#
# Convention : Reuss Voigt Hill
#
# Bulk Modulus (GPa) = 54.90638 57.08968 55.99803
# Shear Modulus (GPa) = 51.21236 19.04228 35.12732
#
# Velocity S-wave (km/s) = 4.97551 3.03396 4.12072
# Velocity P-wave (km/s) = 7.71680 6.31427 7.05050
#
# Compressibility (1/GPa) = 0.01821282
#
# Stress axis : x y z
#
# Youngs Moduli (GPa) = 114.55910 78.15301 72.82837
#
# Poissons Ratio (x) = 0.27088 0.01797
# Poissons Ratio (y) = 0.39707 0.35020
# Poissons Ratio (z) = 0.02827 0.37580
#
# Static dielectric constant tensor:
#      x y z
#    x 4.154070 0.000000 0.000000 
#    y 0.000000 4.364500 0.000000 
#    z 0.000000 0.000000 3.861330 
# 
# 
# High freq. dielectric constant tensor:
#      x y z
#    x 1.820420 0.000000 0.000000 
#    y 0.000000 1.825400 0.000000 
#    z 0.000000 0.000000 1.789250 
# 
# From -- ./inp_files/36020.got.cif
#   From: 2010.06.25/outbox.cif.g09.slc.cpg/sg52_19_cif.got.tgz:36020.got - 2010.06.26 19:32:48.
