data_PCOD8215407
_publ_section_title
;
Structure prediction by ZEFSAII (Michael W. Deem and Ramdas Pophale) SiO2 
 PCOD8215407
Probable space group: P N N A
;
_chemical_formula_sum "Si O2"
_cell_formula_units_Z 32
_cell_length_a 17.111772
_cell_length_b 18.478321
_cell_length_c 4.884173
_cell_angle_alpha 90.000000
_cell_angle_beta 90.000000
_cell_angle_gamma 90.000000
_cell_volume 1544.359951
_symmetry_space_group_name_H-M "P N N A"
_symmetry_group_IT_number 52
_symmetry_cell_setting 'orthorhombic'
loop_
_space_group_symop_operation_xyz
x,y,z
1/2-x,-y,z
x,1/2-y,1/2-z
1/2-x,1/2+y,1/2-z
-x,-y,-z
1/2+x,y,-z
-x,1/2+y,1/2+z
1/2+x,1/2-y,1/2+z
loop_
_atom_site_type_symbol
_atom_site_label
_atom_site_fract_x
_atom_site_fract_y
_atom_site_fract_z
Si Si1 0.146251 0.669327 0.718938
Si Si2 0.668795 0.032064 0.888743
Si Si3 0.082840 0.975758 0.613401
Si Si4 0.248073 0.330296 0.218473
O O1 0.109533 0.750000 0.750000
O O2 0.081767 0.608261 0.789557
O O3 0.175692 0.658096 0.409919
O O4 0.222968 0.659187 0.908184
O O5 0.678303 0.115024 0.793836
O O6 0.750000 0.000000 0.004164
O O7 0.646011 0.984265 0.626258
O O8 0.604574 0.026644 0.128255
O O9 0.000000 0.000000 0.500000
O O10 0.212907 0.250000 0.250000
#
# Coordination Sequence:
#
# PCOD8215407 Si02
#       4
#     8   8   8   8
#     4  10  19  35  57  84 116 154 199 246 298 367
#     4  12  21  38  64  87 120 157 209 254 302 357
#     4  12  24  38  58  92 125 162 201 252 309 366
#     4  10  20  34  59  90 115 148 201 256 301 346
#
# _framework density 20.720555000000001
#
# number of rings (size 3 to 8) (size 9 to 14) (size 15 to 20)
#    0.000    1.000    5.000    3.000    0.000    0.000 
#    0.000    1.250    0.000    3.000    0.000    0.000 
#    0.000    0.000    0.000    0.000    0.000    0.000 
#
# Total GULP energy -396875.236871 kJ/mol
# GULP energy per Si atom -12402.351152 kJ/mol
# Density = 2.067339 g / cm^3
# Si number density = 20.720555 Si / 1000 Ang^3
#
#
#
# Elastic Constant Matrix: (Units=GPa)
#
#
# Indices 1 2 3 4 5 6 
#
# 1 62.0662 62.6237 16.3643 0.0000 0.0000 0.0000
# 2 62.6237 173.7152 34.7700 0.0000 0.0000 0.0000
# 3 16.3643 34.7700 93.6690 0.0000 0.0000 0.0000
# 4 0.0000 0.0000 0.0000 32.8649 0.0000 0.0000
# 5 0.0000 0.0000 0.0000 0.0000 33.6816 0.0000
# 6 0.0000 0.0000 0.0000 0.0000 0.0000 27.0769
#
#
#
# Elastic Compliance Matrix: (Units=1/GPa)
#
#
# Indices 1 2 3 4 5 6 
#
# 1 0.025431 -0.008943 -0.001123 0.000000 0.000000 0.000000
# 2 -0.008943 0.009363 -0.001913 0.000000 0.000000 0.000000
# 3 -0.001123 -0.001913 0.011582 0.000000 0.000000 0.000000
# 4 0.000000 0.000000 0.000000 0.030428 0.000000 0.000000
# 5 0.000000 0.000000 0.000000 0.000000 0.029690 0.000000
# 6 0.000000 0.000000 0.000000 0.000000 0.000000 0.036932
#
#
# Mechanical properties :
#
#
# Convention : Reuss Voigt Hill
#
# Bulk Modulus (GPa) = 44.60733 61.88514 53.24623
# Shear Modulus (GPa) = 28.59455 33.10418 30.84936
#
# Velocity S-wave (km/s) = 3.71888 4.00140 3.86272
# Velocity P-wave (km/s) = 6.32573 7.16098 6.75627
#
# Compressibility (1/GPa) = 0.02241784
#
# Stress axis : x y z
#
# Youngs Moduli (GPa) = 39.32142 106.79801 86.33820
#
# Poissons Ratio (x) = 0.95511 0.09698
# Poissons Ratio (y) = 0.35166 0.16519
# Poissons Ratio (z) = 0.04417 0.20434
#
# Static dielectric constant tensor:
#      x y z
#    x 3.151390 0.000000 0.000000 
#    y 0.000000 4.227200 0.000000 
#    z 0.000000 0.000000 4.011750 
# 
# 
# High freq. dielectric constant tensor:
#      x y z
#    x 1.745230 0.000000 0.000000 
#    y 0.000000 1.829350 0.000000 
#    z 0.000000 0.000000 1.837300 
# 
# From -- ./inp_files/1916.got.cif
#   From: 2010.06.25/outbox.cif.g09.slc.cpg/sg52_1_cif.got.tgz:1916.got - 2010.06.26 19:32:48.
