data_PCOD8215447
_publ_section_title
;
Structure prediction by ZEFSAII (Michael W. Deem and Ramdas Pophale) SiO2 
 PCOD8215447
Probable space group: P N N A
;
_chemical_formula_sum "Si O2"
_cell_formula_units_Z 48
_cell_length_a 14.921202
_cell_length_b 18.840410
_cell_length_c 9.329868
_cell_angle_alpha 90.000000
_cell_angle_beta 90.000000
_cell_angle_gamma 90.000000
_cell_volume 2622.827078
_symmetry_space_group_name_H-M "P N N A"
_symmetry_group_IT_number 52
_symmetry_cell_setting 'orthorhombic'
loop_
_space_group_symop_operation_xyz
x,y,z
1/2-x,-y,z
x,1/2-y,1/2-z
1/2-x,1/2+y,1/2-z
-x,-y,-z
1/2+x,y,-z
-x,1/2+y,1/2+z
1/2+x,1/2-y,1/2+z
loop_
_atom_site_type_symbol
_atom_site_label
_atom_site_fract_x
_atom_site_fract_y
_atom_site_fract_z
Si Si1 0.834838 0.043027 0.167953
Si Si2 0.988501 0.526352 0.162450
Si Si3 0.661679 0.537998 0.663174
Si Si4 0.137019 0.692423 0.371776
Si Si5 0.749644 0.810836 0.134470
Si Si6 0.554391 0.328630 0.311444
O O1 0.814235 0.126007 0.185796
O O2 0.750000 0.000000 0.225179
O O3 0.917187 0.026139 0.268839
O O4 0.857572 0.022077 0.004184
O O5 0.959439 0.609561 0.188975
O O6 0.080928 0.509875 0.241628
O O7 0.000000 0.500000 0.000000
O O8 0.750000 0.500000 0.719508
O O9 0.681676 0.621053 0.688020
O O10 0.132468 0.750000 0.250000
O O11 0.200796 0.722795 0.496159
O O12 0.033366 0.671332 0.416156
O O13 0.753698 0.750000 0.250000
O O14 0.851014 0.841366 0.104802
O O15 0.561691 0.250000 0.250000
#
# Coordination Sequence:
#
# PCOD8215447 Si02
#       6
#     8   8   8   8   8   8
#     4  10  19  36  59  80 111 151 197 232 280 360
#     4  11  22  36  58  88 117 150 193 248 300 338
#     4   9  20  38  57  80 112 151 187 233 289 351
#     4   9  19  37  59  81 110 148 186 241 288 343
#     4  10  20  36  59  85 111 155 198 236 290 356
#     4   9  19  38  58  80 116 157 190 231 301 358
#
# _framework density 18.300864000000001
#
# number of rings (size 3 to 8) (size 9 to 14) (size 15 to 20)
#    0.000    2.333    1.667    0.500    0.000    4.667 
#    6.000    0.833    0.000    0.000    0.000    0.000 
#    0.000    0.000    0.000    0.000    0.000    0.000 
#
# Total GULP energy -594695.609548 kJ/mol
# GULP energy per Si atom -12389.491866 kJ/mol
# Density = 1.825921 g / cm^3
# Si number density = 18.300864 Si / 1000 Ang^3
#
#
#
# Elastic Constant Matrix: (Units=GPa)
#
#
# Indices 1 2 3 4 5 6 
#
# 1 163.5404 54.0319 82.3337 0.0000 0.0000 0.0000
# 2 54.0319 81.0927 31.6017 0.0000 0.0000 0.0000
# 3 82.3337 31.6017 94.7527 0.0000 0.0000 0.0000
# 4 0.0000 0.0000 0.0000 24.8141 0.0000 0.0000
# 5 0.0000 0.0000 0.0000 0.0000 37.9204 0.0000
# 6 0.0000 0.0000 0.0000 0.0000 0.0000 29.9846
#
#
#
# Elastic Compliance Matrix: (Units=1/GPa)
#
#
# Indices 1 2 3 4 5 6 
#
# 1 0.012197 -0.004594 -0.009066 0.000000 0.000000 0.000000
# 2 -0.004594 0.015904 -0.001313 0.000000 0.000000 0.000000
# 3 -0.009066 -0.001313 0.018869 0.000000 0.000000 0.000000
# 4 0.000000 0.000000 0.000000 0.040300 0.000000 0.000000
# 5 0.000000 0.000000 0.000000 0.000000 0.026371 0.000000
# 6 0.000000 0.000000 0.000000 0.000000 0.000000 0.033351
#
#
# Mechanical properties :
#
#
# Convention : Reuss Voigt Hill
#
# Bulk Modulus (GPa) = 58.73637 75.03561 66.88599
# Shear Modulus (GPa) = 27.38068 29.97171 28.67619
#
# Velocity S-wave (km/s) = 3.87219 4.05127 3.96274
# Velocity P-wave (km/s) = 7.22194 7.93560 7.58717
#
# Compressibility (1/GPa) = 0.01702523
#
# Stress axis : x y z
#
# Youngs Moduli (GPa) = 81.99015 62.87801 52.99605
#
# Poissons Ratio (x) = 0.28883 0.48046
# Poissons Ratio (y) = 0.37663 0.06957
# Poissons Ratio (z) = 0.74332 0.08254
#
# Static dielectric constant tensor:
#      x y z
#    x 4.064290 0.000000 0.000000 
#    y 0.000000 3.917990 0.000000 
#    z 0.000000 0.000000 3.143050 
# 
# 
# High freq. dielectric constant tensor:
#      x y z
#    x 1.731790 0.000000 0.000000 
#    y 0.000000 1.723130 0.000000 
#    z 0.000000 0.000000 1.667760 
# 
# From -- ./inp_files/10655.got.cif
#   From: 2010.06.25/outbox.cif.g09.slc.cpg/sg52_6_cif.got.tgz:10655.got - 2010.06.26 19:32:48.
