data_PCOD8215828
_publ_section_title
;
Structure prediction by ZEFSAII (Michael W. Deem and Ramdas Pophale) SiO2 
 PCOD8215828
Probable space group: P N N A
;
_chemical_formula_sum "Si O2"
_cell_formula_units_Z 56
_cell_length_a 14.053572
_cell_length_b 12.526740
_cell_length_c 15.867557
_cell_angle_alpha 90.000000
_cell_angle_beta 90.000000
_cell_angle_gamma 90.000000
_cell_volume 2793.411094
_symmetry_space_group_name_H-M "P N N A"
_symmetry_group_IT_number 52
_symmetry_cell_setting 'orthorhombic'
loop_
_space_group_symop_operation_xyz
x,y,z
1/2-x,-y,z
x,1/2-y,1/2-z
1/2-x,1/2+y,1/2-z
-x,-y,-z
1/2+x,y,-z
-x,1/2+y,1/2+z
1/2+x,1/2-y,1/2+z
loop_
_atom_site_type_symbol
_atom_site_label
_atom_site_fract_x
_atom_site_fract_y
_atom_site_fract_z
Si Si1 0.437586 0.027747 0.745952
Si Si2 0.147473 0.304940 0.390281
Si Si3 0.937031 0.438093 0.896590
Si Si4 0.250000 0.000000 0.638966
Si Si5 0.464112 0.020599 0.093273
Si Si6 0.857723 0.274103 0.654945
Si Si7 0.985149 0.750000 0.750000
Si Si8 0.130507 0.118853 0.511546
O O1 0.337053 0.016857 0.701474
O O2 0.444734 0.152650 0.756213
O O3 0.525561 0.978232 0.693821
O O4 0.446975 0.981386 0.840851
O O5 0.112349 0.426911 0.391825
O O6 0.249677 0.311754 0.347309
O O7 0.079034 0.234814 0.332242
O O8 0.147076 0.240272 0.479008
O O9 0.865892 0.338465 0.892331
O O10 0.872222 0.530060 0.937990
O O11 0.027320 0.394334 0.947418
O O12 0.216995 0.096841 0.577560
O O13 0.417996 0.136623 0.105451
O O14 0.500000 0.000000 0.000000
O O15 0.893173 0.250000 0.750000
#
# Coordination Sequence:
#
# PCOD8215828 Si02
#       8
#     8   8   8   4   8   8   4   8
#     4  10  21  42  65  87 134 168 219 264 329 400
#     4  11  22  40  63  95 127 164 212 270 324 387
#     4  10  20  37  65  92 128 164 205 259 329 386
#     4  10  22  40  62 102 126 164 220 274 332 394
#     4  11  25  46  65  91 129 180 223 269 331 403
#     4  12  23  39  64  97 125 167 214 268 323 392
#     4  10  20  38  62  88 122 176 206 256 332 386
#     4  10  20  38  63  95 127 159 203 267 322 387
#
# _framework density 20.047173999999998
#
# number of rings (size 3 to 8) (size 9 to 14) (size 15 to 20)
#    0.000    1.429    3.571    2.143    0.000    0.000 
#   10.286    2.857    0.000    0.000    0.000    0.000 
#    0.000    0.000    0.000    0.000    0.000    0.000 
#
# Total GULP energy -693939.540907 kJ/mol
# GULP energy per Si atom -12391.777516 kJ/mol
# Density = 2.000155 g / cm^3
# Si number density = 20.047174 Si / 1000 Ang^3
#
#
#
# Elastic Constant Matrix: (Units=GPa)
#
#
# Indices 1 2 3 4 5 6 
#
# 1 78.3013 23.5669 36.8884 0.0000 0.0000 0.0000
# 2 23.5669 90.1455 32.6761 0.0000 0.0000 0.0000
# 3 36.8884 32.6761 127.9597 0.0000 0.0000 0.0000
# 4 0.0000 0.0000 0.0000 29.7496 0.0000 0.0000
# 5 0.0000 0.0000 0.0000 0.0000 27.6324 0.0000
# 6 0.0000 0.0000 0.0000 0.0000 0.0000 5.2809
#
#
#
# Elastic Compliance Matrix: (Units=1/GPa)
#
#
# Indices 1 2 3 4 5 6 
#
# 1 0.015333 -0.002652 -0.003743 0.000000 0.000000 0.000000
# 2 -0.002652 0.012683 -0.002474 0.000000 0.000000 0.000000
# 3 -0.003743 -0.002474 0.009526 0.000000 0.000000 0.000000
# 4 0.000000 0.000000 0.000000 0.033614 0.000000 0.000000
# 5 0.000000 0.000000 0.000000 0.000000 0.036189 0.000000
# 6 0.000000 0.000000 0.000000 0.000000 0.000000 0.189363
#
#
# Mechanical properties :
#
#
# Convention : Reuss Voigt Hill
#
# Bulk Modulus (GPa) = 50.49561 53.62990 52.06276
# Shear Modulus (GPa) = 15.57404 26.08427 20.82916
#
# Velocity S-wave (km/s) = 2.79026 3.61105 3.22686
# Velocity P-wave (km/s) = 5.96857 6.64802 6.31744
#
# Compressibility (1/GPa) = 0.01980370
#
# Stress axis : x y z
#
# Youngs Moduli (GPa) = 65.22046 78.84357 104.97744
#
# Poissons Ratio (x) = 0.20907 0.39293
# Poissons Ratio (y) = 0.17294 0.25976
# Poissons Ratio (z) = 0.24412 0.19509
#
# Static dielectric constant tensor:
#      x y z
#    x 3.552380 0.000000 0.000000 
#    y 0.000000 3.658840 0.000000 
#    z 0.000000 0.000000 3.794000 
# 
# 
# High freq. dielectric constant tensor:
#      x y z
#    x 1.772970 0.000000 0.000000 
#    y 0.000000 1.787210 0.000000 
#    z 0.000000 0.000000 1.788010 
# 
# From -- ./inp_files/27340.got.cif
#   From: 2010.06.25/outbox.cif.g09.slc.cpg/sg52_14_cif.got.tgz:27340.got - 2010.06.26 19:32:48.
