data_PCOD8215953
_publ_section_title
;
Structure prediction by ZEFSAII (Michael W. Deem and Ramdas Pophale) SiO2 
 PCOD8215953
Probable space group: P N N A
;
_chemical_formula_sum "Si O2"
_cell_formula_units_Z 48
_cell_length_a 9.746919
_cell_length_b 29.036040
_cell_length_c 8.774277
_cell_angle_alpha 90.000000
_cell_angle_beta 90.000000
_cell_angle_gamma 90.000000
_cell_volume 2483.225068
_symmetry_space_group_name_H-M "P N N A"
_symmetry_group_IT_number 52
_symmetry_cell_setting 'orthorhombic'
loop_
_space_group_symop_operation_xyz
x,y,z
1/2-x,-y,z
x,1/2-y,1/2-z
1/2-x,1/2+y,1/2-z
-x,-y,-z
1/2+x,y,-z
-x,1/2+y,1/2+z
1/2+x,1/2-y,1/2+z
loop_
_atom_site_type_symbol
_atom_site_label
_atom_site_fract_x
_atom_site_fract_y
_atom_site_fract_z
Si Si1 0.627298 0.965586 0.844950
Si Si2 0.886867 0.028889 0.187065
Si Si3 0.727588 0.880116 0.651450
Si Si4 0.550961 0.707031 0.350314
Si Si5 0.737234 0.791723 0.855864
Si Si6 0.045443 0.881032 0.638593
O O1 0.668751 0.923952 0.738431
O O2 0.750000 0.000000 0.866338
O O3 0.503748 0.992682 0.765614
O O4 0.587123 0.950396 0.017159
O O5 0.889030 0.071954 0.299622
O O6 0.750000 0.000000 0.207503
O O7 0.717968 0.838511 0.766548
O O8 0.630470 0.867816 0.510662
O O9 0.884719 0.888014 0.598846
O O10 0.600957 0.750000 0.250000
O O11 0.646613 0.705133 0.495393
O O12 0.395086 0.715320 0.404574
O O13 0.566040 0.659661 0.258898
O O14 0.686560 0.750000 0.750000
#
# Coordination Sequence:
#
# PCOD8215953 Si02
#       6
#     8   8   8   8   8   8
#     4  10  20  40  60  83 117 154 195 248 294 345
#     4  10  22  38  62  86 114 156 200 245 298 354
#     4  11  24  39  59  86 121 157 197 245 292 349
#     4  10  22  41  65  91 122 154 195 242 291 351
#     4  10  22  41  64  91 122 155 194 242 293 348
#     4  11  24  40  57  88 121 156 199 243 292 350
#
# _framework density 19.329702000000001
#
# number of rings (size 3 to 8) (size 9 to 14) (size 15 to 20)
#    0.000    1.667    1.667    2.000    2.333    3.333 
#    0.000    0.000    0.000    0.000    0.000    0.000 
#    0.000    0.000    0.000    0.000    0.000    0.000 
#
# Total GULP energy -595304.199503 kJ/mol
# GULP energy per Si atom -12402.170823 kJ/mol
# Density = 1.928571 g / cm^3
# Si number density = 19.329702 Si / 1000 Ang^3
#
#
#
# Elastic Constant Matrix: (Units=GPa)
#
#
# Indices 1 2 3 4 5 6 
#
# 1 114.0641 43.9916 61.0004 0.0000 0.0000 0.0000
# 2 43.9916 94.0640 33.7152 0.0000 0.0000 0.0000
# 3 61.0004 33.7152 96.9013 0.0000 0.0000 0.0000
# 4 0.0000 0.0000 0.0000 26.7320 0.0000 0.0000
# 5 0.0000 0.0000 0.0000 0.0000 41.9751 0.0000
# 6 0.0000 0.0000 0.0000 0.0000 0.0000 34.1606
#
#
#
# Elastic Compliance Matrix: (Units=1/GPa)
#
#
# Indices 1 2 3 4 5 6 
#
# 1 0.014416 -0.003986 -0.007688 0.000000 0.000000 0.000000
# 2 -0.003986 0.013248 -0.002100 0.000000 0.000000 0.000000
# 3 -0.007688 -0.002100 0.015890 0.000000 0.000000 0.000000
# 4 0.000000 0.000000 0.000000 0.037408 0.000000 0.000000
# 5 0.000000 0.000000 0.000000 0.000000 0.023824 0.000000
# 6 0.000000 0.000000 0.000000 0.000000 0.000000 0.029274
#
#
# Mechanical properties :
#
#
# Convention : Reuss Voigt Hill
#
# Bulk Modulus (GPa) = 62.47889 64.71598 63.59744
# Shear Modulus (GPa) = 29.95025 31.66167 30.80596
#
# Velocity S-wave (km/s) = 3.94057 4.05159 3.99646
# Velocity P-wave (km/s) = 7.28677 7.44580 7.36671
#
# Compressibility (1/GPa) = 0.01600541
#
# Stress axis : x y z
#
# Youngs Moduli (GPa) = 69.36778 75.48253 62.93233
#
# Poissons Ratio (x) = 0.30090 0.48382
# Poissons Ratio (y) = 0.27653 0.13216
# Poissons Ratio (z) = 0.53330 0.15851
#
# Static dielectric constant tensor:
#      x y z
#    x 3.694640 0.000000 0.000000 
#    y 0.000000 3.620670 0.000000 
#    z 0.000000 0.000000 3.517340 
# 
# 
# High freq. dielectric constant tensor:
#      x y z
#    x 1.764070 0.000000 0.000000 
#    y 0.000000 1.767390 0.000000 
#    z 0.000000 0.000000 1.749480 
# 
# From -- ./inp_files/7688.got.cif
#   From: 2010.06.25/outbox.cif.g09.slc.cpg/sg52_4_cif.got.tgz:7688.got - 2010.06.26 19:32:48.
