data_PCOD8215183
_publ_section_title
;
Structure prediction by ZEFSAII (Michael W. Deem and Ramdas Pophale) SiO2 
 PCOD8215183
Probable space group: P N N A
;
_chemical_formula_sum "Si O2"
_cell_formula_units_Z 60
_cell_length_a 11.500086
_cell_length_b 20.877791
_cell_length_c 11.787349
_cell_angle_alpha 90.000000
_cell_angle_beta 90.000000
_cell_angle_gamma 90.000000
_cell_volume 2830.099966
_symmetry_space_group_name_H-M "P N N A"
_symmetry_group_IT_number 52
_symmetry_cell_setting 'orthorhombic'
loop_
_space_group_symop_operation_xyz
x,y,z
1/2-x,-y,z
x,1/2-y,1/2-z
1/2-x,1/2+y,1/2-z
-x,-y,-z
1/2+x,y,-z
-x,1/2+y,1/2+z
1/2+x,1/2-y,1/2+z
loop_
_atom_site_type_symbol
_atom_site_label
_atom_site_fract_x
_atom_site_fract_y
_atom_site_fract_z
Si Si1 0.642534 0.772980 0.871058
Si Si2 0.858372 0.895101 0.065473
Si Si3 0.990529 0.841220 0.409677
Si Si4 0.492092 0.170333 0.651728
Si Si5 0.750000 0.000000 0.903768
Si Si6 0.905290 0.801826 0.875389
Si Si7 0.426193 0.091554 0.197184
Si Si8 0.255704 0.823571 0.731566
O O1 0.598080 0.750000 0.750000
O O2 0.564765 0.723469 0.944286
O O3 0.780697 0.765762 0.885639
O O4 0.613957 0.848329 0.880952
O O5 0.768395 0.857753 0.146227
O O6 0.949643 0.930499 0.147666
O O7 0.797778 0.945982 0.985969
O O8 0.925424 0.844628 0.985620
O O9 0.966793 0.868150 0.537410
O O10 0.065582 0.889583 0.330612
O O11 0.868313 0.829470 0.348131
O O12 0.578036 0.155366 0.759647
O O13 0.497696 0.247071 0.629786
O O14 0.359968 0.147292 0.675017
O O15 0.657509 0.968741 0.818485
O O16 0.231677 0.750000 0.750000
#
# Coordination Sequence:
#
# PCOD8215183 Si02
#       8
#     8   8   8   8   4   8   8   8
#     4  10  18  35  57  87 124 166 204 259 324 396
#     4  11  25  41  64  92 131 170 218 281 329 387
#     4  10  23  38  62  90 131 172 210 265 338 403
#     4  11  23  35  60  96 131 172 209 258 328 411
#     4  12  24  42  70  92 120 178 230 282 328 382
#     4  11  21  34  57  93 132 163 212 262 321 393
#     4  10  22  41  60  91 119 164 221 269 330 387
#     4  11  22  41  59  94 137 171 211 264 339 397
#
# _framework density 21.200664
#
# number of rings (size 3 to 8) (size 9 to 14) (size 15 to 20)
#    0.000    1.333    4.000    4.000    5.600    0.000 
#    0.000    0.000    0.000    1.600    0.000    0.000 
#    0.000    0.000    0.000    0.000    0.000    0.000 
#
# Total GULP energy -743366.543623 kJ/mol
# GULP energy per Si atom -12389.442394 kJ/mol
# Density = 2.115241 g / cm^3
# Si number density = 21.200664 Si / 1000 Ang^3
#
#
#
# Elastic Constant Matrix: (Units=GPa)
#
#
# Indices 1 2 3 4 5 6 
#
# 1 89.8200 5.6152 28.7644 0.0000 0.0000 0.0000
# 2 5.6152 36.9714 14.6193 0.0000 0.0000 0.0000
# 3 28.7644 14.6193 141.7994 0.0000 0.0000 0.0000
# 4 0.0000 0.0000 0.0000 21.6898 0.0000 0.0000
# 5 0.0000 0.0000 0.0000 0.0000 -1.7493 0.0000
# 6 0.0000 0.0000 0.0000 0.0000 0.0000 30.5130
#
#
#
# Elastic Compliance Matrix: (Units=1/GPa)
#
#
# Indices 1 2 3 4 5 6 
#
# 1 0.011935 -0.000892 -0.002329 0.000000 0.000000 0.000000
# 2 -0.000892 0.028264 -0.002733 0.000000 0.000000 0.000000
# 3 -0.002329 -0.002733 0.007806 0.000000 0.000000 0.000000
# 4 0.000000 0.000000 0.000000 0.046105 0.000000 0.000000
# 5 0.000000 0.000000 0.000000 0.000000 -0.571656 0.000000
# 6 0.000000 0.000000 0.000000 0.000000 0.000000 0.032773
#
#
# Mechanical properties :
#
#
# Convention : Reuss Voigt Hill
#
# Bulk Modulus (GPa) = 27.70257 40.73206 34.21732
# Shear Modulus (GPa) = -11.88121 24.73016 6.42447
#
# Velocity S-wave (km/s) = -2.36988 3.41908 1.74267
# Velocity P-wave (km/s) = 2.36786 5.90264 4.49711
#
# Compressibility (1/GPa) = 0.03609773
#
# Stress axis : x y z
#
# Youngs Moduli (GPa) = 83.78711 35.38061 128.09897
#
# Poissons Ratio (x) = 0.03155 0.29836
# Poissons Ratio (y) = 0.07471 0.35011
# Poissons Ratio (z) = 0.19515 0.09670
#
# Static dielectric constant tensor:
#      x y z
#    x 3.857880 0.000000 0.000000 
#    y 0.000000 3.563650 0.000000 
#    z 0.000000 0.000000 4.296670 
# 
# 
# High freq. dielectric constant tensor:
#      x y z
#    x 1.839340 0.000000 0.000000 
#    y 0.000000 1.771010 0.000000 
#    z 0.000000 0.000000 1.850910 
# 
# From -- ./inp_files/18406.got.cif
#   From: 2010.06.25/outbox.cif.g09.slc.cpg/sg52_10_cif.got.tgz:18406.got - 2010.06.26 19:32:48.
