data_PCOD8215088
_publ_section_title
;
Structure prediction by ZEFSAII (Michael W. Deem and Ramdas Pophale) SiO2 
 PCOD8215088
Probable space group: P N N A
;
_chemical_formula_sum "Si O2"
_cell_formula_units_Z 32
_cell_length_a 18.418912
_cell_length_b 8.121809
_cell_length_c 11.242991
_cell_angle_alpha 90.000000
_cell_angle_beta 90.000000
_cell_angle_gamma 90.000000
_cell_volume 1681.893949
_symmetry_space_group_name_H-M "P N N A"
_symmetry_group_IT_number 52
_symmetry_cell_setting 'orthorhombic'
loop_
_space_group_symop_operation_xyz
x,y,z
1/2-x,-y,z
x,1/2-y,1/2-z
1/2-x,1/2+y,1/2-z
-x,-y,-z
1/2+x,y,-z
-x,1/2+y,1/2+z
1/2+x,1/2-y,1/2+z
loop_
_atom_site_type_symbol
_atom_site_label
_atom_site_fract_x
_atom_site_fract_y
_atom_site_fract_z
Si Si1 0.538024 0.079804 0.316065
Si Si2 0.465889 0.914233 0.112981
Si Si3 0.089128 0.445801 0.056947
Si Si4 0.172614 0.943077 0.237002
O O1 0.554052 0.250000 0.250000
O O2 0.602210 0.042404 0.413407
O O3 0.525365 0.936345 0.219010
O O4 0.465296 0.091839 0.398486
O O5 0.449860 0.724908 0.090877
O O6 0.390584 0.003197 0.147168
O O7 0.500000 0.000000 0.000000
O O8 0.162658 0.469559 0.132557
O O9 0.171109 0.750000 0.250000
O O10 0.250000 0.000000 0.185105
#
# Coordination Sequence:
#
# PCOD8215088 Si02
#       4
#     8   8   8   8
#     4  10  18  31  49  80 114 148 183 240 287 334
#     4  11  20  33  56  87 120 152 193 241 290 344
#     4  10  20  32  54  81 115 150 193 235 291 337
#     4  11  23  40  60  84 118 155 196 242 297 356
#
# _framework density 19.026168999999999
#
# number of rings (size 3 to 8) (size 9 to 14) (size 15 to 20)
#    0.000    1.500    2.500    7.500    3.500    0.000 
#    0.000    0.000    0.000    1.500    0.000    0.000 
#    0.000    0.000    0.000    0.000    0.000    0.000 
#
# Total GULP energy -396418.729974 kJ/mol
# GULP energy per Si atom -12388.085312 kJ/mol
# Density = 1.898287 g / cm^3
# Si number density = 19.026169 Si / 1000 Ang^3
#
#
#
# Elastic Constant Matrix: (Units=GPa)
#
#
# Indices 1 2 3 4 5 6 
#
# 1 80.0536 29.6977 46.4641 0.0000 0.0000 0.0000
# 2 29.6977 85.7135 41.0534 0.0000 0.0000 0.0000
# 3 46.4641 41.0534 160.3825 0.0000 0.0000 0.0000
# 4 0.0000 0.0000 0.0000 36.7077 0.0000 0.0000
# 5 0.0000 0.0000 0.0000 0.0000 22.0897 0.0000
# 6 0.0000 0.0000 0.0000 0.0000 0.0000 18.8114
#
#
#
# Elastic Compliance Matrix: (Units=1/GPa)
#
#
# Indices 1 2 3 4 5 6 
#
# 1 0.016031 -0.003795 -0.003673 0.000000 0.000000 0.000000
# 2 -0.003795 0.014196 -0.002534 0.000000 0.000000 0.000000
# 3 -0.003673 -0.002534 0.007948 0.000000 0.000000 0.000000
# 4 0.000000 0.000000 0.000000 0.027242 0.000000 0.000000
# 5 0.000000 0.000000 0.000000 0.000000 0.045270 0.000000
# 6 0.000000 0.000000 0.000000 0.000000 0.000000 0.053159
#
#
# Mechanical properties :
#
#
# Convention : Reuss Voigt Hill
#
# Bulk Modulus (GPa) = 55.03572 62.28666 58.66119
# Shear Modulus (GPa) = 26.32861 29.45074 27.88968
#
# Velocity S-wave (km/s) = 3.72400 3.93861 3.83281
# Velocity P-wave (km/s) = 6.89057 7.31382 7.10535
#
# Compressibility (1/GPa) = 0.01817002
#
# Stress axis : x y z
#
# Youngs Moduli (GPa) = 62.37758 70.44485 125.82051
#
# Poissons Ratio (x) = 0.26736 0.46213
# Poissons Ratio (y) = 0.23674 0.31884
# Poissons Ratio (z) = 0.22911 0.17852
#
# Static dielectric constant tensor:
#      x y z
#    x 3.673120 0.000000 0.000000 
#    y 0.000000 3.771060 0.000000 
#    z 0.000000 0.000000 4.276200 
# 
# 
# High freq. dielectric constant tensor:
#      x y z
#    x 1.681630 0.000000 0.000000 
#    y 0.000000 1.755360 0.000000 
#    z 0.000000 0.000000 1.753400 
# 
# From -- ./inp_files/20194.got.cif
#   From: 2010.06.25/outbox.cif.g09.slc.cpg/sg52_11_cif.got.tgz:20194.got - 2010.06.26 19:32:48.
