data_PCOD8215957
_publ_section_title
;
Structure prediction by ZEFSAII (Michael W. Deem and Ramdas Pophale) SiO2 
 PCOD8215957
Probable space group: P N N A
;
_chemical_formula_sum "Si O2"
_cell_formula_units_Z 48
_cell_length_a 9.429492
_cell_length_b 10.743101
_cell_length_c 24.893802
_cell_angle_alpha 90.000000
_cell_angle_beta 90.000000
_cell_angle_gamma 90.000000
_cell_volume 2521.791555
_symmetry_space_group_name_H-M "P N N A"
_symmetry_group_IT_number 52
_symmetry_cell_setting 'orthorhombic'
loop_
_space_group_symop_operation_xyz
x,y,z
1/2-x,-y,z
x,1/2-y,1/2-z
1/2-x,1/2+y,1/2-z
-x,-y,-z
1/2+x,y,-z
-x,1/2+y,1/2+z
1/2+x,1/2-y,1/2+z
loop_
_atom_site_type_symbol
_atom_site_label
_atom_site_fract_x
_atom_site_fract_y
_atom_site_fract_z
Si Si1 0.466648 0.740230 0.186771
Si Si2 0.238881 0.859203 0.117335
Si Si3 0.046660 0.264747 0.461430
Si Si4 0.038449 0.231251 0.587408
Si Si5 0.084031 0.032823 0.388798
Si Si6 0.685987 0.638466 0.387516
O O1 0.470952 0.750000 0.250000
O O2 0.313849 0.780648 0.164115
O O3 0.479277 0.597475 0.165425
O O4 0.588221 0.832082 0.164066
O O5 0.313941 0.837262 0.059629
O O6 0.076248 0.820177 0.114893
O O7 0.250000 0.000000 0.135226
O O8 0.907787 0.339372 0.440995
O O9 0.044989 0.261154 0.524738
O O10 0.055127 0.124873 0.438564
O O11 0.187988 0.261936 0.614053
O O12 0.006388 0.088646 0.599110
O O13 0.250000 0.000000 0.383702
O O14 0.750000 0.500000 0.386173
#
# Coordination Sequence:
#
# PCOD8215957 Si02
#       6
#     8   8   8   8   8   8
#     4  10  23  45  63  82 118 161 201 271 324 345
#     4  10  21  38  60  88 120 162 212 250 294 369
#     4  10  22  35  57  90 129 168 187 237 309 356
#     4  12  20  36  63  89 126 160 200 244 296 366
#     4  10  20  40  60  89 124 149 211 254 287 369
#     4  10  23  40  57  89 128 157 202 253 295 374
#
# _framework density 19.034087
#
# number of rings (size 3 to 8) (size 9 to 14) (size 15 to 20)
#    0.000    2.000    3.333    3.500    0.000    7.333 
#    3.000    0.833    0.000    0.000    0.000    0.000 
#    0.000    0.000    0.000    0.000    0.000    0.000 
#
# Total GULP energy -595095.252896 kJ/mol
# GULP energy per Si atom -12397.817769 kJ/mol
# Density = 1.899076 g / cm^3
# Si number density = 19.034087 Si / 1000 Ang^3
#
#
#
# Elastic Constant Matrix: (Units=GPa)
#
#
# Indices 1 2 3 4 5 6 
#
# 1 81.4819 7.8604 27.3671 0.0000 0.0000 0.0000
# 2 7.8604 74.6028 17.6756 0.0000 0.0000 0.0000
# 3 27.3671 17.6756 120.2949 0.0000 0.0000 0.0000
# 4 0.0000 0.0000 0.0000 8.0427 0.0000 0.0000
# 5 0.0000 0.0000 0.0000 0.0000 -89.4661 0.0000
# 6 0.0000 0.0000 0.0000 0.0000 0.0000 42.3702
#
#
#
# Elastic Compliance Matrix: (Units=1/GPa)
#
#
# Indices 1 2 3 4 5 6 
#
# 1 0.013324 -0.000710 -0.002927 0.000000 0.000000 0.000000
# 2 -0.000710 0.013926 -0.001885 0.000000 0.000000 0.000000
# 3 -0.002927 -0.001885 0.009256 0.000000 0.000000 0.000000
# 4 0.000000 0.000000 0.000000 0.124337 0.000000 0.000000
# 5 0.000000 0.000000 0.000000 0.000000 -0.011177 0.000000
# 6 0.000000 0.000000 0.000000 0.000000 0.000000 0.023602
#
#
# Mechanical properties :
#
#
# Convention : Reuss Voigt Hill
#
# Bulk Modulus (GPa) = 39.27439 42.46509 40.86974
# Shear Modulus (GPa) = 25.93396 7.08779 16.51087
#
# Velocity S-wave (km/s) = 3.69521 1.93179 2.94842
# Velocity P-wave (km/s) = 6.23575 5.22821 5.75408
#
# Compressibility (1/GPa) = 0.02546188
#
# Stress axis : x y z
#
# Youngs Moduli (GPa) = 75.05121 71.80979 108.04185
#
# Poissons Ratio (x) = 0.05102 0.31623
# Poissons Ratio (y) = 0.05332 0.20361
# Poissons Ratio (z) = 0.21967 0.13533
#
# Static dielectric constant tensor:
#      x y z
#    x 3.715020 0.000000 0.000000 
#    y 0.000000 3.751980 0.000000 
#    z 0.000000 0.000000 3.203800 
# 
# 
# High freq. dielectric constant tensor:
#      x y z
#    x 1.753110 0.000000 0.000000 
#    y 0.000000 1.753290 0.000000 
#    z 0.000000 0.000000 1.709670 
# 
# From -- ./inp_files/39424.got.cif
#   From: 2010.06.25/outbox.cif.g09.slc.cpg/sg52_20_cif.got.tgz:39424.got - 2010.06.26 19:32:48.
