data_PCOD8215466
_publ_section_title
;
Structure prediction by ZEFSAII (Michael W. Deem and Ramdas Pophale) SiO2 
 PCOD8215466
Probable space group: P N N A
;
_chemical_formula_sum "Si O2"
_cell_formula_units_Z 48
_cell_length_a 17.207491
_cell_length_b 5.120754
_cell_length_c 27.514953
_cell_angle_alpha 90.000000
_cell_angle_beta 90.000000
_cell_angle_gamma 90.000000
_cell_volume 2424.489119
_symmetry_space_group_name_H-M "P N N A"
_symmetry_group_IT_number 52
_symmetry_cell_setting 'orthorhombic'
loop_
_space_group_symop_operation_xyz
x,y,z
1/2-x,-y,z
x,1/2-y,1/2-z
1/2-x,1/2+y,1/2-z
-x,-y,-z
1/2+x,y,-z
-x,1/2+y,1/2+z
1/2+x,1/2-y,1/2+z
loop_
_atom_site_type_symbol
_atom_site_label
_atom_site_fract_x
_atom_site_fract_y
_atom_site_fract_z
Si Si1 0.960699 0.213515 0.831364
Si Si2 0.443476 0.284394 0.805635
Si Si3 0.077574 0.785039 0.959499
Si Si4 0.712359 0.749594 0.805198
Si Si5 0.981257 0.213829 0.560257
Si Si6 0.197312 0.750410 0.620297
O O1 0.880319 0.257282 0.804243
O O2 0.941605 0.233233 0.888430
O O3 0.023013 0.425959 0.813599
O O4 0.991175 0.926061 0.819046
O O5 0.417064 0.250000 0.750000
O O6 0.369519 0.241426 0.839521
O O7 0.160508 0.743226 0.933848
O O8 0.015786 0.577895 0.938337
O O9 0.083526 0.741793 0.017748
O O10 0.050476 0.079564 0.948489
O O11 0.750000 0.500000 0.832140
O O12 0.742883 0.750000 0.750000
O O13 0.750000 0.000000 0.832052
O O14 0.250000 0.500000 0.627191
O O15 0.250000 0.000000 0.628631
#
# Coordination Sequence:
#
# PCOD8215466 Si02
#       6
#     8   8   8   8   8   8
#     4  12  21  40  64  91 118 160 201 263 301 360
#     4  12  25  40  61  90 121 162 221 262 298 357
#     4  10  20  38  59  90 112 151 194 242 301 364
#     4  10  21  36  54  81 117 155 188 230 299 366
#     4  10  19  36  65  86 115 143 198 248 293 359
#     4  12  24  40  61  86 127 167 204 257 316 366
#
# _framework density 19.797986999999999
#
# number of rings (size 3 to 8) (size 9 to 14) (size 15 to 20)
#    0.000    1.000    3.333    4.500    0.000    2.000 
#    0.000    1.667    0.000    0.000    0.000    0.000 
#    0.000    0.000    0.000    0.000    0.000    0.000 
#
# Total GULP energy -595296.655579 kJ/mol
# GULP energy per Si atom -12402.013658 kJ/mol
# Density = 1.975293 g / cm^3
# Si number density = 19.797987 Si / 1000 Ang^3
#
#
#
# Elastic Constant Matrix: (Units=GPa)
#
#
# Indices 1 2 3 4 5 6 
#
# 1 107.1623 39.3540 24.3131 0.0000 0.0000 0.0000
# 2 39.3540 123.7275 17.2177 0.0000 0.0000 0.0000
# 3 24.3131 17.2177 96.0768 0.0000 0.0000 0.0000
# 4 0.0000 0.0000 0.0000 21.9229 0.0000 0.0000
# 5 0.0000 0.0000 0.0000 0.0000 28.2472 0.0000
# 6 0.0000 0.0000 0.0000 0.0000 0.0000 40.3254
#
#
#
# Elastic Compliance Matrix: (Units=1/GPa)
#
#
# Indices 1 2 3 4 5 6 
#
# 1 0.011006 -0.003193 -0.002213 0.000000 0.000000 0.000000
# 2 -0.003193 0.009215 -0.000843 0.000000 0.000000 0.000000
# 3 -0.002213 -0.000843 0.011120 0.000000 0.000000 0.000000
# 4 0.000000 0.000000 0.000000 0.045614 0.000000 0.000000
# 5 0.000000 0.000000 0.000000 0.000000 0.035402 0.000000
# 6 0.000000 0.000000 0.000000 0.000000 0.000000 0.024798
#
#
# Mechanical properties :
#
#
# Convention : Reuss Voigt Hill
#
# Bulk Modulus (GPa) = 53.07200 54.30403 53.68802
# Shear Modulus (GPa) = 32.06467 34.50454 33.28460
#
# Velocity S-wave (km/s) = 4.02878 4.17925 4.10471
# Velocity P-wave (km/s) = 6.96465 7.12578 7.04568
#
# Compressibility (1/GPa) = 0.01884233
#
# Stress axis : x y z
#
# Youngs Moduli (GPa) = 90.85740 108.51658 89.93184
#
# Poissons Ratio (x) = 0.34647 0.19902
# Poissons Ratio (y) = 0.29009 0.07585
# Poissons Ratio (z) = 0.20107 0.09153
#
# Static dielectric constant tensor:
#      x y z
#    x 3.333530 0.000000 0.000000 
#    y 0.000000 4.053960 0.000000 
#    z 0.000000 0.000000 3.829560 
# 
# 
# High freq. dielectric constant tensor:
#      x y z
#    x 1.746620 0.000000 0.000000 
#    y 0.000000 1.801380 0.000000 
#    z 0.000000 0.000000 1.771740 
# 
# From -- ./inp_files/44943.got.cif
#   From: 2010.06.25/outbox.cif.g09.slc.cpg/sg52_23_cif.got.tgz:44943.got - 2010.06.26 19:32:48.
