data_PCOD8215059
_publ_section_title
;
Structure prediction by ZEFSAII (Michael W. Deem and Ramdas Pophale) SiO2 
 PCOD8215059
Probable space group: P N N A
;
_chemical_formula_sum "Si O2"
_cell_formula_units_Z 40
_cell_length_a 18.629982
_cell_length_b 8.350371
_cell_length_c 13.967151
_cell_angle_alpha 90.000000
_cell_angle_beta 90.000000
_cell_angle_gamma 90.000000
_cell_volume 2172.831431
_symmetry_space_group_name_H-M "P N N A"
_symmetry_group_IT_number 52
_symmetry_cell_setting 'orthorhombic'
loop_
_space_group_symop_operation_xyz
x,y,z
1/2-x,-y,z
x,1/2-y,1/2-z
1/2-x,1/2+y,1/2-z
-x,-y,-z
1/2+x,y,-z
-x,1/2+y,1/2+z
1/2+x,1/2-y,1/2+z
loop_
_atom_site_type_symbol
_atom_site_label
_atom_site_fract_x
_atom_site_fract_y
_atom_site_fract_z
Si Si1 0.034595 0.094690 0.806836
Si Si2 0.737685 0.814595 0.352092
Si Si3 0.626139 0.230752 0.460688
Si Si4 0.414137 0.406439 0.870343
Si Si5 0.948666 0.695998 0.645573
O O1 0.004556 0.250000 0.750000
O O2 0.083143 0.146513 0.894826
O O3 0.968797 0.991793 0.849234
O O4 0.080919 0.981937 0.736015
O O5 0.763131 0.750000 0.250000
O O6 0.789694 0.746764 0.435222
O O7 0.653665 0.783864 0.374406
O O8 0.750000 0.000000 0.346071
O O9 0.616068 0.279324 0.571267
O O10 0.597111 0.049221 0.446494
O O11 0.484374 0.302371 0.892723
O O12 0.922030 0.750000 0.750000
#
# Coordination Sequence:
#
# PCOD8215059 Si02
#       5
#     8   8   8   8   8
#     4   9  17  30  47  69  98 125 156 199 247 292
#     4  10  18  29  47  72  98 122 150 192 247 298
#     4  10  18  29  46  71  98 124 156 195 241 294
#     4   9  18  31  48  72  96 121 153 196 247 296
#     4  10  19  31  47  68  94 128 164 198 235 282
#
# _framework density 18.409158999999999
#
# number of rings (size 3 to 8) (size 9 to 14) (size 15 to 20)
#    0.000    2.400    0.000    6.000    0.000    0.000 
#    0.000    0.000    0.000    0.000    0.000   43.400 
#    0.000    0.000    0.000    0.000    0.000    0.000 
#
# Total GULP energy -495862.894753 kJ/mol
# GULP energy per Si atom -12396.572369 kJ/mol
# Density = 1.836726 g / cm^3
# Si number density = 18.409159 Si / 1000 Ang^3
#
#
#
# Elastic Constant Matrix: (Units=GPa)
#
#
# Indices 1 2 3 4 5 6 
#
# 1 87.0625 27.4723 64.1075 0.0000 0.0000 0.0000
# 2 27.4723 65.2434 34.9989 0.0000 0.0000 0.0000
# 3 64.1075 34.9989 110.5682 0.0000 0.0000 0.0000
# 4 0.0000 0.0000 0.0000 20.8657 0.0000 0.0000
# 5 0.0000 0.0000 0.0000 0.0000 15.6283 0.0000
# 6 0.0000 0.0000 0.0000 0.0000 0.0000 15.5386
#
#
#
# Elastic Compliance Matrix: (Units=1/GPa)
#
#
# Indices 1 2 3 4 5 6 
#
# 1 0.020433 -0.002708 -0.010990 0.000000 0.000000 0.000000
# 2 -0.002708 0.018821 -0.004387 0.000000 0.000000 0.000000
# 3 -0.010990 -0.004387 0.016805 0.000000 0.000000 0.000000
# 4 0.000000 0.000000 0.000000 0.047926 0.000000 0.000000
# 5 0.000000 0.000000 0.000000 0.000000 0.063987 0.000000
# 6 0.000000 0.000000 0.000000 0.000000 0.000000 0.064356
#
#
# Mechanical properties :
#
#
# Convention : Reuss Voigt Hill
#
# Bulk Modulus (GPa) = 50.28155 57.33683 53.80919
# Shear Modulus (GPa) = 18.17345 19.49286 18.83315
#
# Velocity S-wave (km/s) = 3.14538 3.25755 3.20196
# Velocity P-wave (km/s) = 6.36897 6.73515 6.55462
#
# Compressibility (1/GPa) = 0.01988801
#
# Stress axis : x y z
#
# Youngs Moduli (GPa) = 48.94115 53.13172 59.50732
#
# Poissons Ratio (x) = 0.14391 0.65396
# Poissons Ratio (y) = 0.13256 0.26107
# Poissons Ratio (z) = 0.53784 0.23310
#
# Static dielectric constant tensor:
#      x y z
#    x 3.692030 0.000000 0.000000 
#    y 0.000000 3.602810 0.000000 
#    z 0.000000 0.000000 3.184590 
# 
# 
# High freq. dielectric constant tensor:
#      x y z
#    x 1.682100 0.000000 0.000000 
#    y 0.000000 1.722840 0.000000 
#    z 0.000000 0.000000 1.693130 
# 
# From -- ./inp_files/21453.got.cif
#   From: 2010.06.25/outbox.cif.g09.slc.cpg/sg52_11_cif.got.tgz:21453.got - 2010.06.26 19:32:48.
