data_PCOD8215605
_publ_section_title
;
Structure prediction by ZEFSAII (Michael W. Deem and Ramdas Pophale) SiO2 
 PCOD8215605
Probable space group: P N N A
;
_chemical_formula_sum "Si O2"
_cell_formula_units_Z 64
_cell_length_a 12.456153
_cell_length_b 9.464015
_cell_length_c 26.622105
_cell_angle_alpha 90.000000
_cell_angle_beta 90.000000
_cell_angle_gamma 90.000000
_cell_volume 3138.352674
_symmetry_space_group_name_H-M "P N N A"
_symmetry_group_IT_number 52
_symmetry_cell_setting 'orthorhombic'
loop_
_space_group_symop_operation_xyz
x,y,z
1/2-x,-y,z
x,1/2-y,1/2-z
1/2-x,1/2+y,1/2-z
-x,-y,-z
1/2+x,y,-z
-x,1/2+y,1/2+z
1/2+x,1/2-y,1/2+z
loop_
_atom_site_type_symbol
_atom_site_label
_atom_site_fract_x
_atom_site_fract_y
_atom_site_fract_z
Si Si1 0.836746 0.319915 0.565162
Si Si2 0.172312 0.371194 0.119618
Si Si3 0.779511 0.152534 0.297481
Si Si4 0.509025 0.501671 0.387524
Si Si5 0.152246 0.222528 0.607602
Si Si6 0.318523 0.371802 0.549078
Si Si7 0.518553 0.549523 0.944139
Si Si8 0.506470 0.244286 0.809578
O O1 0.734155 0.262274 0.595617
O O2 0.807437 0.376813 0.510541
O O3 0.916388 0.193046 0.555014
O O4 0.890124 0.450977 0.595429
O O5 0.250000 0.500000 0.134653
O O6 0.082690 0.421846 0.080756
O O7 0.111685 0.321082 0.169275
O O8 0.769091 0.250000 0.250000
O O9 0.688247 0.187811 0.336916
O O10 0.897708 0.169384 0.322175
O O11 0.750000 0.000000 0.276485
O O12 0.579487 0.360847 0.385243
O O13 0.559887 0.609486 0.429481
O O14 0.502650 0.586039 0.334287
O O15 0.257046 0.236301 0.571670
O O16 0.090323 0.086155 0.585477
O O17 0.250000 0.500000 0.571740
O O18 0.500000 0.500000 0.000000
O O19 0.522971 0.250000 0.750000
#
# Coordination Sequence:
#
# PCOD8215605 Si02
#       8
#     8   8   8   8   8   8   8   8
#     4  10  22  37  60  92 123 174 215 258 324 375
#     4  10  23  44  61  85 128 163 216 277 313 386
#     4  11  25  40  68  98 129 172 214 268 336 395
#     4  10  22  39  62  93 131 165 213 272 315 388
#     4  10  21  39  60  93 135 169 212 260 329 386
#     4  10  20  33  56  92 131 166 204 254 313 393
#     4  10  21  37  62  91 130 169 214 259 317 383
#     4  11  25  43  68  94 122 165 219 269 331 388
#
# _framework density 20.392865
#
# number of rings (size 3 to 8) (size 9 to 14) (size 15 to 20)
#    0.000    1.750    1.250    1.875    7.000    1.000 
#    2.250    0.000    0.000    0.000    0.000    0.000 
#    0.000    0.000    0.000    0.000    0.000    0.000 
#
# Total GULP energy -793215.255218 kJ/mol
# GULP energy per Si atom -12393.988363 kJ/mol
# Density = 2.034645 g / cm^3
# Si number density = 20.392865 Si / 1000 Ang^3
#
#
#
# Elastic Constant Matrix: (Units=GPa)
#
#
# Indices 1 2 3 4 5 6 
#
# 1 123.5300 65.0720 69.4587 0.0000 0.0000 0.0000
# 2 65.0720 100.2004 54.1786 0.0000 0.0000 0.0000
# 3 69.4587 54.1786 136.6560 0.0000 0.0000 0.0000
# 4 0.0000 0.0000 0.0000 35.5663 0.0000 0.0000
# 5 0.0000 0.0000 0.0000 0.0000 36.0173 0.0000
# 6 0.0000 0.0000 0.0000 0.0000 0.0000 25.0741
#
#
#
# Elastic Compliance Matrix: (Units=1/GPa)
#
#
# Indices 1 2 3 4 5 6 
#
# 1 0.014219 -0.006780 -0.004539 0.000000 0.000000 0.000000
# 2 -0.006780 0.015936 -0.002872 0.000000 0.000000 0.000000
# 3 -0.004539 -0.002872 0.010763 0.000000 0.000000 0.000000
# 4 0.000000 0.000000 0.000000 0.028117 0.000000 0.000000
# 5 0.000000 0.000000 0.000000 0.000000 0.027764 0.000000
# 6 0.000000 0.000000 0.000000 0.000000 0.000000 0.039882
#
#
# Mechanical properties :
#
#
# Convention : Reuss Voigt Hill
#
# Bulk Modulus (GPa) = 79.76794 81.97835 80.87314
# Shear Modulus (GPa) = 29.54366 30.77667 30.16016
#
# Velocity S-wave (km/s) = 3.81034 3.88904 3.84989
# Velocity P-wave (km/s) = 7.65237 7.77515 7.71401
#
# Compressibility (1/GPa) = 0.01253637
#
# Stress axis : x y z
#
# Youngs Moduli (GPa) = 70.32937 62.75228 92.90719
#
# Poissons Ratio (x) = 0.42543 0.42173
# Poissons Ratio (y) = 0.47680 0.26683
# Poissons Ratio (z) = 0.31924 0.18022
#
# Static dielectric constant tensor:
#      x y z
#    x 4.079050 0.000000 0.000000 
#    y 0.000000 3.943460 0.000000 
#    z 0.000000 0.000000 3.653570 
# 
# 
# High freq. dielectric constant tensor:
#      x y z
#    x 1.806890 0.000000 0.000000 
#    y 0.000000 1.805170 0.000000 
#    z 0.000000 0.000000 1.786370 
# 
# From -- ./inp_files/44852.got.cif
#   From: 2010.06.25/outbox.cif.g09.slc.cpg/sg52_23_cif.got.tgz:44852.got - 2010.06.26 19:32:48.
