data_PCOD8215335
_publ_section_title
;
Structure prediction by ZEFSAII (Michael W. Deem and Ramdas Pophale) SiO2 
 PCOD8215335
Probable space group: P N N A
;
_chemical_formula_sum "Si O2"
_cell_formula_units_Z 40
_cell_length_a 23.307425
_cell_length_b 8.767243
_cell_length_c 9.868625
_cell_angle_alpha 90.000000
_cell_angle_beta 90.000000
_cell_angle_gamma 90.000000
_cell_volume 2016.573175
_symmetry_space_group_name_H-M "P N N A"
_symmetry_group_IT_number 52
_symmetry_cell_setting 'orthorhombic'
loop_
_space_group_symop_operation_xyz
x,y,z
1/2-x,-y,z
x,1/2-y,1/2-z
1/2-x,1/2+y,1/2-z
-x,-y,-z
1/2+x,y,-z
-x,1/2+y,1/2+z
1/2+x,1/2-y,1/2+z
loop_
_atom_site_type_symbol
_atom_site_label
_atom_site_fract_x
_atom_site_fract_y
_atom_site_fract_z
Si Si1 0.793327 0.364715 0.627088
Si Si2 0.526245 0.422785 0.289882
Si Si3 0.713811 0.652454 0.114687
Si Si4 0.080333 0.930845 0.042665
Si Si5 0.913935 0.351062 0.118591
O O1 0.750000 0.500000 0.667745
O O2 0.803690 0.250000 0.750000
O O3 0.766581 0.266795 0.504518
O O4 0.853687 0.443381 0.586231
O O5 0.532119 0.250000 0.250000
O O6 0.461853 0.472827 0.333341
O O7 0.569959 0.458535 0.413805
O O8 0.542062 0.513597 0.152169
O O9 0.750000 0.500000 0.121657
O O10 0.720456 0.750000 0.250000
O O11 0.649757 0.590842 0.083605
O O12 0.063304 0.755830 0.003153
O O13 0.906701 0.250000 0.250000
#
# Coordination Sequence:
#
# PCOD8215335 Si02
#       5
#     8   8   8   8   8
#     4  11  23  41  60  82 115 153 192 234 285 343
#     4  10  19  33  56  83 108 141 190 236 272 330
#     4  10  20  35  58  85 115 151 188 233 286 337
#     4   9  20  38  55  76 113 151 178 225 292 336
#     4   8  17  33  50  74 109 143 177 223 278 327
#
# _framework density 19.835629999999998
#
# number of rings (size 3 to 8) (size 9 to 14) (size 15 to 20)
#    0.000    2.400    0.000    3.000    0.000    3.200 
#    0.000    5.000    0.000    0.000    0.000    0.000 
#    0.000    0.000    0.000    0.000    0.000    0.000 
#
# Total GULP energy -495820.848600 kJ/mol
# GULP energy per Si atom -12395.521215 kJ/mol
# Density = 1.979048 g / cm^3
# Si number density = 19.835630 Si / 1000 Ang^3
#
#
#
# Elastic Constant Matrix: (Units=GPa)
#
#
# Indices 1 2 3 4 5 6 
#
# 1 99.8620 42.1025 19.9072 0.0000 0.0000 0.0000
# 2 42.1025 77.2607 15.7914 0.0000 0.0000 0.0000
# 3 19.9072 15.7914 63.9630 0.0000 0.0000 0.0000
# 4 0.0000 0.0000 0.0000 37.1691 0.0000 0.0000
# 5 0.0000 0.0000 0.0000 0.0000 10.4563 0.0000
# 6 0.0000 0.0000 0.0000 0.0000 0.0000 132.9694
#
#
#
# Elastic Compliance Matrix: (Units=1/GPa)
#
#
# Indices 1 2 3 4 5 6 
#
# 1 0.013366 -0.006775 -0.002487 0.000000 0.000000 0.000000
# 2 -0.006775 0.017066 -0.002104 0.000000 0.000000 0.000000
# 3 -0.002487 -0.002104 0.016928 0.000000 0.000000 0.000000
# 4 0.000000 0.000000 0.000000 0.026904 0.000000 0.000000
# 5 0.000000 0.000000 0.000000 0.000000 0.095636 0.000000
# 6 0.000000 0.000000 0.000000 0.000000 0.000000 0.007521
#
#
# Mechanical properties :
#
#
# Convention : Reuss Voigt Hill
#
# Bulk Modulus (GPa) = 40.60884 44.07643 42.34264
# Shear Modulus (GPa) = 23.99662 47.00460 35.50061
#
# Velocity S-wave (km/s) = 3.48195 4.87324 4.23512
# Velocity P-wave (km/s) = 6.05660 7.34396 6.73113
#
# Compressibility (1/GPa) = 0.02462518
#
# Stress axis : x y z
#
# Youngs Moduli (GPa) = 74.81548 58.59762 59.07477
#
# Poissons Ratio (x) = 0.39702 0.14693
# Poissons Ratio (y) = 0.50691 0.12432
# Poissons Ratio (z) = 0.18608 0.12332
#
# Static dielectric constant tensor:
#      x y z
#    x 3.632310 0.000000 0.000000 
#    y 0.000000 3.638690 0.000000 
#    z 0.000000 0.000000 3.865620 
# 
# 
# High freq. dielectric constant tensor:
#      x y z
#    x 1.768630 0.000000 0.000000 
#    y 0.000000 1.764770 0.000000 
#    z 0.000000 0.000000 1.774620 
# 
# From -- ./inp_files/13971.got.cif
#   From: 2010.06.25/outbox.cif.g09.slc.cpg/sg52_7_cif.got.tgz:13971.got - 2010.06.26 19:32:48.
