data_PCOD8215894
_publ_section_title
;
Structure prediction by ZEFSAII (Michael W. Deem and Ramdas Pophale) SiO2 
 PCOD8215894
Probable space group: P N N A
;
_chemical_formula_sum "Si O2"
_cell_formula_units_Z 56
_cell_length_a 13.650144
_cell_length_b 20.661651
_cell_length_c 10.101938
_cell_angle_alpha 90.000000
_cell_angle_beta 90.000000
_cell_angle_gamma 90.000000
_cell_volume 2849.095148
_symmetry_space_group_name_H-M "P N N A"
_symmetry_group_IT_number 52
_symmetry_cell_setting 'orthorhombic'
loop_
_space_group_symop_operation_xyz
x,y,z
1/2-x,-y,z
x,1/2-y,1/2-z
1/2-x,1/2+y,1/2-z
-x,-y,-z
1/2+x,y,-z
-x,1/2+y,1/2+z
1/2+x,1/2-y,1/2+z
loop_
_atom_site_type_symbol
_atom_site_label
_atom_site_fract_x
_atom_site_fract_y
_atom_site_fract_z
Si Si1 0.033742 0.431099 0.799112
Si Si2 0.335654 0.457381 0.710961
Si Si3 0.790781 0.748878 0.100850
Si Si4 0.691173 0.561428 0.776906
Si Si5 0.664368 0.856290 0.984771
Si Si6 0.504273 0.200814 0.148515
Si Si7 0.279852 0.895865 0.546213
O O1 0.069958 0.496863 0.728460
O O2 0.107458 0.416679 0.921835
O O3 0.920148 0.446352 0.833823
O O4 0.042469 0.367423 0.707769
O O5 0.250000 0.500000 0.646306
O O6 0.361901 0.404134 0.603277
O O7 0.295673 0.427409 0.848836
O O8 0.749437 0.750000 0.250000
O O9 0.762577 0.680592 0.039243
O O10 0.906989 0.756053 0.096201
O O11 0.752825 0.809416 0.018294
O O12 0.750000 0.500000 0.718783
O O13 0.687940 0.611589 0.656275
O O14 0.758371 0.581658 0.899036
O O15 0.567614 0.812652 0.972466
O O16 0.449216 0.250000 0.250000
#
# Coordination Sequence:
#
# PCOD8215894 Si02
#       7
#     8   8   8   8   8   8   8
#     4  10  21  40  65  86 123 170 207 250 305 384
#     4  10  20  38  65  94 118 162 216 246 303 373
#     4  11  20  40  67  89 122 163 212 256 296 370
#     4  11  26  41  59  93 131 160 199 262 322 360
#     4  11  24  38  66  96 122 160 204 268 309 359
#     4  10  21  39  61  90 121 166 206 242 311 379
#     4  11  22  39  65  90 120 171 212 243 304 379
#
# _framework density 19.655363000000001
#
# number of rings (size 3 to 8) (size 9 to 14) (size 15 to 20)
#    0.000    1.429    4.286    2.571    4.000    5.714 
#    0.000    0.000    3.143    0.000    0.000    0.000 
#    0.000    0.000    0.000    0.000    0.000    0.000 
#
# Total GULP energy -694009.497374 kJ/mol
# GULP energy per Si atom -12393.026739 kJ/mol
# Density = 1.961063 g / cm^3
# Si number density = 19.655363 Si / 1000 Ang^3
#
#
#
# Elastic Constant Matrix: (Units=GPa)
#
#
# Indices 1 2 3 4 5 6 
#
# 1 80.7784 29.5473 29.9308 0.0000 0.0000 0.0000
# 2 29.5473 112.7926 32.4309 0.0000 0.0000 0.0000
# 3 29.9308 32.4309 97.1788 0.0000 0.0000 0.0000
# 4 0.0000 0.0000 0.0000 28.8909 0.0000 0.0000
# 5 0.0000 0.0000 0.0000 0.0000 8.7963 0.0000
# 6 0.0000 0.0000 0.0000 0.0000 0.0000 15.2985
#
#
#
# Elastic Compliance Matrix: (Units=1/GPa)
#
#
# Indices 1 2 3 4 5 6 
#
# 1 0.014747 -0.002829 -0.003598 0.000000 0.000000 0.000000
# 2 -0.002829 0.010349 -0.002583 0.000000 0.000000 0.000000
# 3 -0.003598 -0.002583 0.012260 0.000000 0.000000 0.000000
# 4 0.000000 0.000000 0.000000 0.034613 0.000000 0.000000
# 5 0.000000 0.000000 0.000000 0.000000 0.113684 0.000000
# 6 0.000000 0.000000 0.000000 0.000000 0.000000 0.065366
#
#
# Mechanical properties :
#
#
# Convention : Reuss Voigt Hill
#
# Bulk Modulus (GPa) = 51.71081 52.72977 52.22029
# Shear Modulus (GPa) = 18.14981 23.85319 21.00150
#
# Velocity S-wave (km/s) = 3.04205 3.48741 3.27232
# Velocity P-wave (km/s) = 6.22130 6.56517 6.39555
#
# Compressibility (1/GPa) = 0.01933832
#
# Stress axis : x y z
#
# Youngs Moduli (GPa) = 67.80823 96.62383 81.56324
#
# Poissons Ratio (x) = 0.27332 0.29348
# Poissons Ratio (y) = 0.19181 0.21065
# Poissons Ratio (z) = 0.24399 0.24954
#
# Static dielectric constant tensor:
#      x y z
#    x 3.700590 0.000000 0.000000 
#    y 0.000000 3.954620 0.000000 
#    z 0.000000 0.000000 3.455010 
# 
# 
# High freq. dielectric constant tensor:
#      x y z
#    x 1.762680 0.000000 0.000000 
#    y 0.000000 1.789650 0.000000 
#    z 0.000000 0.000000 1.747260 
# 
# From -- ./inp_files/10805.got.cif
#   From: 2010.06.25/outbox.cif.g09.slc.cpg/sg52_6_cif.got.tgz:10805.got - 2010.06.26 19:32:48.
