data_PCOD8215915
_publ_section_title
;
Structure prediction by ZEFSAII (Michael W. Deem and Ramdas Pophale) SiO2 
 PCOD8215915
Probable space group: P N N A
;
_chemical_formula_sum "Si O2"
_cell_formula_units_Z 40
_cell_length_a 15.332539
_cell_length_b 24.880366
_cell_length_c 5.174914
_cell_angle_alpha 90.000000
_cell_angle_beta 90.000000
_cell_angle_gamma 90.000000
_cell_volume 1974.121960
_symmetry_space_group_name_H-M "P N N A"
_symmetry_group_IT_number 52
_symmetry_cell_setting 'orthorhombic'
loop_
_space_group_symop_operation_xyz
x,y,z
1/2-x,-y,z
x,1/2-y,1/2-z
1/2-x,1/2+y,1/2-z
-x,-y,-z
1/2+x,y,-z
-x,1/2+y,1/2+z
1/2+x,1/2-y,1/2+z
loop_
_atom_site_type_symbol
_atom_site_label
_atom_site_fract_x
_atom_site_fract_y
_atom_site_fract_z
Si Si1 0.592964 0.311226 0.672985
Si Si2 0.748671 0.377748 0.491245
Si Si3 0.973826 0.905686 0.541805
Si Si4 0.445120 0.373320 0.466229
Si Si5 0.793119 0.556563 0.988840
O O1 0.600714 0.250000 0.750000
O O2 0.681464 0.328796 0.528142
O O3 0.578915 0.348694 0.926706
O O4 0.508923 0.321251 0.485953
O O5 0.736509 0.401911 0.207866
O O6 0.845894 0.353752 0.515444
O O7 0.735258 0.423676 0.705667
O O8 0.038657 0.904722 0.300053
O O9 0.898887 0.950744 0.505237
O O10 0.031412 0.915082 0.800620
O O11 0.750000 0.500000 0.049520
#
# Coordination Sequence:
#
# PCOD8215915 Si02
#       5
#     8   8   8   8   8
#     4   9  21  40  61  87 119 162 196 243 307 356
#     4  11  22  40  62  89 123 158 201 255 291 364
#     4   9  19  39  58  80 124 151 193 251 298 345
#     4  10  20  39  60  84 123 154 196 247 303 343
#     4  11  21  40  64  88 119 163 201 248 308 362
#
# _framework density 20.262172
#
# number of rings (size 3 to 8) (size 9 to 14) (size 15 to 20)
#    1.200    0.800    2.000    1.800    0.000    0.800 
#    3.600    6.000    0.000    0.000    0.000    0.000 
#    0.000    0.000    0.000    0.000    0.000    0.000 
#
# Total GULP energy -495709.413633 kJ/mol
# GULP energy per Si atom -12392.735341 kJ/mol
# Density = 2.021605 g / cm^3
# Si number density = 20.262172 Si / 1000 Ang^3
#
#
#
# Elastic Constant Matrix: (Units=GPa)
#
#
# Indices 1 2 3 4 5 6 
#
# 1 151.4659 -2.0817 13.3149 0.0000 0.0000 0.0000
# 2 -2.0817 24.4881 -3.2494 0.0000 0.0000 0.0000
# 3 13.3149 -3.2494 105.8501 0.0000 0.0000 0.0000
# 4 0.0000 0.0000 0.0000 17.4873 0.0000 0.0000
# 5 0.0000 0.0000 0.0000 0.0000 32.0752 0.0000
# 6 0.0000 0.0000 0.0000 0.0000 0.0000 5.9741
#
#
#
# Elastic Compliance Matrix: (Units=1/GPa)
#
#
# Indices 1 2 3 4 5 6 
#
# 1 0.006681 0.000458 -0.000826 0.000000 0.000000 0.000000
# 2 0.000458 0.041035 0.001202 0.000000 0.000000 0.000000
# 3 -0.000826 0.001202 0.009588 0.000000 0.000000 0.000000
# 4 0.000000 0.000000 0.000000 0.057184 0.000000 0.000000
# 5 0.000000 0.000000 0.000000 0.000000 0.031177 0.000000
# 6 0.000000 0.000000 0.000000 0.000000 0.000000 0.167389
#
#
# Mechanical properties :
#
#
# Convention : Reuss Voigt Hill
#
# Bulk Modulus (GPa) = 16.95724 33.08574 25.02149
# Shear Modulus (GPa) = 15.10377 29.36201 22.23289
#
# Velocity S-wave (km/s) = 2.73319 3.81084 3.31609
# Velocity P-wave (km/s) = 4.28340 5.97726 5.19977
#
# Compressibility (1/GPa) = 0.05897187
#
# Stress axis : x y z
#
# Youngs Moduli (GPa) = 149.67622 24.36966 104.29516
#
# Poissons Ratio (x) = -0.01117 0.08618
# Poissons Ratio (y) = -0.06859 -0.12537
# Poissons Ratio (z) = 0.12368 -0.02929
#
# Static dielectric constant tensor:
#      x y z
#    x 3.825850 0.000000 0.000000 
#    y 0.000000 3.103340 0.000000 
#    z 0.000000 0.000000 3.698510 
# 
# 
# High freq. dielectric constant tensor:
#      x y z
#    x 1.806960 0.000000 0.000000 
#    y 0.000000 1.737840 0.000000 
#    z 0.000000 0.000000 1.803740 
# 
# From -- ./inp_files/2359.got.cif
#   From: 2010.06.25/outbox.cif.g09.slc.cpg/sg52_2_cif.got.tgz:2359.got - 2010.06.26 19:32:48.
