data_PCOD8215889
_publ_section_title
;
Structure prediction by ZEFSAII (Michael W. Deem and Ramdas Pophale) SiO2 
 PCOD8215889
Probable space group: P N N A
;
_chemical_formula_sum "Si O2"
_cell_formula_units_Z 48
_cell_length_a 9.761114
_cell_length_b 29.918294
_cell_length_c 8.305809
_cell_angle_alpha 90.000000
_cell_angle_beta 90.000000
_cell_angle_gamma 90.000000
_cell_volume 2425.594227
_symmetry_space_group_name_H-M "P N N A"
_symmetry_group_IT_number 52
_symmetry_cell_setting 'orthorhombic'
loop_
_space_group_symop_operation_xyz
x,y,z
1/2-x,-y,z
x,1/2-y,1/2-z
1/2-x,1/2+y,1/2-z
-x,-y,-z
1/2+x,y,-z
-x,1/2+y,1/2+z
1/2+x,1/2-y,1/2+z
loop_
_atom_site_type_symbol
_atom_site_label
_atom_site_fract_x
_atom_site_fract_y
_atom_site_fract_z
Si Si1 0.607519 0.676535 0.088284
Si Si2 0.199209 0.595495 0.127692
Si Si3 0.397141 0.705753 0.841156
Si Si4 0.521447 0.106242 0.806537
Si Si5 0.287773 0.050118 0.689601
Si Si6 0.946750 0.887613 0.177547
O O1 0.733677 0.709288 0.128771
O O2 0.554363 0.651575 0.249228
O O3 0.667476 0.641001 0.964047
O O4 0.482058 0.703705 0.008501
O O5 0.352380 0.596389 0.190798
O O6 0.093429 0.591036 0.275415
O O7 0.182455 0.554510 0.001917
O O8 0.446095 0.750000 0.750000
O O9 0.432769 0.663362 0.731567
O O10 0.420868 0.063795 0.792327
O O11 0.573570 0.111129 0.987185
O O12 0.166150 0.083644 0.731972
O O13 0.250000 0.000000 0.736734
#
# Coordination Sequence:
#
# PCOD8215889 Si02
#       6
#     8   8   8   8   8   8
#     4  10  20  42  62  91 127 171 206 257 311 375
#     4  10  20  38  65  86 124 166 208 252 312 384
#     4  11  23  42  66  93 130 167 218 260 310 382
#     4  11  21  39  67  91 129 166 206 264 322 376
#     4  11  23  41  64  91 125 169 217 259 317 391
#     4  11  23  40  63  95 126 166 210 265 327 373
#
# _framework density 19.788965999999999
#
# number of rings (size 3 to 8) (size 9 to 14) (size 15 to 20)
#    0.000    1.333    5.000    3.000    0.000    4.667 
#    3.000    2.500    0.000    0.000    0.000    0.000 
#    0.000    0.000    0.000    0.000    0.000    0.000 
#
# Total GULP energy -595306.271409 kJ/mol
# GULP energy per Si atom -12402.213988 kJ/mol
# Density = 1.974393 g / cm^3
# Si number density = 19.788966 Si / 1000 Ang^3
#
#
#
# Elastic Constant Matrix: (Units=GPa)
#
#
# Indices 1 2 3 4 5 6 
#
# 1 91.4977 8.1060 6.1311 0.0000 0.0000 0.0000
# 2 8.1060 81.6215 18.6420 0.0000 0.0000 0.0000
# 3 6.1311 18.6420 88.3225 0.0000 0.0000 0.0000
# 4 0.0000 0.0000 0.0000 16.6155 0.0000 0.0000
# 5 0.0000 0.0000 0.0000 0.0000 29.1781 0.0000
# 6 0.0000 0.0000 0.0000 0.0000 0.0000 6.5969
#
#
#
# Elastic Compliance Matrix: (Units=1/GPa)
#
#
# Indices 1 2 3 4 5 6 
#
# 1 0.011053 -0.000969 -0.000563 0.000000 0.000000 0.000000
# 2 -0.000969 0.012957 -0.002668 0.000000 0.000000 0.000000
# 3 -0.000563 -0.002668 0.011924 0.000000 0.000000 0.000000
# 4 0.000000 0.000000 0.000000 0.060185 0.000000 0.000000
# 5 0.000000 0.000000 0.000000 0.000000 0.034272 0.000000
# 6 0.000000 0.000000 0.000000 0.000000 0.000000 0.151586
#
#
# Mechanical properties :
#
#
# Convention : Reuss Voigt Hill
#
# Bulk Modulus (GPa) = 36.31690 36.35554 36.33622
# Shear Modulus (GPa) = 16.69146 25.71562 21.20354
#
# Velocity S-wave (km/s) = 2.90741 3.60876 3.27690
# Velocity P-wave (km/s) = 5.44634 5.98128 5.72007
#
# Compressibility (1/GPa) = 0.02753539
#
# Stress axis : x y z
#
# Youngs Moduli (GPa) = 90.47484 77.17730 83.86284
#
# Poissons Ratio (x) = 0.07480 0.04719
# Poissons Ratio (y) = 0.08769 0.22371
# Poissons Ratio (z) = 0.05091 0.20587
#
# Static dielectric constant tensor:
#      x y z
#    x 3.933750 0.000000 0.000000 
#    y 0.000000 3.444720 0.000000 
#    z 0.000000 0.000000 3.592240 
# 
# 
# High freq. dielectric constant tensor:
#      x y z
#    x 1.792590 0.000000 0.000000 
#    y 0.000000 1.745740 0.000000 
#    z 0.000000 0.000000 1.769510 
# 
# From -- ./inp_files/7678.got.cif
#   From: 2010.06.25/outbox.cif.g09.slc.cpg/sg52_4_cif.got.tgz:7678.got - 2010.06.26 19:32:48.
