data_PCOD8215136
_publ_section_title
;
Structure prediction by ZEFSAII (Michael W. Deem and Ramdas Pophale) SiO2 
 PCOD8215136
Probable space group: P N N A
;
_chemical_formula_sum "Si O2"
_cell_formula_units_Z 52
_cell_length_a 8.930972
_cell_length_b 10.317616
_cell_length_c 27.154772
_cell_angle_alpha 90.000000
_cell_angle_beta 90.000000
_cell_angle_gamma 90.000000
_cell_volume 2502.212843
_symmetry_space_group_name_H-M "P N N A"
_symmetry_group_IT_number 52
_symmetry_cell_setting 'orthorhombic'
loop_
_space_group_symop_operation_xyz
x,y,z
1/2-x,-y,z
x,1/2-y,1/2-z
1/2-x,1/2+y,1/2-z
-x,-y,-z
1/2+x,y,-z
-x,1/2+y,1/2+z
1/2+x,1/2-y,1/2+z
loop_
_atom_site_type_symbol
_atom_site_label
_atom_site_fract_x
_atom_site_fract_y
_atom_site_fract_z
Si Si1 0.750000 0.000000 0.498447
Si Si2 0.917178 0.329080 0.576731
Si Si3 0.243433 0.750000 0.750000
Si Si4 0.929839 0.881746 0.905036
Si Si5 0.002274 0.678888 0.977166
Si Si6 0.000879 0.224634 0.817703
Si Si7 0.745581 0.250000 0.750000
Si Si8 0.994871 0.923811 0.793811
O O1 0.662822 0.113033 0.528948
O O2 0.876738 0.067694 0.465674
O O3 0.971139 0.477650 0.572905
O O4 0.740438 0.338768 0.585808
O O5 0.970104 0.244416 0.530499
O O6 0.998947 0.264022 0.623590
O O7 0.350553 0.706725 0.795790
O O8 0.145024 0.871113 0.768170
O O9 0.974063 0.866053 0.848479
O O10 0.032477 0.784532 0.935771
O O11 0.850489 0.290032 0.796244
O O12 0.000035 0.077401 0.797124
O O13 0.645680 0.123938 0.761727
#
# Coordination Sequence:
#
# PCOD8215136 Si02
#       8
#     4   8   4   8   8   8   4   8
#     4  10  24  38  62  78 120 194 188 236 288 350
#     4  10  20  37  66  98 117 149 197 265 311 352
#     4  10  22  36  58  82 122 158 186 236 298 354
#     4  10  20  37  66  98 117 149 197 265 311 352
#     4  11  21  42  64  88 127 161 210 238 292 373
#     4  10  20  37  62  86 118 151 193 243 308 346
#     4  10  18  32  62  82 110 154 186 236 290 358
#     4  10  20  37  62  86 118 151 193 243 308 346
#
# _framework density 20.781604999999999
#
# number of rings (size 3 to 8) (size 9 to 14) (size 15 to 20)
#    0.000    1.846    3.077    1.385    0.000    1.231 
#    0.000    1.538   67.692    0.000    0.000    0.000 
#    0.000    0.000    0.000    0.000    0.000    0.000 
#
# Total GULP energy -644432.602198 kJ/mol
# GULP energy per Si atom -12392.934658 kJ/mol
# Density = 2.073431 g / cm^3
# Si number density = 20.781605 Si / 1000 Ang^3
#
#
#
# Elastic Constant Matrix: (Units=GPa)
#
#
# Indices 1 2 3 4 5 6 
#
# 1 103.9019 29.6635 39.5881 0.0000 0.0000 0.0000
# 2 29.6635 78.8056 62.1498 0.0000 0.0000 0.0000
# 3 39.5881 62.1498 123.5288 0.0000 0.0000 0.0000
# 4 0.0000 0.0000 0.0000 34.3815 0.0000 0.0000
# 5 0.0000 0.0000 0.0000 0.0000 17.0174 0.0000
# 6 0.0000 0.0000 0.0000 0.0000 0.0000 26.2851
#
#
#
# Elastic Compliance Matrix: (Units=1/GPa)
#
#
# Indices 1 2 3 4 5 6 
#
# 1 0.011209 -0.002298 -0.002436 0.000000 0.000000 0.000000
# 2 -0.002298 0.021507 -0.010084 0.000000 0.000000 0.000000
# 3 -0.002436 -0.010084 0.013950 0.000000 0.000000 0.000000
# 4 0.000000 0.000000 0.000000 0.029085 0.000000 0.000000
# 5 0.000000 0.000000 0.000000 0.000000 0.058763 0.000000
# 6 0.000000 0.000000 0.000000 0.000000 0.000000 0.038044
#
#
# Mechanical properties :
#
#
# Convention : Reuss Voigt Hill
#
# Bulk Modulus (GPa) = 58.72308 63.22658 60.97483
# Shear Modulus (GPa) = 24.05328 27.19246 25.62287
#
# Velocity S-wave (km/s) = 3.40580 3.62123 3.51516
# Velocity P-wave (km/s) = 6.61699 6.92638 6.77345
#
# Compressibility (1/GPa) = 0.01702908
#
# Stress axis : x y z
#
# Youngs Moduli (GPa) = 89.21680 46.49548 71.68668
#
# Poissons Ratio (x) = 0.10685 0.17462
# Poissons Ratio (y) = 0.20502 0.72292
# Poissons Ratio (z) = 0.21733 0.46888
#
# Static dielectric constant tensor:
#      x y z
#    x 3.962850 0.000000 0.000000 
#    y 0.000000 3.893910 0.000000 
#    z 0.000000 0.000000 3.698700 
# 
# 
# High freq. dielectric constant tensor:
#      x y z
#    x 1.823240 0.000000 0.000000 
#    y 0.000000 1.808610 0.000000 
#    z 0.000000 0.000000 1.797040 
# 
# From -- ./inp_files/42304.got.cif
#   From: 2010.06.25/outbox.cif.g09.slc.cpg/sg52_22_cif.got.tgz:42304.got - 2010.06.26 19:32:48.
