data_PCOD8215315
_publ_section_title
;
Structure prediction by ZEFSAII (Michael W. Deem and Ramdas Pophale) SiO2 
 PCOD8215315
Probable space group: P N N A
;
_chemical_formula_sum "Si O2"
_cell_formula_units_Z 60
_cell_length_a 19.573258
_cell_length_b 29.058047
_cell_length_c 5.187400
_cell_angle_alpha 90.000000
_cell_angle_beta 90.000000
_cell_angle_gamma 90.000000
_cell_volume 2950.389001
_symmetry_space_group_name_H-M "P N N A"
_symmetry_group_IT_number 52
_symmetry_cell_setting 'orthorhombic'
loop_
_space_group_symop_operation_xyz
x,y,z
1/2-x,-y,z
x,1/2-y,1/2-z
1/2-x,1/2+y,1/2-z
-x,-y,-z
1/2+x,y,-z
-x,1/2+y,1/2+z
1/2+x,1/2-y,1/2+z
loop_
_atom_site_type_symbol
_atom_site_label
_atom_site_fract_x
_atom_site_fract_y
_atom_site_fract_z
Si Si1 0.200754 0.458247 0.966139
Si Si2 0.283662 0.840028 0.092928
Si Si3 0.520994 0.750000 0.250000
Si Si4 0.401142 0.788285 0.929220
Si Si5 0.364871 0.566953 0.467008
Si Si6 0.782752 0.136432 0.412130
Si Si7 0.937623 0.349254 0.155361
Si Si8 0.480520 0.873189 0.839393
O O1 0.250000 0.500000 0.034305
O O2 0.141067 0.457712 0.187414
O O3 0.164481 0.466177 0.690665
O O4 0.246073 0.412405 0.942561
O O5 0.230466 0.834958 0.326240
O O6 0.343062 0.801608 0.137438
O O7 0.316895 0.889741 0.080400
O O8 0.245250 0.832562 0.822295
O O9 0.472046 0.730810 0.468638
O O10 0.564286 0.707083 0.131189
O O11 0.367244 0.750000 0.750000
O O12 0.421144 0.835485 0.783729
O O13 0.441403 0.580755 0.562125
O O14 0.862914 0.129522 0.370428
O O15 0.966485 0.360557 0.436821
O O16 0.981366 0.375747 0.935208
#
# Coordination Sequence:
#
# PCOD8215315 Si02
#       8
#     8   8   4   8   8   8   8   8
#     4  10  19  34  59  84 110 143 179 229 282 335
#     4   9  20  34  54  74 105 136 173 220 275 309
#     4  10  22  34  52  80 102 140 186 232 258 316
#     4  10  19  33  54  76 104 129 182 233 264 306
#     4   9  18  33  55  84 110 132 181 229 268 321
#     4  10  21  38  53  79 109 145 178 216 274 351
#     4  11  21  36  56  74 109 147 185 216 270 333
#     4  10  20  34  57  81 103 149 181 226 270 313
#
# _framework density 20.336300000000001
#
# number of rings (size 3 to 8) (size 9 to 14) (size 15 to 20)
#    0.000    2.133    1.333    2.000    1.867    3.200 
#    1.200    0.000    0.000    4.800    0.000    0.000 
#    0.000    0.000    0.000    0.000    0.000    0.000 
#
# Total GULP energy -743339.232417 kJ/mol
# GULP energy per Si atom -12388.987207 kJ/mol
# Density = 2.029001 g / cm^3
# Si number density = 20.336300 Si / 1000 Ang^3
#
#
#
# Elastic Constant Matrix: (Units=GPa)
#
#
# Indices 1 2 3 4 5 6 
#
# 1 74.4832 5.1227 24.0314 0.0000 0.0000 0.0000
# 2 5.1227 24.6750 14.3843 0.0000 0.0000 0.0000
# 3 24.0314 14.3843 127.3232 0.0000 0.0000 0.0000
# 4 0.0000 0.0000 0.0000 17.4467 0.0000 0.0000
# 5 0.0000 0.0000 0.0000 0.0000 33.3297 0.0000
# 6 0.0000 0.0000 0.0000 0.0000 0.0000 16.4790
#
#
#
# Elastic Compliance Matrix: (Units=1/GPa)
#
#
# Indices 1 2 3 4 5 6 
#
# 1 0.014348 -0.001499 -0.002539 0.000000 0.000000 0.000000
# 2 -0.001499 0.043541 -0.004636 0.000000 0.000000 0.000000
# 3 -0.002539 -0.004636 0.008857 0.000000 0.000000 0.000000
# 4 0.000000 0.000000 0.000000 0.057317 0.000000 0.000000
# 5 0.000000 0.000000 0.000000 0.000000 0.030003 0.000000
# 6 0.000000 0.000000 0.000000 0.000000 0.000000 0.060683
#
#
# Mechanical properties :
#
#
# Convention : Reuss Voigt Hill
#
# Bulk Modulus (GPa) = 20.24360 34.83981 27.54171
# Shear Modulus (GPa) = 20.11561 25.64726 22.88144
#
# Velocity S-wave (km/s) = 3.14848 3.55513 3.35797
# Velocity P-wave (km/s) = 4.81594 5.83275 5.34856
#
# Compressibility (1/GPa) = 0.04939832
#
# Stress axis : x y z
#
# Youngs Moduli (GPa) = 69.69595 22.96705 112.90546
#
# Poissons Ratio (x) = 0.03442 0.28664
# Poissons Ratio (y) = 0.10446 0.52344
# Poissons Ratio (z) = 0.17694 0.10648
#
# Static dielectric constant tensor:
#      x y z
#    x 3.539780 0.000000 0.000000 
#    y 0.000000 3.573310 0.000000 
#    z 0.000000 0.000000 3.398980 
# 
# 
# High freq. dielectric constant tensor:
#      x y z
#    x 1.780260 0.000000 0.000000 
#    y 0.000000 1.759380 0.000000 
#    z 0.000000 0.000000 1.807850 
# 
# From -- ./inp_files/3647.got.cif
#   From: 2010.06.25/outbox.cif.g09.slc.cpg/sg52_2_cif.got.tgz:3647.got - 2010.06.26 19:32:48.
