data_PCOD8215900
_publ_section_title
;
Structure prediction by ZEFSAII (Michael W. Deem and Ramdas Pophale) SiO2 
 PCOD8215900
Probable space group: P N N A
;
_chemical_formula_sum "Si O2"
_cell_formula_units_Z 28
_cell_length_a 30.834483
_cell_length_b 4.935969
_cell_length_c 8.614467
_cell_angle_alpha 90.000000
_cell_angle_beta 90.000000
_cell_angle_gamma 90.000000
_cell_volume 1311.105098
_symmetry_space_group_name_H-M "P N N A"
_symmetry_group_IT_number 52
_symmetry_cell_setting 'orthorhombic'
loop_
_space_group_symop_operation_xyz
x,y,z
1/2-x,-y,z
x,1/2-y,1/2-z
1/2-x,1/2+y,1/2-z
-x,-y,-z
1/2+x,y,-z
-x,1/2+y,1/2+z
1/2+x,1/2-y,1/2+z
loop_
_atom_site_type_symbol
_atom_site_label
_atom_site_fract_x
_atom_site_fract_y
_atom_site_fract_z
Si Si1 0.380054 0.739371 0.933229
Si Si2 0.336189 0.244691 0.067983
Si Si3 0.025388 0.246594 0.066019
Si Si4 0.250000 0.500000 0.145810
O O1 0.382830 0.750000 0.750000
O O2 0.369205 0.433196 0.977313
O O3 0.426028 0.797882 0.008253
O O4 0.343139 0.943858 0.999376
O O5 0.346636 0.250000 0.250000
O O6 0.287477 0.362066 0.041130
O O7 0.025206 0.250000 0.250000
O O8 0.000000 0.500000 0.000000
O O9 0.000000 0.000000 0.000000
O O10 0.230641 0.250000 0.250000
#
# Coordination Sequence:
#
# PCOD8215900 Si02
#       4
#     8   8   8   4
#     4  12  25  42  63  95 132 170 211 263 322 382
#     4  11  22  41  67  94 124 167 217 265 316 383
#     4  12  25  44  67  95 129 170 214 264 318 380
#     4  10  20  38  66  98 126 162 214 270 322 382
#
# _framework density 21.356031000000002
#
# number of rings (size 3 to 8) (size 9 to 14) (size 15 to 20)
#    0.000    0.571    0.000   11.143    0.000    0.000 
#    0.000    2.857    0.000    1.714    0.000    0.000 
#    0.000    0.000    0.000    0.000    0.000    0.000 
#
# Total GULP energy -347168.351804 kJ/mol
# GULP energy per Si atom -12398.869707 kJ/mol
# Density = 2.130742 g / cm^3
# Si number density = 21.356031 Si / 1000 Ang^3
#
#
#
# Elastic Constant Matrix: (Units=GPa)
#
#
# Indices 1 2 3 4 5 6 
#
# 1 128.5273 27.6601 44.5210 0.0000 0.0000 0.0000
# 2 27.6601 115.7858 37.0200 0.0000 0.0000 0.0000
# 3 44.5210 37.0200 189.1191 0.0000 0.0000 0.0000
# 4 0.0000 0.0000 0.0000 45.5706 0.0000 0.0000
# 5 0.0000 0.0000 0.0000 0.0000 29.2806 0.0000
# 6 0.0000 0.0000 0.0000 0.0000 0.0000 17.9323
#
#
#
# Elastic Compliance Matrix: (Units=1/GPa)
#
#
# Indices 1 2 3 4 5 6 
#
# 1 0.008715 -0.001521 -0.001754 0.000000 0.000000 0.000000
# 2 -0.001521 0.009479 -0.001497 0.000000 0.000000 0.000000
# 3 -0.001754 -0.001497 0.005994 0.000000 0.000000 0.000000
# 4 0.000000 0.000000 0.000000 0.021944 0.000000 0.000000
# 5 0.000000 0.000000 0.000000 0.000000 0.034152 0.000000
# 6 0.000000 0.000000 0.000000 0.000000 0.000000 0.055765
#
#
# Mechanical properties :
#
#
# Convention : Reuss Voigt Hill
#
# Bulk Modulus (GPa) = 68.29290 72.42605 70.35947
# Shear Modulus (GPa) = 33.22799 40.17209 36.70004
#
# Velocity S-wave (km/s) = 3.94878 4.34183 4.14996
# Velocity P-wave (km/s) = 7.26899 7.68912 7.48200
#
# Compressibility (1/GPa) = 0.01464281
#
# Stress axis : x y z
#
# Youngs Moduli (GPa) = 114.73974 105.49872 166.84248
#
# Poissons Ratio (x) = 0.16049 0.29263
# Poissons Ratio (y) = 0.17455 0.24982
# Poissons Ratio (z) = 0.20125 0.15797
#
# Static dielectric constant tensor:
#      x y z
#    x 4.006810 0.000000 0.000000 
#    y 0.000000 4.272870 0.000000 
#    z 0.000000 0.000000 3.990380 
# 
# 
# High freq. dielectric constant tensor:
#      x y z
#    x 1.848630 0.000000 0.000000 
#    y 0.000000 1.866750 0.000000 
#    z 0.000000 0.000000 1.832250 
# 
# From -- ./inp_files/15131.got.cif
#   From: 2010.06.25/outbox.cif.g09.slc.cpg/sg52_8_cif.got.tgz:15131.got - 2010.06.26 19:32:48.
