data_PCOD8215720
_publ_section_title
;
Structure prediction by ZEFSAII (Michael W. Deem and Ramdas Pophale) SiO2 
 PCOD8215720
Probable space group: P N N A
;
_chemical_formula_sum "Si O2"
_cell_formula_units_Z 64
_cell_length_a 10.206751
_cell_length_b 18.006831
_cell_length_c 17.314346
_cell_angle_alpha 90.000000
_cell_angle_beta 90.000000
_cell_angle_gamma 90.000000
_cell_volume 3182.225127
_symmetry_space_group_name_H-M "P N N A"
_symmetry_group_IT_number 52
_symmetry_cell_setting 'orthorhombic'
loop_
_space_group_symop_operation_xyz
x,y,z
1/2-x,-y,z
x,1/2-y,1/2-z
1/2-x,1/2+y,1/2-z
-x,-y,-z
1/2+x,y,-z
-x,1/2+y,1/2+z
1/2+x,1/2-y,1/2+z
loop_
_atom_site_type_symbol
_atom_site_label
_atom_site_fract_x
_atom_site_fract_y
_atom_site_fract_z
Si Si1 0.060120 0.970371 0.312711
Si Si2 0.873245 0.456351 0.478582
Si Si3 0.886526 0.541588 0.047330
Si Si4 0.879596 0.468452 0.297868
Si Si5 0.678110 0.298506 0.983865
Si Si6 0.068984 0.707634 0.531904
Si Si7 0.989735 0.179413 0.209491
Si Si8 0.304295 0.875657 0.322528
O O1 0.153522 0.898615 0.308986
O O2 0.933885 0.954135 0.364757
O O3 0.126004 0.046395 0.344496
O O4 0.006089 0.982087 0.225299
O O5 0.750000 0.500000 0.516961
O O6 0.860696 0.460899 0.387807
O O7 0.884516 0.370473 0.506447
O O8 0.000000 0.500000 0.500000
O O9 0.750000 0.500000 0.037435
O O10 0.861561 0.625036 0.022170
O O11 0.000000 0.500000 0.000000
O O12 0.750000 0.500000 0.258372
O O13 0.897973 0.387098 0.262135
O O14 0.562731 0.240498 0.006141
O O15 0.687611 0.314928 0.891536
O O16 0.813016 0.266532 0.020450
O O17 0.019439 0.691234 0.618491
O O18 0.927324 0.250000 0.250000
O O19 0.135918 0.162088 0.244653
#
# Coordination Sequence:
#
# PCOD8215720 Si02
#       8
#     8   8   8   8   8   8   8   8
#     4  10  20  36  57  90 120 165 217 257 303 373
#     4  10  21  43  65  88 116 149 203 271 333 387
#     4  12  23  36  59  93 137 179 219 257 313 378
#     4   9  20  37  60  87 120 155 200 259 319 378
#     4  12  23  38  60  93 131 169 213 262 314 384
#     4  11  24  40  63  94 122 164 214 267 333 391
#     4  10  20  39  62  83 119 169 210 253 324 393
#     4  10  20  37  60  84 125 165 215 263 304 380
#
# _framework density 20.111715
#
# number of rings (size 3 to 8) (size 9 to 14) (size 15 to 20)
#    0.000    1.500    2.500    3.375    0.000    1.000 
#    9.000    0.000    0.000    0.750    0.000    0.000 
#    0.000    0.000    0.000    0.000    0.000    0.000 
#
# Total GULP energy -792917.763188 kJ/mol
# GULP energy per Si atom -12389.340050 kJ/mol
# Density = 2.006594 g / cm^3
# Si number density = 20.111715 Si / 1000 Ang^3
#
#
#
# Elastic Constant Matrix: (Units=GPa)
#
#
# Indices 1 2 3 4 5 6 
#
# 1 148.9199 66.9392 26.0769 0.0000 0.0000 0.0000
# 2 66.9392 132.7597 23.8966 0.0000 0.0000 0.0000
# 3 26.0769 23.8966 28.7420 0.0000 0.0000 0.0000
# 4 0.0000 0.0000 0.0000 14.4124 0.0000 0.0000
# 5 0.0000 0.0000 0.0000 0.0000 29.2835 0.0000
# 6 0.0000 0.0000 0.0000 0.0000 0.0000 40.8853
#
#
#
# Elastic Compliance Matrix: (Units=1/GPa)
#
#
# Indices 1 2 3 4 5 6 
#
# 1 0.009336 -0.003743 -0.005358 0.000000 0.000000 0.000000
# 2 -0.003743 0.010358 -0.005217 0.000000 0.000000 0.000000
# 3 -0.005358 -0.005217 0.043991 0.000000 0.000000 0.000000
# 4 0.000000 0.000000 0.000000 0.069385 0.000000 0.000000
# 5 0.000000 0.000000 0.000000 0.000000 0.034149 0.000000
# 6 0.000000 0.000000 0.000000 0.000000 0.000000 0.024459
#
#
# Mechanical properties :
#
#
# Convention : Reuss Voigt Hill
#
# Bulk Modulus (GPa) = 28.53077 60.47191 44.50134
# Shear Modulus (GPa) = 21.55211 29.81681 25.68446
#
# Velocity S-wave (km/s) = 3.27711 3.85458 3.57752
# Velocity P-wave (km/s) = 5.34193 7.06708 6.26418
#
# Compressibility (1/GPa) = 0.03504988
#
# Stress axis : x y z
#
# Youngs Moduli (GPa) = 107.11685 96.53919 22.73201
#
# Poissons Ratio (x) = 0.36131 0.12180
# Poissons Ratio (y) = 0.40090 0.11858
# Poissons Ratio (z) = 0.57396 0.50361
#
# Static dielectric constant tensor:
#      x y z
#    x 3.955010 0.000000 0.000000 
#    y 0.000000 4.009260 0.000000 
#    z 0.000000 0.000000 3.511260 
# 
# 
# High freq. dielectric constant tensor:
#      x y z
#    x 1.789520 0.000000 0.000000 
#    y 0.000000 1.796630 0.000000 
#    z 0.000000 0.000000 1.767490 
# 
# From -- ./inp_files/36193.got.cif
#   From: 2010.06.25/outbox.cif.g09.slc.cpg/sg52_19_cif.got.tgz:36193.got - 2010.06.26 19:32:48.
