data_PCOD8215733
_publ_section_title
;
Structure prediction by ZEFSAII (Michael W. Deem and Ramdas Pophale) SiO2 
 PCOD8215733
Probable space group: P N N A
;
_chemical_formula_sum "Si O2"
_cell_formula_units_Z 40
_cell_length_a 21.367066
_cell_length_b 8.536539
_cell_length_c 11.248307
_cell_angle_alpha 90.000000
_cell_angle_beta 90.000000
_cell_angle_gamma 90.000000
_cell_volume 2051.700108
_symmetry_space_group_name_H-M "P N N A"
_symmetry_group_IT_number 52
_symmetry_cell_setting 'orthorhombic'
loop_
_space_group_symop_operation_xyz
x,y,z
1/2-x,-y,z
x,1/2-y,1/2-z
1/2-x,1/2+y,1/2-z
-x,-y,-z
1/2+x,y,-z
-x,1/2+y,1/2+z
1/2+x,1/2-y,1/2+z
loop_
_atom_site_type_symbol
_atom_site_label
_atom_site_fract_x
_atom_site_fract_y
_atom_site_fract_z
Si Si1 0.921085 0.924075 0.494262
Si Si2 0.553358 0.079921 0.921932
Si Si3 0.183877 0.573821 0.111522
Si Si4 0.989342 0.080573 0.695556
Si Si5 0.180444 0.571725 0.381446
O O1 0.944372 0.762125 0.550059
O O2 0.938711 0.934677 0.353552
O O3 0.848127 0.958660 0.514512
O O4 0.950921 0.066355 0.572279
O O5 0.530222 0.054925 0.786627
O O6 0.623631 0.014976 0.950377
O O7 0.500000 0.000000 0.000000
O O8 0.250000 0.500000 0.127934
O O9 0.155571 0.566798 0.245015
O O10 0.185382 0.752574 0.067956
O O11 0.976159 0.250000 0.750000
O O12 0.250000 0.500000 0.399901
#
# Coordination Sequence:
#
# PCOD8215733 Si02
#       5
#     8   8   8   8   8
#     4  11  23  36  61  86 121 161 197 247 306 354
#     4  12  23  37  61  89 125 160 196 248 298 357
#     4  10  20  36  59  84 118 157 198 247 300 358
#     4  11  22  39  55  86 122 157 199 244 298 357
#     4  10  21  36  57  85 123 156 195 248 301 357
#
# _framework density 19.496024999999999
#
# number of rings (size 3 to 8) (size 9 to 14) (size 15 to 20)
#    0.000    1.200    4.000    3.000    2.800    1.600 
#    0.000    0.000    0.000    1.200    0.000    0.000 
#    0.000    0.000    0.000    0.000    0.000    0.000 
#
# Total GULP energy -495574.962542 kJ/mol
# GULP energy per Si atom -12389.374064 kJ/mol
# Density = 1.945165 g / cm^3
# Si number density = 19.496025 Si / 1000 Ang^3
#
#
#
# Elastic Constant Matrix: (Units=GPa)
#
#
# Indices 1 2 3 4 5 6 
#
# 1 91.7686 43.7165 34.5426 0.0000 0.0000 0.0000
# 2 43.7165 121.4552 34.2437 0.0000 0.0000 0.0000
# 3 34.5426 34.2437 60.6739 0.0000 0.0000 0.0000
# 4 0.0000 0.0000 0.0000 23.1052 0.0000 0.0000
# 5 0.0000 0.0000 0.0000 0.0000 23.2007 0.0000
# 6 0.0000 0.0000 0.0000 0.0000 0.0000 35.9618
#
#
#
# Elastic Compliance Matrix: (Units=1/GPa)
#
#
# Indices 1 2 3 4 5 6 
#
# 1 0.015070 -0.003574 -0.006562 0.000000 0.000000 0.000000
# 2 -0.003574 0.010639 -0.003970 0.000000 0.000000 0.000000
# 3 -0.006562 -0.003970 0.022458 0.000000 0.000000 0.000000
# 4 0.000000 0.000000 0.000000 0.043280 0.000000 0.000000
# 5 0.000000 0.000000 0.000000 0.000000 0.043102 0.000000
# 6 0.000000 0.000000 0.000000 0.000000 0.000000 0.027807
#
#
# Mechanical properties :
#
#
# Convention : Reuss Voigt Hill
#
# Bulk Modulus (GPa) = 50.11367 55.43371 52.77369
# Shear Modulus (GPa) = 25.35233 27.21320 26.28277
#
# Velocity S-wave (km/s) = 3.61000 3.74014 3.67564
# Velocity P-wave (km/s) = 6.56784 6.86634 6.71874
#
# Compressibility (1/GPa) = 0.01995464
#
# Stress axis : x y z
#
# Youngs Moduli (GPa) = 66.35869 93.99203 44.52730
#
# Poissons Ratio (x) = 0.33592 0.29220
# Poissons Ratio (y) = 0.23716 0.17677
# Poissons Ratio (z) = 0.43546 0.37314
#
# Static dielectric constant tensor:
#      x y z
#    x 3.918620 0.000000 0.000000 
#    y 0.000000 3.510110 0.000000 
#    z 0.000000 0.000000 3.729910 
# 
# 
# High freq. dielectric constant tensor:
#      x y z
#    x 1.768540 0.000000 0.000000 
#    y 0.000000 1.772800 0.000000 
#    z 0.000000 0.000000 1.717030 
# 
# From -- ./inp_files/21449.got.cif
#   From: 2010.06.25/outbox.cif.g09.slc.cpg/sg52_11_cif.got.tgz:21449.got - 2010.06.26 19:32:48.
