data_PCOD8215430
_publ_section_title
;
Structure prediction by ZEFSAII (Michael W. Deem and Ramdas Pophale) SiO2 
 PCOD8215430
Probable space group: P N N A
;
_chemical_formula_sum "Si O2"
_cell_formula_units_Z 40
_cell_length_a 9.029866
_cell_length_b 21.638021
_cell_length_c 8.233783
_cell_angle_alpha 90.000000
_cell_angle_beta 90.000000
_cell_angle_gamma 90.000000
_cell_volume 1608.785934
_symmetry_space_group_name_H-M "P N N A"
_symmetry_group_IT_number 52
_symmetry_cell_setting 'orthorhombic'
loop_
_space_group_symop_operation_xyz
x,y,z
1/2-x,-y,z
x,1/2-y,1/2-z
1/2-x,1/2+y,1/2-z
-x,-y,-z
1/2+x,y,-z
-x,1/2+y,1/2+z
1/2+x,1/2-y,1/2+z
loop_
_atom_site_type_symbol
_atom_site_label
_atom_site_fract_x
_atom_site_fract_y
_atom_site_fract_z
Si Si1 0.445987 0.360216 0.624451
Si Si2 0.748782 0.291141 0.602031
Si Si3 0.423128 0.018338 0.728203
Si Si4 0.734527 0.329143 0.077263
Si Si5 0.951523 0.405843 0.906719
O O1 0.604035 0.329195 0.649947
O O2 0.375650 0.339094 0.453083
O O3 0.453818 0.435491 0.620215
O O4 0.345689 0.338282 0.774152
O O5 0.807588 0.250000 0.750000
O O6 0.716203 0.243498 0.455448
O O7 0.475381 0.057383 0.573122
O O8 0.250000 0.000000 0.715338
O O9 0.527569 0.956909 0.737546
O O10 0.575284 0.354396 0.121636
O O11 0.796857 0.367876 0.917928
#
# Coordination Sequence:
#
# PCOD8215430 Si02
#       5
#     8   8   8   8   8
#     4  11  25  45  69 101 138 181 231 296 353 417
#     4  12  25  44  67  97 138 182 231 287 355 422
#     4  10  19  40  67 100 146 182 227 286 348 417
#     4  11  22  42  73 105 138 177 234 298 350 413
#     4  10  19  35  69 105 133 181 231 276 348 412
#
# _framework density 24.863471000000001
#
# number of rings (size 3 to 8) (size 9 to 14) (size 15 to 20)
#    0.000    1.200    4.000    5.400    0.000    3.200 
#    0.000    1.000    0.000    0.000    0.000    0.000 
#    0.000    0.000    0.000    0.000    0.000    0.000 
#
# Total GULP energy -495784.445969 kJ/mol
# GULP energy per Si atom -12394.611149 kJ/mol
# Density = 2.480688 g / cm^3
# Si number density = 24.863471 Si / 1000 Ang^3
#
#
#
# Elastic Constant Matrix: (Units=GPa)
#
#
# Indices 1 2 3 4 5 6 
#
# 1 70.6502 49.3503 30.5662 0.0000 0.0000 0.0000
# 2 49.3503 133.8357 17.0918 0.0000 0.0000 0.0000
# 3 30.5662 17.0918 56.7625 0.0000 0.0000 0.0000
# 4 0.0000 0.0000 0.0000 30.8937 0.0000 0.0000
# 5 0.0000 0.0000 0.0000 0.0000 32.7602 0.0000
# 6 0.0000 0.0000 0.0000 0.0000 0.0000 43.2882
#
#
#
# Elastic Compliance Matrix: (Units=1/GPa)
#
#
# Indices 1 2 3 4 5 6 
#
# 1 0.024000 -0.007487 -0.010670 0.000000 0.000000 0.000000
# 2 -0.007487 0.010106 0.000989 0.000000 0.000000 0.000000
# 3 -0.010670 0.000989 0.023065 0.000000 0.000000 0.000000
# 4 0.000000 0.000000 0.000000 0.032369 0.000000 0.000000
# 5 0.000000 0.000000 0.000000 0.000000 0.030525 0.000000
# 6 0.000000 0.000000 0.000000 0.000000 0.000000 0.023101
#
#
# Mechanical properties :
#
#
# Convention : Reuss Voigt Hill
#
# Bulk Modulus (GPa) = 43.79132 50.58501 47.18816
# Shear Modulus (GPa) = 27.01029 32.33775 29.67402
#
# Velocity S-wave (km/s) = 3.29955 3.61031 3.45842
# Velocity P-wave (km/s) = 5.67159 6.14560 5.91335
#
# Compressibility (1/GPa) = 0.02283558
#
# Stress axis : x y z
#
# Youngs Moduli (GPa) = 41.66614 98.94696 43.35572
#
# Poissons Ratio (x) = 0.74084 0.46258
# Poissons Ratio (y) = 0.31196 -0.04287
# Poissons Ratio (z) = 0.44456 -0.09783
#
# Static dielectric constant tensor:
#      x y z
#    x 4.314570 0.000000 0.000000 
#    y 0.000000 5.614670 0.000000 
#    z 0.000000 0.000000 4.385870 
# 
# 
# High freq. dielectric constant tensor:
#      x y z
#    x 1.976780 0.000000 0.000000 
#    y 0.000000 2.020300 0.000000 
#    z 0.000000 0.000000 1.964150 
# 
# From -- ./inp_files/7416.got.cif
#   From: 2010.06.25/outbox.cif.g09.slc.cpg/sg52_4_cif.got.tgz:7416.got - 2010.06.26 19:32:48.
