data_PCOD8215483
_publ_section_title
;
Structure prediction by ZEFSAII (Michael W. Deem and Ramdas Pophale) SiO2 
 PCOD8215483
Probable space group: P N N A
;
_chemical_formula_sum "Si O2"
_cell_formula_units_Z 44
_cell_length_a 8.844310
_cell_length_b 8.077482
_cell_length_c 30.546312
_cell_angle_alpha 90.000000
_cell_angle_beta 90.000000
_cell_angle_gamma 90.000000
_cell_volume 2182.221040
_symmetry_space_group_name_H-M "P N N A"
_symmetry_group_IT_number 52
_symmetry_cell_setting 'orthorhombic'
loop_
_space_group_symop_operation_xyz
x,y,z
1/2-x,-y,z
x,1/2-y,1/2-z
1/2-x,1/2+y,1/2-z
-x,-y,-z
1/2+x,y,-z
-x,1/2+y,1/2+z
1/2+x,1/2-y,1/2+z
loop_
_atom_site_type_symbol
_atom_site_label
_atom_site_fract_x
_atom_site_fract_y
_atom_site_fract_z
Si Si1 0.131517 0.636764 0.288366
Si Si2 0.423878 0.948538 0.562768
Si Si3 0.250000 0.000000 0.003440
Si Si4 0.003209 0.233224 0.017532
Si Si5 0.414024 0.434473 0.767584
Si Si6 0.085353 0.566036 0.152381
O O1 0.250000 0.500000 0.303374
O O2 0.206105 0.750000 0.250000
O O3 0.092752 0.747161 0.330016
O O4 0.978526 0.553473 0.270331
O O5 0.468923 0.789596 0.533174
O O6 0.469667 0.917678 0.612423
O O7 0.250000 0.000000 0.557846
O O8 0.520504 0.107071 0.547492
O O9 0.155705 0.863347 0.975485
O O10 0.367770 0.896291 0.032719
O O11 0.250000 0.500000 0.780957
O O12 0.406382 0.250000 0.750000
O O13 0.520091 0.442295 0.810624
O O14 0.250000 0.500000 0.137898
#
# Coordination Sequence:
#
# PCOD8215483 Si02
#       6
#     8   8   4   8   8   8
#     4  10  19  37  61  87 119 158 204 252 301 362
#     4  11  23  41  63  90 127 168 206 249 310 379
#     4  10  20  40  64  94 120 150 208 254 308 360
#     4  10  22  40  68  92 121 166 204 253 309 373
#     4  11  21  38  64  89 120 161 205 251 308 370
#     4  11  24  38  60  89 123 164 206 254 303 361
#
# _framework density 20.162945000000001
#
# number of rings (size 3 to 8) (size 9 to 14) (size 15 to 20)
#    0.000    1.455    1.818    6.000    2.545    0.000 
#    1.636    3.636    4.000    0.000    0.000    0.000 
#    0.000    0.000    0.000    0.000    0.000    0.000 
#
# Total GULP energy -545532.536258 kJ/mol
# GULP energy per Si atom -12398.466733 kJ/mol
# Density = 2.011705 g / cm^3
# Si number density = 20.162945 Si / 1000 Ang^3
#
#
#
# Elastic Constant Matrix: (Units=GPa)
#
#
# Indices 1 2 3 4 5 6 
#
# 1 95.0701 32.9535 20.5924 0.0000 0.0000 0.0000
# 2 32.9535 125.3782 44.9101 0.0000 0.0000 0.0000
# 3 20.5924 44.9101 92.7773 0.0000 0.0000 0.0000
# 4 0.0000 0.0000 0.0000 16.9791 0.0000 0.0000
# 5 0.0000 0.0000 0.0000 0.0000 15.4898 0.0000
# 6 0.0000 0.0000 0.0000 0.0000 0.0000 39.0497
#
#
#
# Elastic Compliance Matrix: (Units=1/GPa)
#
#
# Indices 1 2 3 4 5 6 
#
# 1 0.011709 -0.002597 -0.001342 0.000000 0.000000 0.000000
# 2 -0.002597 0.010225 -0.004373 0.000000 0.000000 0.000000
# 3 -0.001342 -0.004373 0.013193 0.000000 0.000000 0.000000
# 4 0.000000 0.000000 0.000000 0.058896 0.000000 0.000000
# 5 0.000000 0.000000 0.000000 0.000000 0.064559 0.000000
# 6 0.000000 0.000000 0.000000 0.000000 0.000000 0.025608
#
#
# Mechanical properties :
#
#
# Convention : Reuss Voigt Hill
#
# Bulk Modulus (GPa) = 54.04347 56.68195 55.36271
# Shear Modulus (GPa) = 24.15668 28.62169 26.38919
#
# Velocity S-wave (km/s) = 3.46507 3.77174 3.62165
# Velocity P-wave (km/s) = 6.54756 6.86593 6.70863
#
# Compressibility (1/GPa) = 0.01850362
#
# Stress axis : x y z
#
# Youngs Moduli (GPa) = 85.40174 97.80086 75.79677
#
# Poissons Ratio (x) = 0.25398 0.10171
# Poissons Ratio (y) = 0.22178 0.33146
# Poissons Ratio (z) = 0.11460 0.42769
#
# Static dielectric constant tensor:
#      x y z
#    x 3.833810 0.000000 0.000000 
#    y 0.000000 3.956030 0.000000 
#    z 0.000000 0.000000 3.278370 
# 
# 
# High freq. dielectric constant tensor:
#      x y z
#    x 1.803290 0.000000 0.000000 
#    y 0.000000 1.807710 0.000000 
#    z 0.000000 0.000000 1.745300 
# 
# From -- ./inp_files/44250.got.cif
#   From: 2010.06.25/outbox.cif.g09.slc.cpg/sg52_23_cif.got.tgz:44250.got - 2010.06.26 19:32:48.
