data_PCOD8215533
_publ_section_title
;
Structure prediction by ZEFSAII (Michael W. Deem and Ramdas Pophale) SiO2 
 PCOD8215533
Probable space group: P N N A
;
_chemical_formula_sum "Si O2"
_cell_formula_units_Z 64
_cell_length_a 18.236306
_cell_length_b 16.017132
_cell_length_c 11.216414
_cell_angle_alpha 90.000000
_cell_angle_beta 90.000000
_cell_angle_gamma 90.000000
_cell_volume 3276.239608
_symmetry_space_group_name_H-M "P N N A"
_symmetry_group_IT_number 52
_symmetry_cell_setting 'orthorhombic'
loop_
_space_group_symop_operation_xyz
x,y,z
1/2-x,-y,z
x,1/2-y,1/2-z
1/2-x,1/2+y,1/2-z
-x,-y,-z
1/2+x,y,-z
-x,1/2+y,1/2+z
1/2+x,1/2-y,1/2+z
loop_
_atom_site_type_symbol
_atom_site_label
_atom_site_fract_x
_atom_site_fract_y
_atom_site_fract_z
Si Si1 0.830431 0.018725 0.107887
Si Si2 0.767135 0.903032 0.511979
Si Si3 0.079075 0.887584 0.076569
Si Si4 0.591584 0.188518 0.430191
Si Si5 0.836765 0.159254 0.699181
Si Si6 0.326873 0.162986 0.697786
Si Si7 0.435059 0.204932 0.512375
Si Si8 0.918438 0.864249 0.164671
O O1 0.825533 0.090151 0.206634
O O2 0.750000 0.000000 0.053383
O O3 0.856269 0.933891 0.169218
O O4 0.890044 0.039695 0.007276
O O5 0.851261 0.872933 0.496677
O O6 0.738154 0.878937 0.644209
O O7 0.727677 0.851533 0.410175
O O8 0.750000 0.000000 0.489596
O O9 0.130511 0.894299 0.192876
O O10 0.087481 0.801269 0.005152
O O11 0.993993 0.899553 0.109242
O O12 0.521082 0.187776 0.515138
O O13 0.565738 0.157566 0.301143
O O14 0.614327 0.285888 0.411156
O O15 0.818539 0.250000 0.750000
O O16 0.898005 0.155579 0.596495
O O17 0.298661 0.250000 0.750000
O O18 0.407866 0.173151 0.641255
#
# Coordination Sequence:
#
# PCOD8215533 Si02
#       8
#     8   8   8   8   8   8   8   8
#     4  12  25  37  58  95 128 159 203 260 321 375
#     4  11  24  40  60  94 130 161 205 261 309 376
#     4  10  19  39  63  88 121 161 209 255 308 375
#     4  10  20  38  65  89 120 162 211 252 312 370
#     4   9  19  38  64  85 114 161 207 241 302 372
#     4  11  22  39  61  86 123 164 207 252 318 372
#     4   9  18  38  64  88 109 164 214 249 299 374
#     4  10  21  37  63  92 123 160 208 260 310 375
#
# _framework density 19.534590999999999
#
# number of rings (size 3 to 8) (size 9 to 14) (size 15 to 20)
#    0.000    1.750    2.500    2.250    3.500    0.500 
#    2.250    2.500    2.750    0.000    0.000    0.000 
#    0.000    0.000    0.000    0.000    0.000    0.000 
#
# Total GULP energy -793323.433412 kJ/mol
# GULP energy per Si atom -12395.678647 kJ/mol
# Density = 1.949013 g / cm^3
# Si number density = 19.534591 Si / 1000 Ang^3
#
#
#
# Elastic Constant Matrix: (Units=GPa)
#
#
# Indices 1 2 3 4 5 6 
#
# 1 109.6609 45.5200 33.4419 0.0000 0.0000 0.0000
# 2 45.5200 94.3572 31.8091 0.0000 0.0000 0.0000
# 3 33.4419 31.8091 62.2104 0.0000 0.0000 0.0000
# 4 0.0000 0.0000 0.0000 24.5529 0.0000 0.0000
# 5 0.0000 0.0000 0.0000 0.0000 21.5104 0.0000
# 6 0.0000 0.0000 0.0000 0.0000 0.0000 30.7368
#
#
#
# Elastic Compliance Matrix: (Units=1/GPa)
#
#
# Indices 1 2 3 4 5 6 
#
# 1 0.012294 -0.004474 -0.004321 0.000000 0.000000 0.000000
# 2 -0.004474 0.014434 -0.004975 0.000000 0.000000 0.000000
# 3 -0.004321 -0.004975 0.020941 0.000000 0.000000 0.000000
# 4 0.000000 0.000000 0.000000 0.040728 0.000000 0.000000
# 5 0.000000 0.000000 0.000000 0.000000 0.046489 0.000000
# 6 0.000000 0.000000 0.000000 0.000000 0.000000 0.032534
#
#
# Mechanical properties :
#
#
# Convention : Reuss Voigt Hill
#
# Bulk Modulus (GPa) = 49.68139 54.19671 51.93905
# Shear Modulus (GPa) = 24.79294 25.72385 25.25839
#
# Velocity S-wave (km/s) = 3.56642 3.63276 3.59974
# Velocity P-wave (km/s) = 6.51513 6.73796 6.62748
#
# Compressibility (1/GPa) = 0.02012826
#
# Stress axis : x y z
#
# Youngs Moduli (GPa) = 81.34062 69.28271 47.75309
#
# Poissons Ratio (x) = 0.30999 0.20634
# Poissons Ratio (y) = 0.36394 0.23757
# Poissons Ratio (z) = 0.35148 0.34468
#
# Static dielectric constant tensor:
#      x y z
#    x 3.572320 0.000000 0.000000 
#    y 0.000000 3.519900 0.000000 
#    z 0.000000 0.000000 3.582590 
# 
# 
# High freq. dielectric constant tensor:
#      x y z
#    x 1.760190 0.000000 0.000000 
#    y 0.000000 1.756460 0.000000 
#    z 0.000000 0.000000 1.755090 
# 
# From -- ./inp_files/20885.got.cif
#   From: 2010.06.25/outbox.cif.g09.slc.cpg/sg52_11_cif.got.tgz:20885.got - 2010.06.26 19:32:48.
