data_PCOD8215555
_publ_section_title
;
Structure prediction by ZEFSAII (Michael W. Deem and Ramdas Pophale) SiO2 
 PCOD8215555
Probable space group: P N N A
;
_chemical_formula_sum "Si O2"
_cell_formula_units_Z 48
_cell_length_a 14.377778
_cell_length_b 9.275029
_cell_length_c 17.524616
_cell_angle_alpha 90.000000
_cell_angle_beta 90.000000
_cell_angle_gamma 90.000000
_cell_volume 2336.983038
_symmetry_space_group_name_H-M "P N N A"
_symmetry_group_IT_number 52
_symmetry_cell_setting 'orthorhombic'
loop_
_space_group_symop_operation_xyz
x,y,z
1/2-x,-y,z
x,1/2-y,1/2-z
1/2-x,1/2+y,1/2-z
-x,-y,-z
1/2+x,y,-z
-x,1/2+y,1/2+z
1/2+x,1/2-y,1/2+z
loop_
_atom_site_type_symbol
_atom_site_label
_atom_site_fract_x
_atom_site_fract_y
_atom_site_fract_z
Si Si1 0.642013 0.116092 0.379407
Si Si2 0.241235 0.657746 0.184853
Si Si3 0.337921 0.287306 0.837159
Si Si4 0.536750 0.846793 0.033529
Si Si5 0.622031 0.367229 0.946267
Si Si6 0.940036 0.170414 0.609757
O O1 0.725301 0.215101 0.346511
O O2 0.657991 0.103268 0.469517
O O3 0.545147 0.198592 0.360890
O O4 0.633924 0.953671 0.348713
O O5 0.250000 0.500000 0.218685
O O6 0.291246 0.750000 0.250000
O O7 0.287374 0.669438 0.102521
O O8 0.133798 0.706634 0.175636
O O9 0.364372 0.250000 0.750000
O O10 0.389159 0.171220 0.895091
O O11 0.443866 0.769346 0.061191
O O12 0.584788 0.767039 0.963019
O O13 0.500000 0.000000 0.000000
O O14 0.566553 0.503609 0.914206
#
# Coordination Sequence:
#
# PCOD8215555 Si02
#       6
#     8   8   8   8   8   8
#     4  10  20  41  68  84 120 176 225 248 298 417
#     4  10  23  38  61  93 128 162 210 265 319 376
#     4  11  23  40  62  94 132 168 209 271 336 379
#     4  11  22  40  64  99 124 159 214 277 320 373
#     4  10  19  40  69  87 118 176 222 251 309 395
#     4  10  19  41  66  88 115 174 228 247 305 397
#
# _framework density 20.539301999999999
#
# number of rings (size 3 to 8) (size 9 to 14) (size 15 to 20)
#    0.000    1.667    3.333    2.000    4.667    2.667 
#   15.000    3.333    0.000    0.000    0.000    0.000 
#    0.000    0.000    0.000    0.000    0.000    0.000 
#
# Total GULP energy -594637.270939 kJ/mol
# GULP energy per Si atom -12388.276478 kJ/mol
# Density = 2.049255 g / cm^3
# Si number density = 20.539302 Si / 1000 Ang^3
#
#
#
# Elastic Constant Matrix: (Units=GPa)
#
#
# Indices 1 2 3 4 5 6 
#
# 1 96.2447 43.9552 53.1545 0.0000 0.0000 0.0000
# 2 43.9552 94.7649 53.6063 0.0000 0.0000 0.0000
# 3 53.1545 53.6063 125.7032 0.0000 0.0000 0.0000
# 4 0.0000 0.0000 0.0000 31.8200 0.0000 0.0000
# 5 0.0000 0.0000 0.0000 0.0000 2.4011 0.0000
# 6 0.0000 0.0000 0.0000 0.0000 0.0000 22.8394
#
#
#
# Elastic Compliance Matrix: (Units=1/GPa)
#
#
# Indices 1 2 3 4 5 6 
#
# 1 0.014822 -0.004388 -0.004396 0.000000 0.000000 0.000000
# 2 -0.004388 0.015206 -0.004629 0.000000 0.000000 0.000000
# 3 -0.004396 -0.004629 0.011788 0.000000 0.000000 0.000000
# 4 0.000000 0.000000 0.000000 0.031427 0.000000 0.000000
# 5 0.000000 0.000000 0.000000 0.000000 0.416476 0.000000
# 6 0.000000 0.000000 0.000000 0.000000 0.000000 0.043784
#
#
# Mechanical properties :
#
#
# Convention : Reuss Voigt Hill
#
# Bulk Modulus (GPa) = 66.71281 68.68276 67.69778
# Shear Modulus (GPa) = 8.84442 22.47855 15.66149
#
# Velocity S-wave (km/s) = 2.07736 3.31179 2.76436
# Velocity P-wave (km/s) = 6.18910 6.93802 6.57424
#
# Compressibility (1/GPa) = 0.01498963
#
# Stress axis : x y z
#
# Youngs Moduli (GPa) = 67.46584 65.76150 84.82891
#
# Poissons Ratio (x) = 0.28857 0.37294
# Poissons Ratio (y) = 0.29605 0.39269
# Poissons Ratio (z) = 0.29661 0.30443
#
# Static dielectric constant tensor:
#      x y z
#    x 3.999190 0.000000 0.000000 
#    y 0.000000 3.512210 0.000000 
#    z 0.000000 0.000000 3.695380 
# 
# 
# High freq. dielectric constant tensor:
#      x y z
#    x 1.815470 0.000000 0.000000 
#    y 0.000000 1.783000 0.000000 
#    z 0.000000 0.000000 1.800210 
# 
# From -- ./inp_files/33068.got.cif
#   From: 2010.06.25/outbox.cif.g09.slc.cpg/sg52_17_cif.got.tgz:33068.got - 2010.06.26 19:32:48.
