data_PCOD8215416
_publ_section_title
;
Structure prediction by ZEFSAII (Michael W. Deem and Ramdas Pophale) SiO2 
 PCOD8215416
Probable space group: P N N A
;
_chemical_formula_sum "Si O2"
_cell_formula_units_Z 48
_cell_length_a 23.054872
_cell_length_b 9.172091
_cell_length_c 9.976933
_cell_angle_alpha 90.000000
_cell_angle_beta 90.000000
_cell_angle_gamma 90.000000
_cell_volume 2109.736060
_symmetry_space_group_name_H-M "P N N A"
_symmetry_group_IT_number 52
_symmetry_cell_setting 'orthorhombic'
loop_
_space_group_symop_operation_xyz
x,y,z
1/2-x,-y,z
x,1/2-y,1/2-z
1/2-x,1/2+y,1/2-z
-x,-y,-z
1/2+x,y,-z
-x,1/2+y,1/2+z
1/2+x,1/2-y,1/2+z
loop_
_atom_site_type_symbol
_atom_site_label
_atom_site_fract_x
_atom_site_fract_y
_atom_site_fract_z
Si Si1 0.339217 0.208998 0.465680
Si Si2 0.250000 0.500000 0.181581
Si Si3 0.027515 0.965225 0.786828
Si Si4 0.128896 0.750000 0.750000
Si Si5 0.353516 0.979155 0.157554
Si Si6 0.433027 0.987737 0.407693
Si Si7 0.057462 0.321560 0.493568
O O1 0.328168 0.245848 0.621382
O O2 0.343477 0.350220 0.372404
O O3 0.287574 0.107377 0.411496
O O4 0.402702 0.130738 0.468401
O O5 0.293650 0.586234 0.282356
O O6 0.089826 0.894601 0.761612
O O7 0.000314 0.006366 0.639825
O O8 0.988978 0.851578 0.874577
O O9 0.032684 0.116797 0.867473
O O10 0.401629 0.953287 0.268799
O O11 0.379057 0.896474 0.029303
O O12 0.429408 0.849711 0.506977
#
# Coordination Sequence:
#
# PCOD8215416 Si02
#       7
#     8   4   8   4   8   8   8
#     4  11  25  42  68  95 127 171 221 273 340 407
#     4  10  22  40  64  94 118 150 216 288 328 372
#     4  10  19  35  61  89 139 182 208 253 322 389
#     4  12  22  44  64  88 138 184 214 260 330 418
#     4  10  20  39  67  96 125 163 212 272 337 391
#     4  10  20  36  62  97 129 167 218 273 313 383
#     4  10  19  35  60  97 135 171 213 259 320 390
#
# _framework density 22.751662
#
# number of rings (size 3 to 8) (size 9 to 14) (size 15 to 20)
#    0.000    1.667    3.333    3.500    0.000    6.000 
#    0.000    3.333    7.333    0.000    0.000    0.000 
#    0.000    0.000    0.000    0.000    0.000    0.000 
#
# Total GULP energy -594913.519380 kJ/mol
# GULP energy per Si atom -12394.031654 kJ/mol
# Density = 2.269988 g / cm^3
# Si number density = 22.751662 Si / 1000 Ang^3
#
#
#
# Elastic Constant Matrix: (Units=GPa)
#
#
# Indices 1 2 3 4 5 6 
#
# 1 93.4766 44.2219 14.2937 0.0000 0.0000 0.0000
# 2 44.2219 110.2258 39.2739 0.0000 0.0000 0.0000
# 3 14.2937 39.2739 48.6517 0.0000 0.0000 0.0000
# 4 0.0000 0.0000 0.0000 22.2457 0.0000 0.0000
# 5 0.0000 0.0000 0.0000 0.0000 34.1096 0.0000
# 6 0.0000 0.0000 0.0000 0.0000 0.0000 32.3014
#
#
#
# Elastic Compliance Matrix: (Units=1/GPa)
#
#
# Indices 1 2 3 4 5 6 
#
# 1 0.013215 -0.005500 0.000558 0.000000 0.000000 0.000000
# 2 -0.005500 0.015025 -0.010513 0.000000 0.000000 0.000000
# 3 0.000558 -0.010513 0.028877 0.000000 0.000000 0.000000
# 4 0.000000 0.000000 0.000000 0.044953 0.000000 0.000000
# 5 0.000000 0.000000 0.000000 0.000000 0.029317 0.000000
# 6 0.000000 0.000000 0.000000 0.000000 0.000000 0.030958
#
#
# Mechanical properties :
#
#
# Convention : Reuss Voigt Hill
#
# Bulk Modulus (GPa) = 38.15990 49.77033 43.96512
# Shear Modulus (GPa) = 24.75369 28.03564 26.39467
#
# Velocity S-wave (km/s) = 3.30206 3.51414 3.40975
# Velocity P-wave (km/s) = 5.59883 6.19585 5.90489
#
# Compressibility (1/GPa) = 0.02620552
#
# Stress axis : x y z
#
# Youngs Moduli (GPa) = 75.67336 66.55717 34.62999
#
# Poissons Ratio (x) = 0.36609 -0.01931
# Poissons Ratio (y) = 0.41623 0.36405
# Poissons Ratio (z) = -0.04220 0.69969
#
# Static dielectric constant tensor:
#      x y z
#    x 4.246030 0.000000 0.000000 
#    y 0.000000 3.862430 0.000000 
#    z 0.000000 0.000000 4.199610 
# 
# 
# High freq. dielectric constant tensor:
#      x y z
#    x 1.880140 0.000000 0.000000 
#    y 0.000000 1.890390 0.000000 
#    z 0.000000 0.000000 1.902470 
# 
# From -- ./inp_files/22336.got.cif
#   From: 2010.06.25/outbox.cif.g09.slc.cpg/sg52_12_cif.got.tgz:22336.got - 2010.06.26 19:32:48.
