data_PCOD8215645
_publ_section_title
;
Structure prediction by ZEFSAII (Michael W. Deem and Ramdas Pophale) SiO2 
 PCOD8215645
Probable space group: P N N A
;
_chemical_formula_sum "Si O2"
_cell_formula_units_Z 64
_cell_length_a 13.723895
_cell_length_b 9.598196
_cell_length_c 23.159144
_cell_angle_alpha 90.000000
_cell_angle_beta 90.000000
_cell_angle_gamma 90.000000
_cell_volume 3050.629769
_symmetry_space_group_name_H-M "P N N A"
_symmetry_group_IT_number 52
_symmetry_cell_setting 'orthorhombic'
loop_
_space_group_symop_operation_xyz
x,y,z
1/2-x,-y,z
x,1/2-y,1/2-z
1/2-x,1/2+y,1/2-z
-x,-y,-z
1/2+x,y,-z
-x,1/2+y,1/2+z
1/2+x,1/2-y,1/2+z
loop_
_atom_site_type_symbol
_atom_site_label
_atom_site_fract_x
_atom_site_fract_y
_atom_site_fract_z
Si Si1 0.905597 0.248943 0.132642
Si Si2 0.873381 0.250565 0.816340
Si Si3 0.458559 0.964184 0.684081
Si Si4 0.251719 0.663418 0.085831
Si Si5 0.400425 0.333627 0.993337
Si Si6 0.183578 0.249845 0.869685
Si Si7 0.961506 0.964894 0.180518
Si Si8 0.617554 0.151953 0.486770
O O1 0.962963 0.383738 0.155954
O O2 0.793720 0.244020 0.154184
O O3 0.968086 0.120097 0.156192
O O4 0.903877 0.240294 0.063596
O O5 0.839767 0.250000 0.750000
O O6 0.773655 0.256926 0.854323
O O7 0.939945 0.386139 0.830107
O O8 0.936221 0.113120 0.831216
O O9 0.367277 0.884541 0.657182
O O10 0.440019 0.969160 0.751861
O O11 0.250000 0.500000 0.098784
O O12 0.172073 0.723185 0.041239
O O13 0.353571 0.697716 0.052801
O O14 0.504510 0.324051 0.024256
O O15 0.363318 0.488112 0.977204
O O16 0.180935 0.263925 0.939589
O O17 0.128539 0.110418 0.850705
#
# Coordination Sequence:
#
# PCOD8215645 Si02
#       8
#     8   8   8   8   8   8   8   8
#     4  12  22  33  56  87 126 156 200 257 302 355
#     4   9  20  42  65  86 119 158 201 251 302 363
#     4  10  21  35  60  87 115 163 210 251 298 348
#     4  10  20  35  66  98 113 150 208 249 304 355
#     4  10  20  34  57  91 122 146 196 261 306 339
#     4  11  20  36  55  83 123 159 203 249 303 356
#     4  10  23  38  55  83 124 170 202 236 309 379
#     4  10  20  35  59  91 117 150 200 258 297 359
#
# _framework density 20.979275000000001
#
# number of rings (size 3 to 8) (size 9 to 14) (size 15 to 20)
#    0.000    1.750    2.500    3.750    3.500    3.000 
#    0.000    2.500    5.500    0.000    0.000    0.000 
#    0.000    0.000    0.000    0.000    0.000    0.000 
#
# Total GULP energy -793466.012055 kJ/mol
# GULP energy per Si atom -12397.906438 kJ/mol
# Density = 2.093153 g / cm^3
# Si number density = 20.979275 Si / 1000 Ang^3
#
#
#
# Elastic Constant Matrix: (Units=GPa)
#
#
# Indices 1 2 3 4 5 6 
#
# 1 45.8527 11.5730 19.7738 0.0000 0.0000 0.0000
# 2 11.5730 104.5558 34.7401 0.0000 0.0000 0.0000
# 3 19.7738 34.7401 116.1106 0.0000 0.0000 0.0000
# 4 0.0000 0.0000 0.0000 9.2725 0.0000 0.0000
# 5 0.0000 0.0000 0.0000 0.0000 19.1506 0.0000
# 6 0.0000 0.0000 0.0000 0.0000 0.0000 14.0947
#
#
#
# Elastic Compliance Matrix: (Units=1/GPa)
#
#
# Indices 1 2 3 4 5 6 
#
# 1 0.023727 -0.001425 -0.003614 0.000000 0.000000 0.000000
# 2 -0.001425 0.010706 -0.002960 0.000000 0.000000 0.000000
# 3 -0.003614 -0.002960 0.010114 0.000000 0.000000 0.000000
# 4 0.000000 0.000000 0.000000 0.107845 0.000000 0.000000
# 5 0.000000 0.000000 0.000000 0.000000 0.052218 0.000000
# 6 0.000000 0.000000 0.000000 0.000000 0.000000 0.070949
#
#
# Mechanical properties :
#
#
# Convention : Reuss Voigt Hill
#
# Bulk Modulus (GPa) = 35.03045 44.29923 39.66484
# Shear Modulus (GPa) = 16.60720 21.86571 19.23645
#
# Velocity S-wave (km/s) = 2.81659 3.23190 3.03136
# Velocity P-wave (km/s) = 5.22604 5.92355 5.58569
#
# Compressibility (1/GPa) = 0.02854659
#
# Stress axis : x y z
#
# Youngs Moduli (GPa) = 42.14533 93.40841 98.87536
#
# Poissons Ratio (x) = 0.13315 0.35737
# Poissons Ratio (y) = 0.06007 0.29271
# Poissons Ratio (z) = 0.15233 0.27652
#
# Static dielectric constant tensor:
#      x y z
#    x 3.732230 0.000000 0.000000 
#    y 0.000000 3.557060 0.000000 
#    z 0.000000 0.000000 3.894770 
# 
# 
# High freq. dielectric constant tensor:
#      x y z
#    x 1.814390 0.000000 0.000000 
#    y 0.000000 1.788380 0.000000 
#    z 0.000000 0.000000 1.832640 
# 
# From -- ./inp_files/40664.got.cif
#   From: 2010.06.25/outbox.cif.g09.slc.cpg/sg52_21_cif.got.tgz:40664.got - 2010.06.26 19:32:48.
