data_PCOD8215878
_publ_section_title
;
Structure prediction by ZEFSAII (Michael W. Deem and Ramdas Pophale) SiO2 
 PCOD8215878
Probable space group: P N N A
;
_chemical_formula_sum "Si O2"
_cell_formula_units_Z 36
_cell_length_a 13.822517
_cell_length_b 20.311547
_cell_length_c 6.018180
_cell_angle_alpha 90.000000
_cell_angle_beta 90.000000
_cell_angle_gamma 90.000000
_cell_volume 1689.644379
_symmetry_space_group_name_H-M "P N N A"
_symmetry_group_IT_number 52
_symmetry_cell_setting 'orthorhombic'
loop_
_space_group_symop_operation_xyz
x,y,z
1/2-x,-y,z
x,1/2-y,1/2-z
1/2-x,1/2+y,1/2-z
-x,-y,-z
1/2+x,y,-z
-x,1/2+y,1/2+z
1/2+x,1/2-y,1/2+z
loop_
_atom_site_type_symbol
_atom_site_label
_atom_site_fract_x
_atom_site_fract_y
_atom_site_fract_z
Si Si1 0.912534 0.353517 0.092166
Si Si2 0.364407 0.250000 0.250000
Si Si3 0.932567 0.906148 0.910838
Si Si4 0.904400 0.046204 0.780759
Si Si5 0.229424 0.860460 0.970892
O O1 0.811752 0.344091 0.226001
O O2 0.003128 0.356777 0.260861
O O3 0.929713 0.291305 0.926525
O O4 0.900403 0.422538 0.963732
O O5 0.295128 0.199039 0.131807
O O6 0.844808 0.867103 0.025202
O O7 0.894940 0.967271 0.760243
O O8 0.992695 0.934171 0.116161
O O9 0.818986 0.072494 0.938926
#
# Coordination Sequence:
#
# PCOD8215878 Si02
#       5
#     8   4   8   8   8
#     4  10  21  40  64  87 127 165 201 260 310 365
#     4  10  22  42  58  82 126 166 204 264 306 356
#     4  10  20  38  63  97 121 161 208 248 312 378
#     4   9  20  37  61  94 131 155 196 257 312 368
#     4  10  21  39  61  87 124 167 207 252 306 366
#
# _framework density 21.306258
#
# number of rings (size 3 to 8) (size 9 to 14) (size 15 to 20)
#    0.000    2.222    0.000    2.000    0.000    3.556 
#   12.000   13.333    0.000    0.000    0.000    0.000 
#    0.000    0.000    0.000    0.000    0.000    0.000 
#
# Total GULP energy -446405.634208 kJ/mol
# GULP energy per Si atom -12400.156506 kJ/mol
# Density = 2.125776 g / cm^3
# Si number density = 21.306258 Si / 1000 Ang^3
#
#
#
# Elastic Constant Matrix: (Units=GPa)
#
#
# Indices 1 2 3 4 5 6 
#
# 1 108.8088 42.9068 48.0838 0.0000 0.0000 0.0000
# 2 42.9068 105.5903 37.9738 0.0000 0.0000 0.0000
# 3 48.0838 37.9738 108.8171 0.0000 0.0000 0.0000
# 4 0.0000 0.0000 0.0000 20.4605 0.0000 0.0000
# 5 0.0000 0.0000 0.0000 0.0000 15.7099 0.0000
# 6 0.0000 0.0000 0.0000 0.0000 0.0000 19.6280
#
#
#
# Elastic Compliance Matrix: (Units=1/GPa)
#
#
# Indices 1 2 3 4 5 6 
#
# 1 0.012474 -0.003529 -0.004280 0.000000 0.000000 0.000000
# 2 -0.003529 0.011828 -0.002568 0.000000 0.000000 0.000000
# 3 -0.004280 -0.002568 0.011977 0.000000 0.000000 0.000000
# 4 0.000000 0.000000 0.000000 0.048875 0.000000 0.000000
# 5 0.000000 0.000000 0.000000 0.000000 0.063654 0.000000
# 6 0.000000 0.000000 0.000000 0.000000 0.000000 0.050948
#
#
# Mechanical properties :
#
#
# Convention : Reuss Voigt Hill
#
# Bulk Modulus (GPa) = 64.41733 64.57168 64.49450
# Shear Modulus (GPa) = 22.15467 24.10978 23.13222
#
# Velocity S-wave (km/s) = 3.22812 3.36755 3.29857
# Velocity P-wave (km/s) = 6.64786 6.74483 6.69652
#
# Compressibility (1/GPa) = 0.01552377
#
# Stress axis : x y z
#
# Youngs Moduli (GPa) = 80.16907 84.54266 83.49159
#
# Poissons Ratio (x) = 0.29838 0.35736
# Poissons Ratio (y) = 0.28295 0.21442
# Poissons Ratio (z) = 0.34314 0.21712
#
# Static dielectric constant tensor:
#      x y z
#    x 3.668200 0.000000 0.000000 
#    y 0.000000 3.969400 0.000000 
#    z 0.000000 0.000000 3.923020 
# 
# 
# High freq. dielectric constant tensor:
#      x y z
#    x 1.816780 0.000000 0.000000 
#    y 0.000000 1.837100 0.000000 
#    z 0.000000 0.000000 1.836080 
# 
# From -- ./inp_files/1237.got.cif
#   From: 2010.06.25/outbox.cif.g09.slc.cpg/sg52_1_cif.got.tgz:1237.got - 2010.06.26 19:32:48.
