data_PCOD8215213
_publ_section_title
;
Structure prediction by ZEFSAII (Michael W. Deem and Ramdas Pophale) SiO2 
 PCOD8215213
Probable space group: P N N A
;
_chemical_formula_sum "Si O2"
_cell_formula_units_Z 48
_cell_length_a 14.212437
_cell_length_b 15.916652
_cell_length_c 11.317151
_cell_angle_alpha 90.000000
_cell_angle_beta 90.000000
_cell_angle_gamma 90.000000
_cell_volume 2560.102679
_symmetry_space_group_name_H-M "P N N A"
_symmetry_group_IT_number 52
_symmetry_cell_setting 'orthorhombic'
loop_
_space_group_symop_operation_xyz
x,y,z
1/2-x,-y,z
x,1/2-y,1/2-z
1/2-x,1/2+y,1/2-z
-x,-y,-z
1/2+x,y,-z
-x,1/2+y,1/2+z
1/2+x,1/2-y,1/2+z
loop_
_atom_site_type_symbol
_atom_site_label
_atom_site_fract_x
_atom_site_fract_y
_atom_site_fract_z
Si Si1 0.486401 0.135410 0.255058
Si Si2 0.284576 0.684025 0.507278
Si Si3 0.846841 0.750000 0.250000
Si Si4 0.458508 0.021310 0.871534
Si Si5 0.024208 0.205295 0.130121
Si Si6 0.400124 0.241744 0.432323
Si Si7 0.250000 0.500000 0.566147
O O1 0.588381 0.171945 0.292601
O O2 0.415060 0.153091 0.364133
O O3 0.452385 0.183733 0.137849
O O4 0.490970 0.037110 0.226234
O O5 0.282577 0.715209 0.643271
O O6 0.386743 0.696262 0.454094
O O7 0.210706 0.740859 0.436409
O O8 0.254705 0.586207 0.490665
O O9 0.480079 0.115902 0.836733
O O10 0.346670 0.004238 0.859459
O O11 0.500000 0.000000 0.000000
O O12 0.054768 0.250000 0.250000
O O13 0.945044 0.260245 0.062988
#
# Coordination Sequence:
#
# PCOD8215213 Si02
#       7
#     8   8   4   8   8   8   4
#     4  10  19  40  63  84 117 171 198 251 307 374
#     4  12  22  37  61  95 122 158 209 255 311 371
#     4  10  18  36  64  82 120 156 202 258 298 362
#     4  12  20  40  61  92 125 154 215 265 305 367
#     4  12  25  39  57  93 132 160 199 266 317 362
#     4  10  21  37  60  88 121 160 203 239 318 370
#     4  12  20  32  68  96 114 150 214 278 298 348
#
# _framework density 18.749248000000001
#
# number of rings (size 3 to 8) (size 9 to 14) (size 15 to 20)
#    0.000    1.000   10.000    0.000    3.500    0.000 
#    0.000    0.833    0.000    0.000    0.000    0.000 
#    0.000    0.000    0.000    0.000    0.000    0.000 
#
# Total GULP energy -595041.390889 kJ/mol
# GULP energy per Si atom -12396.695644 kJ/mol
# Density = 1.870657 g / cm^3
# Si number density = 18.749248 Si / 1000 Ang^3
#
#
#
# Elastic Constant Matrix: (Units=GPa)
#
#
# Indices 1 2 3 4 5 6 
#
# 1 107.7543 36.3125 25.4226 0.0000 0.0000 0.0000
# 2 36.3125 93.7326 54.0793 0.0000 0.0000 0.0000
# 3 25.4226 54.0793 77.5486 0.0000 0.0000 0.0000
# 4 0.0000 0.0000 0.0000 34.5040 0.0000 0.0000
# 5 0.0000 0.0000 0.0000 0.0000 22.8266 0.0000
# 6 0.0000 0.0000 0.0000 0.0000 0.0000 24.5878
#
#
#
# Elastic Compliance Matrix: (Units=1/GPa)
#
#
# Indices 1 2 3 4 5 6 
#
# 1 0.010723 -0.003557 -0.001035 0.000000 0.000000 0.000000
# 2 -0.003557 0.019031 -0.012105 0.000000 0.000000 0.000000
# 3 -0.001035 -0.012105 0.021676 0.000000 0.000000 0.000000
# 4 0.000000 0.000000 0.000000 0.028982 0.000000 0.000000
# 5 0.000000 0.000000 0.000000 0.000000 0.043809 0.000000
# 6 0.000000 0.000000 0.000000 0.000000 0.000000 0.040671
#
#
# Mechanical properties :
#
#
# Convention : Reuss Voigt Hill
#
# Bulk Modulus (GPa) = 55.44515 56.74047 56.09281
# Shear Modulus (GPa) = 24.47409 27.26510 25.86959
#
# Velocity S-wave (km/s) = 3.61686 3.81753 3.71855
# Velocity P-wave (km/s) = 6.86137 7.05407 6.95839
#
# Compressibility (1/GPa) = 0.01803584
#
# Stress axis : x y z
#
# Youngs Moduli (GPa) = 93.25514 52.54607 46.13390
#
# Poissons Ratio (x) = 0.18692 0.04773
# Poissons Ratio (y) = 0.33174 0.55846
# Poissons Ratio (z) = 0.09649 0.63608
#
# Static dielectric constant tensor:
#      x y z
#    x 3.571220 0.000000 0.000000 
#    y 0.000000 3.579650 0.000000 
#    z 0.000000 0.000000 3.312660 
# 
# 
# High freq. dielectric constant tensor:
#      x y z
#    x 1.738580 0.000000 0.000000 
#    y 0.000000 1.713360 0.000000 
#    z 0.000000 0.000000 1.701430 
# 
# From -- ./inp_files/19571.got.cif
#   From: 2010.06.25/outbox.cif.g09.slc.cpg/sg52_10_cif.got.tgz:19571.got - 2010.06.26 19:32:48.
