data_PCOD8215305
_publ_section_title
;
Structure prediction by ZEFSAII (Michael W. Deem and Ramdas Pophale) SiO2 
 PCOD8215305
Probable space group: P N N A
;
_chemical_formula_sum "Si O2"
_cell_formula_units_Z 44
_cell_length_a 8.639413
_cell_length_b 23.509538
_cell_length_c 9.552026
_cell_angle_alpha 90.000000
_cell_angle_beta 90.000000
_cell_angle_gamma 90.000000
_cell_volume 1940.098707
_symmetry_space_group_name_H-M "P N N A"
_symmetry_group_IT_number 52
_symmetry_cell_setting 'orthorhombic'
loop_
_space_group_symop_operation_xyz
x,y,z
1/2-x,-y,z
x,1/2-y,1/2-z
1/2-x,1/2+y,1/2-z
-x,-y,-z
1/2+x,y,-z
-x,1/2+y,1/2+z
1/2+x,1/2-y,1/2+z
loop_
_atom_site_type_symbol
_atom_site_label
_atom_site_fract_x
_atom_site_fract_y
_atom_site_fract_z
Si Si1 0.074487 0.768041 0.442373
Si Si2 0.087336 0.064976 0.371423
Si Si3 0.436969 0.437912 0.168671
Si Si4 0.415116 0.168794 0.735569
Si Si5 0.070766 0.165882 0.798856
Si Si6 0.155227 0.250000 0.250000
O O1 0.087327 0.789119 0.600142
O O2 0.245642 0.774673 0.377923
O O3 0.960102 0.809043 0.356069
O O4 0.016114 0.702525 0.418434
O O5 0.264812 0.086266 0.362454
O O6 0.048418 0.064524 0.534733
O O7 0.963410 0.104771 0.295508
O O8 0.071404 0.004449 0.292236
O O9 0.510414 0.399756 0.294246
O O10 0.255910 0.168727 0.821925
O O11 0.552772 0.199231 0.821649
#
# Coordination Sequence:
#
# PCOD8215305 Si02
#       6
#     8   8   8   8   8   4
#     4  10  21  35  51  74 108 149 184 232 274 322
#     4  10  20  30  52  74 108 149 174 219 283 329
#     4  10  19  33  47  78 108 144 181 217 272 345
#     4  12  21  35  55  79 110 151 183 231 275 334
#     4  10  20  33  51  75 108 144 186 222 270 327
#     4  10  22  34  52  76 104 146 194 222 282 330
#
# _framework density 22.679258999999998
#
# number of rings (size 3 to 8) (size 9 to 14) (size 15 to 20)
#    0.000    1.818    1.818    5.455    0.000    2.182 
#    0.000    0.000    0.000    0.000    0.000    1.273 
#    0.000    8.727    0.000    3.455    0.000    0.000 
#
# Total GULP energy -545283.090280 kJ/mol
# GULP energy per Si atom -12392.797506 kJ/mol
# Density = 2.262764 g / cm^3
# Si number density = 22.679259 Si / 1000 Ang^3
#
#
#
# Elastic Constant Matrix: (Units=GPa)
#
#
# Indices 1 2 3 4 5 6 
#
# 1 163.8207 47.8296 3.7271 0.0000 0.0000 0.0000
# 2 47.8296 135.5103 15.0187 0.0000 0.0000 0.0000
# 3 3.7271 15.0187 28.4587 0.0000 0.0000 0.0000
# 4 0.0000 0.0000 0.0000 27.1576 0.0000 0.0000
# 5 0.0000 0.0000 0.0000 0.0000 9.3296 0.0000
# 6 0.0000 0.0000 0.0000 0.0000 0.0000 41.9195
#
#
#
# Elastic Compliance Matrix: (Units=1/GPa)
#
#
# Indices 1 2 3 4 5 6 
#
# 1 0.006810 -0.002448 0.000400 0.000000 0.000000 0.000000
# 2 -0.002448 0.008718 -0.004280 0.000000 0.000000 0.000000
# 3 0.000400 -0.004280 0.037345 0.000000 0.000000 0.000000
# 4 0.000000 0.000000 0.000000 0.036822 0.000000 0.000000
# 5 0.000000 0.000000 0.000000 0.000000 0.107186 0.000000
# 6 0.000000 0.000000 0.000000 0.000000 0.000000 0.023855
#
#
# Mechanical properties :
#
#
# Convention : Reuss Voigt Hill
#
# Bulk Modulus (GPa) = 24.86533 51.21560 38.04046
# Shear Modulus (GPa) = 20.25951 33.09563 26.67757
#
# Velocity S-wave (km/s) = 2.99206 3.82421 3.43344
# Velocity P-wave (km/s) = 4.78793 6.49084 5.70330
#
# Compressibility (1/GPa) = 0.04021664
#
# Stress axis : x y z
#
# Youngs Moduli (GPa) = 146.84637 114.70644 26.77731
#
# Poissons Ratio (x) = 0.28079 -0.01071
# Poissons Ratio (y) = 0.35947 0.11461
# Poissons Ratio (z) = -0.05874 0.49096
#
# Static dielectric constant tensor:
#      x y z
#    x 4.441060 0.000000 0.000000 
#    y 0.000000 4.456240 0.000000 
#    z 0.000000 0.000000 3.623490 
# 
# 
# High freq. dielectric constant tensor:
#      x y z
#    x 1.920760 0.000000 0.000000 
#    y 0.000000 1.900900 0.000000 
#    z 0.000000 0.000000 1.838890 
# 
# From -- ./inp_files/16891.got.cif
#   From: 2010.06.25/outbox.cif.g09.slc.cpg/sg52_9_cif.got.tgz:16891.got - 2010.06.26 19:32:48.
