data_PCOD8215543
_publ_section_title
;
Structure prediction by ZEFSAII (Michael W. Deem and Ramdas Pophale) SiO2 
 PCOD8215543
Probable space group: P N N A
;
_chemical_formula_sum "Si O2"
_cell_formula_units_Z 64
_cell_length_a 16.665856
_cell_length_b 9.030346
_cell_length_c 20.527565
_cell_angle_alpha 90.000000
_cell_angle_beta 90.000000
_cell_angle_gamma 90.000000
_cell_volume 3089.366634
_symmetry_space_group_name_H-M "P N N A"
_symmetry_group_IT_number 52
_symmetry_cell_setting 'orthorhombic'
loop_
_space_group_symop_operation_xyz
x,y,z
1/2-x,-y,z
x,1/2-y,1/2-z
1/2-x,1/2+y,1/2-z
-x,-y,-z
1/2+x,y,-z
-x,1/2+y,1/2+z
1/2+x,1/2-y,1/2+z
loop_
_atom_site_type_symbol
_atom_site_label
_atom_site_fract_x
_atom_site_fract_y
_atom_site_fract_z
Si Si1 0.067826 0.920924 0.605061
Si Si2 0.973845 0.103152 0.859144
Si Si3 0.834942 0.179826 0.591165
Si Si4 0.162981 0.370300 0.134706
Si Si5 0.531480 0.087284 0.730660
Si Si6 0.104696 0.258520 0.925245
Si Si7 0.449089 0.822173 0.060231
Si Si8 0.723024 0.662483 0.048757
O O1 0.156799 0.846146 0.606237
O O2 0.032772 0.960684 0.675910
O O3 0.014892 0.805524 0.565715
O O4 0.076208 0.072647 0.564827
O O5 0.899388 0.212326 0.875077
O O6 0.058950 0.190437 0.862429
O O7 0.967413 0.033324 0.787645
O O8 0.979657 0.978117 0.913992
O O9 0.757688 0.162014 0.639285
O O10 0.811552 0.236218 0.518400
O O11 0.865553 0.009230 0.588770
O O12 0.123135 0.400271 0.205125
O O13 0.127394 0.221475 0.103684
O O14 0.501307 0.250000 0.750000
O O15 0.201592 0.247050 0.921206
O O16 0.075384 0.160869 0.985782
O O17 0.750000 0.500000 0.026133
#
# Coordination Sequence:
#
# PCOD8215543 Si02
#       8
#     8   8   8   8   8   8   8   8
#     4  10  21  38  72  87 121 177 220 261 325 392
#     4  12  25  39  65  96 133 179 212 271 321 394
#     4  11  21  40  65 101 133 160 222 265 335 382
#     4  10  20  40  66  89 127 179 211 265 307 398
#     4  11  23  46  63  85 132 176 226 258 316 393
#     4  11  22  38  65 100 128 156 221 279 330 382
#     4  11  20  40  60  94 130 167 210 256 344 385
#     4  10  19  39  68  98 129 161 210 278 332 392
#
# _framework density 20.71622
#
# number of rings (size 3 to 8) (size 9 to 14) (size 15 to 20)
#    0.000    1.250    5.000    3.750    0.000    2.500 
#    4.500    1.875    8.250    0.000    0.000    0.000 
#    0.000    0.000    0.000    0.000    0.000    0.000 
#
# Total GULP energy -793106.838577 kJ/mol
# GULP energy per Si atom -12392.294353 kJ/mol
# Density = 2.066907 g / cm^3
# Si number density = 20.716220 Si / 1000 Ang^3
#
#
#
# Elastic Constant Matrix: (Units=GPa)
#
#
# Indices 1 2 3 4 5 6 
#
# 1 128.4597 38.5592 74.7509 0.0000 0.0000 0.0000
# 2 38.5592 63.5051 19.6093 0.0000 0.0000 0.0000
# 3 74.7509 19.6093 95.0316 0.0000 0.0000 0.0000
# 4 0.0000 0.0000 0.0000 33.1339 0.0000 0.0000
# 5 0.0000 0.0000 0.0000 0.0000 23.1430 0.0000
# 6 0.0000 0.0000 0.0000 0.0000 0.0000 18.6869
#
#
#
# Elastic Compliance Matrix: (Units=1/GPa)
#
#
# Indices 1 2 3 4 5 6 
#
# 1 0.016485 -0.006414 -0.011644 0.000000 0.000000 0.000000
# 2 -0.006414 0.019314 0.001060 0.000000 0.000000 0.000000
# 3 -0.011644 0.001060 0.019463 0.000000 0.000000 0.000000
# 4 0.000000 0.000000 0.000000 0.030181 0.000000 0.000000
# 5 0.000000 0.000000 0.000000 0.000000 0.043210 0.000000
# 6 0.000000 0.000000 0.000000 0.000000 0.000000 0.053514
#
#
# Mechanical properties :
#
#
# Convention : Reuss Voigt Hill
#
# Bulk Modulus (GPa) = 47.02227 61.42613 54.22420
# Shear Modulus (GPa) = 22.39634 25.26454 23.83044
#
# Velocity S-wave (km/s) = 3.29158 3.49600 3.39533
# Velocity P-wave (km/s) = 6.09865 6.78319 6.45001
#
# Compressibility (1/GPa) = 0.02126652
#
# Stress axis : x y z
#
# Youngs Moduli (GPa) = 60.65990 51.77571 51.37988
#
# Poissons Ratio (x) = 0.33210 0.59825
# Poissons Ratio (y) = 0.38909 -0.05446
# Poissons Ratio (z) = 0.70630 -0.05488
#
# Static dielectric constant tensor:
#      x y z
#    x 4.062400 0.000000 0.000000 
#    y 0.000000 3.758900 0.000000 
#    z 0.000000 0.000000 3.553130 
# 
# 
# High freq. dielectric constant tensor:
#      x y z
#    x 1.816400 0.000000 0.000000 
#    y 0.000000 1.806900 0.000000 
#    z 0.000000 0.000000 1.786850 
# 
# From -- ./inp_files/37700.got.cif
#   From: 2010.06.25/outbox.cif.g09.slc.cpg/sg52_19_cif.got.tgz:37700.got - 2010.06.26 19:32:48.
