data_PCOD8215093
_publ_section_title
;
Structure prediction by ZEFSAII (Michael W. Deem and Ramdas Pophale) SiO2 
 PCOD8215093
Probable space group: P N N A
;
_chemical_formula_sum "Si O2"
_cell_formula_units_Z 48
_cell_length_a 10.178498
_cell_length_b 22.305387
_cell_length_c 13.091303
_cell_angle_alpha 90.000000
_cell_angle_beta 90.000000
_cell_angle_gamma 90.000000
_cell_volume 2972.188388
_symmetry_space_group_name_H-M "P N N A"
_symmetry_group_IT_number 52
_symmetry_cell_setting 'orthorhombic'
loop_
_space_group_symop_operation_xyz
x,y,z
1/2-x,-y,z
x,1/2-y,1/2-z
1/2-x,1/2+y,1/2-z
-x,-y,-z
1/2+x,y,-z
-x,1/2+y,1/2+z
1/2+x,1/2-y,1/2+z
loop_
_atom_site_type_symbol
_atom_site_label
_atom_site_fract_x
_atom_site_fract_y
_atom_site_fract_z
Si Si1 0.623164 0.036375 0.623101
Si Si2 0.773259 0.656891 0.204356
Si Si3 0.972726 0.656094 0.795502
Si Si4 0.528982 0.223826 0.910606
Si Si5 0.627062 0.039649 0.383591
Si Si6 0.272850 0.722053 0.589758
O O1 0.618920 0.099062 0.683294
O O2 0.625964 0.052186 0.503910
O O3 0.750000 0.000000 0.658718
O O4 0.501716 0.994655 0.652778
O O5 0.623202 0.638304 0.181920
O O6 0.869195 0.602868 0.174703
O O7 0.790923 0.671825 0.323426
O O8 0.811560 0.713680 0.135548
O O9 0.932479 0.710444 0.869861
O O10 0.953643 0.675393 0.678791
O O11 0.378009 0.222780 0.949446
O O12 0.628227 0.205231 0.999551
O O13 0.750000 0.000000 0.350490
#
# Coordination Sequence:
#
# PCOD8215093 Si02
#       6
#     8   8   8   8   8   8
#     4  10  20  31  47  76 102 124 158 204 242 279
#     4   9  17  32  53  71  94 133 165 189 232 301
#     4   9  17  33  52  70  99 131 158 190 246 293
#     4   9  18  33  53  72  95 129 159 199 241 284
#     4  10  18  31  51  70  97 130 161 190 234 292
#     4   9  18  33  51  73  98 124 162 201 239 283
#
# _framework density 16.149716000000002
#
# number of rings (size 3 to 8) (size 9 to 14) (size 15 to 20)
#    0.000    2.667    1.667    3.000    0.000    0.000 
#    6.000    1.667    0.000    2.000    0.000    0.000 
#    0.000    0.000    0.000    0.000    0.000    0.000 
#
# Total GULP energy -595221.153245 kJ/mol
# GULP energy per Si atom -12400.440693 kJ/mol
# Density = 1.611296 g / cm^3
# Si number density = 16.149716 Si / 1000 Ang^3
#
#
#
# Elastic Constant Matrix: (Units=GPa)
#
#
# Indices 1 2 3 4 5 6 
#
# 1 98.1202 50.8520 42.6351 0.0000 0.0000 0.0000
# 2 50.8520 114.0170 34.3628 0.0000 0.0000 0.0000
# 3 42.6351 34.3628 63.8508 0.0000 0.0000 0.0000
# 4 0.0000 0.0000 0.0000 22.5902 0.0000 0.0000
# 5 0.0000 0.0000 0.0000 0.0000 20.1896 0.0000
# 6 0.0000 0.0000 0.0000 0.0000 0.0000 26.6475
#
#
#
# Elastic Compliance Matrix: (Units=1/GPa)
#
#
# Indices 1 2 3 4 5 6 
#
# 1 0.016261 -0.004750 -0.008301 0.000000 0.000000 0.000000
# 2 -0.004750 0.011856 -0.003209 0.000000 0.000000 0.000000
# 3 -0.008301 -0.003209 0.022931 0.000000 0.000000 0.000000
# 4 0.000000 0.000000 0.000000 0.044267 0.000000 0.000000
# 5 0.000000 0.000000 0.000000 0.000000 0.049531 0.000000
# 6 0.000000 0.000000 0.000000 0.000000 0.000000 0.037527
#
#
# Mechanical properties :
#
#
# Convention : Reuss Voigt Hill
#
# Bulk Modulus (GPa) = 53.97357 59.07642 56.52499
# Shear Modulus (GPa) = 22.61734 23.76131 23.18932
#
# Velocity S-wave (km/s) = 3.74636 3.83993 3.79343
# Velocity P-wave (km/s) = 7.22543 7.50466 7.36637
#
# Compressibility (1/GPa) = 0.01852759
#
# Stress axis : x y z
#
# Youngs Moduli (GPa) = 61.49858 84.34247 43.60857
#
# Poissons Ratio (x) = 0.40067 0.36200
# Poissons Ratio (y) = 0.29215 0.13993
# Poissons Ratio (z) = 0.51050 0.27064
#
# Static dielectric constant tensor:
#      x y z
#    x 3.007620 0.000000 0.000000 
#    y 0.000000 2.966910 0.000000 
#    z 0.000000 0.000000 2.818310 
# 
# 
# High freq. dielectric constant tensor:
#      x y z
#    x 1.617160 0.000000 0.000000 
#    y 0.000000 1.620700 0.000000 
#    z 0.000000 0.000000 1.600440 
# 
# From -- ./inp_files/16925.got.cif
#   From: 2010.06.25/outbox.cif.g09.slc.cpg/sg52_9_cif.got.tgz:16925.got - 2010.06.26 19:32:48.
