data_PCOD8215384
_publ_section_title
;
Structure prediction by ZEFSAII (Michael W. Deem and Ramdas Pophale) SiO2 
 PCOD8215384
Probable space group: P N N A
;
_chemical_formula_sum "Si O2"
_cell_formula_units_Z 60
_cell_length_a 17.241955
_cell_length_b 8.939436
_cell_length_c 19.642635
_cell_angle_alpha 90.000000
_cell_angle_beta 90.000000
_cell_angle_gamma 90.000000
_cell_volume 3027.585199
_symmetry_space_group_name_H-M "P N N A"
_symmetry_group_IT_number 52
_symmetry_cell_setting 'orthorhombic'
loop_
_space_group_symop_operation_xyz
x,y,z
1/2-x,-y,z
x,1/2-y,1/2-z
1/2-x,1/2+y,1/2-z
-x,-y,-z
1/2+x,y,-z
-x,1/2+y,1/2+z
1/2+x,1/2-y,1/2+z
loop_
_atom_site_type_symbol
_atom_site_label
_atom_site_fract_x
_atom_site_fract_y
_atom_site_fract_z
Si Si1 0.307722 0.716973 0.174208
Si Si2 0.478190 0.250000 0.250000
Si Si3 0.119289 0.431949 0.425489
Si Si4 0.061166 0.184585 0.521239
Si Si5 0.534287 0.414951 0.370047
Si Si6 0.391209 0.369166 0.990222
Si Si7 0.330403 0.421621 0.555429
Si Si8 0.360278 0.396733 0.146077
O O1 0.335444 0.750000 0.250000
O O2 0.323107 0.869765 0.132215
O O3 0.358205 0.577355 0.146960
O O4 0.217760 0.677390 0.173824
O O5 0.530398 0.374595 0.289575
O O6 0.428005 0.335745 0.193694
O O7 0.110413 0.299277 0.478493
O O8 0.154684 0.558446 0.474348
O O9 0.041499 0.493171 0.391899
O O10 0.039059 0.254305 0.593654
O O11 0.982881 0.157570 0.478314
O O12 0.117900 0.041932 0.532285
O O13 0.607718 0.514595 0.390850
O O14 0.337831 0.260799 0.942223
O O15 0.371101 0.345483 0.069098
O O16 0.250000 0.500000 0.576737
#
# Coordination Sequence:
#
# PCOD8215384 Si02
#       8
#     8   4   8   8   8   8   8   8
#     4  11  23  36  52  82 130 167 195 231 284 358
#     4  12  22  40  60  82 116 158 206 240 298 372
#     4  11  19  38  56  86 121 155 199 245 292 366
#     4  10  19  34  61  84 118 147 198 252 299 343
#     4  11  22  39  61  88 114 155 205 251 302 379
#     4  11  19  36  60  88 117 152 197 259 302 352
#     4  11  22  38  61  91 118 155 201 259 324 365
#     4  11  22  37  54  85 119 165 201 235 291 355
#
# _framework density 19.817774
#
# number of rings (size 3 to 8) (size 9 to 14) (size 15 to 20)
#    0.000    1.067    6.000    2.400    0.000    0.000 
#    2.400    0.000    0.000    1.600    0.000    0.000 
#    0.000    0.000    0.000    0.000    0.000    0.000 
#
# Total GULP energy -743551.809819 kJ/mol
# GULP energy per Si atom -12392.530164 kJ/mol
# Density = 1.977267 g / cm^3
# Si number density = 19.817774 Si / 1000 Ang^3
#
#
#
# Elastic Constant Matrix: (Units=GPa)
#
#
# Indices 1 2 3 4 5 6 
#
# 1 59.8180 31.2025 28.3555 0.0000 0.0000 0.0000
# 2 31.2025 122.4901 34.0448 0.0000 0.0000 0.0000
# 3 28.3555 34.0448 80.6244 0.0000 0.0000 0.0000
# 4 0.0000 0.0000 0.0000 22.1907 0.0000 0.0000
# 5 0.0000 0.0000 0.0000 0.0000 11.2648 0.0000
# 6 0.0000 0.0000 0.0000 0.0000 0.0000 30.7224
#
#
#
# Elastic Compliance Matrix: (Units=1/GPa)
#
#
# Indices 1 2 3 4 5 6 
#
# 1 0.021540 -0.003831 -0.005958 0.000000 0.000000 0.000000
# 2 -0.003831 0.009931 -0.002846 0.000000 0.000000 0.000000
# 3 -0.005958 -0.002846 0.015700 0.000000 0.000000 0.000000
# 4 0.000000 0.000000 0.000000 0.045064 0.000000 0.000000
# 5 0.000000 0.000000 0.000000 0.000000 0.088772 0.000000
# 6 0.000000 0.000000 0.000000 0.000000 0.000000 0.032550
#
#
# Mechanical properties :
#
#
# Convention : Reuss Voigt Hill
#
# Bulk Modulus (GPa) = 45.65958 50.01534 47.83746
# Shear Modulus (GPa) = 20.31472 24.12423 22.21947
#
# Velocity S-wave (km/s) = 3.20515 3.49277 3.35205
# Velocity P-wave (km/s) = 6.06524 6.44658 6.25881
#
# Compressibility (1/GPa) = 0.02190121
#
# Stress axis : x y z
#
# Youngs Moduli (GPa) = 46.42540 100.69612 63.69280
#
# Poissons Ratio (x) = 0.38577 0.37947
# Poissons Ratio (y) = 0.17786 0.18127
# Poissons Ratio (z) = 0.27660 0.28659
#
# Static dielectric constant tensor:
#      x y z
#    x 3.497730 0.000000 0.000000 
#    y 0.000000 4.585260 0.000000 
#    z 0.000000 0.000000 3.610950 
# 
# 
# High freq. dielectric constant tensor:
#      x y z
#    x 1.752920 0.000000 0.000000 
#    y 0.000000 1.793540 0.000000 
#    z 0.000000 0.000000 1.745970 
# 
# From -- ./inp_files/33776.got.cif
#   From: 2010.06.25/outbox.cif.g09.slc.cpg/sg52_17_cif.got.tgz:33776.got - 2010.06.26 19:32:48.
