data_PCOD8215539
_publ_section_title
;
Structure prediction by ZEFSAII (Michael W. Deem and Ramdas Pophale) SiO2 
 PCOD8215539
Probable space group: P N N A
;
_chemical_formula_sum "Si O2"
_cell_formula_units_Z 52
_cell_length_a 13.491460
_cell_length_b 20.782044
_cell_length_c 8.171214
_cell_angle_alpha 90.000000
_cell_angle_beta 90.000000
_cell_angle_gamma 90.000000
_cell_volume 2291.045924
_symmetry_space_group_name_H-M "P N N A"
_symmetry_group_IT_number 52
_symmetry_cell_setting 'orthorhombic'
loop_
_space_group_symop_operation_xyz
x,y,z
1/2-x,-y,z
x,1/2-y,1/2-z
1/2-x,1/2+y,1/2-z
-x,-y,-z
1/2+x,y,-z
-x,1/2+y,1/2+z
1/2+x,1/2-y,1/2+z
loop_
_atom_site_type_symbol
_atom_site_label
_atom_site_fract_x
_atom_site_fract_y
_atom_site_fract_z
Si Si1 0.594433 0.424892 0.133351
Si Si2 0.334335 0.250000 0.250000
Si Si3 0.968889 0.179604 0.257464
Si Si4 0.320927 0.837022 0.387934
Si Si5 0.206898 0.566236 0.283506
Si Si6 0.036384 0.862366 0.098035
Si Si7 0.099711 0.563233 0.937913
O O1 0.554800 0.388643 0.293836
O O2 0.627960 0.499115 0.169031
O O3 0.681844 0.380363 0.055438
O O4 0.515953 0.434766 0.986736
O O5 0.262158 0.219819 0.391429
O O6 0.409210 0.197769 0.180278
O O7 0.917029 0.250000 0.250000
O O8 0.889275 0.128985 0.332056
O O9 0.068294 0.190305 0.365729
O O10 0.003147 0.154780 0.079667
O O11 0.293946 0.880744 0.228056
O O12 0.250000 0.500000 0.346513
O O13 0.120574 0.582523 0.412151
O O14 0.164595 0.563911 0.099865
#
# Coordination Sequence:
#
# PCOD8215539 Si02
#       7
#     8   4   8   8   8   8   8
#     4   9  18  37  62  89 111 153 214 254 294 385
#     4  10  22  38  62  86 128 162 200 258 316 378
#     4  11  24  40  60  86 127 168 207 261 309 380
#     4  10  20  37  63  85 116 162 206 251 316 367
#     4  10  19  39  65  90 122 159 202 261 315 375
#     4  10  24  37  61  93 122 164 208 253 315 370
#     4   9  19  36  62  88 115 158 205 250 315 367
#
# _framework density 22.697057000000001
#
# number of rings (size 3 to 8) (size 9 to 14) (size 15 to 20)
#    0.000    2.154    2.308    0.000   10.769    0.615 
#    0.000    3.846    3.385    0.000    0.000    0.000 
#    0.000    0.000    0.000    0.000    0.000    0.000 
#
# Total GULP energy -644286.907738 kJ/mol
# GULP energy per Si atom -12390.132841 kJ/mol
# Density = 2.264540 g / cm^3
# Si number density = 22.697057 Si / 1000 Ang^3
#
#
#
# Elastic Constant Matrix: (Units=GPa)
#
#
# Indices 1 2 3 4 5 6 
#
# 1 34.5942 12.8567 -6.1232 0.0000 0.0000 0.0000
# 2 12.8567 160.0828 29.3570 0.0000 0.0000 0.0000
# 3 -6.1232 29.3570 62.9505 0.0000 0.0000 0.0000
# 4 0.0000 0.0000 0.0000 27.8449 0.0000 0.0000
# 5 0.0000 0.0000 0.0000 0.0000 16.4693 0.0000
# 6 0.0000 0.0000 0.0000 0.0000 0.0000 24.6777
#
#
#
# Elastic Compliance Matrix: (Units=1/GPa)
#
#
# Indices 1 2 3 4 5 6 
#
# 1 0.030948 -0.003322 0.004559 0.000000 0.000000 0.000000
# 2 -0.003322 0.007187 -0.003675 0.000000 0.000000 0.000000
# 3 0.004559 -0.003675 0.018043 0.000000 0.000000 0.000000
# 4 0.000000 0.000000 0.000000 0.035913 0.000000 0.000000
# 5 0.000000 0.000000 0.000000 0.000000 0.060719 0.000000
# 6 0.000000 0.000000 0.000000 0.000000 0.000000 0.040522
#
#
# Mechanical properties :
#
#
# Convention : Reuss Voigt Hill
#
# Bulk Modulus (GPa) = 19.49171 36.64537 28.06854
# Shear Modulus (GPa) = 23.22244 28.56750 25.89497
#
# Velocity S-wave (km/s) = 3.20214 3.55159 3.38138
# Velocity P-wave (km/s) = 4.71996 5.74446 5.25722
#
# Compressibility (1/GPa) = 0.05130387
#
# Stress axis : x y z
#
# Youngs Moduli (GPa) = 32.31221 139.13081 55.42374
#
# Poissons Ratio (x) = 0.46214 -0.25270
# Poissons Ratio (y) = 0.10733 0.20368
# Poissons Ratio (z) = -0.14732 0.51130
#
# Static dielectric constant tensor:
#      x y z
#    x 3.986380 0.000000 0.000000 
#    y 0.000000 4.638370 0.000000 
#    z 0.000000 0.000000 3.646850 
# 
# 
# High freq. dielectric constant tensor:
#      x y z
#    x 1.883600 0.000000 0.000000 
#    y 0.000000 1.918560 0.000000 
#    z 0.000000 0.000000 1.844580 
# 
# From -- ./inp_files/12358.got.cif
#   From: 2010.06.25/outbox.cif.g09.slc.cpg/sg52_7_cif.got.tgz:12358.got - 2010.06.26 19:32:48.
