data_PCOD8215448
_publ_section_title
;
Structure prediction by ZEFSAII (Michael W. Deem and Ramdas Pophale) SiO2 
 PCOD8215448
Probable space group: P N N A
;
_chemical_formula_sum "Si O2"
_cell_formula_units_Z 48
_cell_length_a 8.809852
_cell_length_b 30.827598
_cell_length_c 8.849044
_cell_angle_alpha 90.000000
_cell_angle_beta 90.000000
_cell_angle_gamma 90.000000
_cell_volume 2403.281560
_symmetry_space_group_name_H-M "P N N A"
_symmetry_group_IT_number 52
_symmetry_cell_setting 'orthorhombic'
loop_
_space_group_symop_operation_xyz
x,y,z
1/2-x,-y,z
x,1/2-y,1/2-z
1/2-x,1/2+y,1/2-z
-x,-y,-z
1/2+x,y,-z
-x,1/2+y,1/2+z
1/2+x,1/2-y,1/2+z
loop_
_atom_site_type_symbol
_atom_site_label
_atom_site_fract_x
_atom_site_fract_y
_atom_site_fract_z
Si Si1 0.834535 0.833086 0.449290
Si Si2 0.323111 0.910092 0.359672
Si Si3 0.448109 0.202966 0.689052
Si Si4 0.029077 0.880823 0.886299
Si Si5 0.022830 0.545678 0.081679
Si Si6 0.628216 0.398440 0.307800
O O1 0.753414 0.865429 0.571888
O O2 0.955848 0.805146 0.538885
O O3 0.722761 0.798994 0.370802
O O4 0.905320 0.861565 0.315014
O O5 0.389495 0.906686 0.191435
O O6 0.474397 0.919424 0.456816
O O7 0.199062 0.948144 0.372748
O O8 0.489080 0.250000 0.750000
O O9 0.475222 0.168281 0.823381
O O10 0.195593 0.901313 0.857096
O O11 0.989551 0.884753 0.061693
O O12 0.920514 0.554868 0.232930
O O13 0.000000 0.500000 0.000000
#
# Coordination Sequence:
#
# PCOD8215448 Si02
#       6
#     8   8   8   8   8   8
#     4   9  19  37  57  79 112 155 195 232 285 353
#     4  10  19  36  59  82 112 152 193 232 284 358
#     4  10  21  36  56  86 119 154 199 249 293 342
#     4  10  21  37  60  87 118 158 200 240 294 357
#     4  11  21  35  58  87 114 147 189 239 292 346
#     4  10  20  37  59  85 115 154 199 240 289 360
#
# _framework density 19.972691999999999
#
# number of rings (size 3 to 8) (size 9 to 14) (size 15 to 20)
#    0.000    2.000    0.000    6.500    0.000    4.000 
#    0.000    1.667    0.000    4.000    0.000    0.000 
#    0.000    0.000    0.000    0.000    0.000    0.000 
#
# Total GULP energy -594681.615161 kJ/mol
# GULP energy per Si atom -12389.200316 kJ/mol
# Density = 1.992723 g / cm^3
# Si number density = 19.972692 Si / 1000 Ang^3
#
#
#
# Elastic Constant Matrix: (Units=GPa)
#
#
# Indices 1 2 3 4 5 6 
#
# 1 110.6958 55.0070 60.8003 0.0000 0.0000 0.0000
# 2 55.0070 94.7678 57.4459 0.0000 0.0000 0.0000
# 3 60.8003 57.4459 140.9161 0.0000 0.0000 0.0000
# 4 0.0000 0.0000 0.0000 30.0398 0.0000 0.0000
# 5 0.0000 0.0000 0.0000 0.0000 37.8693 0.0000
# 6 0.0000 0.0000 0.0000 0.0000 0.0000 25.5946
#
#
#
# Elastic Compliance Matrix: (Units=1/GPa)
#
#
# Indices 1 2 3 4 5 6 
#
# 1 0.013954 -0.005911 -0.003611 0.000000 0.000000 0.000000
# 2 -0.005911 0.016519 -0.004184 0.000000 0.000000 0.000000
# 3 -0.003611 -0.004184 0.010360 0.000000 0.000000 0.000000
# 4 0.000000 0.000000 0.000000 0.033289 0.000000 0.000000
# 5 0.000000 0.000000 0.000000 0.000000 0.026407 0.000000
# 6 0.000000 0.000000 0.000000 0.000000 0.000000 0.039071
#
#
# Mechanical properties :
#
#
# Convention : Reuss Voigt Hill
#
# Bulk Modulus (GPa) = 74.50489 76.98737 75.74613
# Shear Modulus (GPa) = 29.15691 30.24250 29.69970
#
# Velocity S-wave (km/s) = 3.82493 3.89548 3.86037
# Velocity P-wave (km/s) = 7.54262 7.67223 7.60770
#
# Compressibility (1/GPa) = 0.01342194
#
# Stress axis : x y z
#
# Youngs Moduli (GPa) = 71.66202 60.53614 96.52317
#
# Poissons Ratio (x) = 0.35780 0.34858
# Poissons Ratio (y) = 0.42356 0.40385
# Poissons Ratio (z) = 0.25879 0.25328
#
# Static dielectric constant tensor:
#      x y z
#    x 3.669870 0.000000 0.000000 
#    y 0.000000 3.439140 0.000000 
#    z 0.000000 0.000000 3.728570 
# 
# 
# High freq. dielectric constant tensor:
#      x y z
#    x 1.787640 0.000000 0.000000 
#    y 0.000000 1.749120 0.000000 
#    z 0.000000 0.000000 1.784870 
# 
# From -- ./inp_files/7704.got.cif
#   From: 2010.06.25/outbox.cif.g09.slc.cpg/sg52_4_cif.got.tgz:7704.got - 2010.06.26 19:32:48.
