data_PCOD8215748
_publ_section_title
;
Structure prediction by ZEFSAII (Michael W. Deem and Ramdas Pophale) SiO2 
 PCOD8215748
Probable space group: P N N A
;
_chemical_formula_sum "Si O2"
_cell_formula_units_Z 32
_cell_length_a 15.600828
_cell_length_b 12.710878
_cell_length_c 7.614099
_cell_angle_alpha 90.000000
_cell_angle_beta 90.000000
_cell_angle_gamma 90.000000
_cell_volume 1509.877518
_symmetry_space_group_name_H-M "P N N A"
_symmetry_group_IT_number 52
_symmetry_cell_setting 'orthorhombic'
loop_
_space_group_symop_operation_xyz
x,y,z
1/2-x,-y,z
x,1/2-y,1/2-z
1/2-x,1/2+y,1/2-z
-x,-y,-z
1/2+x,y,-z
-x,1/2+y,1/2+z
1/2+x,1/2-y,1/2+z
loop_
_atom_site_type_symbol
_atom_site_label
_atom_site_fract_x
_atom_site_fract_y
_atom_site_fract_z
Si Si1 0.370348 0.815131 0.513551
Si Si2 0.090799 0.094135 0.158899
Si Si3 0.723546 0.750000 0.250000
Si Si4 0.905201 0.111121 0.036219
Si Si5 0.489815 0.250000 0.250000
O O1 0.375217 0.902472 0.359967
O O2 0.379417 0.698144 0.438508
O O3 0.280081 0.818811 0.614261
O O4 0.448867 0.834047 0.649161
O O5 0.987250 0.086685 0.158917
O O6 0.130427 0.995039 0.055153
O O7 0.667482 0.837794 0.154330
O O8 0.928266 0.190803 0.882137
#
# Coordination Sequence:
#
# PCOD8215748 Si02
#       5
#     8   8   4   8   4
#     4   9  19  37  58  82 119 156 187 241 306 349
#     4   9  19  39  63  82 112 156 198 243 295 347
#     4  11  22  36  56  85 124 158 194 241 292 352
#     4  10  20  36  61  88 113 151 204 246 282 347
#     4   9  18  34  56  83 116 152 192 239 294 346
#
# _framework density 21.193771999999999
#
# number of rings (size 3 to 8) (size 9 to 14) (size 15 to 20)
#    0.000    2.500    0.000    3.000    0.000    4.000 
#    0.000    7.500    0.000   12.000    0.000    0.000 
#    0.000    0.000    0.000    0.000    0.000    0.000 
#
# Total GULP energy -396767.312641 kJ/mol
# GULP energy per Si atom -12398.978520 kJ/mol
# Density = 2.114553 g / cm^3
# Si number density = 21.193772 Si / 1000 Ang^3
#
#
#
# Elastic Constant Matrix: (Units=GPa)
#
#
# Indices 1 2 3 4 5 6 
#
# 1 101.7958 48.1918 74.0499 0.0000 0.0000 0.0000
# 2 48.1918 93.1607 53.7097 0.0000 0.0000 0.0000
# 3 74.0499 53.7097 150.9512 0.0000 0.0000 0.0000
# 4 0.0000 0.0000 0.0000 41.3553 0.0000 0.0000
# 5 0.0000 0.0000 0.0000 0.0000 37.2721 0.0000
# 6 0.0000 0.0000 0.0000 0.0000 0.0000 10.0589
#
#
#
# Elastic Compliance Matrix: (Units=1/GPa)
#
#
# Indices 1 2 3 4 5 6 
#
# 1 0.016942 -0.004998 -0.006533 0.000000 0.000000 0.000000
# 2 -0.004998 0.014979 -0.002878 0.000000 0.000000 0.000000
# 3 -0.006533 -0.002878 0.010853 0.000000 0.000000 0.000000
# 4 0.000000 0.000000 0.000000 0.024181 0.000000 0.000000
# 5 0.000000 0.000000 0.000000 0.000000 0.026830 0.000000
# 6 0.000000 0.000000 0.000000 0.000000 0.000000 0.099414
#
#
# Mechanical properties :
#
#
# Convention : Reuss Voigt Hill
#
# Bulk Modulus (GPa) = 71.64768 77.53451 74.59109
# Shear Modulus (GPa) = 22.05882 29.06767 25.56325
#
# Velocity S-wave (km/s) = 3.22967 3.70742 3.47676
# Velocity P-wave (km/s) = 6.91282 7.41550 7.16857
#
# Compressibility (1/GPa) = 0.01395719
#
# Stress axis : x y z
#
# Youngs Moduli (GPa) = 59.02639 66.76201 92.13849
#
# Poissons Ratio (x) = 0.33365 0.60190
# Poissons Ratio (y) = 0.29499 0.26516
# Poissons Ratio (z) = 0.38559 0.19213
#
# Static dielectric constant tensor:
#      x y z
#    x 3.720840 0.000000 0.000000 
#    y 0.000000 3.592750 0.000000 
#    z 0.000000 0.000000 4.294880 
# 
# 
# High freq. dielectric constant tensor:
#      x y z
#    x 1.818950 0.000000 0.000000 
#    y 0.000000 1.808270 0.000000 
#    z 0.000000 0.000000 1.847170 
# 
# From -- ./inp_files/9595.got.cif
#   From: 2010.06.25/outbox.cif.g09.slc.cpg/sg52_5_cif.got.tgz:9595.got - 2010.06.26 19:32:48.
