data_PCOD8215193
_publ_section_title
;
Structure prediction by ZEFSAII (Michael W. Deem and Ramdas Pophale) SiO2 
 PCOD8215193
Probable space group: P N N A
;
_chemical_formula_sum "Si O2"
_cell_formula_units_Z 64
_cell_length_a 9.907070
_cell_length_b 19.170596
_cell_length_c 19.056456
_cell_angle_alpha 90.000000
_cell_angle_beta 90.000000
_cell_angle_gamma 90.000000
_cell_volume 3619.286668
_symmetry_space_group_name_H-M "P N N A"
_symmetry_group_IT_number 52
_symmetry_cell_setting 'orthorhombic'
loop_
_space_group_symop_operation_xyz
x,y,z
1/2-x,-y,z
x,1/2-y,1/2-z
1/2-x,1/2+y,1/2-z
-x,-y,-z
1/2+x,y,-z
-x,1/2+y,1/2+z
1/2+x,1/2-y,1/2+z
loop_
_atom_site_type_symbol
_atom_site_label
_atom_site_fract_x
_atom_site_fract_y
_atom_site_fract_z
Si Si1 0.229458 0.730101 0.059898
Si Si2 0.216622 0.891473 0.067042
Si Si3 0.968202 0.392195 0.437357
Si Si4 0.114989 0.543059 0.706461
Si Si5 0.775940 0.180917 0.711856
Si Si6 0.965972 0.269764 0.062633
Si Si7 0.537051 0.821673 0.285101
Si Si8 0.864561 0.049878 0.784835
O O1 0.198341 0.809591 0.081017
O O2 0.204221 0.684098 0.128527
O O3 0.382603 0.720969 0.033833
O O4 0.134112 0.703416 0.997627
O O5 0.373317 0.908384 0.049939
O O6 0.166551 0.933658 0.134116
O O7 0.119158 0.915673 0.004262
O O8 0.911192 0.435847 0.373227
O O9 0.942373 0.311248 0.419208
O O10 0.250000 0.500000 0.714611
O O11 0.117932 0.611746 0.755791
O O12 0.003089 0.488454 0.729566
O O13 0.828572 0.250000 0.750000
O O14 0.620445 0.167732 0.733904
O O15 0.869782 0.119483 0.739176
O O16 0.940397 0.316167 0.131474
O O17 0.589952 0.750000 0.250000
O O18 0.750000 0.000000 0.754099
#
# Coordination Sequence:
#
# PCOD8215193 Si02
#       8
#     8   8   8   8   8   8   8   8
#     4   9  18  34  57  87 114 143 189 239 285 333
#     4  10  20  34  56  82 115 155 192 230 277 339
#     4  10  20  36  55  82 115 155 192 228 278 340
#     4  12  26  40  54  85 122 153 193 237 293 343
#     4  10  18  35  64  87 108 148 200 242 278 333
#     4   9  18  34  61  85 111 144 190 240 280 337
#     4  10  18  37  65  83 107 154 201 231 279 347
#     4  12  22  38  58  84 115 149 193 240 283 335
#
# _framework density 17.683042
#
# number of rings (size 3 to 8) (size 9 to 14) (size 15 to 20)
#    0.000    1.750    5.000    0.000    1.750    1.000 
#    2.250    0.625    0.000    1.500    0.000    0.000 
#    0.000    0.000    0.000    0.000    0.000    0.000 
#
# Total GULP energy -793694.728970 kJ/mol
# GULP energy per Si atom -12401.480140 kJ/mol
# Density = 1.764279 g / cm^3
# Si number density = 17.683042 Si / 1000 Ang^3
#
#
#
# Elastic Constant Matrix: (Units=GPa)
#
#
# Indices 1 2 3 4 5 6 
#
# 1 110.8349 55.0467 48.3004 0.0000 0.0000 0.0000
# 2 55.0467 104.3595 50.3853 0.0000 0.0000 0.0000
# 3 48.3004 50.3853 80.9985 0.0000 0.0000 0.0000
# 4 0.0000 0.0000 0.0000 27.7162 0.0000 0.0000
# 5 0.0000 0.0000 0.0000 0.0000 31.4529 0.0000
# 6 0.0000 0.0000 0.0000 0.0000 0.0000 26.0823
#
#
#
# Elastic Compliance Matrix: (Units=1/GPa)
#
#
# Indices 1 2 3 4 5 6 
#
# 1 0.013611 -0.004660 -0.005217 0.000000 0.000000 0.000000
# 2 -0.004660 0.015291 -0.006733 0.000000 0.000000 0.000000
# 3 -0.005217 -0.006733 0.019645 0.000000 0.000000 0.000000
# 4 0.000000 0.000000 0.000000 0.036080 0.000000 0.000000
# 5 0.000000 0.000000 0.000000 0.000000 0.031794 0.000000
# 6 0.000000 0.000000 0.000000 0.000000 0.000000 0.038340
#
#
# Mechanical properties :
#
#
# Convention : Reuss Voigt Hill
#
# Bulk Modulus (GPa) = 65.24810 67.07307 66.16059
# Shear Modulus (GPa) = 25.89466 26.54766 26.22116
#
# Velocity S-wave (km/s) = 3.83087 3.87887 3.85495
# Velocity P-wave (km/s) = 7.51972 7.62063 7.57034
#
# Compressibility (1/GPa) = 0.01532612
#
# Stress axis : x y z
#
# Youngs Moduli (GPa) = 73.47227 65.39752 50.90310
#
# Poissons Ratio (x) = 0.30477 0.26557
# Poissons Ratio (y) = 0.34240 0.34272
# Poissons Ratio (z) = 0.38332 0.44031
#
# Static dielectric constant tensor:
#      x y z
#    x 3.204530 0.000000 0.000000 
#    y 0.000000 3.228210 0.000000 
#    z 0.000000 0.000000 3.233820 
# 
# 
# High freq. dielectric constant tensor:
#      x y z
#    x 1.672890 0.000000 0.000000 
#    y 0.000000 1.677120 0.000000 
#    z 0.000000 0.000000 1.679910 
# 
# From -- ./inp_files/32423.got.cif
#   From: 2010.06.25/outbox.cif.g09.slc.cpg/sg52_17_cif.got.tgz:32423.got - 2010.06.26 19:32:48.
