data_PCOD8215081
_publ_section_title
;
Structure prediction by ZEFSAII (Michael W. Deem and Ramdas Pophale) SiO2 
 PCOD8215081
Probable space group: P N N A
;
_chemical_formula_sum "Si O2"
_cell_formula_units_Z 32
_cell_length_a 7.985353
_cell_length_b 13.009240
_cell_length_c 14.992340
_cell_angle_alpha 90.000000
_cell_angle_beta 90.000000
_cell_angle_gamma 90.000000
_cell_volume 1557.454858
_symmetry_space_group_name_H-M "P N N A"
_symmetry_group_IT_number 52
_symmetry_cell_setting 'orthorhombic'
loop_
_space_group_symop_operation_xyz
x,y,z
1/2-x,-y,z
x,1/2-y,1/2-z
1/2-x,1/2+y,1/2-z
-x,-y,-z
1/2+x,y,-z
-x,1/2+y,1/2+z
1/2+x,1/2-y,1/2+z
loop_
_atom_site_type_symbol
_atom_site_label
_atom_site_fract_x
_atom_site_fract_y
_atom_site_fract_z
Si Si1 0.165905 0.394553 0.416122
Si Si2 0.772149 0.191295 0.378653
Si Si3 0.637703 0.905300 0.203656
Si Si4 0.453638 0.256959 0.455858
O O1 0.250000 0.500000 0.449187
O O2 0.310004 0.309795 0.394857
O O3 0.055836 0.416791 0.327051
O O4 0.054799 0.350235 0.496886
O O5 0.844490 0.106120 0.310999
O O6 0.788767 0.305248 0.341183
O O7 0.572220 0.182910 0.396495
O O8 0.873234 0.181160 0.470608
O O9 0.750000 0.000000 0.170758
#
# Coordination Sequence:
#
# PCOD8215081 Si02
#       4
#     8   8   8   8
#     4  10  18  30  52  82 106 133 172 217 269 318
#     4   9  19  36  54  75 103 137 174 217 261 308
#     4  10  20  35  52  75 109 142 171 212 263 315
#     4   9  18  33  54  75 103 136 172 219 264 306
#
# _framework density 20.546341999999999
#
# number of rings (size 3 to 8) (size 9 to 14) (size 15 to 20)
#    0.000    2.500    0.000    2.250    0.000    7.000 
#    0.000   28.750    0.000    0.000    0.000    0.000 
#    0.000    0.000    0.000    0.000    0.000    0.000 
#
# Total GULP energy -396601.436714 kJ/mol
# GULP energy per Si atom -12393.794897 kJ/mol
# Density = 2.049958 g / cm^3
# Si number density = 20.546342 Si / 1000 Ang^3
#
#
#
# Elastic Constant Matrix: (Units=GPa)
#
#
# Indices 1 2 3 4 5 6 
#
# 1 146.7599 17.3290 51.5338 0.0000 0.0000 0.0000
# 2 17.3290 31.5770 10.3761 0.0000 0.0000 0.0000
# 3 51.5338 10.3761 70.5192 0.0000 0.0000 0.0000
# 4 0.0000 0.0000 0.0000 6.6967 0.0000 0.0000
# 5 0.0000 0.0000 0.0000 0.0000 20.9497 0.0000
# 6 0.0000 0.0000 0.0000 0.0000 0.0000 18.1867
#
#
#
# Elastic Compliance Matrix: (Units=1/GPa)
#
#
# Indices 1 2 3 4 5 6 
#
# 1 0.009439 -0.003062 -0.006448 0.000000 0.000000 0.000000
# 2 -0.003062 0.034271 -0.002805 0.000000 0.000000 0.000000
# 3 -0.006448 -0.002805 0.019305 0.000000 0.000000 0.000000
# 4 0.000000 0.000000 0.000000 0.149328 0.000000 0.000000
# 5 0.000000 0.000000 0.000000 0.000000 0.047733 0.000000
# 6 0.000000 0.000000 0.000000 0.000000 0.000000 0.054985
#
#
# Mechanical properties :
#
#
# Convention : Reuss Voigt Hill
#
# Bulk Modulus (GPa) = 26.05100 45.25932 35.65516
# Shear Modulus (GPa) = 14.18497 20.47443 17.32970
#
# Velocity S-wave (km/s) = 2.63038 3.16016 2.90736
# Velocity P-wave (km/s) = 4.68314 5.94906 5.35365
#
# Compressibility (1/GPa) = 0.03838624
#
# Stress axis : x y z
#
# Youngs Moduli (GPa) = 105.93920 29.17955 51.79991
#
# Poissons Ratio (x) = 0.08933 0.33399
# Poissons Ratio (y) = 0.32433 0.14531
# Poissons Ratio (z) = 0.68305 0.08186
#
# Static dielectric constant tensor:
#      x y z
#    x 4.139700 0.000000 0.000000 
#    y 0.000000 3.377730 0.000000 
#    z 0.000000 0.000000 3.981230 
# 
# 
# High freq. dielectric constant tensor:
#      x y z
#    x 1.817760 0.000000 0.000000 
#    y 0.000000 1.765620 0.000000 
#    z 0.000000 0.000000 1.782040 
# 
# From -- ./inp_files/24088.got.cif
#   From: 2010.06.25/outbox.cif.g09.slc.cpg/sg52_13_cif.got.tgz:24088.got - 2010.06.26 19:32:48.
