data_PCOD8215882
_publ_section_title
;
Structure prediction by ZEFSAII (Michael W. Deem and Ramdas Pophale) SiO2 
 PCOD8215882
Probable space group: P N N A
;
_chemical_formula_sum "Si O2"
_cell_formula_units_Z 64
_cell_length_a 19.827117
_cell_length_b 14.881798
_cell_length_c 10.799261
_cell_angle_alpha 90.000000
_cell_angle_beta 90.000000
_cell_angle_gamma 90.000000
_cell_volume 3186.463970
_symmetry_space_group_name_H-M "P N N A"
_symmetry_group_IT_number 52
_symmetry_cell_setting 'orthorhombic'
loop_
_space_group_symop_operation_xyz
x,y,z
1/2-x,-y,z
x,1/2-y,1/2-z
1/2-x,1/2+y,1/2-z
-x,-y,-z
1/2+x,y,-z
-x,1/2+y,1/2+z
1/2+x,1/2-y,1/2+z
loop_
_atom_site_type_symbol
_atom_site_label
_atom_site_fract_x
_atom_site_fract_y
_atom_site_fract_z
Si Si1 0.202520 0.739793 0.602553
Si Si2 0.087024 0.649660 0.005077
Si Si3 0.065589 0.036200 0.067789
Si Si4 0.523142 0.282529 0.492412
Si Si5 0.848131 0.796609 0.380717
Si Si6 0.104801 0.482691 0.842298
Si Si7 0.528837 0.894152 0.759254
Si Si8 0.324125 0.039384 0.894844
O O1 0.193710 0.750000 0.750000
O O2 0.160240 0.812156 0.526012
O O3 0.279638 0.756331 0.562963
O O4 0.180015 0.641225 0.556974
O O5 0.073885 0.651180 0.152619
O O6 0.031169 0.716229 0.942969
O O7 0.082899 0.547873 0.954142
O O8 0.072017 0.980496 0.194410
O O9 0.049407 0.141375 0.088274
O O10 0.133579 0.022976 0.988404
O O11 0.000000 0.000000 0.000000
O O12 0.588516 0.223750 0.466098
O O13 0.488462 0.324673 0.369174
O O14 0.862116 0.750000 0.250000
O O15 0.840629 0.905294 0.375989
O O16 0.137130 0.543470 0.735407
O O17 0.040690 0.427236 0.797671
O O18 0.250000 0.000000 0.878231
#
# Coordination Sequence:
#
# PCOD8215882 Si02
#       8
#     8   8   8   8   8   8   8   8
#     4  11  23  37  57  93 128 161 201 262 324 369
#     4  12  25  37  59  97 134 166 202 262 330 384
#     4  10  20  38  64  90 118 160 215 262 305 366
#     4  11  20  38  64  91 117 164 217 264 306 374
#     4  11  20  38  61  89 120 162 212 256 316 381
#     4  12  23  38  61  94 129 161 208 264 321 381
#     4  11  22  40  63  89 125 168 212 254 311 390
#     4  12  22  39  66  95 126 160 211 272 319 368
#
# _framework density 20.084959000000001
#
# number of rings (size 3 to 8) (size 9 to 14) (size 15 to 20)
#    0.000    0.750    6.250    4.500    0.000    0.000 
#    0.000    0.000    2.750    0.000    3.250    0.000 
#    0.000    0.000    0.000    0.000    0.000    0.000 
#
# Total GULP energy -793444.652102 kJ/mol
# GULP energy per Si atom -12397.572689 kJ/mol
# Density = 2.003925 g / cm^3
# Si number density = 20.084959 Si / 1000 Ang^3
#
#
#
# Elastic Constant Matrix: (Units=GPa)
#
#
# Indices 1 2 3 4 5 6 
#
# 1 89.4017 22.1623 23.0507 0.0000 0.0000 0.0000
# 2 22.1623 133.6338 19.8028 0.0000 0.0000 0.0000
# 3 23.0507 19.8028 43.5886 0.0000 0.0000 0.0000
# 4 0.0000 0.0000 0.0000 31.1124 0.0000 0.0000
# 5 0.0000 0.0000 0.0000 0.0000 20.8865 0.0000
# 6 0.0000 0.0000 0.0000 0.0000 0.0000 32.9814
#
#
#
# Elastic Compliance Matrix: (Units=1/GPa)
#
#
# Indices 1 2 3 4 5 6 
#
# 1 0.013138 -0.001232 -0.006388 0.000000 0.000000 0.000000
# 2 -0.001232 0.008139 -0.003046 0.000000 0.000000 0.000000
# 3 -0.006388 -0.003046 0.027704 0.000000 0.000000 0.000000
# 4 0.000000 0.000000 0.000000 0.032142 0.000000 0.000000
# 5 0.000000 0.000000 0.000000 0.000000 0.047878 0.000000
# 6 0.000000 0.000000 0.000000 0.000000 0.000000 0.030320
#
#
# Mechanical properties :
#
#
# Convention : Reuss Voigt Hill
#
# Bulk Modulus (GPa) = 36.16849 44.07286 40.12068
# Shear Modulus (GPa) = 26.33409 30.43662 28.38536
#
# Velocity S-wave (km/s) = 3.62489 3.89703 3.76342
# Velocity P-wave (km/s) = 5.96377 6.49923 6.23725
#
# Compressibility (1/GPa) = 0.02764837
#
# Stress axis : x y z
#
# Youngs Moduli (GPa) = 76.11545 122.86729 36.09637
#
# Poissons Ratio (x) = 0.15140 0.23058
# Poissons Ratio (y) = 0.09379 0.10995
# Poissons Ratio (z) = 0.48621 0.37425
#
# Static dielectric constant tensor:
#      x y z
#    x 3.732200 0.000000 0.000000 
#    y 0.000000 4.288540 0.000000 
#    z 0.000000 0.000000 3.703790 
# 
# 
# High freq. dielectric constant tensor:
#      x y z
#    x 1.785200 0.000000 0.000000 
#    y 0.000000 1.809230 0.000000 
#    z 0.000000 0.000000 1.735350 
# 
# From -- ./inp_files/20897.got.cif
#   From: 2010.06.25/outbox.cif.g09.slc.cpg/sg52_11_cif.got.tgz:20897.got - 2010.06.26 19:32:48.
