data_PCOD8215040
_publ_section_title
;
Structure prediction by ZEFSAII (Michael W. Deem and Ramdas Pophale) SiO2 
 PCOD8215040
Probable space group: P N N A
;
_chemical_formula_sum "Si O2"
_cell_formula_units_Z 40
_cell_length_a 20.418190
_cell_length_b 5.034346
_cell_length_c 24.706644
_cell_angle_alpha 90.000000
_cell_angle_beta 90.000000
_cell_angle_gamma 90.000000
_cell_volume 2539.651110
_symmetry_space_group_name_H-M "P N N A"
_symmetry_group_IT_number 52
_symmetry_cell_setting 'orthorhombic'
loop_
_space_group_symop_operation_xyz
x,y,z
1/2-x,-y,z
x,1/2-y,1/2-z
1/2-x,1/2+y,1/2-z
-x,-y,-z
1/2+x,y,-z
-x,1/2+y,1/2+z
1/2+x,1/2-y,1/2+z
loop_
_atom_site_type_symbol
_atom_site_label
_atom_site_fract_x
_atom_site_fract_y
_atom_site_fract_z
Si Si1 0.392952 0.043162 0.896912
Si Si2 0.467067 0.552860 0.922932
Si Si3 0.173693 0.968451 0.008172
Si Si4 0.706049 0.754399 0.187484
Si Si5 0.597923 0.450295 0.965477
O O1 0.447901 0.249098 0.914637
O O2 0.359264 0.195524 0.846696
O O3 0.431961 0.767563 0.882341
O O4 0.340877 0.982614 0.944427
O O5 0.546811 0.551240 0.919283
O O6 0.444929 0.637328 0.982741
O O7 0.151628 0.674255 0.023641
O O8 0.250000 0.000000 0.018054
O O9 0.137612 0.180621 0.047738
O O10 0.750000 0.500000 0.170816
O O11 0.684845 0.750000 0.250000
O O12 0.750000 0.000000 0.173342
#
# Coordination Sequence:
#
# PCOD8215040 Si02
#       5
#     8   8   8   8   8
#     4  10  18  28  43  59  76 101 140 175 201 236
#     4   9  17  28  42  57  74 101 133 171 205 234
#     4  10  18  26  39  58  80 106 135 168 201 235
#     4  10  20  32  44  59  82 109 136 172 215 250
#     4   9  17  28  39  55  79 102 131 167 204 239
#
# _framework density 15.750195
#
# number of rings (size 3 to 8) (size 9 to 14) (size 15 to 20)
#    0.000    2.400    0.000    3.600    0.000    8.000 
#    0.000    0.000    0.000    0.000    0.000    0.000 
#    0.000    0.000    0.000    0.000    0.000   56.000 
#
# Total GULP energy -495592.311159 kJ/mol
# GULP energy per Si atom -12389.807779 kJ/mol
# Density = 1.571435 g / cm^3
# Si number density = 15.750195 Si / 1000 Ang^3
#
#
#
# Elastic Constant Matrix: (Units=GPa)
#
#
# Indices 1 2 3 4 5 6 
#
# 1 106.0508 34.8087 24.8450 0.0000 0.0000 0.0000
# 2 34.8087 100.6916 10.0524 0.0000 0.0000 0.0000
# 3 24.8450 10.0524 27.1940 0.0000 0.0000 0.0000
# 4 0.0000 0.0000 0.0000 16.0475 0.0000 0.0000
# 5 0.0000 0.0000 0.0000 0.0000 13.1254 0.0000
# 6 0.0000 0.0000 0.0000 0.0000 0.0000 -194.9454
#
#
#
# Elastic Compliance Matrix: (Units=1/GPa)
#
#
# Indices 1 2 3 4 5 6 
#
# 1 0.013058 -0.003450 -0.010655 0.000000 0.000000 0.000000
# 2 -0.003450 0.011224 -0.000997 0.000000 0.000000 0.000000
# 3 -0.010655 -0.000997 0.046876 0.000000 0.000000 0.000000
# 4 0.000000 0.000000 0.000000 0.062315 0.000000 0.000000
# 5 0.000000 0.000000 0.000000 0.000000 0.076188 0.000000
# 6 0.000000 0.000000 0.000000 0.000000 0.000000 -0.005130
#
#
# Mechanical properties :
#
#
# Convention : Reuss Voigt Hill
#
# Bulk Modulus (GPa) = 24.41761 41.48318 32.95040
# Shear Modulus (GPa) = 20.12999 -22.20582 -1.03792
#
# Velocity S-wave (km/s) = 3.57890 -3.75891 -0.81266
# Velocity P-wave (km/s) = 5.71093 2.74886 4.48168
#
# Compressibility (1/GPa) = 0.04095404
#
# Stress axis : x y z
#
# Youngs Moduli (GPa) = 76.58096 89.09798 21.33308
#
# Poissons Ratio (x) = 0.30743 0.22730
# Poissons Ratio (y) = 0.26424 0.02126
# Poissons Ratio (z) = 0.81594 0.08879
#
# Static dielectric constant tensor:
#      x y z
#    x 3.004290 0.000000 0.000000 
#    y 0.000000 3.226180 0.000000 
#    z 0.000000 0.000000 1.672410 
# 
# 
# High freq. dielectric constant tensor:
#      x y z
#    x 1.604690 0.000000 0.000000 
#    y 0.000000 1.633500 0.000000 
#    z 0.000000 0.000000 1.526060 
# 
# From -- ./inp_files/33466.got.cif
#   From: 2010.06.25/outbox.cif.g09.slc.cpg/sg52_17_cif.got.tgz:33466.got - 2010.06.26 19:32:48.
