data_PCOD8215905
_publ_section_title
;
Structure prediction by ZEFSAII (Michael W. Deem and Ramdas Pophale) SiO2 
 PCOD8215905
Probable space group: P N N A
;
_chemical_formula_sum "Si O2"
_cell_formula_units_Z 20
_cell_length_a 22.437548
_cell_length_b 4.835263
_cell_length_c 8.122784
_cell_angle_alpha 90.000000
_cell_angle_beta 90.000000
_cell_angle_gamma 90.000000
_cell_volume 881.252579
_symmetry_space_group_name_H-M "P N N A"
_symmetry_group_IT_number 52
_symmetry_cell_setting 'orthorhombic'
loop_
_space_group_symop_operation_xyz
x,y,z
1/2-x,-y,z
x,1/2-y,1/2-z
1/2-x,1/2+y,1/2-z
-x,-y,-z
1/2+x,y,-z
-x,1/2+y,1/2+z
1/2+x,1/2-y,1/2+z
loop_
_atom_site_type_symbol
_atom_site_label
_atom_site_fract_x
_atom_site_fract_y
_atom_site_fract_z
Si Si1 0.559240 0.858534 0.567425
Si Si2 0.875348 0.653613 0.437439
Si Si3 0.750000 0.500000 0.366295
O O1 0.549013 0.750000 0.750000
O O2 0.578555 0.598694 0.456574
O O3 0.500000 0.000000 0.500000
O O4 0.609834 0.095028 0.561227
O O5 0.880438 0.750000 0.250000
O O6 0.807270 0.568399 0.479360
O O7 0.730115 0.750000 0.250000
#
# Coordination Sequence:
#
# PCOD8215905 Si02
#       3
#     8   8   4
#     4  12  26  44  65  97 136 177 220 273 334 394
#     4  11  23  43  70  99 129 172 222 272 325 394
#     4  10  20  38  68 102 130 166 218 272 326 392
#
# _framework density 22.694969
#
# number of rings (size 3 to 8) (size 9 to 14) (size 15 to 20)
#    0.000    0.800    0.000    9.600    0.000    3.200 
#    0.000    4.000    0.000    2.400    0.000    0.000 
#    0.000    0.000    0.000    0.000    0.000    0.000 
#
# Total GULP energy -248048.619218 kJ/mol
# GULP energy per Si atom -12402.430961 kJ/mol
# Density = 2.264331 g / cm^3
# Si number density = 22.694969 Si / 1000 Ang^3
#
#
#
# Elastic Constant Matrix: (Units=GPa)
#
#
# Indices 1 2 3 4 5 6 
#
# 1 157.5398 73.4534 92.4213 0.0000 0.0000 0.0000
# 2 73.4534 177.5727 65.5976 0.0000 0.0000 0.0000
# 3 92.4213 65.5976 106.0052 0.0000 0.0000 0.0000
# 4 0.0000 0.0000 0.0000 53.9248 0.0000 0.0000
# 5 0.0000 0.0000 0.0000 0.0000 39.5546 0.0000
# 6 0.0000 0.0000 0.0000 0.0000 0.0000 54.3713
#
#
#
# Elastic Compliance Matrix: (Units=1/GPa)
#
#
# Indices 1 2 3 4 5 6 
#
# 1 0.013328 -0.001582 -0.010641 0.000000 0.000000 0.000000
# 2 -0.001582 0.007488 -0.003254 0.000000 0.000000 0.000000
# 3 -0.010641 -0.003254 0.020725 0.000000 0.000000 0.000000
# 4 0.000000 0.000000 0.000000 0.018544 0.000000 0.000000
# 5 0.000000 0.000000 0.000000 0.000000 0.025282 0.000000
# 6 0.000000 0.000000 0.000000 0.000000 0.000000 0.018392
#
#
# Mechanical properties :
#
#
# Convention : Reuss Voigt Hill
#
# Bulk Modulus (GPa) = 94.46595 100.45138 97.45866
# Shear Modulus (GPa) = 36.16850 43.54651 39.85750
#
# Velocity S-wave (km/s) = 3.99642 4.38513 4.19528
# Velocity P-wave (km/s) = 7.93787 8.36641 8.15495
#
# Compressibility (1/GPa) = 0.01058583
#
# Stress axis : x y z
#
# Youngs Moduli (GPa) = 75.03113 133.54385 48.25184
#
# Poissons Ratio (x) = 0.21130 0.51344
# Poissons Ratio (y) = 0.11872 0.15703
# Poissons Ratio (z) = 0.79839 0.43460
#
# Static dielectric constant tensor:
#      x y z
#    x 4.510760 0.000000 0.000000 
#    y 0.000000 4.765440 0.000000 
#    z 0.000000 0.000000 3.774140 
# 
# 
# High freq. dielectric constant tensor:
#      x y z
#    x 1.909780 0.000000 0.000000 
#    y 0.000000 1.931320 0.000000 
#    z 0.000000 0.000000 1.860480 
# 
# From -- ./inp_files/13705.got.cif
#   From: 2010.06.25/outbox.cif.g09.slc.cpg/sg52_7_cif.got.tgz:13705.got - 2010.06.26 19:32:48.
