data_PCOD8215291
_publ_section_title
;
Structure prediction by ZEFSAII (Michael W. Deem and Ramdas Pophale) SiO2 
 PCOD8215291
Probable space group: P N N A
;
_chemical_formula_sum "Si O2"
_cell_formula_units_Z 44
_cell_length_a 30.211340
_cell_length_b 8.940407
_cell_length_c 8.406643
_cell_angle_alpha 90.000000
_cell_angle_beta 90.000000
_cell_angle_gamma 90.000000
_cell_volume 2270.648361
_symmetry_space_group_name_H-M "P N N A"
_symmetry_group_IT_number 52
_symmetry_cell_setting 'orthorhombic'
loop_
_space_group_symop_operation_xyz
x,y,z
1/2-x,-y,z
x,1/2-y,1/2-z
1/2-x,1/2+y,1/2-z
-x,-y,-z
1/2+x,y,-z
-x,1/2+y,1/2+z
1/2+x,1/2-y,1/2+z
loop_
_atom_site_type_symbol
_atom_site_label
_atom_site_fract_x
_atom_site_fract_y
_atom_site_fract_z
Si Si1 0.780045 0.250000 0.750000
Si Si2 0.834782 0.468083 0.171660
Si Si3 0.939473 0.184600 0.005835
Si Si4 0.566367 0.510204 0.169150
Si Si5 0.158200 0.650885 0.504151
Si Si6 0.494062 0.750000 0.750000
Si Si7 0.750000 0.000000 0.523529
O O1 0.809976 0.363139 0.646731
O O2 0.752016 0.352524 0.867946
O O3 0.882658 0.546382 0.147614
O O4 0.827387 0.470626 0.363101
O O5 0.838629 0.305058 0.098107
O O6 0.792586 0.541672 0.085054
O O7 0.943193 0.362667 0.038748
O O8 0.945355 0.083704 0.161187
O O9 0.891548 0.136596 0.937305
O O10 0.976122 0.152222 0.871690
O O11 0.536002 0.364341 0.147630
#
# Coordination Sequence:
#
# PCOD8215291 Si02
#       7
#     4   8   8   8   8   4   4
#     4  10  19  32  52  82 106 122 162 224 265 288
#     4   8  16  33  52  69  96 137 173 200 243 303
#     4   9  18  33  52  71  96 134 174 202 237 299
#     4   9  19  34  49  71 104 133 166 209 246 295
#     4   8  15  31  53  72  93 130 175 209 235 289
#     4  12  19  28  50  80 102 126 160 208 265 298
#     4  10  20  34  54  76 102 136 172 208 254 312
#
# _framework density 19.377727
#
# number of rings (size 3 to 8) (size 9 to 14) (size 15 to 20)
#    0.000    2.909    0.000    3.818    0.000    0.727 
#    0.000    7.273    0.000    6.545    0.000    0.000 
#    0.000    0.000    0.000    0.000    0.000    0.000 
#
# Total GULP energy -545100.260943 kJ/mol
# GULP energy per Si atom -12388.642294 kJ/mol
# Density = 1.933362 g / cm^3
# Si number density = 19.377727 Si / 1000 Ang^3
#
#
#
# Elastic Constant Matrix: (Units=GPa)
#
#
# Indices 1 2 3 4 5 6 
#
# 1 142.7406 34.6504 64.6304 0.0000 0.0000 0.0000
# 2 34.6504 41.4518 11.9209 0.0000 0.0000 0.0000
# 3 64.6304 11.9209 80.3790 0.0000 0.0000 0.0000
# 4 0.0000 0.0000 0.0000 20.1490 0.0000 0.0000
# 5 0.0000 0.0000 0.0000 0.0000 23.1614 0.0000
# 6 0.0000 0.0000 0.0000 0.0000 0.0000 20.8115
#
#
#
# Elastic Compliance Matrix: (Units=1/GPa)
#
#
# Indices 1 2 3 4 5 6 
#
# 1 0.013344 -0.008428 -0.009479 0.000000 0.000000 0.000000
# 2 -0.008428 0.030523 0.002250 0.000000 0.000000 0.000000
# 3 -0.009479 0.002250 0.019729 0.000000 0.000000 0.000000
# 4 0.000000 0.000000 0.000000 0.049630 0.000000 0.000000
# 5 0.000000 0.000000 0.000000 0.000000 0.043175 0.000000
# 6 0.000000 0.000000 0.000000 0.000000 0.000000 0.048050
#
#
# Mechanical properties :
#
#
# Convention : Reuss Voigt Hill
#
# Bulk Modulus (GPa) = 30.97803 54.10830 42.54316
# Shear Modulus (GPa) = 20.28175 23.04901 21.66538
#
# Velocity S-wave (km/s) = 3.23871 3.45260 3.34736
# Velocity P-wave (km/s) = 5.47784 6.62400 6.07800
#
# Compressibility (1/GPa) = 0.03228095
#
# Stress axis : x y z
#
# Youngs Moduli (GPa) = 74.94148 32.76253 50.68577
#
# Poissons Ratio (x) = 0.27613 0.48047
# Poissons Ratio (y) = 0.63162 -0.11405
# Poissons Ratio (z) = 0.71040 -0.07372
#
# Static dielectric constant tensor:
#      x y z
#    x 3.808850 0.000000 0.000000 
#    y 0.000000 3.115260 0.000000 
#    z 0.000000 0.000000 3.844550 
# 
# 
# High freq. dielectric constant tensor:
#      x y z
#    x 1.763730 0.000000 0.000000 
#    y 0.000000 1.705570 0.000000 
#    z 0.000000 0.000000 1.753230 
# 
# From -- ./inp_files/15424.got.cif
#   From: 2010.06.25/outbox.cif.g09.slc.cpg/sg52_8_cif.got.tgz:15424.got - 2010.06.26 19:32:48.
