data_PCOD8215816
_publ_section_title
;
Structure prediction by ZEFSAII (Michael W. Deem and Ramdas Pophale) SiO2 
 PCOD8215816
Probable space group: P N N A
;
_chemical_formula_sum "Si O2"
_cell_formula_units_Z 44
_cell_length_a 7.761459
_cell_length_b 17.803657
_cell_length_c 14.836831
_cell_angle_alpha 90.000000
_cell_angle_beta 90.000000
_cell_angle_gamma 90.000000
_cell_volume 2050.188231
_symmetry_space_group_name_H-M "P N N A"
_symmetry_group_IT_number 52
_symmetry_cell_setting 'orthorhombic'
loop_
_space_group_symop_operation_xyz
x,y,z
1/2-x,-y,z
x,1/2-y,1/2-z
1/2-x,1/2+y,1/2-z
-x,-y,-z
1/2+x,y,-z
-x,1/2+y,1/2+z
1/2+x,1/2-y,1/2+z
loop_
_atom_site_type_symbol
_atom_site_label
_atom_site_fract_x
_atom_site_fract_y
_atom_site_fract_z
Si Si1 0.750000 0.000000 0.740470
Si Si2 0.579365 0.622577 0.863758
Si Si3 0.326517 0.224658 0.909319
Si Si4 0.939596 0.919775 0.893928
Si Si5 0.581076 0.250000 0.250000
Si Si6 0.386251 0.818619 0.470905
Si Si7 0.250000 0.000000 0.962928
O O1 0.900717 0.040215 0.681202
O O2 0.657758 0.065758 0.799448
O O3 0.540153 0.684450 0.787514
O O4 0.766537 0.635424 0.905256
O O5 0.434951 0.629292 0.942042
O O6 0.461320 0.157355 0.907788
O O7 0.205501 0.214336 0.824066
O O8 0.444918 0.299671 0.911655
O O9 0.202489 0.239301 0.996270
O O10 0.797413 0.928435 0.973544
O O11 0.084486 0.984576 0.901572
#
# Coordination Sequence:
#
# PCOD8215816 Si02
#       7
#     4   8   8   8   4   8   4
#     4  11  26  38  60  93 130 168 202 257 322 356
#     4  10  23  44  60  94 122 164 208 264 303 381
#     4  10  20  37  62  93 112 162 196 263 302 367
#     4  10  21  36  59  86 125 160 203 243 311 368
#     4  10  24  36  64  92 128 144 210 260 318 346
#     4   9  21  41  67  87 119 160 217 249 313 361
#     4   9  20  38  52  83 122 168 196 241 288 390
#
# _framework density 21.461445000000001
#
# number of rings (size 3 to 8) (size 9 to 14) (size 15 to 20)
#    0.000    2.182    0.000    1.091    7.636    0.727 
#    6.545    0.000    0.000    0.000    0.000    0.000 
#    0.000    0.000    0.000    0.000    0.000    0.000 
#
# Total GULP energy -545129.790452 kJ/mol
# GULP energy per Si atom -12389.313419 kJ/mol
# Density = 2.141260 g / cm^3
# Si number density = 21.461445 Si / 1000 Ang^3
#
#
#
# Elastic Constant Matrix: (Units=GPa)
#
#
# Indices 1 2 3 4 5 6 
#
# 1 103.5120 21.6257 36.4085 0.0000 0.0000 0.0000
# 2 21.6257 68.9209 24.0132 0.0000 0.0000 0.0000
# 3 36.4085 24.0132 78.2267 0.0000 0.0000 0.0000
# 4 0.0000 0.0000 0.0000 13.9425 0.0000 0.0000
# 5 0.0000 0.0000 0.0000 0.0000 27.7991 0.0000
# 6 0.0000 0.0000 0.0000 0.0000 0.0000 40.3649
#
#
#
# Elastic Compliance Matrix: (Units=1/GPa)
#
#
# Indices 1 2 3 4 5 6 
#
# 1 0.011793 -0.002002 -0.004874 0.000000 0.000000 0.000000
# 2 -0.002002 0.016587 -0.004160 0.000000 0.000000 0.000000
# 3 -0.004874 -0.004160 0.016329 0.000000 0.000000 0.000000
# 4 0.000000 0.000000 0.000000 0.071723 0.000000 0.000000
# 5 0.000000 0.000000 0.000000 0.000000 0.035972 0.000000
# 6 0.000000 0.000000 0.000000 0.000000 0.000000 0.024774
#
#
# Mechanical properties :
#
#
# Convention : Reuss Voigt Hill
#
# Bulk Modulus (GPa) = 44.17615 46.08383 45.12999
# Shear Modulus (GPa) = 24.17831 27.66213 25.92022
#
# Velocity S-wave (km/s) = 3.36012 3.59405 3.47905
# Velocity P-wave (km/s) = 5.97348 6.22434 6.10020
#
# Compressibility (1/GPa) = 0.02263665
#
# Stress axis : x y z
#
# Youngs Moduli (GPa) = 84.79270 60.28820 61.24101
#
# Poissons Ratio (x) = 0.12071 0.29851
# Poissons Ratio (y) = 0.16977 0.25475
# Poissons Ratio (z) = 0.41331 0.25079
#
# Static dielectric constant tensor:
#      x y z
#    x 4.095270 0.000000 0.000000 
#    y 0.000000 3.496930 0.000000 
#    z 0.000000 0.000000 3.874650 
# 
# 
# High freq. dielectric constant tensor:
#      x y z
#    x 1.863020 0.000000 0.000000 
#    y 0.000000 1.811530 0.000000 
#    z 0.000000 0.000000 1.836110 
# 
# From -- ./inp_files/24663.got.cif
#   From: 2010.06.25/outbox.cif.g09.slc.cpg/sg52_13_cif.got.tgz:24663.got - 2010.06.26 19:32:48.
