data_PCOD8215027
_publ_section_title
;
Structure prediction by ZEFSAII (Michael W. Deem and Ramdas Pophale) SiO2 
 PCOD8215027
Probable space group: P N N A
;
_chemical_formula_sum "Si O2"
_cell_formula_units_Z 32
_cell_length_a 15.676695
_cell_length_b 13.512880
_cell_length_c 5.143624
_cell_angle_alpha 90.000000
_cell_angle_beta 90.000000
_cell_angle_gamma 90.000000
_cell_volume 1089.611412
_symmetry_space_group_name_H-M "P N N A"
_symmetry_group_IT_number 52
_symmetry_cell_setting 'orthorhombic'
loop_
_space_group_symop_operation_xyz
x,y,z
1/2-x,-y,z
x,1/2-y,1/2-z
1/2-x,1/2+y,1/2-z
-x,-y,-z
1/2+x,y,-z
-x,1/2+y,1/2+z
1/2+x,1/2-y,1/2+z
loop_
_atom_site_type_symbol
_atom_site_label
_atom_site_fract_x
_atom_site_fract_y
_atom_site_fract_z
Si Si1 0.079472 0.540090 0.818614
Si Si2 0.691639 0.125898 0.135638
Si Si3 0.781584 0.109860 0.636027
Si Si4 0.494919 0.649855 0.646346
O O1 0.165786 0.492647 0.680594
O O2 0.115652 0.601390 0.073606
O O3 0.015848 0.442205 0.863202
O O4 0.040559 0.615630 0.614591
O O5 0.759978 0.157884 0.912909
O O6 0.731837 0.166945 0.404270
O O7 0.602099 0.179070 0.066555
O O8 0.750000 0.000000 0.670708
O O9 0.539667 0.750000 0.750000
#
# Coordination Sequence:
#
# PCOD8215027 Si02
#       4
#     8   8   8   8
#     4   8  18  35  63 102 131 187 244 293 364 443
#     4   9  19  34  63  94 126 176 234 288 348 427
#     4  10  17  34  62  93 125 171 236 291 341 427
#     4   9  18  38  64  99 142 185 237 302 367 437
#
# _framework density 29.368269999999999
#
# number of rings (size 3 to 8) (size 9 to 14) (size 15 to 20)
#    1.500    1.500    0.000    2.250    0.000    0.000 
#    0.000   15.000    5.500    0.000    0.000    0.000 
#    0.000    0.000    0.000    0.250    0.000    0.000 
#
# Total GULP energy -396492.430391 kJ/mol
# GULP energy per Si atom -12390.388450 kJ/mol
# Density = 2.930143 g / cm^3
# Si number density = 29.368270 Si / 1000 Ang^3
#
#
#
# Elastic Constant Matrix: (Units=GPa)
#
#
# Indices 1 2 3 4 5 6 
#
# 1 150.9133 46.9211 45.8688 0.0000 0.0000 0.0000
# 2 46.9211 128.2595 96.5002 0.0000 0.0000 0.0000
# 3 45.8688 96.5002 172.7428 0.0000 0.0000 0.0000
# 4 0.0000 0.0000 0.0000 36.2062 0.0000 0.0000
# 5 0.0000 0.0000 0.0000 0.0000 34.8887 0.0000
# 6 0.0000 0.0000 0.0000 0.0000 0.0000 9.5502
#
#
#
# Elastic Compliance Matrix: (Units=1/GPa)
#
#
# Indices 1 2 3 4 5 6 
#
# 1 0.007540 -0.002160 -0.000796 0.000000 0.000000 0.000000
# 2 -0.002160 0.014068 -0.007286 0.000000 0.000000 0.000000
# 3 -0.000796 -0.007286 0.010070 0.000000 0.000000 0.000000
# 4 0.000000 0.000000 0.000000 0.027620 0.000000 0.000000
# 5 0.000000 0.000000 0.000000 0.000000 0.028663 0.000000
# 6 0.000000 0.000000 0.000000 0.000000 0.000000 0.104710
#
#
# Mechanical properties :
#
#
# Convention : Reuss Voigt Hill
#
# Bulk Modulus (GPa) = 89.31363 92.27732 90.79548
# Shear Modulus (GPa) = 23.05384 33.63739 28.34561
#
# Velocity S-wave (km/s) = 2.80481 3.38800 3.11010
# Velocity P-wave (km/s) = 6.40054 6.84059 6.62422
#
# Compressibility (1/GPa) = 0.01119650
#
# Stress axis : x y z
#
# Youngs Moduli (GPa) = 132.63328 71.08177 99.30303
#
# Poissons Ratio (x) = 0.15351 0.07900
# Poissons Ratio (y) = 0.28644 0.72348
# Poissons Ratio (z) = 0.10552 0.51787
#
# Static dielectric constant tensor:
#      x y z
#    x 6.628930 0.000000 0.000000 
#    y 0.000000 5.100160 0.000000 
#    z 0.000000 0.000000 5.520830 
# 
# 
# High freq. dielectric constant tensor:
#      x y z
#    x 2.240660 0.000000 0.000000 
#    y 0.000000 2.183830 0.000000 
#    z 0.000000 0.000000 2.190260 
# 
# From -- ./inp_files/4027.got.cif
#   From: 2010.06.25/outbox.cif.g09.slc.cpg/sg52_3_cif.got.tgz:4027.got - 2010.06.26 19:32:48.
