data_PCOD8215926
_publ_section_title
;
Structure prediction by ZEFSAII (Michael W. Deem and Ramdas Pophale) SiO2 
 PCOD8215926
Probable space group: P N N A
;
_chemical_formula_sum "Si O2"
_cell_formula_units_Z 36
_cell_length_a 15.585893
_cell_length_b 23.074267
_cell_length_c 5.105291
_cell_angle_alpha 90.000000
_cell_angle_beta 90.000000
_cell_angle_gamma 90.000000
_cell_volume 1836.031407
_symmetry_space_group_name_H-M "P N N A"
_symmetry_group_IT_number 52
_symmetry_cell_setting 'orthorhombic'
loop_
_space_group_symop_operation_xyz
x,y,z
1/2-x,-y,z
x,1/2-y,1/2-z
1/2-x,1/2+y,1/2-z
-x,-y,-z
1/2+x,y,-z
-x,1/2+y,1/2+z
1/2+x,1/2-y,1/2+z
loop_
_atom_site_type_symbol
_atom_site_label
_atom_site_fract_x
_atom_site_fract_y
_atom_site_fract_z
Si Si1 0.571742 0.639156 0.488751
Si Si2 0.823314 0.360806 0.009605
Si Si3 0.568814 0.449726 0.529724
Si Si4 0.817876 0.550328 0.030027
Si Si5 0.876080 0.250000 0.250000
O O1 0.622596 0.609128 0.245824
O O2 0.477380 0.612273 0.512890
O O3 0.564263 0.708601 0.432758
O O4 0.626403 0.626137 0.745176
O O5 0.816451 0.291414 0.067409
O O6 0.728670 0.387560 0.998150
O O7 0.500000 0.500000 0.500000
O O8 0.606490 0.453518 0.820208
O O9 0.644267 0.455815 0.319891
O O10 0.750000 0.500000 0.976694
#
# Coordination Sequence:
#
# PCOD8215926 Si02
#       5
#     8   8   8   8   4
#     4  10  20  39  63  89 117 163 204 241 300 362
#     4  10  20  39  63  89 118 163 204 242 300 364
#     4  12  24  40  62  93 125 159 200 252 307 363
#     4  12  24  40  62  93 125 160 201 252 306 362
#     4   8  22  36  70  82 120 166 206 238 310 356
#
# _framework density 19.607509
#
# number of rings (size 3 to 8) (size 9 to 14) (size 15 to 20)
#    1.333    0.000    0.000    7.333    0.000    0.000 
#    0.000    2.222    0.000    0.000    0.000    0.000 
#    0.000    0.000    0.000    0.000    0.000    0.000 
#
# Total GULP energy -446271.862100 kJ/mol
# GULP energy per Si atom -12396.440614 kJ/mol
# Density = 1.956288 g / cm^3
# Si number density = 19.607509 Si / 1000 Ang^3
#
#
#
# Elastic Constant Matrix: (Units=GPa)
#
#
# Indices 1 2 3 4 5 6 
#
# 1 86.1760 51.1597 26.1961 0.0000 0.0000 0.0000
# 2 51.1597 123.4471 14.8792 0.0000 0.0000 0.0000
# 3 26.1961 14.8792 121.7526 0.0000 0.0000 0.0000
# 4 0.0000 0.0000 0.0000 11.3496 0.0000 0.0000
# 5 0.0000 0.0000 0.0000 0.0000 47.5160 0.0000
# 6 0.0000 0.0000 0.0000 0.0000 0.0000 39.0437
#
#
#
# Elastic Compliance Matrix: (Units=1/GPa)
#
#
# Indices 1 2 3 4 5 6 
#
# 1 0.016226 -0.006398 -0.002709 0.000000 0.000000 0.000000
# 2 -0.006398 0.010744 0.000063 0.000000 0.000000 0.000000
# 3 -0.002709 0.000063 0.008789 0.000000 0.000000 0.000000
# 4 0.000000 0.000000 0.000000 0.088109 0.000000 0.000000
# 5 0.000000 0.000000 0.000000 0.000000 0.021046 0.000000
# 6 0.000000 0.000000 0.000000 0.000000 0.000000 0.025612
#
#
# Mechanical properties :
#
#
# Convention : Reuss Voigt Hill
#
# Bulk Modulus (GPa) = 56.58806 57.31621 56.95214
# Shear Modulus (GPa) = 25.70646 35.52457 30.61551
#
# Velocity S-wave (km/s) = 3.62477 4.26112 3.95576
# Velocity P-wave (km/s) = 6.81481 7.31470 7.06918
#
# Compressibility (1/GPa) = 0.01767157
#
# Stress axis : x y z
#
# Youngs Moduli (GPa) = 61.62973 93.07142 113.78452
#
# Poissons Ratio (x) = 0.59546 0.30827
# Poissons Ratio (y) = 0.39430 -0.00723
# Poissons Ratio (z) = 0.16697 -0.00591
#
# Static dielectric constant tensor:
#      x y z
#    x 3.411440 0.000000 0.000000 
#    y 0.000000 3.620770 0.000000 
#    z 0.000000 0.000000 3.686160 
# 
# 
# High freq. dielectric constant tensor:
#      x y z
#    x 1.741420 0.000000 0.000000 
#    y 0.000000 1.764580 0.000000 
#    z 0.000000 0.000000 1.783850 
# 
# From -- ./inp_files/1461.got.cif
#   From: 2010.06.25/outbox.cif.g09.slc.cpg/sg52_1_cif.got.tgz:1461.got - 2010.06.26 19:32:48.
