data_PCOD8215548
_publ_section_title
;
Structure prediction by ZEFSAII (Michael W. Deem and Ramdas Pophale) SiO2 
 PCOD8215548
Probable space group: P N N A
;
_chemical_formula_sum "Si O2"
_cell_formula_units_Z 40
_cell_length_a 12.834023
_cell_length_b 12.113325
_cell_length_c 12.148721
_cell_angle_alpha 90.000000
_cell_angle_beta 90.000000
_cell_angle_gamma 90.000000
_cell_volume 1888.672867
_symmetry_space_group_name_H-M "P N N A"
_symmetry_group_IT_number 52
_symmetry_cell_setting 'orthorhombic'
loop_
_space_group_symop_operation_xyz
x,y,z
1/2-x,-y,z
x,1/2-y,1/2-z
1/2-x,1/2+y,1/2-z
-x,-y,-z
1/2+x,y,-z
-x,1/2+y,1/2+z
1/2+x,1/2-y,1/2+z
loop_
_atom_site_type_symbol
_atom_site_label
_atom_site_fract_x
_atom_site_fract_y
_atom_site_fract_z
Si Si1 0.672504 0.260922 0.123220
Si Si2 0.444418 0.889476 0.029923
Si Si3 0.595229 0.368388 0.765216
Si Si4 0.364090 0.968545 0.493512
Si Si5 0.085464 0.811267 0.595517
O O1 0.638181 0.250000 0.250000
O O2 0.795699 0.280673 0.115173
O O3 0.642716 0.147649 0.058977
O O4 0.607628 0.360356 0.065964
O O5 0.392500 0.924091 0.146595
O O6 0.527636 0.790741 0.038815
O O7 0.500000 0.000000 0.000000
O O8 0.653530 0.250000 0.750000
O O9 0.642690 0.440525 0.863502
O O10 0.472215 0.344077 0.790859
O O11 0.250000 0.000000 0.534245
O O12 0.434325 0.077299 0.519639
#
# Coordination Sequence:
#
# PCOD8215548 Si02
#       5
#     8   8   8   8   8
#     4  11  23  40  64  97 126 159 220 265 307 384
#     4  11  25  40  61  93 132 169 204 263 331 366
#     4  10  19  40  65  84 126 163 204 254 324 373
#     4  10  21  39  66  93 117 166 215 253 310 385
#     4  10  22  42  67  89 121 174 213 258 316 377
#
# _framework density 21.178892999999999
#
# number of rings (size 3 to 8) (size 9 to 14) (size 15 to 20)
#    0.000    1.600    4.000    2.400    2.800    0.800 
#    7.200    0.000    0.000    0.000    0.000    0.000 
#    0.000    0.000    0.000    0.000    0.000    0.000 
#
# Total GULP energy -495580.125095 kJ/mol
# GULP energy per Si atom -12389.503127 kJ/mol
# Density = 2.113069 g / cm^3
# Si number density = 21.178893 Si / 1000 Ang^3
#
#
#
# Elastic Constant Matrix: (Units=GPa)
#
#
# Indices 1 2 3 4 5 6 
#
# 1 45.4292 16.2407 10.9695 0.0000 0.0000 0.0000
# 2 16.2407 107.1776 55.5427 0.0000 0.0000 0.0000
# 3 10.9695 55.5427 168.5154 0.0000 0.0000 0.0000
# 4 0.0000 0.0000 0.0000 39.9864 0.0000 0.0000
# 5 0.0000 0.0000 0.0000 0.0000 189.2918 0.0000
# 6 0.0000 0.0000 0.0000 0.0000 0.0000 30.8697
#
#
#
# Elastic Compliance Matrix: (Units=1/GPa)
#
#
# Indices 1 2 3 4 5 6 
#
# 1 0.023298 -0.003310 -0.000426 0.000000 0.000000 0.000000
# 2 -0.003310 0.011723 -0.003648 0.000000 0.000000 0.000000
# 3 -0.000426 -0.003648 0.007164 0.000000 0.000000 0.000000
# 4 0.000000 0.000000 0.000000 0.025008 0.000000 0.000000
# 5 0.000000 0.000000 0.000000 0.000000 0.005283 0.000000
# 6 0.000000 0.000000 0.000000 0.000000 0.000000 0.032394
#
#
# Mechanical properties :
#
#
# Convention : Reuss Voigt Hill
#
# Bulk Modulus (GPa) = 36.47292 54.06978 45.27135
# Shear Modulus (GPa) = 38.82667 67.92088 53.37377
#
# Velocity S-wave (km/s) = 4.28632 5.66919 5.02555
# Velocity P-wave (km/s) = 6.46184 8.27275 7.42273
#
# Compressibility (1/GPa) = 0.02741760
#
# Stress axis : x y z
#
# Youngs Moduli (GPa) = 42.92154 85.30602 139.57979
#
# Poissons Ratio (x) = 0.28235 0.05942
# Poissons Ratio (y) = 0.14206 0.50923
# Poissons Ratio (z) = 0.01827 0.31122
#
# Static dielectric constant tensor:
#      x y z
#    x 3.780230 0.000000 0.000000 
#    y 0.000000 4.164620 0.000000 
#    z 0.000000 0.000000 3.487130 
# 
# 
# High freq. dielectric constant tensor:
#      x y z
#    x 1.818720 0.000000 0.000000 
#    y 0.000000 1.840070 0.000000 
#    z 0.000000 0.000000 1.832760 
# 
# From -- ./inp_files/19230.got.cif
#   From: 2010.06.25/outbox.cif.g09.slc.cpg/sg52_10_cif.got.tgz:19230.got - 2010.06.26 19:32:48.
