data_PCOD8215233
_publ_section_title
;
Structure prediction by ZEFSAII (Michael W. Deem and Ramdas Pophale) SiO2 
 PCOD8215233
Probable space group: P N N A
;
_chemical_formula_sum "Si O2"
_cell_formula_units_Z 60
_cell_length_a 13.468648
_cell_length_b 14.419807
_cell_length_c 16.300186
_cell_angle_alpha 90.000000
_cell_angle_beta 90.000000
_cell_angle_gamma 90.000000
_cell_volume 3165.745591
_symmetry_space_group_name_H-M "P N N A"
_symmetry_group_IT_number 52
_symmetry_cell_setting 'orthorhombic'
loop_
_space_group_symop_operation_xyz
x,y,z
1/2-x,-y,z
x,1/2-y,1/2-z
1/2-x,1/2+y,1/2-z
-x,-y,-z
1/2+x,y,-z
-x,1/2+y,1/2+z
1/2+x,1/2-y,1/2+z
loop_
_atom_site_type_symbol
_atom_site_label
_atom_site_fract_x
_atom_site_fract_y
_atom_site_fract_z
Si Si1 0.265973 0.817980 0.682233
Si Si2 0.203912 0.775369 0.977588
Si Si3 0.423489 0.541156 0.878808
Si Si4 0.053731 0.579245 0.552455
Si Si5 0.404210 0.753580 0.072863
Si Si6 0.560111 0.250000 0.750000
Si Si7 0.060914 0.619610 0.996249
Si Si8 0.912557 0.419290 0.265499
O O1 0.316873 0.750000 0.750000
O O2 0.205192 0.751664 0.619278
O O3 0.344433 0.875312 0.627669
O O4 0.194843 0.887787 0.731848
O O5 0.152260 0.876331 0.990064
O O6 0.139015 0.697287 0.022752
O O7 0.311642 0.776492 0.016301
O O8 0.385395 0.454794 0.935627
O O9 0.447343 0.507425 0.787373
O O10 0.526694 0.573998 0.918673
O O11 0.089202 0.542630 0.641371
O O12 0.000000 0.500000 0.500000
O O13 0.977584 0.661567 0.563764
O O14 0.371659 0.744648 0.168492
O O15 0.461612 0.660282 0.046944
O O16 0.489899 0.338153 0.746783
#
# Coordination Sequence:
#
# PCOD8215233 Si02
#       8
#     8   8   8   8   8   4   8   8
#     4  12  21  35  57  95 123 154 197 254 313 373
#     4  11  21  39  62  87 123 162 202 247 314 372
#     4  11  22  35  58  93 124 153 196 252 316 370
#     4  10  23  41  61  86 121 164 209 250 300 366
#     4  10  20  38  65  84 117 163 204 252 298 367
#     4  10  18  38  62  82 110 160 212 242 294 356
#     4  10  21  38  59  89 127 155 192 252 316 377
#     4  11  19  37  60  86 118 156 197 251 303 366
#
# _framework density 18.95288
#
# number of rings (size 3 to 8) (size 9 to 14) (size 15 to 20)
#    0.000    1.333    6.000    1.200    0.000    1.600 
#    2.400    1.333    0.000    1.600    0.000    0.000 
#    0.000    0.000    0.000    0.000    0.000    0.000 
#
# Total GULP energy -743763.154991 kJ/mol
# GULP energy per Si atom -12396.052583 kJ/mol
# Density = 1.890974 g / cm^3
# Si number density = 18.952880 Si / 1000 Ang^3
#
#
#
# Elastic Constant Matrix: (Units=GPa)
#
#
# Indices 1 2 3 4 5 6 
#
# 1 67.8467 19.1613 35.1020 0.0000 0.0000 0.0000
# 2 19.1613 80.0202 30.4265 0.0000 0.0000 0.0000
# 3 35.1020 30.4265 96.2813 0.0000 0.0000 0.0000
# 4 0.0000 0.0000 0.0000 31.8552 0.0000 0.0000
# 5 0.0000 0.0000 0.0000 0.0000 28.0492 0.0000
# 6 0.0000 0.0000 0.0000 0.0000 0.0000 31.0676
#
#
#
# Elastic Compliance Matrix: (Units=1/GPa)
#
#
# Indices 1 2 3 4 5 6 
#
# 1 0.018476 -0.002117 -0.006067 0.000000 0.000000 0.000000
# 2 -0.002117 0.014446 -0.003793 0.000000 0.000000 0.000000
# 3 -0.006067 -0.003793 0.013797 0.000000 0.000000 0.000000
# 4 0.000000 0.000000 0.000000 0.031392 0.000000 0.000000
# 5 0.000000 0.000000 0.000000 0.000000 0.035652 0.000000
# 6 0.000000 0.000000 0.000000 0.000000 0.000000 0.032188
#
#
# Mechanical properties :
#
#
# Convention : Reuss Voigt Hill
#
# Bulk Modulus (GPa) = 43.92899 45.94752 44.93825
# Shear Modulus (GPa) = 28.17009 28.82496 28.49752
#
# Velocity S-wave (km/s) = 3.85947 3.90407 3.88183
# Velocity P-wave (km/s) = 6.56422 6.67967 6.62220
#
# Compressibility (1/GPa) = 0.02276401
#
# Stress axis : x y z
#
# Youngs Moduli (GPa) = 54.12467 69.22234 72.48072
#
# Poissons Ratio (x) = 0.14657 0.43972
# Poissons Ratio (y) = 0.11460 0.27494
# Poissons Ratio (z) = 0.32836 0.26258
#
# Static dielectric constant tensor:
#      x y z
#    x 3.224710 0.000000 0.000000 
#    y 0.000000 3.630540 0.000000 
#    z 0.000000 0.000000 3.785390 
# 
# 
# High freq. dielectric constant tensor:
#      x y z
#    x 1.708510 0.000000 0.000000 
#    y 0.000000 1.740800 0.000000 
#    z 0.000000 0.000000 1.738640 
# 
# From -- ./inp_files/32383.got.cif
#   From: 2010.06.25/outbox.cif.g09.slc.cpg/sg52_17_cif.got.tgz:32383.got - 2010.06.26 19:32:48.
