data_PCOD8215607
_publ_section_title
;
Structure prediction by ZEFSAII (Michael W. Deem and Ramdas Pophale) SiO2 
 PCOD8215607
Probable space group: P N N A
;
_chemical_formula_sum "Si O2"
_cell_formula_units_Z 48
_cell_length_a 15.019678
_cell_length_b 8.822716
_cell_length_c 17.244350
_cell_angle_alpha 90.000000
_cell_angle_beta 90.000000
_cell_angle_gamma 90.000000
_cell_volume 2285.123890
_symmetry_space_group_name_H-M "P N N A"
_symmetry_group_IT_number 52
_symmetry_cell_setting 'orthorhombic'
loop_
_space_group_symop_operation_xyz
x,y,z
1/2-x,-y,z
x,1/2-y,1/2-z
1/2-x,1/2+y,1/2-z
-x,-y,-z
1/2+x,y,-z
-x,1/2+y,1/2+z
1/2+x,1/2-y,1/2+z
loop_
_atom_site_type_symbol
_atom_site_label
_atom_site_fract_x
_atom_site_fract_y
_atom_site_fract_z
Si Si1 0.014105 0.847267 0.546906
Si Si2 0.469841 0.856593 0.813236
Si Si3 0.814566 0.200079 0.989760
Si Si4 0.560058 0.097919 0.710324
Si Si5 0.847518 0.312952 0.829168
Si Si6 0.873642 0.873782 0.029313
O O1 0.003714 0.867288 0.638285
O O2 0.946717 0.717700 0.518501
O O3 0.116498 0.805540 0.534064
O O4 0.000000 0.000000 0.500000
O O5 0.418988 0.750000 0.750000
O O6 0.553506 0.756225 0.842468
O O7 0.405469 0.900926 0.883116
O O8 0.502855 0.012219 0.775468
O O9 0.791370 0.263245 0.903588
O O10 0.721055 0.211260 0.034666
O O11 0.856339 0.031668 0.984899
O O12 0.598166 0.250000 0.750000
O O13 0.643075 0.995681 0.679680
O O14 0.803543 0.250000 0.750000
#
# Coordination Sequence:
#
# PCOD8215607 Si02
#       6
#     8   8   8   8   8   8
#     4  12  22  40  64  93 132 170 214 281 333 392
#     4   9  18  39  62  90 121 169 213 267 329 385
#     4  11  23  41  61  96 128 173 223 265 337 396
#     4  10  20  33  61  97 120 163 218 264 332 391
#     4   9  19  37  63  85 121 167 206 260 327 386
#     4  11  24  39  67  94 126 173 227 269 321 413
#
# _framework density 21.005426
#
# number of rings (size 3 to 8) (size 9 to 14) (size 15 to 20)
#    0.000    2.000    3.333    2.500    4.667    0.667 
#    0.000    5.000    0.000    0.000    0.000    0.000 
#    0.000    0.000    0.000    0.000    0.000    0.000 
#
# Total GULP energy -595162.768279 kJ/mol
# GULP energy per Si atom -12399.224339 kJ/mol
# Density = 2.095762 g / cm^3
# Si number density = 21.005426 Si / 1000 Ang^3
#
#
#
# Elastic Constant Matrix: (Units=GPa)
#
#
# Indices 1 2 3 4 5 6 
#
# 1 59.9261 14.0447 10.9003 0.0000 0.0000 0.0000
# 2 14.0447 109.4599 41.1216 0.0000 0.0000 0.0000
# 3 10.9003 41.1216 88.8260 0.0000 0.0000 0.0000
# 4 0.0000 0.0000 0.0000 36.5860 0.0000 0.0000
# 5 0.0000 0.0000 0.0000 0.0000 20.0410 0.0000
# 6 0.0000 0.0000 0.0000 0.0000 0.0000 21.8878
#
#
#
# Elastic Compliance Matrix: (Units=1/GPa)
#
#
# Indices 1 2 3 4 5 6 
#
# 1 0.017333 -0.001725 -0.001328 0.000000 0.000000 0.000000
# 2 -0.001725 0.011231 -0.004988 0.000000 0.000000 0.000000
# 3 -0.001328 -0.004988 0.013730 0.000000 0.000000 0.000000
# 4 0.000000 0.000000 0.000000 0.027333 0.000000 0.000000
# 5 0.000000 0.000000 0.000000 0.000000 0.049898 0.000000
# 6 0.000000 0.000000 0.000000 0.000000 0.000000 0.045688
#
#
# Mechanical properties :
#
#
# Convention : Reuss Voigt Hill
#
# Bulk Modulus (GPa) = 38.15059 43.37171 40.76115
# Shear Modulus (GPa) = 26.31147 28.51266 27.41206
#
# Velocity S-wave (km/s) = 3.54305 3.68828 3.61640
# Velocity P-wave (km/s) = 5.91095 6.23142 6.07330
#
# Compressibility (1/GPa) = 0.02621192
#
# Stress axis : x y z
#
# Youngs Moduli (GPa) = 57.69298 89.04073 72.83339
#
# Poissons Ratio (x) = 0.15359 0.09676
# Poissons Ratio (y) = 0.09952 0.36326
# Poissons Ratio (z) = 0.07664 0.44410
#
# Static dielectric constant tensor:
#      x y z
#    x 3.672410 0.000000 0.000000 
#    y 0.000000 3.938200 0.000000 
#    z 0.000000 0.000000 3.927830 
# 
# 
# High freq. dielectric constant tensor:
#      x y z
#    x 1.793530 0.000000 0.000000 
#    y 0.000000 1.837380 0.000000 
#    z 0.000000 0.000000 1.831710 
# 
# From -- ./inp_files/33052.got.cif
#   From: 2010.06.25/outbox.cif.g09.slc.cpg/sg52_17_cif.got.tgz:33052.got - 2010.06.26 19:32:48.
