data_PCOD8215054
_publ_section_title
;
Structure prediction by ZEFSAII (Michael W. Deem and Ramdas Pophale) SiO2 
 PCOD8215054
Probable space group: P N N A
;
_chemical_formula_sum "Si O2"
_cell_formula_units_Z 40
_cell_length_a 7.433657
_cell_length_b 8.500644
_cell_length_c 24.097758
_cell_angle_alpha 90.000000
_cell_angle_beta 90.000000
_cell_angle_gamma 90.000000
_cell_volume 1522.758336
_symmetry_space_group_name_H-M "P N N A"
_symmetry_group_IT_number 52
_symmetry_cell_setting 'orthorhombic'
loop_
_space_group_symop_operation_xyz
x,y,z
1/2-x,-y,z
x,1/2-y,1/2-z
1/2-x,1/2+y,1/2-z
-x,-y,-z
1/2+x,y,-z
-x,1/2+y,1/2+z
1/2+x,1/2-y,1/2+z
loop_
_atom_site_type_symbol
_atom_site_label
_atom_site_fract_x
_atom_site_fract_y
_atom_site_fract_z
Si Si1 0.621249 0.695699 0.081648
Si Si2 0.510608 0.330700 0.691791
Si Si3 0.420110 0.107000 0.408577
Si Si4 0.799912 0.819155 0.987170
Si Si5 0.565229 0.684044 0.690527
O O1 0.610001 0.742671 0.146032
O O2 0.580082 0.511164 0.072932
O O3 0.480763 0.803701 0.047327
O O4 0.809299 0.747061 0.050913
O O5 0.459487 0.250000 0.750000
O O6 0.467056 0.515700 0.688971
O O7 0.721570 0.317089 0.679633
O O8 0.360901 0.220865 0.458146
O O9 0.508532 0.201674 0.357201
O O10 0.250000 0.000000 0.388557
O O11 0.750000 0.000000 0.987872
O O12 0.515429 0.750000 0.750000
#
# Coordination Sequence:
#
# PCOD8215054 Si02
#       5
#     8   8   8   8   8
#     4  11  22  37  57  83 119 151 192 240 292 352
#     4  10  19  32  54  83 114 146 187 241 297 343
#     4  10  19  33  51  78 116 151 186 236 292 352
#     4  11  22  37  55  82 113 155 193 238 287 347
#     4  10  18  28  51  79 115 147 181 238 300 346
#
# _framework density 26.268121000000001
#
# number of rings (size 3 to 8) (size 9 to 14) (size 15 to 20)
#    0.000    1.600    4.000    3.600    2.800    0.000 
#    0.000    0.000    0.000    0.000    0.000   14.000 
#    0.000    0.000    0.000    0.200    0.000    0.000 
#
# Total GULP energy -496081.864628 kJ/mol
# GULP energy per Si atom -12402.046616 kJ/mol
# Density = 2.620833 g / cm^3
# Si number density = 26.268121 Si / 1000 Ang^3
#
#
#
# Elastic Constant Matrix: (Units=GPa)
#
#
# Indices 1 2 3 4 5 6 
#
# 1 57.2747 -8.1711 3.3931 0.0000 0.0000 0.0000
# 2 -8.1711 209.5016 62.5316 0.0000 0.0000 0.0000
# 3 3.3931 62.5316 176.5625 0.0000 0.0000 0.0000
# 4 0.0000 0.0000 0.0000 56.1760 0.0000 0.0000
# 5 0.0000 0.0000 0.0000 0.0000 10.9356 0.0000
# 6 0.0000 0.0000 0.0000 0.0000 0.0000 6.6648
#
#
#
# Elastic Compliance Matrix: (Units=1/GPa)
#
#
# Indices 1 2 3 4 5 6 
#
# 1 0.017624 0.000882 -0.000651 0.000000 0.000000 0.000000
# 2 0.000882 0.005382 -0.001923 0.000000 0.000000 0.000000
# 3 -0.000651 -0.001923 0.006357 0.000000 0.000000 0.000000
# 4 0.000000 0.000000 0.000000 0.017801 0.000000 0.000000
# 5 0.000000 0.000000 0.000000 0.000000 0.091444 0.000000
# 6 0.000000 0.000000 0.000000 0.000000 0.000000 0.150042
#
#
# Mechanical properties :
#
#
# Convention : Reuss Voigt Hill
#
# Bulk Modulus (GPa) = 38.49326 62.09399 50.29363
# Shear Modulus (GPa) = 16.62818 40.46096 28.54457
#
# Velocity S-wave (km/s) = 2.51871 3.92893 3.30003
# Velocity P-wave (km/s) = 4.81086 6.65371 5.80587
#
# Compressibility (1/GPa) = 0.02597857
#
# Stress axis : x y z
#
# Youngs Moduli (GPa) = 56.74057 185.81972 157.30101
#
# Poissons Ratio (x) = -0.16383 0.10239
# Poissons Ratio (y) = -0.05003 0.30247
# Poissons Ratio (z) = 0.03694 0.35731
#
# Static dielectric constant tensor:
#      x y z
#    x 5.055060 0.000000 0.000000 
#    y 0.000000 4.987900 0.000000 
#    z 0.000000 0.000000 4.811780 
# 
# 
# High freq. dielectric constant tensor:
#      x y z
#    x 2.057680 0.000000 0.000000 
#    y 0.000000 2.072510 0.000000 
#    z 0.000000 0.000000 2.061070 
# 
# From -- ./inp_files/39224.got.cif
#   From: 2010.06.25/outbox.cif.g09.slc.cpg/sg52_20_cif.got.tgz:39224.got - 2010.06.26 19:32:48.
