data_PCOD8215880
_publ_section_title
;
Structure prediction by ZEFSAII (Michael W. Deem and Ramdas Pophale) SiO2 
 PCOD8215880
Probable space group: P N N A
;
_chemical_formula_sum "Si O2"
_cell_formula_units_Z 44
_cell_length_a 18.314722
_cell_length_b 12.035346
_cell_length_c 8.184737
_cell_angle_alpha 90.000000
_cell_angle_beta 90.000000
_cell_angle_gamma 90.000000
_cell_volume 1804.112601
_symmetry_space_group_name_H-M "P N N A"
_symmetry_group_IT_number 52
_symmetry_cell_setting 'orthorhombic'
loop_
_space_group_symop_operation_xyz
x,y,z
1/2-x,-y,z
x,1/2-y,1/2-z
1/2-x,1/2+y,1/2-z
-x,-y,-z
1/2+x,y,-z
-x,1/2+y,1/2+z
1/2+x,1/2-y,1/2+z
loop_
_atom_site_type_symbol
_atom_site_label
_atom_site_fract_x
_atom_site_fract_y
_atom_site_fract_z
Si Si1 0.379671 0.386003 0.970055
Si Si2 0.293318 0.120929 0.222661
Si Si3 0.302713 0.911336 0.948989
Si Si4 0.434859 0.150692 0.048808
Si Si5 0.779650 0.250000 0.250000
Si Si6 0.948349 0.979561 0.209294
O O1 0.332105 0.346034 0.817071
O O2 0.428000 0.488565 0.896756
O O3 0.324875 0.433247 0.110288
O O4 0.430983 0.284953 0.038793
O O5 0.285861 0.250000 0.250000
O O6 0.352350 0.103501 0.074847
O O7 0.213790 0.078306 0.149940
O O8 0.272434 0.790792 0.896323
O O9 0.250000 0.000000 0.857545
O O10 0.385598 0.917910 0.894151
O O11 0.483635 0.106897 0.203627
O O12 0.467729 0.095400 0.884639
#
# Coordination Sequence:
#
# PCOD8215880 Si02
#       6
#     8   8   8   8   4   8
#     4  11  19  40  67  91 126 183 223 257 344 420
#     4  10  20  38  64  84 125 175 216 261 335 404
#     4  12  21  41  63  96 129 167 219 282 331 393
#     4  10  20  39  64  93 127 178 217 269 330 408
#     4  12  20  38  68  92 122 178 216 266 334 402
#     4  11  22  38  67  94 131 170 224 280 330 399
#
# _framework density 24.388722000000001
#
# number of rings (size 3 to 8) (size 9 to 14) (size 15 to 20)
#    0.000    1.091    9.091    0.000    0.000    0.727 
#    8.182    3.636    0.000    0.000    0.000    0.000 
#    0.000    0.000    0.000    0.000    0.000    0.000 
#
# Total GULP energy -545084.780445 kJ/mol
# GULP energy per Si atom -12388.290465 kJ/mol
# Density = 2.433321 g / cm^3
# Si number density = 24.388722 Si / 1000 Ang^3
#
#
#
# Elastic Constant Matrix: (Units=GPa)
#
#
# Indices 1 2 3 4 5 6 
#
# 1 105.6074 50.2514 22.3905 0.0000 0.0000 0.0000
# 2 50.2514 62.0847 39.1967 0.0000 0.0000 0.0000
# 3 22.3905 39.1967 110.5919 0.0000 0.0000 0.0000
# 4 0.0000 0.0000 0.0000 27.3374 0.0000 0.0000
# 5 0.0000 0.0000 0.0000 0.0000 35.9077 0.0000
# 6 0.0000 0.0000 0.0000 0.0000 0.0000 35.8959
#
#
#
# Elastic Compliance Matrix: (Units=1/GPa)
#
#
# Indices 1 2 3 4 5 6 
#
# 1 0.015645 -0.013737 0.001701 0.000000 0.000000 0.000000
# 2 -0.013737 0.032812 -0.008848 0.000000 0.000000 0.000000
# 3 0.001701 -0.008848 0.011834 0.000000 0.000000 0.000000
# 4 0.000000 0.000000 0.000000 0.036580 0.000000 0.000000
# 5 0.000000 0.000000 0.000000 0.000000 0.027849 0.000000
# 6 0.000000 0.000000 0.000000 0.000000 0.000000 0.027858
#
#
# Mechanical properties :
#
#
# Convention : Reuss Voigt Hill
#
# Bulk Modulus (GPa) = 53.98755 55.77346 54.88051
# Shear Modulus (GPa) = 24.93510 30.92456 27.92983
#
# Velocity S-wave (km/s) = 3.20097 3.56474 3.38774
# Velocity P-wave (km/s) = 5.98715 6.31359 6.15253
#
# Compressibility (1/GPa) = 0.01852279
#
# Stress axis : x y z
#
# Youngs Moduli (GPa) = 63.91873 30.47655 84.50323
#
# Poissons Ratio (x) = 0.41866 -0.14377
# Poissons Ratio (y) = 0.87806 0.74771
# Poissons Ratio (z) = -0.10875 0.26966
#
# Static dielectric constant tensor:
#      x y z
#    x 4.282770 0.000000 0.000000 
#    y 0.000000 4.516710 0.000000 
#    z 0.000000 0.000000 4.477960 
# 
# 
# High freq. dielectric constant tensor:
#      x y z
#    x 1.946740 0.000000 0.000000 
#    y 0.000000 1.964490 0.000000 
#    z 0.000000 0.000000 1.968100 
# 
# From -- ./inp_files/11987.got.cif
#   From: 2010.06.25/outbox.cif.g09.slc.cpg/sg52_6_cif.got.tgz:11987.got - 2010.06.26 19:32:48.
