data_PCOD8215798
_publ_section_title
;
Structure prediction by ZEFSAII (Michael W. Deem and Ramdas Pophale) SiO2 
 PCOD8215798
Probable space group: P N N A
;
_chemical_formula_sum "Si O2"
_cell_formula_units_Z 48
_cell_length_a 4.998244
_cell_length_b 26.122439
_cell_length_c 15.889276
_cell_angle_alpha 90.000000
_cell_angle_beta 90.000000
_cell_angle_gamma 90.000000
_cell_volume 2074.604358
_symmetry_space_group_name_H-M "P N N A"
_symmetry_group_IT_number 52
_symmetry_cell_setting 'orthorhombic'
loop_
_space_group_symop_operation_xyz
x,y,z
1/2-x,-y,z
x,1/2-y,1/2-z
1/2-x,1/2+y,1/2-z
-x,-y,-z
1/2+x,y,-z
-x,1/2+y,1/2+z
1/2+x,1/2-y,1/2+z
loop_
_atom_site_type_symbol
_atom_site_label
_atom_site_fract_x
_atom_site_fract_y
_atom_site_fract_z
Si Si1 0.268588 0.099389 0.264181
Si Si2 0.258795 0.058982 0.827285
Si Si3 0.229608 0.351310 0.555718
Si Si4 0.624058 0.120416 0.553449
Si Si5 0.416176 0.294763 0.308803
Si Si6 0.895694 0.740006 0.945905
O O1 0.548651 0.071012 0.247141
O O2 0.185945 0.090110 0.360946
O O3 0.293333 0.159771 0.246855
O O4 0.052055 0.074593 0.202992
O O5 0.190535 0.090567 0.912081
O O6 0.250000 0.000000 0.852326
O O7 0.533842 0.341523 0.524317
O O8 0.160491 0.314840 0.634395
O O9 0.834181 0.104969 0.480999
O O10 0.638139 0.180462 0.573558
O O11 0.537153 0.250000 0.250000
O O12 0.172569 0.271354 0.362631
O O13 0.194375 0.754771 0.976911
#
# Coordination Sequence:
#
# PCOD8215798 Si02
#       6
#     8   8   8   8   8   8
#     4  11  23  42  66  99 131 171 222 278 332 403
#     4  11  25  45  72  99 128 170 220 283 351 399
#     4  11  24  44  66  96 134 172 220 273 323 391
#     4  10  20  37  60  89 127 171 214 259 313 383
#     4  11  22  40  61  95 134 178 217 266 323 387
#     4  10  21  37  56  84 124 172 214 253 305 375
#
# _framework density 23.136942999999999
#
# number of rings (size 3 to 8) (size 9 to 14) (size 15 to 20)
#    0.000    1.333    1.667    4.500    0.000    3.333 
#    0.000    8.333    0.000   10.000    0.000    0.000 
#    0.000    0.000    0.000    0.000    0.000    0.000 
#
# Total GULP energy -595500.869708 kJ/mol
# GULP energy per Si atom -12406.268119 kJ/mol
# Density = 2.308428 g / cm^3
# Si number density = 23.136943 Si / 1000 Ang^3
#
#
#
# Elastic Constant Matrix: (Units=GPa)
#
#
# Indices 1 2 3 4 5 6 
#
# 1 105.4904 25.2211 18.2725 0.0000 0.0000 0.0000
# 2 25.2211 107.5411 34.5456 0.0000 0.0000 0.0000
# 3 18.2725 34.5456 103.5488 0.0000 0.0000 0.0000
# 4 0.0000 0.0000 0.0000 18.6840 0.0000 0.0000
# 5 0.0000 0.0000 0.0000 0.0000 29.8028 0.0000
# 6 0.0000 0.0000 0.0000 0.0000 0.0000 16.8633
#
#
#
# Elastic Compliance Matrix: (Units=1/GPa)
#
#
# Indices 1 2 3 4 5 6 
#
# 1 0.010157 -0.002023 -0.001117 0.000000 0.000000 0.000000
# 2 -0.002023 0.010818 -0.003252 0.000000 0.000000 0.000000
# 3 -0.001117 -0.003252 0.010939 0.000000 0.000000 0.000000
# 4 0.000000 0.000000 0.000000 0.053522 0.000000 0.000000
# 5 0.000000 0.000000 0.000000 0.000000 0.033554 0.000000
# 6 0.000000 0.000000 0.000000 0.000000 0.000000 0.059300
#
#
# Mechanical properties :
#
#
# Convention : Reuss Voigt Hill
#
# Bulk Modulus (GPa) = 52.27637 52.51762 52.39699
# Shear Modulus (GPa) = 25.32268 28.97275 27.14772
#
# Velocity S-wave (km/s) = 3.31187 3.54252 3.42913
# Velocity P-wave (km/s) = 6.10475 6.28335 6.19470
#
# Compressibility (1/GPa) = 0.01912910
#
# Stress axis : x y z
#
# Youngs Moduli (GPa) = 98.45650 92.43944 91.41281
#
# Poissons Ratio (x) = 0.18701 0.10214
# Poissons Ratio (y) = 0.19919 0.29728
# Poissons Ratio (z) = 0.11001 0.30062
#
# Static dielectric constant tensor:
#      x y z
#    x 4.118270 0.000000 0.000000 
#    y 0.000000 4.133060 0.000000 
#    z 0.000000 0.000000 4.100010 
# 
# 
# High freq. dielectric constant tensor:
#      x y z
#    x 1.923780 0.000000 0.000000 
#    y 0.000000 1.902960 0.000000 
#    z 0.000000 0.000000 1.913280 
# 
# From -- ./inp_files/23707.got.cif
#   From: 2010.06.25/outbox.cif.g09.slc.cpg/sg52_12_cif.got.tgz:23707.got - 2010.06.26 19:32:48.
