data_PCOD8215883
_publ_section_title
;
Structure prediction by ZEFSAII (Michael W. Deem and Ramdas Pophale) SiO2 
 PCOD8215883
Probable space group: P N N A
;
_chemical_formula_sum "Si O2"
_cell_formula_units_Z 36
_cell_length_a 14.205404
_cell_length_b 14.119485
_cell_length_c 8.495801
_cell_angle_alpha 90.000000
_cell_angle_beta 90.000000
_cell_angle_gamma 90.000000
_cell_volume 1704.028198
_symmetry_space_group_name_H-M "P N N A"
_symmetry_group_IT_number 52
_symmetry_cell_setting 'orthorhombic'
loop_
_space_group_symop_operation_xyz
x,y,z
1/2-x,-y,z
x,1/2-y,1/2-z
1/2-x,1/2+y,1/2-z
-x,-y,-z
1/2+x,y,-z
-x,1/2+y,1/2+z
1/2+x,1/2-y,1/2+z
loop_
_atom_site_type_symbol
_atom_site_label
_atom_site_fract_x
_atom_site_fract_y
_atom_site_fract_z
Si Si1 0.322676 0.111690 0.983074
Si Si2 0.490251 0.266308 0.565345
Si Si3 0.581589 0.075795 0.514768
Si Si4 0.750000 0.500000 0.197869
Si Si5 0.129930 0.080330 0.124186
O O1 0.384229 0.207703 0.989824
O O2 0.296797 0.082423 0.803820
O O3 0.229886 0.128804 0.085401
O O4 0.380456 0.025198 0.058935
O O5 0.489569 0.250000 0.750000
O O6 0.533046 0.176839 0.471083
O O7 0.552689 0.358611 0.532417
O O8 0.620645 0.080557 0.689686
O O9 0.500000 0.000000 0.500000
O O10 0.669018 0.050396 0.403811
#
# Coordination Sequence:
#
# PCOD8215883 Si02
#       5
#     8   8   8   4   8
#     4  10  21  40  63  85 117 158 195 242 297 360
#     4  10  21  37  60  87 118 154 198 247 297 352
#     4  11  23  40  61  90 123 158 201 253 301 351
#     4  10  20  38  64  90 120 158 202 254 302 352
#     4   9  20  39  61  86 118 157 195 238 298 362
#
# _framework density 21.126411000000001
#
# number of rings (size 3 to 8) (size 9 to 14) (size 15 to 20)
#    0.000    2.222    0.000    4.667    0.000    5.333 
#    0.000   13.333    0.000    5.333    0.000    0.000 
#    0.000    0.000    0.000    0.000    0.000    0.000 
#
# Total GULP energy -446293.771976 kJ/mol
# GULP energy per Si atom -12397.049222 kJ/mol
# Density = 2.107833 g / cm^3
# Si number density = 21.126411 Si / 1000 Ang^3
#
#
#
# Elastic Constant Matrix: (Units=GPa)
#
#
# Indices 1 2 3 4 5 6 
#
# 1 145.2429 66.0735 61.5652 0.0000 0.0000 0.0000
# 2 66.0735 70.6981 42.5427 0.0000 0.0000 0.0000
# 3 61.5652 42.5427 95.3119 0.0000 0.0000 0.0000
# 4 0.0000 0.0000 0.0000 17.4113 0.0000 0.0000
# 5 0.0000 0.0000 0.0000 0.0000 26.8300 0.0000
# 6 0.0000 0.0000 0.0000 0.0000 0.0000 55.2140
#
#
#
# Elastic Compliance Matrix: (Units=1/GPa)
#
#
# Indices 1 2 3 4 5 6 
#
# 1 0.013043 -0.009735 -0.004080 0.000000 0.000000 0.000000
# 2 -0.009735 0.026605 -0.005587 0.000000 0.000000 0.000000
# 3 -0.004080 -0.005587 0.015621 0.000000 0.000000 0.000000
# 4 0.000000 0.000000 0.000000 0.057434 0.000000 0.000000
# 5 0.000000 0.000000 0.000000 0.000000 0.037272 0.000000
# 6 0.000000 0.000000 0.000000 0.000000 0.000000 0.018111
#
#
# Mechanical properties :
#
#
# Convention : Reuss Voigt Hill
#
# Bulk Modulus (GPa) = 60.73341 72.40174 66.56758
# Shear Modulus (GPa) = 23.54311 29.29583 26.41947
#
# Velocity S-wave (km/s) = 3.34187 3.72787 3.54014
# Velocity P-wave (km/s) = 6.61066 7.27148 6.94893
#
# Compressibility (1/GPa) = 0.01646540
#
# Stress axis : x y z
#
# Youngs Moduli (GPa) = 76.67098 37.58756 64.01680
#
# Poissons Ratio (x) = 0.36590 0.26117
# Poissons Ratio (y) = 0.74636 0.35767
# Poissons Ratio (z) = 0.31279 0.21001
#
# Static dielectric constant tensor:
#      x y z
#    x 4.043990 0.000000 0.000000 
#    y 0.000000 3.935010 0.000000 
#    z 0.000000 0.000000 3.697830 
# 
# 
# High freq. dielectric constant tensor:
#      x y z
#    x 1.846090 0.000000 0.000000 
#    y 0.000000 1.824520 0.000000 
#    z 0.000000 0.000000 1.818470 
# 
# From -- ./inp_files/9918.got.cif
#   From: 2010.06.25/outbox.cif.g09.slc.cpg/sg52_5_cif.got.tgz:9918.got - 2010.06.26 19:32:48.
