data_PCOD8215572
_publ_section_title
;
Structure prediction by ZEFSAII (Michael W. Deem and Ramdas Pophale) SiO2 
 PCOD8215572
Probable space group: P N N A
;
_chemical_formula_sum "Si O2"
_cell_formula_units_Z 48
_cell_length_a 30.293639
_cell_length_b 5.022285
_cell_length_c 21.251837
_cell_angle_alpha 90.000000
_cell_angle_beta 90.000000
_cell_angle_gamma 90.000000
_cell_volume 3233.324373
_symmetry_space_group_name_H-M "P N N A"
_symmetry_group_IT_number 52
_symmetry_cell_setting 'orthorhombic'
loop_
_space_group_symop_operation_xyz
x,y,z
1/2-x,-y,z
x,1/2-y,1/2-z
1/2-x,1/2+y,1/2-z
-x,-y,-z
1/2+x,y,-z
-x,1/2+y,1/2+z
1/2+x,1/2-y,1/2+z
loop_
_atom_site_type_symbol
_atom_site_label
_atom_site_fract_x
_atom_site_fract_y
_atom_site_fract_z
Si Si1 0.374918 0.253386 0.373266
Si Si2 0.986502 0.750000 0.750000
Si Si3 0.013858 0.879180 0.617928
Si Si4 0.572220 0.750000 0.750000
Si Si5 0.583800 0.267326 0.930359
Si Si6 0.461610 0.592234 0.546500
Si Si7 0.720508 0.749819 0.822858
O O1 0.397679 0.161694 0.308365
O O2 0.389277 0.547523 0.392328
O O3 0.322480 0.249396 0.366213
O O4 0.389449 0.043588 0.426736
O O5 0.017516 0.855459 0.693287
O O6 0.956776 0.501295 0.728046
O O7 0.048895 0.669227 0.588195
O O8 0.964203 0.802710 0.599580
O O9 0.023404 0.174716 0.593626
O O10 0.579694 0.186826 0.004180
O O11 0.500000 0.500000 0.500000
O O12 0.750000 0.500000 0.840249
O O13 0.705915 0.750000 0.750000
O O14 0.750000 0.000000 0.840121
#
# Coordination Sequence:
#
# PCOD8215572 Si02
#       7
#     8   4   8   4   8   8   8
#     4  12  20  32  48  64  83 110 145 190 225 270
#     4  12  22  30  46  63  90 112 144 186 230 267
#     4  11  19  32  44  63  87 112 142 180 224 267
#     4  12  20  32  40  65  90 106 142 192 236 255
#     4  11  20  31  46  65  81 110 144 184 226 257
#     4  10  20  32  45  60  85 114 141 176 223 268
#     4  10  21  34  46  61  84 113 140 174 226 276
#
# _framework density 14.845402999999999
#
# number of rings (size 3 to 8) (size 9 to 14) (size 15 to 20)
#    0.000    1.000    4.167    7.000    0.000    0.000 
#    0.000    0.000    0.000    0.000    0.000    0.000 
#    0.000    0.000    0.000    0.000    0.000    0.000 
#
# Total GULP energy -595175.901559 kJ/mol
# GULP energy per Si atom -12399.497949 kJ/mol
# Density = 1.481161 g / cm^3
# Si number density = 14.845403 Si / 1000 Ang^3
#
#
#
# Elastic Constant Matrix: (Units=GPa)
#
#
# Indices 1 2 3 4 5 6 
#
# 1 46.3663 13.9973 21.3334 0.0000 0.0000 0.0000
# 2 13.9973 93.7494 16.9429 0.0000 0.0000 0.0000
# 3 21.3334 16.9429 68.5933 0.0000 0.0000 0.0000
# 4 0.0000 0.0000 0.0000 30.5258 0.0000 0.0000
# 5 0.0000 0.0000 0.0000 0.0000 14.4442 0.0000
# 6 0.0000 0.0000 0.0000 0.0000 0.0000 26.7749
#
#
#
# Elastic Compliance Matrix: (Units=1/GPa)
#
#
# Indices 1 2 3 4 5 6 
#
# 1 0.025720 -0.002506 -0.007380 0.000000 0.000000 0.000000
# 2 -0.002506 0.011409 -0.002039 0.000000 0.000000 0.000000
# 3 -0.007380 -0.002039 0.017378 0.000000 0.000000 0.000000
# 4 0.000000 0.000000 0.000000 0.032759 0.000000 0.000000
# 5 0.000000 0.000000 0.000000 0.000000 0.069232 0.000000
# 6 0.000000 0.000000 0.000000 0.000000 0.000000 0.037348
#
#
# Mechanical properties :
#
#
# Convention : Reuss Voigt Hill
#
# Bulk Modulus (GPa) = 32.61958 34.80624 33.71291
# Shear Modulus (GPa) = 21.93801 24.77800 23.35801
#
# Velocity S-wave (km/s) = 3.84834 4.08986 3.97094
# Velocity P-wave (km/s) = 6.46273 6.76752 6.61688
#
# Compressibility (1/GPa) = 0.03065644
#
# Stress axis : x y z
#
# Youngs Moduli (GPa) = 38.88079 87.64721 57.54550
#
# Poissons Ratio (x) = 0.21967 0.42469
# Poissons Ratio (y) = 0.09745 0.11732
# Poissons Ratio (z) = 0.28694 0.17868
#
# Static dielectric constant tensor:
#      x y z
#    x 2.602080 0.000000 0.000000 
#    y 0.000000 3.208340 0.000000 
#    z 0.000000 0.000000 3.182160 
# 
# 
# High freq. dielectric constant tensor:
#      x y z
#    x 1.513640 0.000000 0.000000 
#    y 0.000000 1.598040 0.000000 
#    z 0.000000 0.000000 1.552490 
# 
# From -- ./inp_files/38120.got.cif
#   From: 2010.06.25/outbox.cif.g09.slc.cpg/sg52_20_cif.got.tgz:38120.got - 2010.06.26 19:32:48.
