data_PCOD8215439
_publ_section_title
;
Structure prediction by ZEFSAII (Michael W. Deem and Ramdas Pophale) SiO2 
 PCOD8215439
Probable space group: P N N A
;
_chemical_formula_sum "Si O2"
_cell_formula_units_Z 64
_cell_length_a 18.442040
_cell_length_b 10.887398
_cell_length_c 16.055612
_cell_angle_alpha 90.000000
_cell_angle_beta 90.000000
_cell_angle_gamma 90.000000
_cell_volume 3223.739372
_symmetry_space_group_name_H-M "P N N A"
_symmetry_group_IT_number 52
_symmetry_cell_setting 'orthorhombic'
loop_
_space_group_symop_operation_xyz
x,y,z
1/2-x,-y,z
x,1/2-y,1/2-z
1/2-x,1/2+y,1/2-z
-x,-y,-z
1/2+x,y,-z
-x,1/2+y,1/2+z
1/2+x,1/2-y,1/2+z
loop_
_atom_site_type_symbol
_atom_site_label
_atom_site_fract_x
_atom_site_fract_y
_atom_site_fract_z
Si Si1 0.668108 0.700663 0.398416
Si Si2 0.918728 0.141117 0.641836
Si Si3 0.077525 0.086225 0.617450
Si Si4 0.334286 0.826398 0.885255
Si Si5 0.329745 0.056836 0.504102
Si Si6 0.411143 0.472935 0.709374
Si Si7 0.067275 0.925757 0.175123
Si Si8 0.667886 0.493410 0.533916
O O1 0.750770 0.702492 0.367988
O O2 0.654668 0.838044 0.428650
O O3 0.612907 0.663505 0.322589
O O4 0.652058 0.609648 0.475264
O O5 0.848859 0.105253 0.587604
O O6 0.904972 0.074509 0.729920
O O7 0.929958 0.286147 0.645552
O O8 0.992335 0.093282 0.599672
O O9 0.112180 0.217213 0.642507
O O10 0.115830 0.050329 0.531387
O O11 0.089697 0.986360 0.691022
O O12 0.348497 0.940185 0.825489
O O13 0.345930 0.867644 0.981957
O O14 0.250000 0.000000 0.504691
O O15 0.487539 0.515636 0.669883
O O16 0.117515 0.007935 0.115529
O O17 0.750000 0.500000 0.566499
#
# Coordination Sequence:
#
# PCOD8215439 Si02
#       8
#     8   8   8   8   8   8   8   8
#     4  10  21  38  54  88 121 151 196 245 297 342
#     4  10  22  39  60  85 120 151 199 252 293 366
#     4  11  22  39  58  85 118 164 194 233 301 359
#     4  10  19  36  57  85 123 151 192 242 293 353
#     4  12  24  39  60  83 120 162 200 241 295 368
#     4  10  21  36  60  87 118 151 196 252 291 353
#     4  10  19  37  64  89 111 152 198 249 308 351
#     4   9  19  34  60  86 117 143 187 255 297 342
#
# _framework density 19.852723000000001
#
# number of rings (size 3 to 8) (size 9 to 14) (size 15 to 20)
#    0.000    1.750    3.750    1.875    0.000    5.000 
#    2.250    0.000    0.000    2.250    0.000    0.000 
#    0.000    0.000    0.000    0.000    0.000    0.000 
#
# Total GULP energy -793325.652739 kJ/mol
# GULP energy per Si atom -12395.713324 kJ/mol
# Density = 1.980754 g / cm^3
# Si number density = 19.852723 Si / 1000 Ang^3
#
#
#
# Elastic Constant Matrix: (Units=GPa)
#
#
# Indices 1 2 3 4 5 6 
#
# 1 69.4152 26.8388 45.9860 0.0000 0.0000 0.0000
# 2 26.8388 65.6820 27.1295 0.0000 0.0000 0.0000
# 3 45.9860 27.1295 71.3502 0.0000 0.0000 0.0000
# 4 0.0000 0.0000 0.0000 26.2939 0.0000 0.0000
# 5 0.0000 0.0000 0.0000 0.0000 25.7027 0.0000
# 6 0.0000 0.0000 0.0000 0.0000 0.0000 25.4812
#
#
#
# Elastic Compliance Matrix: (Units=1/GPa)
#
#
# Indices 1 2 3 4 5 6 
#
# 1 0.026180 -0.004423 -0.015192 0.000000 0.000000 0.000000
# 2 -0.004423 0.018809 -0.004301 0.000000 0.000000 0.000000
# 3 -0.015192 -0.004301 0.025442 0.000000 0.000000 0.000000
# 4 0.000000 0.000000 0.000000 0.038032 0.000000 0.000000
# 5 0.000000 0.000000 0.000000 0.000000 0.038906 0.000000
# 6 0.000000 0.000000 0.000000 0.000000 0.000000 0.039245
#
#
# Mechanical properties :
#
#
# Convention : Reuss Voigt Hill
#
# Bulk Modulus (GPa) = 44.24852 45.15066 44.69959
# Shear Modulus (GPa) = 20.66302 22.59512 21.62907
#
# Velocity S-wave (km/s) = 3.22967 3.37729 3.30430
# Velocity P-wave (km/s) = 6.02034 6.16444 6.09281
#
# Compressibility (1/GPa) = 0.02259963
#
# Stress axis : x y z
#
# Youngs Moduli (GPa) = 38.19660 53.16709 39.30501
#
# Poissons Ratio (x) = 0.23515 0.59711
# Poissons Ratio (y) = 0.16894 0.16905
# Poissons Ratio (z) = 0.58028 0.22867
#
# Static dielectric constant tensor:
#      x y z
#    x 3.555870 0.000000 0.000000 
#    y 0.000000 3.599110 0.000000 
#    z 0.000000 0.000000 3.543650 
# 
# 
# High freq. dielectric constant tensor:
#      x y z
#    x 1.771720 0.000000 0.000000 
#    y 0.000000 1.767260 0.000000 
#    z 0.000000 0.000000 1.766120 
# 
# From -- ./inp_files/28303.got.cif
#   From: 2010.06.25/outbox.cif.g09.slc.cpg/sg52_15_cif.got.tgz:28303.got - 2010.06.26 19:32:48.
