data_PCOD8215134
_publ_section_title
;
Structure prediction by ZEFSAII (Michael W. Deem and Ramdas Pophale) SiO2 
 PCOD8215134
Probable space group: P N N A
;
_chemical_formula_sum "Si O2"
_cell_formula_units_Z 64
_cell_length_a 23.280918
_cell_length_b 13.921829
_cell_length_c 9.370688
_cell_angle_alpha 90.000000
_cell_angle_beta 90.000000
_cell_angle_gamma 90.000000
_cell_volume 3037.161419
_symmetry_space_group_name_H-M "P N N A"
_symmetry_group_IT_number 52
_symmetry_cell_setting 'orthorhombic'
loop_
_space_group_symop_operation_xyz
x,y,z
1/2-x,-y,z
x,1/2-y,1/2-z
1/2-x,1/2+y,1/2-z
-x,-y,-z
1/2+x,y,-z
-x,1/2+y,1/2+z
1/2+x,1/2-y,1/2+z
loop_
_atom_site_type_symbol
_atom_site_label
_atom_site_fract_x
_atom_site_fract_y
_atom_site_fract_z
Si Si1 0.192964 0.300805 0.985851
Si Si2 0.582630 0.335737 0.854604
Si Si3 0.798575 0.877084 0.182068
Si Si4 0.091951 0.950760 0.276338
Si Si5 0.322478 0.146255 0.463613
Si Si6 0.502611 0.801157 0.604347
Si Si7 0.670744 0.910746 0.222327
Si Si8 0.899206 0.175589 0.987339
O O1 0.185175 0.186697 0.955303
O O2 0.175636 0.348047 0.835054
O O3 0.149873 0.327268 0.111421
O O4 0.254322 0.338462 0.042730
O O5 0.562524 0.250000 0.750000
O O6 0.573614 0.437924 0.777608
O O7 0.549899 0.333685 0.006206
O O8 0.730375 0.857675 0.192156
O O9 0.821166 0.983524 0.157153
O O10 0.154207 0.930725 0.348837
O O11 0.042097 0.891942 0.357247
O O12 0.098314 0.917159 0.113750
O O13 0.342691 0.096894 0.611238
O O14 0.351948 0.248563 0.431506
O O15 0.480283 0.750000 0.750000
O O16 0.538939 0.725608 0.510112
O O17 0.617731 0.858881 0.145052
#
# Coordination Sequence:
#
# PCOD8215134 Si02
#       8
#     8   8   8   8   8   8   8   8
#     4  10  21  38  56  85 130 169 204 243 301 370
#     4  12  27  42  60  91 129 163 206 260 318 381
#     4   9  19  34  56  88 127 168 199 248 300 370
#     4  10  23  43  65  89 121 163 203 255 321 379
#     4  10  19  38  63  93 121 165 214 251 297 373
#     4   9  22  46  69  87 112 162 213 259 315 378
#     4  10  18  32  61  94 124 154 208 256 305 351
#     4  10  20  38  67  93 122 150 209 270 315 358
#
# _framework density 21.072308
#
# number of rings (size 3 to 8) (size 9 to 14) (size 15 to 20)
#    0.000    2.000    1.250    2.625    3.500    4.500 
#    0.000    3.750    0.000    0.000    0.000    0.000 
#    0.000    0.000    0.000    0.000    0.000    0.000 
#
# Total GULP energy -793372.515031 kJ/mol
# GULP energy per Si atom -12396.445547 kJ/mol
# Density = 2.102435 g / cm^3
# Si number density = 21.072308 Si / 1000 Ang^3
#
#
#
# Elastic Constant Matrix: (Units=GPa)
#
#
# Indices 1 2 3 4 5 6 
#
# 1 69.2896 22.4399 27.5365 0.0000 0.0000 0.0000
# 2 22.4399 124.8700 28.8474 0.0000 0.0000 0.0000
# 3 27.5365 28.8474 51.9036 0.0000 0.0000 0.0000
# 4 0.0000 0.0000 0.0000 33.4699 0.0000 0.0000
# 5 0.0000 0.0000 0.0000 0.0000 33.4760 0.0000
# 6 0.0000 0.0000 0.0000 0.0000 0.0000 18.9445
#
#
#
# Elastic Compliance Matrix: (Units=1/GPa)
#
#
# Indices 1 2 3 4 5 6 
#
# 1 0.018446 -0.001209 -0.009114 0.000000 0.000000 0.000000
# 2 -0.001209 0.009267 -0.004509 0.000000 0.000000 0.000000
# 3 -0.009114 -0.004509 0.026608 0.000000 0.000000 0.000000
# 4 0.000000 0.000000 0.000000 0.029878 0.000000 0.000000
# 5 0.000000 0.000000 0.000000 0.000000 0.029872 0.000000
# 6 0.000000 0.000000 0.000000 0.000000 0.000000 0.052786
#
#
# Mechanical properties :
#
#
# Convention : Reuss Voigt Hill
#
# Bulk Modulus (GPa) = 40.55771 44.85677 42.70724
# Shear Modulus (GPa) = 24.42122 28.32738 26.37430
#
# Velocity S-wave (km/s) = 3.40799 3.67044 3.54165
# Velocity P-wave (km/s) = 5.89700 6.26866 6.08567
#
# Compressibility (1/GPa) = 0.02465623
#
# Stress axis : x y z
#
# Youngs Moduli (GPa) = 54.21279 107.90590 37.58290
#
# Poissons Ratio (x) = 0.13049 0.34253
# Poissons Ratio (y) = 0.06556 0.16946
# Poissons Ratio (z) = 0.49409 0.48656
#
# Static dielectric constant tensor:
#      x y z
#    x 3.625380 0.000000 0.000000 
#    y 0.000000 3.908550 0.000000 
#    z 0.000000 0.000000 3.617980 
# 
# 
# High freq. dielectric constant tensor:
#      x y z
#    x 1.809830 0.000000 0.000000 
#    y 0.000000 1.831450 0.000000 
#    z 0.000000 0.000000 1.814280 
# 
# From -- ./inp_files/14505.got.cif
#   From: 2010.06.25/outbox.cif.g09.slc.cpg/sg52_8_cif.got.tgz:14505.got - 2010.06.26 19:32:48.
