data_PCOD8215510
_publ_section_title
;
Structure prediction by ZEFSAII (Michael W. Deem and Ramdas Pophale) SiO2 
 PCOD8215510
Probable space group: P N N A
;
_chemical_formula_sum "Si O2"
_cell_formula_units_Z 64
_cell_length_a 14.448038
_cell_length_b 8.897486
_cell_length_c 23.680804
_cell_angle_alpha 90.000000
_cell_angle_beta 90.000000
_cell_angle_gamma 90.000000
_cell_volume 3044.196146
_symmetry_space_group_name_H-M "P N N A"
_symmetry_group_IT_number 52
_symmetry_cell_setting 'orthorhombic'
loop_
_space_group_symop_operation_xyz
x,y,z
1/2-x,-y,z
x,1/2-y,1/2-z
1/2-x,1/2+y,1/2-z
-x,-y,-z
1/2+x,y,-z
-x,1/2+y,1/2+z
1/2+x,1/2-y,1/2+z
loop_
_atom_site_type_symbol
_atom_site_label
_atom_site_fract_x
_atom_site_fract_y
_atom_site_fract_z
Si Si1 0.454160 0.810865 0.117397
Si Si2 0.893711 0.134669 0.895928
Si Si3 0.448575 0.282776 0.992727
Si Si4 0.116842 0.841247 0.806439
Si Si5 0.943242 0.819446 0.192301
Si Si6 0.224587 0.337292 0.860307
Si Si7 0.856557 0.907722 0.479675
Si Si8 0.777955 0.840147 0.597743
O O1 0.526024 0.799534 0.065434
O O2 0.514067 0.798205 0.173555
O O3 0.380334 0.679087 0.123232
O O4 0.388172 0.956224 0.110976
O O5 0.796612 0.216270 0.881627
O O6 0.975737 0.184892 0.854027
O O7 0.911319 0.164672 0.961955
O O8 0.371344 0.411564 0.982519
O O9 0.541155 0.343484 0.021748
O O10 0.139826 0.750000 0.750000
O O11 0.194687 0.787824 0.851574
O O12 0.110851 0.021516 0.799724
O O13 0.984764 0.750000 0.250000
O O14 0.866398 0.703856 0.173192
O O15 0.250000 0.500000 0.835042
O O16 0.201491 0.354092 0.926150
O O17 0.792661 0.847300 0.530320
O O18 0.750000 0.000000 0.622844
#
# Coordination Sequence:
#
# PCOD8215510 Si02
#       8
#     8   8   8   8   8   8   8   8
#     4  10  24  40  62  93 128 165 211 267 322 385
#     4  11  22  41  64  91 127 167 212 266 327 378
#     4  10  19  38  62  92 130 168 210 255 318 382
#     4  11  25  45  66  92 125 170 218 271 326 386
#     4  11  25  45  65  91 126 166 219 272 325 384
#     4  12  23  38  64  95 128 173 210 260 319 379
#     4  10  21  36  59  96 132 167 212 256 301 386
#     4  11  22  38  62  93 129 167 208 255 314 383
#
# _framework density 21.023612
#
# number of rings (size 3 to 8) (size 9 to 14) (size 15 to 20)
#    0.000    1.250    2.500    3.375    1.750    2.000 
#    0.000    1.875    0.000    0.000    0.000    0.000 
#    0.000    0.000    0.000    0.000    0.000    0.000 
#
# Total GULP energy -793137.349178 kJ/mol
# GULP energy per Si atom -12392.771081 kJ/mol
# Density = 2.097576 g / cm^3
# Si number density = 21.023612 Si / 1000 Ang^3
#
#
#
# Elastic Constant Matrix: (Units=GPa)
#
#
# Indices 1 2 3 4 5 6 
#
# 1 78.4085 26.4941 30.9745 0.0000 0.0000 0.0000
# 2 26.4941 73.0282 44.5786 0.0000 0.0000 0.0000
# 3 30.9745 44.5786 72.5994 0.0000 0.0000 0.0000
# 4 0.0000 0.0000 0.0000 41.1518 0.0000 0.0000
# 5 0.0000 0.0000 0.0000 0.0000 30.0012 0.0000
# 6 0.0000 0.0000 0.0000 0.0000 0.0000 46.2514
#
#
#
# Elastic Compliance Matrix: (Units=1/GPa)
#
#
# Indices 1 2 3 4 5 6 
#
# 1 0.015632 -0.002559 -0.005098 0.000000 0.000000 0.000000
# 2 -0.002559 0.022322 -0.012615 0.000000 0.000000 0.000000
# 3 -0.005098 -0.012615 0.023695 0.000000 0.000000 0.000000
# 4 0.000000 0.000000 0.000000 0.024300 0.000000 0.000000
# 5 0.000000 0.000000 0.000000 0.000000 0.033332 0.000000
# 6 0.000000 0.000000 0.000000 0.000000 0.000000 0.021621
#
#
# Mechanical properties :
#
#
# Convention : Reuss Voigt Hill
#
# Bulk Modulus (GPa) = 47.38059 47.57003 47.47531
# Shear Modulus (GPa) = 26.52765 31.61346 29.07056
#
# Velocity S-wave (km/s) = 3.55604 3.88198 3.72258
# Velocity P-wave (km/s) = 6.28063 6.53981 6.41153
#
# Compressibility (1/GPa) = 0.02110569
#
# Stress axis : x y z
#
# Youngs Moduli (GPa) = 63.96951 44.79837 42.20268
#
# Poissons Ratio (x) = 0.11465 0.21515
# Poissons Ratio (y) = 0.16372 0.53237
# Poissons Ratio (z) = 0.32612 0.56512
#
# Static dielectric constant tensor:
#      x y z
#    x 3.923960 0.000000 0.000000 
#    y 0.000000 3.972110 0.000000 
#    z 0.000000 0.000000 3.692280 
# 
# 
# High freq. dielectric constant tensor:
#      x y z
#    x 1.842730 0.000000 0.000000 
#    y 0.000000 1.825340 0.000000 
#    z 0.000000 0.000000 1.805500 
# 
# From -- ./inp_files/40665.got.cif
#   From: 2010.06.25/outbox.cif.g09.slc.cpg/sg52_21_cif.got.tgz:40665.got - 2010.06.26 19:32:48.
