data_PCOD8215688
_publ_section_title
;
Structure prediction by ZEFSAII (Michael W. Deem and Ramdas Pophale) SiO2 
 PCOD8215688
Probable space group: P N N A
;
_chemical_formula_sum "Si O2"
_cell_formula_units_Z 48
_cell_length_a 20.562499
_cell_length_b 8.857323
_cell_length_c 14.581630
_cell_angle_alpha 90.000000
_cell_angle_beta 90.000000
_cell_angle_gamma 90.000000
_cell_volume 2655.733248
_symmetry_space_group_name_H-M "P N N A"
_symmetry_group_IT_number 52
_symmetry_cell_setting 'orthorhombic'
loop_
_space_group_symop_operation_xyz
x,y,z
1/2-x,-y,z
x,1/2-y,1/2-z
1/2-x,1/2+y,1/2-z
-x,-y,-z
1/2+x,y,-z
-x,1/2+y,1/2+z
1/2+x,1/2-y,1/2+z
loop_
_atom_site_type_symbol
_atom_site_label
_atom_site_fract_x
_atom_site_fract_y
_atom_site_fract_z
Si Si1 0.633764 0.417955 0.739645
Si Si2 0.870818 0.317578 0.852027
Si Si3 0.010075 0.386961 0.916655
Si Si4 0.319651 0.048427 0.054601
Si Si5 0.980579 0.423238 0.258939
Si Si6 0.440578 0.566755 0.557083
O O1 0.658722 0.250000 0.750000
O O2 0.650629 0.508193 0.834646
O O3 0.673280 0.477479 0.654250
O O4 0.557132 0.429592 0.719509
O O5 0.871479 0.250000 0.750000
O O6 0.825510 0.229685 0.925572
O O7 0.943158 0.305051 0.891303
O O8 0.037858 0.485495 0.832762
O O9 0.058549 0.250146 0.943399
O O10 0.000000 0.500000 0.000000
O O11 0.250000 0.000000 0.013722
O O12 0.372959 0.987221 0.985087
O O13 0.957508 0.250000 0.250000
O O14 0.941999 0.503403 0.340260
O O15 0.500000 0.500000 0.500000
#
# Coordination Sequence:
#
# PCOD8215688 Si02
#       6
#     8   8   8   8   8   8
#     4   9  18  32  56  84 118 149 190 230 288 357
#     4   9  18  35  54  78 119 151 182 230 287 342
#     4  11  21  32  59  92 116 141 186 239 296 342
#     4  11  23  36  54  81 116 158 197 233 288 342
#     4  10  20  35  57  91 117 143 186 241 292 345
#     4  12  20  36  59  82 115 156 189 238 284 339
#
# _framework density 18.074104999999999
#
# number of rings (size 3 to 8) (size 9 to 14) (size 15 to 20)
#    0.000    1.667    3.333    3.500    4.667    2.000 
#    0.000    0.000    0.000    2.000    0.000    0.000 
#    0.000    0.000    0.000    0.000    0.000    0.000 
#
# Total GULP energy -594989.158730 kJ/mol
# GULP energy per Si atom -12395.607474 kJ/mol
# Density = 1.803297 g / cm^3
# Si number density = 18.074105 Si / 1000 Ang^3
#
#
#
# Elastic Constant Matrix: (Units=GPa)
#
#
# Indices 1 2 3 4 5 6 
#
# 1 83.8951 39.0549 40.9157 0.0000 0.0000 0.0000
# 2 39.0549 161.0008 54.6381 0.0000 0.0000 0.0000
# 3 40.9157 54.6381 105.7663 0.0000 0.0000 0.0000
# 4 0.0000 0.0000 0.0000 26.3587 0.0000 0.0000
# 5 0.0000 0.0000 0.0000 0.0000 18.1154 0.0000
# 6 0.0000 0.0000 0.0000 0.0000 0.0000 13.3919
#
#
#
# Elastic Compliance Matrix: (Units=1/GPa)
#
#
# Indices 1 2 3 4 5 6 
#
# 1 0.015233 -0.002056 -0.004831 0.000000 0.000000 0.000000
# 2 -0.002056 0.007809 -0.003239 0.000000 0.000000 0.000000
# 3 -0.004831 -0.003239 0.012997 0.000000 0.000000 0.000000
# 4 0.000000 0.000000 0.000000 0.037938 0.000000 0.000000
# 5 0.000000 0.000000 0.000000 0.000000 0.055202 0.000000
# 6 0.000000 0.000000 0.000000 0.000000 0.000000 0.074672
#
#
# Mechanical properties :
#
#
# Convention : Reuss Voigt Hill
#
# Bulk Modulus (GPa) = 63.34021 68.87551 66.10786
# Shear Modulus (GPa) = 21.79947 25.97675 23.88811
#
# Velocity S-wave (km/s) = 3.47669 3.79520 3.63943
# Velocity P-wave (km/s) = 7.15802 7.57593 7.36994
#
# Compressibility (1/GPa) = 0.01578776
#
# Stress axis : x y z
#
# Youngs Moduli (GPa) = 65.64881 128.05834 76.94236
#
# Poissons Ratio (x) = 0.26324 0.37169
# Poissons Ratio (y) = 0.13495 0.24920
# Poissons Ratio (z) = 0.31713 0.41476
#
# Static dielectric constant tensor:
#      x y z
#    x 3.007110 0.000000 0.000000 
#    y 0.000000 4.187740 0.000000 
#    z 0.000000 0.000000 3.391010 
# 
# 
# High freq. dielectric constant tensor:
#      x y z
#    x 1.652070 0.000000 0.000000 
#    y 0.000000 1.725530 0.000000 
#    z 0.000000 0.000000 1.690910 
# 
# From -- ./inp_files/28044.got.cif
#   From: 2010.06.25/outbox.cif.g09.slc.cpg/sg52_15_cif.got.tgz:28044.got - 2010.06.26 19:32:48.
