data_PCOD8215331
_publ_section_title
;
Structure prediction by ZEFSAII (Michael W. Deem and Ramdas Pophale) SiO2 
 PCOD8215331
Probable space group: P N N A
;
_chemical_formula_sum "Si O2"
_cell_formula_units_Z 48
_cell_length_a 4.990501
_cell_length_b 15.282670
_cell_length_c 31.395258
_cell_angle_alpha 90.000000
_cell_angle_beta 90.000000
_cell_angle_gamma 90.000000
_cell_volume 2394.459186
_symmetry_space_group_name_H-M "P N N A"
_symmetry_group_IT_number 52
_symmetry_cell_setting 'orthorhombic'
loop_
_space_group_symop_operation_xyz
x,y,z
1/2-x,-y,z
x,1/2-y,1/2-z
1/2-x,1/2+y,1/2-z
-x,-y,-z
1/2+x,y,-z
-x,1/2+y,1/2+z
1/2+x,1/2-y,1/2+z
loop_
_atom_site_type_symbol
_atom_site_label
_atom_site_fract_x
_atom_site_fract_y
_atom_site_fract_z
Si Si1 0.519881 0.944814 0.720780
Si Si2 0.333517 0.202723 0.340129
Si Si3 0.146616 0.888143 0.185448
Si Si4 0.757754 0.900648 0.472187
Si Si5 0.636418 0.587711 0.369288
Si Si6 0.159496 0.722561 0.894109
O O1 0.503500 0.860227 0.691440
O O2 0.633438 0.923814 0.767237
O O3 0.750000 0.000000 0.697407
O O4 0.250000 0.000000 0.722566
O O5 0.256190 0.287825 0.312791
O O6 0.537884 0.221458 0.378045
O O7 0.053510 0.173844 0.362630
O O8 0.369316 0.939860 0.157054
O O9 0.851890 0.888085 0.166264
O O10 0.561547 0.886835 0.512401
O O11 0.663555 0.828727 0.438311
O O12 0.750000 0.000000 0.453462
O O13 0.750000 0.500000 0.393932
O O14 0.583082 0.672776 0.399542
#
# Coordination Sequence:
#
# PCOD8215331 Si02
#       6
#     8   8   8   8   8   8
#     4  12  23  34  50  74 105 142 187 233 279 322
#     4  10  22  37  52  76 107 144 182 223 279 330
#     4  10  20  35  53  72 103 146 191 232 268 316
#     4  10  21  38  61  86 109 139 178 218 265 329
#     4  10  19  33  55  81 107 140 185 229 271 318
#     4  10  21  37  58  81 109 142 176 223 277 329
#
# _framework density 20.046281
#
# number of rings (size 3 to 8) (size 9 to 14) (size 15 to 20)
#    0.000    1.667    0.000    5.500    0.000    2.000 
#    0.000    6.667    0.000    1.000    0.000    0.000 
#    0.000    0.000    0.000    0.000    0.000    0.000 
#
# Total GULP energy -594722.531495 kJ/mol
# GULP energy per Si atom -12390.052739 kJ/mol
# Density = 2.000065 g / cm^3
# Si number density = 20.046281 Si / 1000 Ang^3
#
#
#
# Elastic Constant Matrix: (Units=GPa)
#
#
# Indices 1 2 3 4 5 6 
#
# 1 109.5858 32.2659 21.0478 0.0000 0.0000 0.0000
# 2 32.2659 120.7199 60.9832 0.0000 0.0000 0.0000
# 3 21.0478 60.9832 62.1512 0.0000 0.0000 0.0000
# 4 0.0000 0.0000 0.0000 23.7953 0.0000 0.0000
# 5 0.0000 0.0000 0.0000 0.0000 21.6323 0.0000
# 6 0.0000 0.0000 0.0000 0.0000 0.0000 34.0854
#
#
#
# Elastic Compliance Matrix: (Units=1/GPa)
#
#
# Indices 1 2 3 4 5 6 
#
# 1 0.009976 -0.001903 -0.001511 0.000000 0.000000 0.000000
# 2 -0.001903 0.016788 -0.015828 0.000000 0.000000 0.000000
# 3 -0.001511 -0.015828 0.032132 0.000000 0.000000 0.000000
# 4 0.000000 0.000000 0.000000 0.042025 0.000000 0.000000
# 5 0.000000 0.000000 0.000000 0.000000 0.046227 0.000000
# 6 0.000000 0.000000 0.000000 0.000000 0.000000 0.029338
#
#
# Mechanical properties :
#
#
# Convention : Reuss Voigt Hill
#
# Bulk Modulus (GPa) = 48.99171 57.89453 53.44312
# Shear Modulus (GPa) = 22.54540 27.77992 25.16266
#
# Velocity S-wave (km/s) = 3.35724 3.72666 3.54676
# Velocity P-wave (km/s) = 6.28653 6.88915 6.59473
#
# Compressibility (1/GPa) = 0.02041162
#
# Stress axis : x y z
#
# Youngs Moduli (GPa) = 100.24253 59.56634 31.12144
#
# Poissons Ratio (x) = 0.11335 0.04703
# Poissons Ratio (y) = 0.19075 0.49259
# Poissons Ratio (z) = 0.15148 0.94282
#
# Static dielectric constant tensor:
#      x y z
#    x 3.859340 0.000000 0.000000 
#    y 0.000000 4.139090 0.000000 
#    z 0.000000 0.000000 3.100350 
# 
# 
# High freq. dielectric constant tensor:
#      x y z
#    x 1.809270 0.000000 0.000000 
#    y 0.000000 1.801130 0.000000 
#    z 0.000000 0.000000 1.724570 
# 
# From -- ./inp_files/41689.got.cif
#   From: 2010.06.25/outbox.cif.g09.slc.cpg/sg52_21_cif.got.tgz:41689.got - 2010.06.26 19:32:48.
