data_PCOD8215197
_publ_section_title
;
Structure prediction by ZEFSAII (Michael W. Deem and Ramdas Pophale) SiO2 
 PCOD8215197
Probable space group: P N N A
;
_chemical_formula_sum "Si O2"
_cell_formula_units_Z 48
_cell_length_a 13.798402
_cell_length_b 14.505812
_cell_length_c 11.236930
_cell_angle_alpha 90.000000
_cell_angle_beta 90.000000
_cell_angle_gamma 90.000000
_cell_volume 2249.150482
_symmetry_space_group_name_H-M "P N N A"
_symmetry_group_IT_number 52
_symmetry_cell_setting 'orthorhombic'
loop_
_space_group_symop_operation_xyz
x,y,z
1/2-x,-y,z
x,1/2-y,1/2-z
1/2-x,1/2+y,1/2-z
-x,-y,-z
1/2+x,y,-z
-x,1/2+y,1/2+z
1/2+x,1/2-y,1/2+z
loop_
_atom_site_type_symbol
_atom_site_label
_atom_site_fract_x
_atom_site_fract_y
_atom_site_fract_z
Si Si1 0.600515 0.634067 0.862282
Si Si2 0.245885 0.104395 0.178770
Si Si3 0.275079 0.240782 0.974733
Si Si4 0.542564 0.825319 0.153003
Si Si5 0.935738 0.925402 0.666409
Si Si6 0.935405 0.777514 0.466153
O O1 0.653362 0.639176 0.735603
O O2 0.668250 0.672277 0.970054
O O3 0.574231 0.527655 0.885051
O O4 0.504843 0.698354 0.854376
O O5 0.228948 0.171911 0.070574
O O6 0.164602 0.113146 0.279348
O O7 0.250000 0.000000 0.130776
O O8 0.174294 0.275160 0.915540
O O9 0.343754 0.184800 0.882519
O O10 0.512173 0.750000 0.250000
O O11 0.516875 0.919820 0.225473
O O12 0.474453 0.814445 0.035350
O O13 0.959258 0.862468 0.554242
#
# Coordination Sequence:
#
# PCOD8215197 Si02
#       6
#     8   8   8   8   8   8
#     4  10  21  32  55  93 116 148 196 253 293 349
#     4  10  20  35  59  84 113 154 201 247 288 348
#     4  11  20  36  61  85 116 155 205 246 295 351
#     4   9  20  36  58  82 114 161 193 235 300 364
#     4  10  18  36  57  84 120 156 193 240 305 354
#     4  10  19  33  58  86 118 151 193 247 300 345
#
# _framework density 21.341391999999999
#
# number of rings (size 3 to 8) (size 9 to 14) (size 15 to 20)
#    0.000    2.000    3.333    1.000    0.000    0.000 
#    0.000    6.667    7.333    0.000    0.000    0.000 
#    0.000    0.000    0.000    0.000    0.000    0.000 
#
# Total GULP energy -594737.260794 kJ/mol
# GULP energy per Si atom -12390.359600 kJ/mol
# Density = 2.129282 g / cm^3
# Si number density = 21.341392 Si / 1000 Ang^3
#
#
#
# Elastic Constant Matrix: (Units=GPa)
#
#
# Indices 1 2 3 4 5 6 
#
# 1 170.1631 36.8664 26.2967 0.0000 0.0000 0.0000
# 2 36.8664 62.8630 28.4951 0.0000 0.0000 0.0000
# 3 26.2967 28.4951 34.1600 0.0000 0.0000 0.0000
# 4 0.0000 0.0000 0.0000 15.8085 0.0000 0.0000
# 5 0.0000 0.0000 0.0000 0.0000 19.9657 0.0000
# 6 0.0000 0.0000 0.0000 0.0000 0.0000 24.8062
#
#
#
# Elastic Compliance Matrix: (Units=1/GPa)
#
#
# Indices 1 2 3 4 5 6 
#
# 1 0.006934 -0.002648 -0.003129 0.000000 0.000000 0.000000
# 2 -0.002648 0.026591 -0.020143 0.000000 0.000000 0.000000
# 3 -0.003129 -0.020143 0.048485 0.000000 0.000000 0.000000
# 4 0.000000 0.000000 0.000000 0.063257 0.000000 0.000000
# 5 0.000000 0.000000 0.000000 0.000000 0.050086 0.000000
# 6 0.000000 0.000000 0.000000 0.000000 0.000000 0.040312
#
#
# Mechanical properties :
#
#
# Convention : Reuss Voigt Hill
#
# Bulk Modulus (GPa) = 33.14493 50.05584 41.60038
# Shear Modulus (GPa) = 16.80321 23.81794 20.31058
#
# Velocity S-wave (km/s) = 2.80903 3.34435 3.08831
# Velocity P-wave (km/s) = 5.10738 6.19828 5.67908
#
# Compressibility (1/GPa) = 0.03017052
#
# Stress axis : x y z
#
# Youngs Moduli (GPa) = 144.21738 37.60646 20.62494
#
# Poissons Ratio (x) = 0.09959 0.06453
# Poissons Ratio (y) = 0.38192 0.41544
# Poissons Ratio (z) = 0.45122 0.75750
#
# Static dielectric constant tensor:
#      x y z
#    x 3.998600 0.000000 0.000000 
#    y 0.000000 3.809340 0.000000 
#    z 0.000000 0.000000 3.618180 
# 
# 
# High freq. dielectric constant tensor:
#      x y z
#    x 1.847610 0.000000 0.000000 
#    y 0.000000 1.817230 0.000000 
#    z 0.000000 0.000000 1.808640 
# 
# From -- ./inp_files/19511.got.cif
#   From: 2010.06.25/outbox.cif.g09.slc.cpg/sg52_10_cif.got.tgz:19511.got - 2010.06.26 19:32:48.
