data_PCOD8215765
_publ_section_title
;
Structure prediction by ZEFSAII (Michael W. Deem and Ramdas Pophale) SiO2 
 PCOD8215765
Probable space group: P N N A
;
_chemical_formula_sum "Si O2"
_cell_formula_units_Z 40
_cell_length_a 8.805266
_cell_length_b 20.307879
_cell_length_c 10.929043
_cell_angle_alpha 90.000000
_cell_angle_beta 90.000000
_cell_angle_gamma 90.000000
_cell_volume 1954.290775
_symmetry_space_group_name_H-M "P N N A"
_symmetry_group_IT_number 52
_symmetry_cell_setting 'orthorhombic'
loop_
_space_group_symop_operation_xyz
x,y,z
1/2-x,-y,z
x,1/2-y,1/2-z
1/2-x,1/2+y,1/2-z
-x,-y,-z
1/2+x,y,-z
-x,1/2+y,1/2+z
1/2+x,1/2-y,1/2+z
loop_
_atom_site_type_symbol
_atom_site_label
_atom_site_fract_x
_atom_site_fract_y
_atom_site_fract_z
Si Si1 0.756396 0.077647 0.348642
Si Si2 0.663440 0.068881 0.091630
Si Si3 0.975124 0.854647 0.525387
Si Si4 0.185319 0.929183 0.144174
Si Si5 0.296060 0.312590 0.167807
O O1 0.717434 0.107638 0.214145
O O2 0.632812 0.098250 0.447464
O O3 0.923595 0.100044 0.386509
O O4 0.750000 0.000000 0.336198
O O5 0.483849 0.059434 0.094540
O O6 0.750000 0.000000 0.080725
O O7 0.714197 0.104684 0.965015
O O8 0.871660 0.807444 0.609424
O O9 0.078746 0.809490 0.439199
O O10 0.186996 0.881021 0.259895
O O11 0.250000 0.000000 0.187742
O O12 0.328351 0.250000 0.250000
#
# Coordination Sequence:
#
# PCOD8215765 Si02
#       5
#     8   8   8   8   8
#     4  10  20  36  64  96 133 165 205 259 318 370
#     4  10  21  36  59  98 130 165 213 260 316 368
#     4  10  23  43  61  93 127 163 217 252 314 391
#     4  11  23  39  65  95 130 167 215 266 313 372
#     4  11  26  46  66  92 128 167 213 259 320 378
#
# _framework density 20.467784000000002
#
# number of rings (size 3 to 8) (size 9 to 14) (size 15 to 20)
#    0.000    1.600    2.000    3.000    8.400    4.800 
#    0.000    2.000    0.000    0.000    0.000    0.000 
#    0.000    0.000    0.000    0.000    0.000    0.000 
#
# Total GULP energy -495973.268028 kJ/mol
# GULP energy per Si atom -12399.331701 kJ/mol
# Density = 2.042120 g / cm^3
# Si number density = 20.467784 Si / 1000 Ang^3
#
#
#
# Elastic Constant Matrix: (Units=GPa)
#
#
# Indices 1 2 3 4 5 6 
#
# 1 150.2011 27.5039 36.4583 0.0000 0.0000 0.0000
# 2 27.5039 66.7690 25.7137 0.0000 0.0000 0.0000
# 3 36.4583 25.7137 86.6311 0.0000 0.0000 0.0000
# 4 0.0000 0.0000 0.0000 24.0305 0.0000 0.0000
# 5 0.0000 0.0000 0.0000 0.0000 31.9693 0.0000
# 6 0.0000 0.0000 0.0000 0.0000 0.0000 14.0343
#
#
#
# Elastic Compliance Matrix: (Units=1/GPa)
#
#
# Indices 1 2 3 4 5 6 
#
# 1 0.007683 -0.002167 -0.002590 0.000000 0.000000 0.000000
# 2 -0.002167 0.017521 -0.004289 0.000000 0.000000 0.000000
# 3 -0.002590 -0.004289 0.013906 0.000000 0.000000 0.000000
# 4 0.000000 0.000000 0.000000 0.041614 0.000000 0.000000
# 5 0.000000 0.000000 0.000000 0.000000 0.031280 0.000000
# 6 0.000000 0.000000 0.000000 0.000000 0.000000 0.071254
#
#
# Mechanical properties :
#
#
# Convention : Reuss Voigt Hill
#
# Bulk Modulus (GPa) = 47.57678 53.66144 50.61911
# Shear Modulus (GPa) = 23.99727 28.26852 26.13289
#
# Velocity S-wave (km/s) = 3.42781 3.72038 3.57708
# Velocity P-wave (km/s) = 6.24193 6.68800 6.46881
#
# Compressibility (1/GPa) = 0.02101865
#
# Stress axis : x y z
#
# Youngs Moduli (GPa) = 130.15171 57.07308 71.91061
#
# Poissons Ratio (x) = 0.12370 0.18626
# Poissons Ratio (y) = 0.28210 0.30839
# Poissons Ratio (z) = 0.33711 0.24476
#
# Static dielectric constant tensor:
#      x y z
#    x 4.001340 0.000000 0.000000 
#    y 0.000000 3.157230 0.000000 
#    z 0.000000 0.000000 4.509560 
# 
# 
# High freq. dielectric constant tensor:
#      x y z
#    x 1.821920 0.000000 0.000000 
#    y 0.000000 1.749010 0.000000 
#    z 0.000000 0.000000 1.827820 
# 
# From -- ./inp_files/16624.got.cif
#   From: 2010.06.25/outbox.cif.g09.slc.cpg/sg52_9_cif.got.tgz:16624.got - 2010.06.26 19:32:48.
