data_PCOD8215589
_publ_section_title
;
Structure prediction by ZEFSAII (Michael W. Deem and Ramdas Pophale) SiO2 
 PCOD8215589
Probable space group: P N N A
;
_chemical_formula_sum "Si O2"
_cell_formula_units_Z 40
_cell_length_a 5.164441
_cell_length_b 15.183854
_cell_length_c 24.043670
_cell_angle_alpha 90.000000
_cell_angle_beta 90.000000
_cell_angle_gamma 90.000000
_cell_volume 1885.411267
_symmetry_space_group_name_H-M "P N N A"
_symmetry_group_IT_number 52
_symmetry_cell_setting 'orthorhombic'
loop_
_space_group_symop_operation_xyz
x,y,z
1/2-x,-y,z
x,1/2-y,1/2-z
1/2-x,1/2+y,1/2-z
-x,-y,-z
1/2+x,y,-z
-x,1/2+y,1/2+z
1/2+x,1/2-y,1/2+z
loop_
_atom_site_type_symbol
_atom_site_label
_atom_site_fract_x
_atom_site_fract_y
_atom_site_fract_z
Si Si1 0.936370 0.901118 0.152474
Si Si2 0.750000 0.500000 0.800650
Si Si3 0.250000 0.500000 0.873376
Si Si4 0.563959 0.404791 0.698767
Si Si5 0.781340 0.844039 0.034085
Si Si6 0.276345 0.861012 0.534187
O O1 0.712519 0.855784 0.191748
O O2 0.846331 0.898792 0.088974
O O3 0.211757 0.852262 0.164125
O O4 0.998126 0.000847 0.170654
O O5 0.501508 0.523614 0.837155
O O6 0.662284 0.417255 0.762021
O O7 0.203329 0.585890 0.910661
O O8 0.778817 0.741394 0.049534
O O9 0.498451 0.869510 0.011421
O O10 0.559648 0.886424 0.511466
#
# Coordination Sequence:
#
# PCOD8215589 Si02
#       6
#     8   4   4   8   8   8
#     4   9  16  31  51  70  96 140 168 195 250 299
#     4  10  20  33  54  80  98 125 166 214 254 286
#     4  12  20  33  58  78  98 125 170 212 246 304
#     4   9  18  33  51  71 101 133 169 205 249 297
#     4  10  20  33  50  73 103 135 169 205 246 299
#     4  10  21  36  52  75 105 134 161 200 255 306
#
# _framework density 21.215529
#
# number of rings (size 3 to 8) (size 9 to 14) (size 15 to 20)
#    0.000    2.400    0.000    5.400    0.000    0.000 
#    0.000   12.000    0.000   15.600    0.000    0.000 
#    0.000    0.000    0.000    0.000    0.000    0.000 
#
# Total GULP energy -495537.206006 kJ/mol
# GULP energy per Si atom -12388.430150 kJ/mol
# Density = 2.116724 g / cm^3
# Si number density = 21.215529 Si / 1000 Ang^3
#
#
#
# Elastic Constant Matrix: (Units=GPa)
#
#
# Indices 1 2 3 4 5 6 
#
# 1 184.5505 12.2321 39.9851 0.0000 0.0000 0.0000
# 2 12.2321 27.8266 24.9719 0.0000 0.0000 0.0000
# 3 39.9851 24.9719 112.5912 0.0000 0.0000 0.0000
# 4 0.0000 0.0000 0.0000 -1.8136 0.0000 0.0000
# 5 0.0000 0.0000 0.0000 0.0000 38.3366 0.0000
# 6 0.0000 0.0000 0.0000 0.0000 0.0000 14.0926
#
#
#
# Elastic Compliance Matrix: (Units=1/GPa)
#
#
# Indices 1 2 3 4 5 6 
#
# 1 0.005888 -0.000889 -0.001894 0.000000 0.000000 0.000000
# 2 -0.000889 0.045001 -0.009665 0.000000 0.000000 0.000000
# 3 -0.001894 -0.009665 0.011698 0.000000 0.000000 0.000000
# 4 0.000000 0.000000 0.000000 -0.551385 0.000000 0.000000
# 5 0.000000 0.000000 0.000000 0.000000 0.026085 0.000000
# 6 0.000000 0.000000 0.000000 0.000000 0.000000 0.070959
#
#
# Mechanical properties :
#
#
# Convention : Reuss Voigt Hill
#
# Bulk Modulus (GPa) = 26.53125 53.26071 39.89598
# Shear Modulus (GPa) = -14.11254 26.64174 6.26460
#
# Velocity S-wave (km/s) = -2.58194 3.54752 1.72025
# Velocity P-wave (km/s) = 1.90897 6.47603 4.77405
#
# Compressibility (1/GPa) = 0.03769141
#
# Stress axis : x y z
#
# Youngs Moduli (GPa) = 169.84272 22.22157 85.48485
#
# Poissons Ratio (x) = 0.01975 0.16190
# Poissons Ratio (y) = 0.15092 0.82624
# Poissons Ratio (z) = 0.32166 0.21478
#
# Static dielectric constant tensor:
#      x y z
#    x 11.775110 0.000000 0.000000 
#    y 0.000000 3.488710 0.000000 
#    z 0.000000 0.000000 3.776500 
# 
# 
# High freq. dielectric constant tensor:
#      x y z
#    x 1.877950 0.000000 0.000000 
#    y 0.000000 1.767270 0.000000 
#    z 0.000000 0.000000 1.828050 
# 
# From -- ./inp_files/30159.got.cif
#   From: 2010.06.25/outbox.cif.g09.slc.cpg/sg52_16_cif.got.tgz:30159.got - 2010.06.26 19:32:48.
