data_PCOD8215400
_publ_section_title
;
Structure prediction by ZEFSAII (Michael W. Deem and Ramdas Pophale) SiO2 
 PCOD8215400
Probable space group: P N N A
;
_chemical_formula_sum "Si O2"
_cell_formula_units_Z 64
_cell_length_a 14.206691
_cell_length_b 8.647945
_cell_length_c 28.422588
_cell_angle_alpha 90.000000
_cell_angle_beta 90.000000
_cell_angle_gamma 90.000000
_cell_volume 3491.961712
_symmetry_space_group_name_H-M "P N N A"
_symmetry_group_IT_number 52
_symmetry_cell_setting 'orthorhombic'
loop_
_space_group_symop_operation_xyz
x,y,z
1/2-x,-y,z
x,1/2-y,1/2-z
1/2-x,1/2+y,1/2-z
-x,-y,-z
1/2+x,y,-z
-x,1/2+y,1/2+z
1/2+x,1/2-y,1/2+z
loop_
_atom_site_type_symbol
_atom_site_label
_atom_site_fract_x
_atom_site_fract_y
_atom_site_fract_z
Si Si1 0.395272 0.816879 0.628075
Si Si2 0.750000 0.819590 0.801164
Si Si3 0.250000 0.818016 0.551559
Si Si4 0.895272 0.183121 0.371925
Si Si5 0.250000 0.682999 0.698250
Si Si6 0.398259 0.183421 0.122854
Si Si7 0.250000 0.815369 0.446005
Si Si8 0.601741 0.183421 0.877146
O O1 0.342658 0.764532 0.580177
O O2 0.344125 0.740705 0.672480
O O3 0.500783 0.759482 0.625432
O O4 0.391380 0.000000 0.634599
O O5 0.750000 0.750000 0.750000
O O6 0.657521 0.767661 0.829934
O O7 0.842479 0.767661 0.829934
O O8 0.750000 0.000000 0.794771
O O9 0.157342 0.764532 0.580177
O O10 0.250000 0.748699 0.499214
O O11 0.250000 0.000000 0.546825
O O12 0.844125 0.259295 0.327520
O O13 0.000783 0.240518 0.374568
O O14 0.250000 0.500000 0.700083
O O15 0.250000 0.750000 0.750000
O O16 0.343931 0.250114 0.077904
O O17 0.405601 0.000000 0.117820
O O18 0.343931 0.750114 0.422096
O O19 0.250000 0.000000 0.443475
#
# Coordination Sequence:
#
# PCOD8215400 Si02
#       8
#     8   8   8   8   8   8   8   8
#     4  10  20  37  58  81 108 143 182 222 268 324
#     4   9  20  36  54  74 103 136 172 216 263 312
#     4   8  18  35  55  79 108 138 178 226 270 317
#     4  10  20  37  58  81 108 143 182 222 268 324
#     4  11  22  38  58  82 111 144 180 224 271 320
#     4  10  21  37  53  78 112 142 174 222 274 323
#     4  10  19  35  57  79 104 142 184 224 268 321
#     4  10  21  37  53  78 112 142 174 222 274 323
#
# _framework density 18.327808000000001
#
# number of rings (size 3 to 8) (size 9 to 14) (size 15 to 20)
#    0.000    2.250    0.000    4.500    0.000    5.000 
#    0.000   15.000    0.000    0.000    0.000    0.000 
#    0.000    0.000    0.000    0.000    0.000    0.000 
#
# Total GULP energy -793599.560553 kJ/mol
# GULP energy per Si atom -12399.993134 kJ/mol
# Density = 1.828609 g / cm^3
# Si number density = 18.327808 Si / 1000 Ang^3
#
#
#
# Elastic Constant Matrix: (Units=GPa)
#
#
# Indices 1 2 3 4 5 6 
#
# 1 175.6579 51.7579 87.8446 0.0000 0.0000 0.0000
# 2 51.7579 95.4411 55.1583 0.0000 0.0000 0.0000
# 3 87.8446 55.1583 189.2477 0.0000 0.0000 0.0000
# 4 0.0000 0.0000 0.0000 28.4126 0.0000 0.0000
# 5 0.0000 0.0000 0.0000 0.0000 10.0317 0.0000
# 6 0.0000 0.0000 0.0000 0.0000 0.0000 36.3526
#
#
#
# Elastic Compliance Matrix: (Units=1/GPa)
#
#
# Indices 1 2 3 4 5 6 
#
# 1 0.007920 -0.002610 -0.002916 0.000000 0.000000 0.000000
# 2 -0.002610 0.013460 -0.002712 0.000000 0.000000 0.000000
# 3 -0.002916 -0.002712 0.007428 0.000000 0.000000 0.000000
# 4 0.000000 0.000000 0.000000 0.035196 0.000000 0.000000
# 5 0.000000 0.000000 0.000000 0.000000 0.099684 0.000000
# 6 0.000000 0.000000 0.000000 0.000000 0.000000 0.027508
#
#
# Mechanical properties :
#
#
# Convention : Reuss Voigt Hill
#
# Bulk Modulus (GPa) = 81.07971 94.42981 87.75476
# Shear Modulus (GPa) = 23.60922 32.66510 28.13716
#
# Velocity S-wave (km/s) = 3.59299 4.22627 3.92243
# Velocity P-wave (km/s) = 7.84522 8.68618 8.27639
#
# Compressibility (1/GPa) = 0.01233354
#
# Stress axis : x y z
#
# Youngs Moduli (GPa) = 126.26310 74.29304 134.63046
#
# Poissons Ratio (x) = 0.19391 0.39252
# Poissons Ratio (y) = 0.32955 0.36506
# Poissons Ratio (z) = 0.36813 0.20145
#
# Static dielectric constant tensor:
#      x y z
#    x 3.421910 0.000000 0.000000 
#    y 0.000000 3.400290 0.000000 
#    z 0.000000 0.000000 3.396940 
# 
# 
# High freq. dielectric constant tensor:
#      x y z
#    x 1.717070 0.000000 0.000000 
#    y 0.000000 1.715230 0.000000 
#    z 0.000000 0.000000 1.716930 
# 
# From -- ./inp_files/45075.got.cif
#   From: 2010.06.25/outbox.cif.g09.slc.cpg/sg52_23_cif.got.tgz:45075.got - 2010.06.26 19:32:48.
