data_PCOD8215822
_publ_section_title
;
Structure prediction by ZEFSAII (Michael W. Deem and Ramdas Pophale) SiO2 
 PCOD8215822
Probable space group: P N N A
;
_chemical_formula_sum "Si O2"
_cell_formula_units_Z 56
_cell_length_a 21.126363
_cell_length_b 15.623237
_cell_length_c 8.910701
_cell_angle_alpha 90.000000
_cell_angle_beta 90.000000
_cell_angle_gamma 90.000000
_cell_volume 2941.085363
_symmetry_space_group_name_H-M "P N N A"
_symmetry_group_IT_number 52
_symmetry_cell_setting 'orthorhombic'
loop_
_space_group_symop_operation_xyz
x,y,z
1/2-x,-y,z
x,1/2-y,1/2-z
1/2-x,1/2+y,1/2-z
-x,-y,-z
1/2+x,y,-z
-x,1/2+y,1/2+z
1/2+x,1/2-y,1/2+z
loop_
_atom_site_type_symbol
_atom_site_label
_atom_site_fract_x
_atom_site_fract_y
_atom_site_fract_z
Si Si1 0.082627 0.768927 0.575780
Si Si2 0.179276 0.506201 0.323511
Si Si3 0.667347 0.166869 0.652023
Si Si4 0.310699 0.327325 0.132062
Si Si5 0.508710 0.491795 0.246342
Si Si6 0.957586 0.879817 0.518635
Si Si7 0.924035 0.420331 0.493961
O O1 0.092314 0.750000 0.750000
O O2 0.143276 0.819990 0.511518
O O3 0.083245 0.680350 0.486441
O O4 0.016747 0.816527 0.541820
O O5 0.250000 0.500000 0.383016
O O6 0.158522 0.416396 0.254448
O O7 0.170209 0.582413 0.204330
O O8 0.139543 0.527462 0.471653
O O9 0.656772 0.250000 0.750000
O O10 0.737248 0.169035 0.576455
O O11 0.610096 0.167770 0.531574
O O12 0.319594 0.250000 0.250000
O O13 0.460353 0.544913 0.142983
O O14 0.558332 0.557578 0.321654
O O15 0.475555 0.445277 0.383276
O O16 0.542936 0.420055 0.146880
#
# Coordination Sequence:
#
# PCOD8215822 Si02
#       7
#     8   8   8   8   8   8   8
#     4  12  24  37  62  93 125 158 203 255 308 356
#     4  10  20  37  63  91 116 160 209 250 297 365
#     4  10  22  38  63  90 121 160 201 250 303 363
#     4  10  21  39  64  90 119 160 206 248 295 367
#     4  10  23  36  61  86 123 156 202 249 309 356
#     4  11  22  39  59  91 121 161 199 254 302 367
#     4  11  21  40  60  89 119 161 202 253 300 369
#
# _framework density 19.040590000000002
#
# number of rings (size 3 to 8) (size 9 to 14) (size 15 to 20)
#    0.000    1.429    4.286    1.286    2.000    0.000 
#    0.000    1.429    3.143    0.000    0.000    0.000 
#    0.000    0.000    0.000    0.000    0.000    0.000 
#
# Total GULP energy -694262.351434 kJ/mol
# GULP energy per Si atom -12397.541990 kJ/mol
# Density = 1.899725 g / cm^3
# Si number density = 19.040590 Si / 1000 Ang^3
#
#
#
# Elastic Constant Matrix: (Units=GPa)
#
#
# Indices 1 2 3 4 5 6 
#
# 1 127.6822 32.3772 43.1102 0.0000 0.0000 0.0000
# 2 32.3772 117.0494 27.0939 0.0000 0.0000 0.0000
# 3 43.1102 27.0939 88.0113 0.0000 0.0000 0.0000
# 4 0.0000 0.0000 0.0000 17.1155 0.0000 0.0000
# 5 0.0000 0.0000 0.0000 0.0000 28.3614 0.0000
# 6 0.0000 0.0000 0.0000 0.0000 0.0000 -34.3974
#
#
#
# Elastic Compliance Matrix: (Units=1/GPa)
#
#
# Indices 1 2 3 4 5 6 
#
# 1 0.009689 -0.001703 -0.004222 0.000000 0.000000 0.000000
# 2 -0.001703 0.009498 -0.002090 0.000000 0.000000 0.000000
# 3 -0.004222 -0.002090 0.014073 0.000000 0.000000 0.000000
# 4 0.000000 0.000000 0.000000 0.058427 0.000000 0.000000
# 5 0.000000 0.000000 0.000000 0.000000 0.035259 0.000000
# 6 0.000000 0.000000 0.000000 0.000000 0.000000 -0.029072
#
#
# Mechanical properties :
#
#
# Convention : Reuss Voigt Hill
#
# Bulk Modulus (GPa) = 58.03236 59.76729 58.89983
# Shear Modulus (GPa) = 41.78938 17.56002 29.67470
#
# Velocity S-wave (km/s) = 4.68990 3.04014 3.95206
# Velocity P-wave (km/s) = 7.73765 6.61671 7.19903
#
# Compressibility (1/GPa) = 0.01723177
#
# Stress axis : x y z
#
# Youngs Moduli (GPa) = 103.20779 105.28325 71.05570
#
# Poissons Ratio (x) = 0.17929 0.29998
# Poissons Ratio (y) = 0.17575 0.14850
# Poissons Ratio (z) = 0.43572 0.22003
#
# Static dielectric constant tensor:
#      x y z
#    x 3.761290 0.000000 0.000000 
#    y 0.000000 3.722240 0.000000 
#    z 0.000000 0.000000 3.318260 
# 
# 
# High freq. dielectric constant tensor:
#      x y z
#    x 1.748320 0.000000 0.000000 
#    y 0.000000 1.758590 0.000000 
#    z 0.000000 0.000000 1.716310 
# 
# From -- ./inp_files/13469.got.cif
#   From: 2010.06.25/outbox.cif.g09.slc.cpg/sg52_7_cif.got.tgz:13469.got - 2010.06.26 19:32:48.
