data_PCOD8215940
_publ_section_title
;
Structure prediction by ZEFSAII (Michael W. Deem and Ramdas Pophale) SiO2 
 PCOD8215940
Probable space group: P N N A
;
_chemical_formula_sum "Si O2"
_cell_formula_units_Z 48
_cell_length_a 5.001688
_cell_length_b 26.356776
_cell_length_c 15.372421
_cell_angle_alpha 90.000000
_cell_angle_beta 90.000000
_cell_angle_gamma 90.000000
_cell_volume 2026.521207
_symmetry_space_group_name_H-M "P N N A"
_symmetry_group_IT_number 52
_symmetry_cell_setting 'orthorhombic'
loop_
_space_group_symop_operation_xyz
x,y,z
1/2-x,-y,z
x,1/2-y,1/2-z
1/2-x,1/2+y,1/2-z
-x,-y,-z
1/2+x,y,-z
-x,1/2+y,1/2+z
1/2+x,1/2-y,1/2+z
loop_
_atom_site_type_symbol
_atom_site_label
_atom_site_fract_x
_atom_site_fract_y
_atom_site_fract_z
Si Si1 0.501967 0.583770 0.771949
Si Si2 0.153990 0.274142 0.940370
Si Si3 0.174310 0.392660 0.949048
Si Si4 0.835324 0.250000 0.250000
Si Si5 0.080805 0.910586 0.945898
Si Si6 0.250000 0.500000 0.661619
Si Si7 0.495293 0.356712 0.717201
O O1 0.428718 0.571886 0.871480
O O2 0.459270 0.532230 0.718782
O O3 0.307263 0.627757 0.738170
O O4 0.801779 0.605550 0.765953
O O5 0.147425 0.334003 0.922275
O O6 0.168810 0.249423 0.842219
O O7 0.392278 0.257383 0.005628
O O8 0.482246 0.404881 0.969308
O O9 0.033057 0.298734 0.252407
O O10 0.981448 0.863582 0.886899
O O11 0.054922 0.963790 0.894607
O O12 0.394184 0.908171 0.969870
#
# Coordination Sequence:
#
# PCOD8215940 Si02
#       7
#     8   8   8   4   8   4   8
#     4  11  23  44  63 100 133 172 229 281 336 430
#     4  10  24  41  65  98 130 178 237 278 336 430
#     4  10  20  39  66  91 126 170 220 278 337 403
#     4  12  26  46  72 100 144 192 228 298 378 410
#     4  11  23  43  68  98 138 177 231 291 350 415
#     4  10  24  42  72 100 136 188 232 280 360 446
#     4  11  26  41  66  97 133 181 231 280 349 424
#
# _framework density 23.685911000000001
#
# number of rings (size 3 to 8) (size 9 to 14) (size 15 to 20)
#    0.000    1.333    1.667    3.500    4.667    9.333 
#    0.000    0.833    0.000    0.000    0.000    0.000 
#    0.000    0.000    0.000    0.000    0.000    0.000 
#
# Total GULP energy -594969.191594 kJ/mol
# GULP energy per Si atom -12395.191492 kJ/mol
# Density = 2.363200 g / cm^3
# Si number density = 23.685911 Si / 1000 Ang^3
#
#
#
# Elastic Constant Matrix: (Units=GPa)
#
#
# Indices 1 2 3 4 5 6 
#
# 1 91.7531 16.0611 31.4765 0.0000 0.0000 0.0000
# 2 16.0611 87.9457 27.3989 0.0000 0.0000 0.0000
# 3 31.4765 27.3989 147.1839 0.0000 0.0000 0.0000
# 4 0.0000 0.0000 0.0000 34.3652 0.0000 0.0000
# 5 0.0000 0.0000 0.0000 0.0000 22.4413 0.0000
# 6 0.0000 0.0000 0.0000 0.0000 0.0000 19.1459
#
#
#
# Elastic Compliance Matrix: (Units=1/GPa)
#
#
# Indices 1 2 3 4 5 6 
#
# 1 0.011938 -0.001470 -0.002279 0.000000 0.000000 0.000000
# 2 -0.001470 0.012252 -0.001966 0.000000 0.000000 0.000000
# 3 -0.002279 -0.001966 0.007648 0.000000 0.000000 0.000000
# 4 0.000000 0.000000 0.000000 0.029099 0.000000 0.000000
# 5 0.000000 0.000000 0.000000 0.000000 0.044561 0.000000
# 6 0.000000 0.000000 0.000000 0.000000 0.000000 0.052230
#
#
# Mechanical properties :
#
#
# Convention : Reuss Voigt Hill
#
# Bulk Modulus (GPa) = 49.00528 52.97287 50.98907
# Shear Modulus (GPa) = 28.41530 31.98690 30.20110
#
# Velocity S-wave (km/s) = 3.46738 3.67885 3.57468
# Velocity P-wave (km/s) = 6.06341 6.36070 6.21383
#
# Compressibility (1/GPa) = 0.02040597
#
# Stress axis : x y z
#
# Youngs Moduli (GPa) = 83.76537 81.62120 130.75778
#
# Poissons Ratio (x) = 0.11999 0.29805
# Poissons Ratio (y) = 0.12314 0.25711
# Poissons Ratio (z) = 0.19094 0.16049
#
# Static dielectric constant tensor:
#      x y z
#    x 4.080240 0.000000 0.000000 
#    y 0.000000 4.149890 0.000000 
#    z 0.000000 0.000000 4.549230 
# 
# 
# High freq. dielectric constant tensor:
#      x y z
#    x 1.934130 0.000000 0.000000 
#    y 0.000000 1.909140 0.000000 
#    z 0.000000 0.000000 1.956170 
# 
# From -- ./inp_files/23724.got.cif
#   From: 2010.06.25/outbox.cif.g09.slc.cpg/sg52_12_cif.got.tgz:23724.got - 2010.06.26 19:32:48.
