data_PCOD8215648
_publ_section_title
;
Structure prediction by ZEFSAII (Michael W. Deem and Ramdas Pophale) SiO2 
 PCOD8215648
Probable space group: P N N A
;
_chemical_formula_sum "Si O2"
_cell_formula_units_Z 36
_cell_length_a 11.538409
_cell_length_b 5.520231
_cell_length_c 26.498589
_cell_angle_alpha 90.000000
_cell_angle_beta 90.000000
_cell_angle_gamma 90.000000
_cell_volume 1687.819228
_symmetry_space_group_name_H-M "P N N A"
_symmetry_group_IT_number 52
_symmetry_cell_setting 'orthorhombic'
loop_
_space_group_symop_operation_xyz
x,y,z
1/2-x,-y,z
x,1/2-y,1/2-z
1/2-x,1/2+y,1/2-z
-x,-y,-z
1/2+x,y,-z
-x,1/2+y,1/2+z
1/2+x,1/2-y,1/2+z
loop_
_atom_site_type_symbol
_atom_site_label
_atom_site_fract_x
_atom_site_fract_y
_atom_site_fract_z
Si Si1 0.061590 0.338796 0.879561
Si Si2 0.750000 0.000000 0.103116
Si Si3 0.612754 0.999039 0.276686
Si Si4 0.620388 0.925886 0.936964
Si Si5 0.429213 0.227819 0.538958
O O1 0.181807 0.197319 0.863439
O O2 0.048573 0.515732 0.831699
O O3 0.084060 0.471391 0.933160
O O4 0.946807 0.173598 0.887140
O O5 0.648640 0.919231 0.066972
O O6 0.570471 0.250000 0.250000
O O7 0.750000 0.000000 0.281358
O O8 0.570684 0.750000 0.250000
O O9 0.750000 0.000000 0.921623
O O10 0.560447 0.170979 0.957973
O O11 0.613083 0.716497 0.980690
#
# Coordination Sequence:
#
# PCOD8215648 Si02
#       5
#     8   4   8   8   8
#     4  11  23  37  63  91 127 171 211 264 330 393
#     4  10  20  34  60  86 128 162 208 258 316 386
#     4  10  23  39  64  97 132 164 207 272 339 403
#     4  10  22  39  58  90 128 169 220 262 311 384
#     4  10  20  37  58  88 125 170 210 260 316 377
#
# _framework density 21.329297
#
# number of rings (size 3 to 8) (size 9 to 14) (size 15 to 20)
#    0.000    1.778    1.111    2.667   10.889    0.889 
#    4.000    0.000    0.000    0.000    5.778    0.000 
#    0.000    0.000    0.000    0.000    0.000    0.000 
#
# Total GULP energy -446032.229185 kJ/mol
# GULP energy per Si atom -12389.784144 kJ/mol
# Density = 2.128075 g / cm^3
# Si number density = 21.329297 Si / 1000 Ang^3
#
#
#
# Elastic Constant Matrix: (Units=GPa)
#
#
# Indices 1 2 3 4 5 6 
#
# 1 117.1407 40.5243 35.9454 0.0000 0.0000 0.0000
# 2 40.5243 117.9564 47.5894 0.0000 0.0000 0.0000
# 3 35.9454 47.5894 104.1636 0.0000 0.0000 0.0000
# 4 0.0000 0.0000 0.0000 52.8267 0.0000 0.0000
# 5 0.0000 0.0000 0.0000 0.0000 36.4044 0.0000
# 6 0.0000 0.0000 0.0000 0.0000 0.0000 12.9055
#
#
#
# Elastic Compliance Matrix: (Units=1/GPa)
#
#
# Indices 1 2 3 4 5 6 
#
# 1 0.010132 -0.002538 -0.002337 0.000000 0.000000 0.000000
# 2 -0.002538 0.011029 -0.004163 0.000000 0.000000 0.000000
# 3 -0.002337 -0.004163 0.012309 0.000000 0.000000 0.000000
# 4 0.000000 0.000000 0.000000 0.018930 0.000000 0.000000
# 5 0.000000 0.000000 0.000000 0.000000 0.027469 0.000000
# 6 0.000000 0.000000 0.000000 0.000000 0.000000 0.077486
#
#
# Mechanical properties :
#
#
# Convention : Reuss Voigt Hill
#
# Bulk Modulus (GPa) = 64.96092 65.26435 65.11263
# Shear Modulus (GPa) = 27.69125 34.77409 31.23267
#
# Velocity S-wave (km/s) = 3.60706 4.04213 3.83078
# Velocity P-wave (km/s) = 6.91883 7.24224 7.08238
#
# Compressibility (1/GPa) = 0.01539387
#
# Stress axis : x y z
#
# Youngs Moduli (GPa) = 98.69889 90.66781 81.24344
#
# Poissons Ratio (x) = 0.23012 0.18985
# Poissons Ratio (y) = 0.25050 0.33823
# Poissons Ratio (z) = 0.23064 0.37746
#
# Static dielectric constant tensor:
#      x y z
#    x 4.217980 0.000000 0.000000 
#    y 0.000000 4.228600 0.000000 
#    z 0.000000 0.000000 3.817730 
# 
# 
# High freq. dielectric constant tensor:
#      x y z
#    x 1.805060 0.000000 0.000000 
#    y 0.000000 1.845960 0.000000 
#    z 0.000000 0.000000 1.821280 
# 
# From -- ./inp_files/39912.got.cif
#   From: 2010.06.25/outbox.cif.g09.slc.cpg/sg52_20_cif.got.tgz:39912.got - 2010.06.26 19:32:48.
