data_PCOD8215153
_publ_section_title
;
Structure prediction by ZEFSAII (Michael W. Deem and Ramdas Pophale) SiO2 
 PCOD8215153
Probable space group: P N N A
;
_chemical_formula_sum "Si O2"
_cell_formula_units_Z 40
_cell_length_a 9.680211
_cell_length_b 16.866832
_cell_length_c 12.640765
_cell_angle_alpha 90.000000
_cell_angle_beta 90.000000
_cell_angle_gamma 90.000000
_cell_volume 2063.914492
_symmetry_space_group_name_H-M "P N N A"
_symmetry_group_IT_number 52
_symmetry_cell_setting 'orthorhombic'
loop_
_space_group_symop_operation_xyz
x,y,z
1/2-x,-y,z
x,1/2-y,1/2-z
1/2-x,1/2+y,1/2-z
-x,-y,-z
1/2+x,y,-z
-x,1/2+y,1/2+z
1/2+x,1/2-y,1/2+z
loop_
_atom_site_type_symbol
_atom_site_label
_atom_site_fract_x
_atom_site_fract_y
_atom_site_fract_z
Si Si1 0.092845 0.020156 0.399082
Si Si2 0.822170 0.112116 0.152280
Si Si3 0.584621 0.161658 0.753900
Si Si4 0.044866 0.447418 0.701581
Si Si5 0.212070 0.588964 0.422940
O O1 0.084849 0.111738 0.356854
O O2 0.250000 0.000000 0.427818
O O3 0.000000 0.000000 0.500000
O O4 0.037121 0.961089 0.309664
O O5 0.680459 0.107172 0.220261
O O6 0.926343 0.173582 0.206894
O O7 0.904773 0.029033 0.149732
O O8 0.784791 0.138408 0.032346
O O9 0.648159 0.250000 0.750000
O O10 0.674248 0.115630 0.839613
O O11 0.941698 0.402377 0.623014
O O12 0.250000 0.500000 0.453225
#
# Coordination Sequence:
#
# PCOD8215153 Si02
#       5
#     8   8   8   8   8
#     4  11  23  41  66  87 115 166 220 257 293 373
#     4  10  20  31  61  92 117 149 188 249 308 369
#     4  11  24  43  57  87 133 162 196 263 321 360
#     4  10  18  33  58  92 116 143 198 256 291 349
#     4  12  17  36  64  93 118 148 202 246 310 368
#
# _framework density 19.380648999999998
#
# number of rings (size 3 to 8) (size 9 to 14) (size 15 to 20)
#    0.000    1.200    8.000    1.800    5.600    0.000 
#    3.600    1.000    0.000    0.000    0.000    0.000 
#    0.000    0.000    0.000    0.000    0.000    0.000 
#
# Total GULP energy -495767.623485 kJ/mol
# GULP energy per Si atom -12394.190587 kJ/mol
# Density = 1.933654 g / cm^3
# Si number density = 19.380649 Si / 1000 Ang^3
#
#
#
# Elastic Constant Matrix: (Units=GPa)
#
#
# Indices 1 2 3 4 5 6 
#
# 1 147.7890 13.9451 41.6001 0.0000 0.0000 0.0000
# 2 13.9451 55.7439 27.2735 0.0000 0.0000 0.0000
# 3 41.6001 27.2735 107.4196 0.0000 0.0000 0.0000
# 4 0.0000 0.0000 0.0000 9.5266 0.0000 0.0000
# 5 0.0000 0.0000 0.0000 0.0000 37.2226 0.0000
# 6 0.0000 0.0000 0.0000 0.0000 0.0000 9.6077
#
#
#
# Elastic Compliance Matrix: (Units=1/GPa)
#
#
# Indices 1 2 3 4 5 6 
#
# 1 0.007608 -0.000527 -0.002812 0.000000 0.000000 0.000000
# 2 -0.000527 0.020520 -0.005006 0.000000 0.000000 0.000000
# 3 -0.002812 -0.005006 0.011669 0.000000 0.000000 0.000000
# 4 0.000000 0.000000 0.000000 0.104969 0.000000 0.000000
# 5 0.000000 0.000000 0.000000 0.000000 0.026865 0.000000
# 6 0.000000 0.000000 0.000000 0.000000 0.000000 0.104083
#
#
# Mechanical properties :
#
#
# Convention : Reuss Voigt Hill
#
# Bulk Modulus (GPa) = 43.27777 52.95443 48.11610
# Shear Modulus (GPa) = 16.66068 26.48030 21.57049
#
# Velocity S-wave (km/s) = 2.93517 3.70040 3.33977
# Velocity P-wave (km/s) = 5.81944 6.75573 6.30499
#
# Compressibility (1/GPa) = 0.02310655
#
# Stress axis : x y z
#
# Youngs Moduli (GPa) = 131.44421 48.73237 85.69409
#
# Poissons Ratio (x) = 0.02569 0.24101
# Poissons Ratio (y) = 0.06929 0.42897
# Poissons Ratio (z) = 0.36967 0.24395
#
# Static dielectric constant tensor:
#      x y z
#    x 4.066670 0.000000 0.000000 
#    y 0.000000 3.772040 0.000000 
#    z 0.000000 0.000000 3.582490 
# 
# 
# High freq. dielectric constant tensor:
#      x y z
#    x 1.784070 0.000000 0.000000 
#    y 0.000000 1.695370 0.000000 
#    z 0.000000 0.000000 1.750220 
# 
# From -- ./inp_files/16674.got.cif
#   From: 2010.06.25/outbox.cif.g09.slc.cpg/sg52_9_cif.got.tgz:16674.got - 2010.06.26 19:32:48.
