data_PCOD8215084
_publ_section_title
;
Structure prediction by ZEFSAII (Michael W. Deem and Ramdas Pophale) SiO2 
 PCOD8215084
Probable space group: P N N A
;
_chemical_formula_sum "Si O2"
_cell_formula_units_Z 56
_cell_length_a 8.249095
_cell_length_b 16.651633
_cell_length_c 20.902570
_cell_angle_alpha 90.000000
_cell_angle_beta 90.000000
_cell_angle_gamma 90.000000
_cell_volume 2871.195880
_symmetry_space_group_name_H-M "P N N A"
_symmetry_group_IT_number 52
_symmetry_cell_setting 'orthorhombic'
loop_
_space_group_symop_operation_xyz
x,y,z
1/2-x,-y,z
x,1/2-y,1/2-z
1/2-x,1/2+y,1/2-z
-x,-y,-z
1/2+x,y,-z
-x,1/2+y,1/2+z
1/2+x,1/2-y,1/2+z
loop_
_atom_site_type_symbol
_atom_site_label
_atom_site_fract_x
_atom_site_fract_y
_atom_site_fract_z
Si Si1 0.282773 0.335084 0.716561
Si Si2 0.986827 0.632819 0.822655
Si Si3 0.750000 0.500000 0.803591
Si Si4 0.430627 0.393974 0.296407
Si Si5 0.342426 0.421482 0.436526
Si Si6 0.649659 0.750811 0.091825
Si Si7 0.238187 0.250000 0.250000
Si Si8 0.402642 0.817887 0.996917
O O1 0.240941 0.250000 0.750000
O O2 0.406231 0.388101 0.759541
O O3 0.365793 0.317600 0.647901
O O4 0.123749 0.388102 0.706956
O O5 0.109496 0.662044 0.879138
O O6 0.872749 0.557494 0.844342
O O7 0.872047 0.706375 0.802641
O O8 0.631029 0.553544 0.761976
O O9 0.374496 0.434829 0.361890
O O10 0.351981 0.306600 0.292074
O O11 0.250000 0.500000 0.463654
O O12 0.232505 0.344397 0.452245
O O13 0.513567 0.399907 0.470337
O O14 0.828839 0.762688 0.060811
O O15 0.524317 0.762085 0.035020
#
# Coordination Sequence:
#
# PCOD8215084 Si02
#       8
#     8   8   4   8   8   8   4   8
#     4  10  19  34  58  82 112 150 190 244 290 339
#     4  10  20  38  58  82 115 149 191 240 306 348
#     4  10  24  36  54  88 114 154 184 236 310 370
#     4  11  20  33  52  81 116 147 189 230 292 352
#     4  11  21  34  48  73 116 157 191 239 279 344
#     4  10  19  37  57  82 109 146 197 253 282 341
#     4  10  18  30  54  80 106 146 186 232 276 348
#     4  10  22  34  54  79 108 154 210 237 285 329
#
# _framework density 19.504069000000001
#
# number of rings (size 3 to 8) (size 9 to 14) (size 15 to 20)
#    0.000    1.714    5.000    1.286    2.000    0.571 
#    0.000    0.000    0.000    0.857    0.000    0.000 
#    0.000    0.000    0.000    0.000    0.000    0.000 
#
# Total GULP energy -693963.792992 kJ/mol
# GULP energy per Si atom -12392.210589 kJ/mol
# Density = 1.945968 g / cm^3
# Si number density = 19.504069 Si / 1000 Ang^3
#
#
#
# Elastic Constant Matrix: (Units=GPa)
#
#
# Indices 1 2 3 4 5 6 
#
# 1 115.7177 45.2875 40.4479 0.0000 0.0000 0.0000
# 2 45.2875 74.9548 25.5885 0.0000 0.0000 0.0000
# 3 40.4479 25.5885 85.6754 0.0000 0.0000 0.0000
# 4 0.0000 0.0000 0.0000 11.5931 0.0000 0.0000
# 5 0.0000 0.0000 0.0000 0.0000 28.7839 0.0000
# 6 0.0000 0.0000 0.0000 0.0000 0.0000 41.9476
#
#
#
# Elastic Compliance Matrix: (Units=1/GPa)
#
#
# Indices 1 2 3 4 5 6 
#
# 1 0.012463 -0.006148 -0.004047 0.000000 0.000000 0.000000
# 2 -0.006148 0.017889 -0.002440 0.000000 0.000000 0.000000
# 3 -0.004047 -0.002440 0.014312 0.000000 0.000000 0.000000
# 4 0.000000 0.000000 0.000000 0.086258 0.000000 0.000000
# 5 0.000000 0.000000 0.000000 0.000000 0.034742 0.000000
# 6 0.000000 0.000000 0.000000 0.000000 0.000000 0.023839
#
#
# Mechanical properties :
#
#
# Convention : Reuss Voigt Hill
#
# Bulk Modulus (GPa) = 51.56877 55.44396 53.50636
# Shear Modulus (GPa) = 22.60005 27.46651 25.03328
#
# Velocity S-wave (km/s) = 3.40771 3.75673 3.58647
# Velocity P-wave (km/s) = 6.47925 6.87793 6.68157
#
# Compressibility (1/GPa) = 0.01939158
#
# Stress axis : x y z
#
# Youngs Moduli (GPa) = 80.24007 55.89976 69.87320
#
# Poissons Ratio (x) = 0.34368 0.28281
# Poissons Ratio (y) = 0.49333 0.17052
# Poissons Ratio (z) = 0.32477 0.13642
#
# Static dielectric constant tensor:
#      x y z
#    x 3.852650 0.000000 0.000000 
#    y 0.000000 3.397380 0.000000 
#    z 0.000000 0.000000 3.452200 
# 
# 
# High freq. dielectric constant tensor:
#      x y z
#    x 1.778300 0.000000 0.000000 
#    y 0.000000 1.725410 0.000000 
#    z 0.000000 0.000000 1.738750 
# 
# From -- ./inp_files/36159.got.cif
#   From: 2010.06.25/outbox.cif.g09.slc.cpg/sg52_19_cif.got.tgz:36159.got - 2010.06.26 19:32:48.
