data_PCOD8215245
_publ_section_title
;
Structure prediction by ZEFSAII (Michael W. Deem and Ramdas Pophale) SiO2 
 PCOD8215245
Probable space group: P N N A
;
_chemical_formula_sum "Si O2"
_cell_formula_units_Z 28
_cell_length_a 12.644970
_cell_length_b 9.228896
_cell_length_c 10.882086
_cell_angle_alpha 90.000000
_cell_angle_beta 90.000000
_cell_angle_gamma 90.000000
_cell_volume 1269.929784
_symmetry_space_group_name_H-M "P N N A"
_symmetry_group_IT_number 52
_symmetry_cell_setting 'orthorhombic'
loop_
_space_group_symop_operation_xyz
x,y,z
1/2-x,-y,z
x,1/2-y,1/2-z
1/2-x,1/2+y,1/2-z
-x,-y,-z
1/2+x,y,-z
-x,1/2+y,1/2+z
1/2+x,1/2-y,1/2+z
loop_
_atom_site_type_symbol
_atom_site_label
_atom_site_fract_x
_atom_site_fract_y
_atom_site_fract_z
Si Si1 0.962642 0.513425 0.277804
Si Si2 0.664653 0.117863 0.678823
Si Si3 0.194247 0.750000 0.750000
Si Si4 0.612160 0.225963 0.418774
O O1 0.875593 0.388837 0.278172
O O2 0.942224 0.616219 0.396646
O O3 0.954548 0.607121 0.154233
O O4 0.079861 0.446825 0.275329
O O5 0.722298 0.250000 0.750000
O O6 0.605761 0.183054 0.560422
O O7 0.750000 0.000000 0.638287
O O8 0.267325 0.775212 0.630441
#
# Coordination Sequence:
#
# PCOD8215245 Si02
#       4
#     8   8   4   8
#     4  10  21  42  68  96 126 169 231 269 324 395
#     4  12  27  44  62  97 138 177 217 276 341 397
#     4  10  18  40  68 100 124 164 232 276 318 390
#     4  10  22  40  70  93 129 175 214 278 330 398
#
# _framework density 22.048463000000002
#
# number of rings (size 3 to 8) (size 9 to 14) (size 15 to 20)
#    0.000    1.714    1.429    6.000    4.000    3.429 
#    0.000    0.000    0.000    0.000    0.000    0.000 
#    0.000    0.000    0.000    0.000    0.000    0.000 
#
# Total GULP energy -347203.331012 kJ/mol
# GULP energy per Si atom -12400.118965 kJ/mol
# Density = 2.199828 g / cm^3
# Si number density = 22.048463 Si / 1000 Ang^3
#
#
#
# Elastic Constant Matrix: (Units=GPa)
#
#
# Indices 1 2 3 4 5 6 
#
# 1 87.2966 36.4040 14.4560 0.0000 0.0000 0.0000
# 2 36.4040 149.9531 46.3007 0.0000 0.0000 0.0000
# 3 14.4560 46.3007 71.1399 0.0000 0.0000 0.0000
# 4 0.0000 0.0000 0.0000 31.9642 0.0000 0.0000
# 5 0.0000 0.0000 0.0000 0.0000 5.9163 0.0000
# 6 0.0000 0.0000 0.0000 0.0000 0.0000 32.1281
#
#
#
# Elastic Compliance Matrix: (Units=1/GPa)
#
#
# Indices 1 2 3 4 5 6 
#
# 1 0.012775 -0.002878 -0.000723 0.000000 0.000000 0.000000
# 2 -0.002878 0.008994 -0.005269 0.000000 0.000000 0.000000
# 3 -0.000723 -0.005269 0.017633 0.000000 0.000000 0.000000
# 4 0.000000 0.000000 0.000000 0.031285 0.000000 0.000000
# 5 0.000000 0.000000 0.000000 0.000000 0.169024 0.000000
# 6 0.000000 0.000000 0.000000 0.000000 0.000000 0.031125
#
#
# Mechanical properties :
#
#
# Convention : Reuss Voigt Hill
#
# Bulk Modulus (GPa) = 46.16262 55.85676 51.00969
# Shear Modulus (GPa) = 16.90344 28.08365 22.49354
#
# Velocity S-wave (km/s) = 2.77185 3.57280 3.19750
# Velocity P-wave (km/s) = 5.58807 6.51218 6.06774
#
# Compressibility (1/GPa) = 0.02166255
#
# Stress axis : x y z
#
# Youngs Moduli (GPa) = 78.27690 111.17994 56.71190
#
# Poissons Ratio (x) = 0.32001 0.04098
# Poissons Ratio (y) = 0.22530 0.29882
# Poissons Ratio (z) = 0.05657 0.58581
#
# Static dielectric constant tensor:
#      x y z
#    x 3.760010 0.000000 0.000000 
#    y 0.000000 4.476780 0.000000 
#    z 0.000000 0.000000 3.671670 
# 
# 
# High freq. dielectric constant tensor:
#      x y z
#    x 1.854740 0.000000 0.000000 
#    y 0.000000 1.897260 0.000000 
#    z 0.000000 0.000000 1.848450 
# 
# From -- ./inp_files/18736.got.cif
#   From: 2010.06.25/outbox.cif.g09.slc.cpg/sg52_10_cif.got.tgz:18736.got - 2010.06.26 19:32:48.
