data_PCOD8215272
_publ_section_title
;
Structure prediction by ZEFSAII (Michael W. Deem and Ramdas Pophale) SiO2 
 PCOD8215272
Probable space group: P N N A
;
_chemical_formula_sum "Si O2"
_cell_formula_units_Z 64
_cell_length_a 22.349859
_cell_length_b 9.620336
_cell_length_c 18.142685
_cell_angle_alpha 90.000000
_cell_angle_beta 90.000000
_cell_angle_gamma 90.000000
_cell_volume 3900.915908
_symmetry_space_group_name_H-M "P N N A"
_symmetry_group_IT_number 52
_symmetry_cell_setting 'orthorhombic'
loop_
_space_group_symop_operation_xyz
x,y,z
1/2-x,-y,z
x,1/2-y,1/2-z
1/2-x,1/2+y,1/2-z
-x,-y,-z
1/2+x,y,-z
-x,1/2+y,1/2+z
1/2+x,1/2-y,1/2+z
loop_
_atom_site_type_symbol
_atom_site_label
_atom_site_fract_x
_atom_site_fract_y
_atom_site_fract_z
Si Si1 0.886286 0.278580 0.386928
Si Si2 0.683533 0.030377 0.164530
Si Si3 0.113580 0.227179 0.608368
Si Si4 0.565789 0.653635 0.531577
Si Si5 0.009331 0.831430 0.177439
Si Si6 0.317811 0.021634 0.663094
Si Si7 0.066472 0.348949 0.468767
Si Si8 0.511490 0.165981 0.821035
O O1 0.863270 0.435162 0.378633
O O2 0.896821 0.249101 0.474922
O O3 0.836124 0.179824 0.352482
O O4 0.947954 0.266596 0.342376
O O5 0.669017 0.187555 0.142044
O O6 0.750000 0.000000 0.137254
O O7 0.677117 0.010789 0.251357
O O8 0.105894 0.247759 0.520189
O O9 0.054635 0.270834 0.653149
O O10 0.132499 0.068005 0.619652
O O11 0.559689 0.707733 0.615677
O O12 0.499215 0.638497 0.501658
O O13 0.596326 0.501540 0.530917
O O14 0.030175 0.750000 0.250000
O O15 0.005865 0.998493 0.190109
O O16 0.250000 0.000000 0.634565
O O17 0.060322 0.297556 0.384334
O O18 0.534500 0.250000 0.750000
#
# Coordination Sequence:
#
# PCOD8215272 Si02
#       8
#     8   8   8   8   8   8   8   8
#     4  11  19  33  49  66  93 133 161 193 235 274
#     4  11  20  32  49  66  89 125 170 201 228 272
#     4  11  19  33  49  66  93 133 161 193 235 274
#     4   8  15  31  49  68  92 124 158 189 227 281
#     4  10  19  31  50  74  99 124 156 192 232 284
#     4  11  24  34  43  68 101 125 160 207 240 264
#     4   8  15  31  49  68  92 124 158 189 227 281
#     4  10  19  31  50  74  99 124 156 192 232 284
#
# _framework density 16.406403000000001
#
# number of rings (size 3 to 8) (size 9 to 14) (size 15 to 20)
#    0.000    2.000    2.500    4.500    1.750    2.000 
#    2.250    1.875    0.000    0.000    0.000    0.000 
#    0.000    6.000    0.000    0.000    0.000    0.000 
#
# Total GULP energy -793172.278256 kJ/mol
# GULP energy per Si atom -12393.316848 kJ/mol
# Density = 1.636906 g / cm^3
# Si number density = 16.406403 Si / 1000 Ang^3
#
#
#
# Elastic Constant Matrix: (Units=GPa)
#
#
# Indices 1 2 3 4 5 6 
#
# 1 38.3123 8.2869 27.8880 0.0000 0.0000 0.0000
# 2 8.2869 47.3817 27.3471 0.0000 0.0000 0.0000
# 3 27.8880 27.3471 122.1576 0.0000 0.0000 0.0000
# 4 0.0000 0.0000 0.0000 21.9923 0.0000 0.0000
# 5 0.0000 0.0000 0.0000 0.0000 17.9249 0.0000
# 6 0.0000 0.0000 0.0000 0.0000 0.0000 9.4834
#
#
#
# Elastic Compliance Matrix: (Units=1/GPa)
#
#
# Indices 1 2 3 4 5 6 
#
# 1 0.031403 -0.001555 -0.006821 0.000000 0.000000 0.000000
# 2 -0.001555 0.024314 -0.005088 0.000000 0.000000 0.000000
# 3 -0.006821 -0.005088 0.010882 0.000000 0.000000 0.000000
# 4 0.000000 0.000000 0.000000 0.045471 0.000000 0.000000
# 5 0.000000 0.000000 0.000000 0.000000 0.055788 0.000000
# 6 0.000000 0.000000 0.000000 0.000000 0.000000 0.105447
#
#
# Mechanical properties :
#
#
# Convention : Reuss Voigt Hill
#
# Bulk Modulus (GPa) = 25.20781 37.21063 31.20922
# Shear Modulus (GPa) = 15.95115 19.50209 17.72662
#
# Velocity S-wave (km/s) = 3.12148 3.45148 3.29062
# Velocity P-wave (km/s) = 5.32818 6.21397 5.78804
#
# Compressibility (1/GPa) = 0.03967025
#
# Stress axis : x y z
#
# Youngs Moduli (GPa) = 31.84440 41.12885 91.89194
#
# Poissons Ratio (x) = 0.06398 0.62678
# Poissons Ratio (y) = 0.04953 0.46754
# Poissons Ratio (z) = 0.21721 0.20926
#
# Static dielectric constant tensor:
#      x y z
#    x 2.836150 0.000000 0.000000 
#    y 0.000000 2.976840 0.000000 
#    z 0.000000 0.000000 3.365570 
# 
# 
# High freq. dielectric constant tensor:
#      x y z
#    x 1.590720 0.000000 0.000000 
#    y 0.000000 1.626380 0.000000 
#    z 0.000000 0.000000 1.631350 
# 
# From -- ./inp_files/34121.got.cif
#   From: 2010.06.25/outbox.cif.g09.slc.cpg/sg52_18_cif.got.tgz:34121.got - 2010.06.26 19:32:48.
