data_PCOD8215301
_publ_section_title
;
Structure prediction by ZEFSAII (Michael W. Deem and Ramdas Pophale) SiO2 
 PCOD8215301
Probable space group: P N N A
;
_chemical_formula_sum "Si O2"
_cell_formula_units_Z 48
_cell_length_a 9.077095
_cell_length_b 17.283401
_cell_length_c 16.454630
_cell_angle_alpha 90.000000
_cell_angle_beta 90.000000
_cell_angle_gamma 90.000000
_cell_volume 2581.452916
_symmetry_space_group_name_H-M "P N N A"
_symmetry_group_IT_number 52
_symmetry_cell_setting 'orthorhombic'
loop_
_space_group_symop_operation_xyz
x,y,z
1/2-x,-y,z
x,1/2-y,1/2-z
1/2-x,1/2+y,1/2-z
-x,-y,-z
1/2+x,y,-z
-x,1/2+y,1/2+z
1/2+x,1/2-y,1/2+z
loop_
_atom_site_type_symbol
_atom_site_label
_atom_site_fract_x
_atom_site_fract_y
_atom_site_fract_z
Si Si1 0.408533 0.985508 0.122978
Si Si2 0.630142 0.446133 0.967595
Si Si3 0.838858 0.425004 0.278987
Si Si4 0.778933 0.196218 0.090280
Si Si5 0.481452 0.879955 0.979694
Si Si6 0.645228 0.626947 0.098781
O O1 0.494120 0.941379 0.194432
O O2 0.250000 0.000000 0.161557
O O3 0.479888 0.067234 0.097853
O O4 0.390266 0.932096 0.043226
O O5 0.750000 0.500000 0.917493
O O6 0.532036 0.383148 0.919255
O O7 0.500000 0.500000 0.000000
O O8 0.734139 0.407475 0.036392
O O9 0.750000 0.500000 0.308253
O O10 0.781912 0.348561 0.324272
O O11 0.822339 0.414329 0.183405
O O12 0.614560 0.191938 0.053719
O O13 0.830129 0.282449 0.106156
O O14 0.876905 0.154252 0.022986
#
# Coordination Sequence:
#
# PCOD8215301 Si02
#       6
#     8   8   8   8   8   8
#     4  10  19  33  55  86 117 150 197 240 278 345
#     4   9  19  38  62  82 103 145 199 247 284 338
#     4  11  22  36  56  84 117 156 199 237 291 359
#     4  11  21  35  56  86 122 158 184 246 299 348
#     4  10  19  32  56  84 118 150 197 232 284 350
#     4  11  22  38  59  88 116 148 201 249 303 351
#
# _framework density 18.594180000000001
#
# number of rings (size 3 to 8) (size 9 to 14) (size 15 to 20)
#    0.000    1.667    3.333    3.000    0.000    0.667 
#    0.000    0.000    0.000    0.000    4.333    0.000 
#    0.000    0.000    0.000    0.000    0.000    0.000 
#
# Total GULP energy -594732.095931 kJ/mol
# GULP energy per Si atom -12390.251999 kJ/mol
# Density = 1.855186 g / cm^3
# Si number density = 18.594180 Si / 1000 Ang^3
#
#
#
# Elastic Constant Matrix: (Units=GPa)
#
#
# Indices 1 2 3 4 5 6 
#
# 1 102.4896 36.1872 31.4773 0.0000 0.0000 0.0000
# 2 36.1872 113.5594 26.5688 0.0000 0.0000 0.0000
# 3 31.4773 26.5688 72.5441 0.0000 0.0000 0.0000
# 4 0.0000 0.0000 0.0000 20.7382 0.0000 0.0000
# 5 0.0000 0.0000 0.0000 0.0000 15.2805 0.0000
# 6 0.0000 0.0000 0.0000 0.0000 0.0000 36.2862
#
#
#
# Elastic Compliance Matrix: (Units=1/GPa)
#
#
# Indices 1 2 3 4 5 6 
#
# 1 0.012052 -0.002862 -0.004181 0.000000 0.000000 0.000000
# 2 -0.002862 0.010311 -0.002534 0.000000 0.000000 0.000000
# 3 -0.004181 -0.002534 0.016527 0.000000 0.000000 0.000000
# 4 0.000000 0.000000 0.000000 0.048220 0.000000 0.000000
# 5 0.000000 0.000000 0.000000 0.000000 0.065443 0.000000
# 6 0.000000 0.000000 0.000000 0.000000 0.000000 0.027559
#
#
# Mechanical properties :
#
#
# Convention : Reuss Voigt Hill
#
# Bulk Modulus (GPa) = 50.67263 53.00662 51.83962
# Shear Modulus (GPa) = 24.29010 27.41830 25.85420
#
# Velocity S-wave (km/s) = 3.61824 3.84417 3.73291
# Velocity P-wave (km/s) = 6.69078 6.94784 6.82052
#
# Compressibility (1/GPa) = 0.01973452
#
# Stress axis : x y z
#
# Youngs Moduli (GPa) = 82.97509 96.98365 60.50661
#
# Poissons Ratio (x) = 0.27759 0.25298
# Poissons Ratio (y) = 0.23750 0.15335
# Poissons Ratio (z) = 0.34692 0.24580
#
# Static dielectric constant tensor:
#      x y z
#    x 3.772720 0.000000 0.000000 
#    y 0.000000 3.551010 0.000000 
#    z 0.000000 0.000000 3.184940 
# 
# 
# High freq. dielectric constant tensor:
#      x y z
#    x 1.734000 0.000000 0.000000 
#    y 0.000000 1.723380 0.000000 
#    z 0.000000 0.000000 1.695840 
# 
# From -- ./inp_files/24709.got.cif
#   From: 2010.06.25/outbox.cif.g09.slc.cpg/sg52_13_cif.got.tgz:24709.got - 2010.06.26 19:32:48.
