data_PCOD8215385
_publ_section_title
;
Structure prediction by ZEFSAII (Michael W. Deem and Ramdas Pophale) SiO2 
 PCOD8215385
Probable space group: P N N A
;
_chemical_formula_sum "Si O2"
_cell_formula_units_Z 32
_cell_length_a 11.073163
_cell_length_b 7.089991
_cell_length_c 16.782381
_cell_angle_alpha 90.000000
_cell_angle_beta 90.000000
_cell_angle_gamma 90.000000
_cell_volume 1317.561674
_symmetry_space_group_name_H-M "P N N A"
_symmetry_group_IT_number 52
_symmetry_cell_setting 'orthorhombic'
loop_
_space_group_symop_operation_xyz
x,y,z
1/2-x,-y,z
x,1/2-y,1/2-z
1/2-x,1/2+y,1/2-z
-x,-y,-z
1/2+x,y,-z
-x,1/2+y,1/2+z
1/2+x,1/2-y,1/2+z
loop_
_atom_site_type_symbol
_atom_site_label
_atom_site_fract_x
_atom_site_fract_y
_atom_site_fract_z
Si Si1 0.436208 0.317384 0.536964
Si Si2 0.887878 0.703928 0.663659
Si Si3 0.750000 0.500000 0.350745
Si Si4 0.429563 0.750000 0.750000
Si Si5 0.876910 0.242164 0.868268
O O1 0.500000 0.500000 0.500000
O O2 0.529793 0.204503 0.593657
O O3 0.318838 0.357543 0.590977
O O4 0.393835 0.197466 0.460490
O O5 0.944009 0.750000 0.750000
O O6 0.889011 0.481322 0.647335
O O7 0.756771 0.802725 0.658921
O O8 0.652831 0.402417 0.293626
O O9 0.520124 0.653667 0.815377
#
# Coordination Sequence:
#
# PCOD8215385 Si02
#       5
#     8   8   4   4   8
#     4  10  19  37  60  92 112 157 216 254 291 364
#     4  10  19  34  62  90 113 153 202 253 302 357
#     4  12  24  38  66  94 128 168 206 260 318 374
#     4  12  24  40  58  96 128 162 200 266 318 368
#     4  10  21  38  60  90 120 154 206 260 300 356
#
# _framework density 24.287286999999999
#
# number of rings (size 3 to 8) (size 9 to 14) (size 15 to 20)
#    0.000    1.500    6.250    3.000    1.750    0.000 
#    0.000    0.000    0.000    9.000    0.000    0.000 
#    0.000    0.000    0.000    0.000    0.000    0.000 
#
# Total GULP energy -396553.237577 kJ/mol
# GULP energy per Si atom -12392.288674 kJ/mol
# Density = 2.423201 g / cm^3
# Si number density = 24.287287 Si / 1000 Ang^3
#
#
#
# Elastic Constant Matrix: (Units=GPa)
#
#
# Indices 1 2 3 4 5 6 
#
# 1 182.1381 1.5071 104.2091 0.0000 0.0000 0.0000
# 2 1.5071 19.4001 19.7795 0.0000 0.0000 0.0000
# 3 104.2091 19.7795 257.5520 0.0000 0.0000 0.0000
# 4 0.0000 0.0000 0.0000 30.9380 0.0000 0.0000
# 5 0.0000 0.0000 0.0000 0.0000 61.5031 0.0000
# 6 0.0000 0.0000 0.0000 0.0000 0.0000 0.7019
#
#
#
# Elastic Compliance Matrix: (Units=1/GPa)
#
#
# Indices 1 2 3 4 5 6 
#
# 1 0.007267 0.002640 -0.003143 0.000000 0.000000 0.000000
# 2 0.002640 0.056884 -0.005437 0.000000 0.000000 0.000000
# 3 -0.003143 -0.005437 0.005572 0.000000 0.000000 0.000000
# 4 0.000000 0.000000 0.000000 0.032323 0.000000 0.000000
# 5 0.000000 0.000000 0.000000 0.000000 0.016259 0.000000
# 6 0.000000 0.000000 0.000000 0.000000 0.000000 1.424802
#
#
# Mechanical properties :
#
#
# Convention : Reuss Voigt Hill
#
# Bulk Modulus (GPa) = 17.28808 78.89797 48.09302
# Shear Modulus (GPa) = 3.17608 40.86821 22.02214
#
# Velocity S-wave (km/s) = 1.14479 4.10652 3.01447
# Velocity P-wave (km/s) = 2.98010 7.41893 5.65339
#
# Compressibility (1/GPa) = 0.05784331
#
# Stress axis : x y z
#
# Youngs Moduli (GPa) = 137.61376 17.57955 179.47107
#
# Poissons Ratio (x) = -0.04641 0.56407
# Poissons Ratio (y) = -0.36329 0.97574
# Poissons Ratio (z) = 0.43251 0.09558
#
# Static dielectric constant tensor:
#      x y z
#    x 5.088030 0.000000 0.000000 
#    y 0.000000 3.610290 0.000000 
#    z 0.000000 0.000000 5.230170 
# 
# 
# High freq. dielectric constant tensor:
#      x y z
#    x 1.980640 0.000000 0.000000 
#    y 0.000000 1.900910 0.000000 
#    z 0.000000 0.000000 1.999130 
# 
# From -- ./inp_files/31885.got.cif
#   From: 2010.06.25/outbox.cif.g09.slc.cpg/sg52_16_cif.got.tgz:31885.got - 2010.06.26 19:32:48.
