data_PCOD8215106
_publ_section_title
;
Structure prediction by ZEFSAII (Michael W. Deem and Ramdas Pophale) SiO2 
 PCOD8215106
Probable space group: P N N A
;
_chemical_formula_sum "Si O2"
_cell_formula_units_Z 64
_cell_length_a 22.586647
_cell_length_b 12.220995
_cell_length_c 13.053718
_cell_angle_alpha 90.000000
_cell_angle_beta 90.000000
_cell_angle_gamma 90.000000
_cell_volume 3603.234750
_symmetry_space_group_name_H-M "P N N A"
_symmetry_group_IT_number 52
_symmetry_cell_setting 'orthorhombic'
loop_
_space_group_symop_operation_xyz
x,y,z
1/2-x,-y,z
x,1/2-y,1/2-z
1/2-x,1/2+y,1/2-z
-x,-y,-z
1/2+x,y,-z
-x,1/2+y,1/2+z
1/2+x,1/2-y,1/2+z
loop_
_atom_site_type_symbol
_atom_site_label
_atom_site_fract_x
_atom_site_fract_y
_atom_site_fract_z
Si Si1 0.481638 0.591659 0.418064
Si Si2 0.534409 0.966534 0.281098
Si Si3 0.692510 0.173269 0.343655
Si Si4 0.842631 0.503116 0.309434
Si Si5 0.317369 0.272673 0.638037
Si Si6 0.893658 0.811809 0.057516
Si Si7 0.997696 0.301857 0.849419
Si Si8 0.436458 0.290910 0.946518
O O1 0.500000 0.500000 0.500000
O O2 0.480002 0.548190 0.300397
O O3 0.417611 0.647500 0.446078
O O4 0.534161 0.677816 0.417806
O O5 0.533691 0.880735 0.373393
O O6 0.594766 0.950846 0.219013
O O7 0.531885 0.086259 0.328955
O O8 0.671809 0.250000 0.250000
O O9 0.687691 0.050494 0.296029
O O10 0.758165 0.202689 0.381571
O O11 0.646818 0.200362 0.438186
O O12 0.804183 0.404583 0.362049
O O13 0.852144 0.594398 0.395578
O O14 0.343460 0.250000 0.750000
O O15 0.365718 0.226402 0.559304
O O16 0.953930 0.790065 0.120161
O O17 0.965463 0.250000 0.750000
O O18 0.949111 0.323401 0.936256
#
# Coordination Sequence:
#
# PCOD8215106 Si02
#       8
#     8   8   8   8   8   8   8   8
#     4  11  19  31  52  74 103 143 173 212 264 317
#     4  12  19  33  51  74 112 139 170 218 271 324
#     4   9  20  31  48  70 102 143 177 214 257 315
#     4  11  18  32  51  71 107 141 174 214 261 316
#     4  11  20  33  48  72 109 138 173 216 268 315
#     4  10  18  32  49  75 100 136 180 211 252 316
#     4  11  20  34  54  75 104 139 178 217 266 328
#     4  11  22  33  49  79 108 135 172 225 273 318
#
# _framework density 17.761818000000002
#
# number of rings (size 3 to 8) (size 9 to 14) (size 15 to 20)
#    0.000    1.250    6.250    1.875    0.000    4.500 
#    0.000    0.000    0.000    0.000    0.000    3.500 
#    0.000    0.000    0.000    0.000    0.000    0.000 
#
# Total GULP energy -792973.738040 kJ/mol
# GULP energy per Si atom -12390.214657 kJ/mol
# Density = 1.772139 g / cm^3
# Si number density = 17.761818 Si / 1000 Ang^3
#
#
#
# Elastic Constant Matrix: (Units=GPa)
#
#
# Indices 1 2 3 4 5 6 
#
# 1 86.1090 21.3691 29.4588 0.0000 0.0000 0.0000
# 2 21.3691 79.0863 30.6316 0.0000 0.0000 0.0000
# 3 29.4588 30.6316 73.5230 0.0000 0.0000 0.0000
# 4 0.0000 0.0000 0.0000 22.7459 0.0000 0.0000
# 5 0.0000 0.0000 0.0000 0.0000 21.7435 0.0000
# 6 0.0000 0.0000 0.0000 0.0000 0.0000 20.7118
#
#
#
# Elastic Compliance Matrix: (Units=1/GPa)
#
#
# Indices 1 2 3 4 5 6 
#
# 1 0.013688 -0.001877 -0.004702 0.000000 0.000000 0.000000
# 2 -0.001877 0.015335 -0.005637 0.000000 0.000000 0.000000
# 3 -0.004702 -0.005637 0.017834 0.000000 0.000000 0.000000
# 4 0.000000 0.000000 0.000000 0.043964 0.000000 0.000000
# 5 0.000000 0.000000 0.000000 0.000000 0.045991 0.000000
# 6 0.000000 0.000000 0.000000 0.000000 0.000000 0.048282
#
#
# Mechanical properties :
#
#
# Convention : Reuss Voigt Hill
#
# Bulk Modulus (GPa) = 44.59527 44.62637 44.61082
# Shear Modulus (GPa) = 23.04152 23.52417 23.28285
#
# Velocity S-wave (km/s) = 3.60564 3.64321 3.62448
# Velocity P-wave (km/s) = 6.51890 6.54803 6.53349
#
# Compressibility (1/GPa) = 0.02242390
#
# Stress axis : x y z
#
# Youngs Moduli (GPa) = 73.05824 65.21099 56.07369
#
# Poissons Ratio (x) = 0.12241 0.26367
# Poissons Ratio (y) = 0.13714 0.31607
# Poissons Ratio (z) = 0.34354 0.36758
#
# Static dielectric constant tensor:
#      x y z
#    x 3.144590 0.000000 0.000000 
#    y 0.000000 3.712200 0.000000 
#    z 0.000000 0.000000 3.448490 
# 
# 
# High freq. dielectric constant tensor:
#      x y z
#    x 1.663850 0.000000 0.000000 
#    y 0.000000 1.709580 0.000000 
#    z 0.000000 0.000000 1.642720 
# 
# From -- ./inp_files/22503.got.cif
#   From: 2010.06.25/outbox.cif.g09.slc.cpg/sg52_12_cif.got.tgz:22503.got - 2010.06.26 19:32:48.
