data_PCOD8215812
_publ_section_title
;
Structure prediction by ZEFSAII (Michael W. Deem and Ramdas Pophale) SiO2 
 PCOD8215812
Probable space group: P N N A
;
_chemical_formula_sum "Si O2"
_cell_formula_units_Z 48
_cell_length_a 18.553680
_cell_length_b 15.226342
_cell_length_c 8.821220
_cell_angle_alpha 90.000000
_cell_angle_beta 90.000000
_cell_angle_gamma 90.000000
_cell_volume 2492.035907
_symmetry_space_group_name_H-M "P N N A"
_symmetry_group_IT_number 52
_symmetry_cell_setting 'orthorhombic'
loop_
_space_group_symop_operation_xyz
x,y,z
1/2-x,-y,z
x,1/2-y,1/2-z
1/2-x,1/2+y,1/2-z
-x,-y,-z
1/2+x,y,-z
-x,1/2+y,1/2+z
1/2+x,1/2-y,1/2+z
loop_
_atom_site_type_symbol
_atom_site_label
_atom_site_fract_x
_atom_site_fract_y
_atom_site_fract_z
Si Si1 0.167887 0.009368 0.357554
Si Si2 0.167179 0.994548 0.701140
Si Si3 0.457152 0.573262 0.597655
Si Si4 0.427165 0.342425 0.184100
Si Si5 0.928908 0.161437 0.338410
Si Si6 0.074194 0.150379 0.201377
O O1 0.133796 0.916373 0.311651
O O2 0.250000 0.000000 0.312698
O O3 0.157823 0.036299 0.533865
O O4 0.137339 0.088413 0.258879
O O5 0.115123 0.038468 0.822997
O O6 0.250000 0.000000 0.756774
O O7 0.143958 0.893215 0.684189
O O8 0.500000 0.500000 0.500000
O O9 0.505134 0.620736 0.723410
O O10 0.429913 0.647244 0.480476
O O11 0.398127 0.250000 0.250000
O O12 0.449413 0.321949 0.012248
O O13 0.914739 0.250000 0.250000
O O14 0.998662 0.112430 0.268305
O O15 0.088291 0.250000 0.250000
#
# Coordination Sequence:
#
# PCOD8215812 Si02
#       6
#     8   8   8   8   8   8
#     4  10  22  41  60  86 127 169 205 252 312 367
#     4  10  22  40  61  85 119 163 201 248 314 367
#     4  12  22  39  62  93 123 156 207 252 301 368
#     4  11  22  37  63  92 121 162 206 259 303 365
#     4  10  20  37  62  88 120 154 206 257 306 361
#     4  11  22  38  62  90 122 160 205 258 302 364
#
# _framework density 19.26136
#
# number of rings (size 3 to 8) (size 9 to 14) (size 15 to 20)
#    0.000    1.333    3.333    3.000    0.000    4.000 
#    0.000    5.833    0.000    0.000    0.000    0.000 
#    0.000    0.000    0.000    0.000    0.000    0.000 
#
# Total GULP energy -595117.518772 kJ/mol
# GULP energy per Si atom -12398.281641 kJ/mol
# Density = 1.921752 g / cm^3
# Si number density = 19.261360 Si / 1000 Ang^3
#
#
#
# Elastic Constant Matrix: (Units=GPa)
#
#
# Indices 1 2 3 4 5 6 
#
# 1 149.6339 62.3897 73.5680 0.0000 0.0000 0.0000
# 2 62.3897 109.8942 66.4914 0.0000 0.0000 0.0000
# 3 73.5680 66.4914 151.2162 0.0000 0.0000 0.0000
# 4 0.0000 0.0000 0.0000 36.1721 0.0000 0.0000
# 5 0.0000 0.0000 0.0000 0.0000 30.6209 0.0000
# 6 0.0000 0.0000 0.0000 0.0000 0.0000 16.5296
#
#
#
# Elastic Compliance Matrix: (Units=1/GPa)
#
#
# Indices 1 2 3 4 5 6 
#
# 1 0.009742 -0.003628 -0.003144 0.000000 0.000000 0.000000
# 2 -0.003628 0.013749 -0.004281 0.000000 0.000000 0.000000
# 3 -0.003144 -0.004281 0.010025 0.000000 0.000000 0.000000
# 4 0.000000 0.000000 0.000000 0.027646 0.000000 0.000000
# 5 0.000000 0.000000 0.000000 0.000000 0.032657 0.000000
# 6 0.000000 0.000000 0.000000 0.000000 0.000000 0.060498
#
#
# Mechanical properties :
#
#
# Convention : Reuss Voigt Hill
#
# Bulk Modulus (GPa) = 87.64092 90.62695 89.13394
# Shear Modulus (GPa) = 27.74301 30.55087 29.14694
#
# Velocity S-wave (km/s) = 3.79931 3.98694 3.89425
# Velocity P-wave (km/s) = 8.05270 8.26726 8.16068
#
# Compressibility (1/GPa) = 0.01141019
#
# Stress axis : x y z
#
# Youngs Moduli (GPa) = 102.65357 72.72992 99.75218
#
# Poissons Ratio (x) = 0.26388 0.31361
# Poissons Ratio (y) = 0.37245 0.42700
# Poissons Ratio (z) = 0.32274 0.31133
#
# Static dielectric constant tensor:
#      x y z
#    x 3.511230 0.000000 0.000000 
#    y 0.000000 3.521490 0.000000 
#    z 0.000000 0.000000 3.819060 
# 
# 
# High freq. dielectric constant tensor:
#      x y z
#    x 1.738690 0.000000 0.000000 
#    y 0.000000 1.749310 0.000000 
#    z 0.000000 0.000000 1.768900 
# 
# From -- ./inp_files/12079.got.cif
#   From: 2010.06.25/outbox.cif.g09.slc.cpg/sg52_7_cif.got.tgz:12079.got - 2010.06.26 19:32:48.
