data_PCOD8215198
_publ_section_title
;
Structure prediction by ZEFSAII (Michael W. Deem and Ramdas Pophale) SiO2 
 PCOD8215198
Probable space group: P N N A
;
_chemical_formula_sum "Si O2"
_cell_formula_units_Z 60
_cell_length_a 30.385501
_cell_length_b 11.375734
_cell_length_c 9.294613
_cell_angle_alpha 90.000000
_cell_angle_beta 90.000000
_cell_angle_gamma 90.000000
_cell_volume 3212.751548
_symmetry_space_group_name_H-M "P N N A"
_symmetry_group_IT_number 52
_symmetry_cell_setting 'orthorhombic'
loop_
_space_group_symop_operation_xyz
x,y,z
1/2-x,-y,z
x,1/2-y,1/2-z
1/2-x,1/2+y,1/2-z
-x,-y,-z
1/2+x,y,-z
-x,1/2+y,1/2+z
1/2+x,1/2-y,1/2+z
loop_
_atom_site_type_symbol
_atom_site_label
_atom_site_fract_x
_atom_site_fract_y
_atom_site_fract_z
Si Si1 0.778691 0.250000 0.750000
Si Si2 0.432467 0.115575 0.753144
Si Si3 0.219388 0.390960 0.062241
Si Si4 0.159306 0.539428 0.245042
Si Si5 0.966255 0.617782 0.715476
Si Si6 0.640122 0.281641 0.086948
Si Si7 0.086769 0.008810 0.465131
Si Si8 0.603012 0.456233 0.501319
O O1 0.749684 0.282987 0.888675
O O2 0.809187 0.357072 0.708478
O O3 0.414947 0.250000 0.750000
O O4 0.481945 0.109631 0.811196
O O5 0.432671 0.072442 0.589229
O O6 0.402354 0.032241 0.854833
O O7 0.250000 0.500000 0.007039
O O8 0.189930 0.428523 0.200959
O O9 0.188098 0.340876 0.936525
O O10 0.127684 0.561226 0.107122
O O11 0.128696 0.530820 0.382196
O O12 0.951193 0.750000 0.750000
O O13 0.950791 0.534238 0.846661
O O14 0.944573 0.578474 0.564752
O O15 0.632347 0.250000 0.250000
O O16 0.634125 0.157540 0.009209
O O17 0.602205 0.368592 0.033409
#
# Coordination Sequence:
#
# PCOD8215198 Si02
#       8
#     4   8   8   8   8   8   8   8
#     4  10  18  36  58  78 114 140 186 222 288 346
#     4  11  24  37  54  82 125 159 188 240 297 338
#     4   9  19  36  57  86 112 141 181 240 289 337
#     4   9  21  33  60  85 107 145 192 234 277 338
#     4  10  20  37  60  86 113 150 200 250 288 331
#     4  11  20  36  62  85 112 147 191 235 287 347
#     4  10  20  38  59  82 114 151 194 235 287 341
#     4  11  21  37  58  86 114 149 200 240 278 341
#
# _framework density 18.67558
#
# number of rings (size 3 to 8) (size 9 to 14) (size 15 to 20)
#    0.000    1.867    2.667    1.600    1.867    0.000 
#    0.000    1.333    0.000    0.000    0.000    0.000 
#    0.000    0.000    0.000    0.000    0.000    0.000 
#
# Total GULP energy -743713.482920 kJ/mol
# GULP energy per Si atom -12395.224715 kJ/mol
# Density = 1.863307 g / cm^3
# Si number density = 18.675580 Si / 1000 Ang^3
#
#
#
# Elastic Constant Matrix: (Units=GPa)
#
#
# Indices 1 2 3 4 5 6 
#
# 1 65.1470 20.9291 6.4208 0.0000 0.0000 0.0000
# 2 20.9291 86.1919 20.8573 0.0000 0.0000 0.0000
# 3 6.4208 20.8573 69.4880 0.0000 0.0000 0.0000
# 4 0.0000 0.0000 0.0000 23.9187 0.0000 0.0000
# 5 0.0000 0.0000 0.0000 0.0000 17.4002 0.0000
# 6 0.0000 0.0000 0.0000 0.0000 0.0000 85.1630
#
#
#
# Elastic Compliance Matrix: (Units=1/GPa)
#
#
# Indices 1 2 3 4 5 6 
#
# 1 0.016657 -0.003960 -0.000351 0.000000 0.000000 0.000000
# 2 -0.003960 0.013452 -0.003672 0.000000 0.000000 0.000000
# 3 -0.000351 -0.003672 0.015525 0.000000 0.000000 0.000000
# 4 0.000000 0.000000 0.000000 0.041808 0.000000 0.000000
# 5 0.000000 0.000000 0.000000 0.000000 0.057471 0.000000
# 6 0.000000 0.000000 0.000000 0.000000 0.000000 0.011742
#
#
# Mechanical properties :
#
#
# Convention : Reuss Voigt Hill
#
# Bulk Modulus (GPa) = 33.70423 35.24904 34.47663
# Shear Modulus (GPa) = 27.39586 36.80435 32.10011
#
# Velocity S-wave (km/s) = 3.83421 4.44410 4.15037
# Velocity P-wave (km/s) = 6.13905 6.72672 6.43959
#
# Compressibility (1/GPa) = 0.02966987
#
# Stress axis : x y z
#
# Youngs Moduli (GPa) = 60.03648 74.33813 64.41017
#
# Poissons Ratio (x) = 0.29436 0.02258
# Poissons Ratio (y) = 0.23773 0.23650
# Poissons Ratio (z) = 0.02105 0.27296
#
# Static dielectric constant tensor:
#      x y z
#    x 3.498350 0.000000 0.000000 
#    y 0.000000 3.035220 0.000000 
#    z 0.000000 0.000000 3.183880 
# 
# 
# High freq. dielectric constant tensor:
#      x y z
#    x 1.729390 0.000000 0.000000 
#    y 0.000000 1.724840 0.000000 
#    z 0.000000 0.000000 1.713410 
# 
# From -- ./inp_files/15680.got.cif
#   From: 2010.06.25/outbox.cif.g09.slc.cpg/sg52_8_cif.got.tgz:15680.got - 2010.06.26 19:32:48.
