data_PCOD8215473
_publ_section_title
;
Structure prediction by ZEFSAII (Michael W. Deem and Ramdas Pophale) SiO2 
 PCOD8215473
Probable space group: P N N A
;
_chemical_formula_sum "Si O2"
_cell_formula_units_Z 64
_cell_length_a 23.585451
_cell_length_b 11.541554
_cell_length_c 11.779428
_cell_angle_alpha 90.000000
_cell_angle_beta 90.000000
_cell_angle_gamma 90.000000
_cell_volume 3206.510564
_symmetry_space_group_name_H-M "P N N A"
_symmetry_group_IT_number 52
_symmetry_cell_setting 'orthorhombic'
loop_
_space_group_symop_operation_xyz
x,y,z
1/2-x,-y,z
x,1/2-y,1/2-z
1/2-x,1/2+y,1/2-z
-x,-y,-z
1/2+x,y,-z
-x,1/2+y,1/2+z
1/2+x,1/2-y,1/2+z
loop_
_atom_site_type_symbol
_atom_site_label
_atom_site_fract_x
_atom_site_fract_y
_atom_site_fract_z
Si Si1 0.318185 0.761691 0.618219
Si Si2 0.034978 0.531089 0.172983
Si Si3 0.594030 0.445532 0.160942
Si Si4 0.985560 0.727160 0.877636
Si Si5 0.693059 0.722688 0.377961
Si Si6 0.446311 0.967728 0.073073
Si Si7 0.093648 0.835160 0.511297
Si Si8 0.647493 0.017134 0.095423
O O1 0.328388 0.750000 0.750000
O O2 0.365269 0.858905 0.586221
O O3 0.251952 0.791048 0.596973
O O4 0.325469 0.638738 0.556406
O O5 0.038616 0.403904 0.113115
O O6 0.050286 0.527827 0.304588
O O7 0.082860 0.609763 0.112667
O O8 0.972708 0.589371 0.154316
O O9 0.610942 0.457672 0.292005
O O10 0.600890 0.570119 0.108225
O O11 0.006391 0.750000 0.750000
O O12 0.940933 0.827012 0.913714
O O13 0.040003 0.744753 0.957826
O O14 0.671967 0.750000 0.250000
O O15 0.650892 0.761502 0.478745
O O16 0.695202 0.581817 0.385477
O O17 0.392434 0.020020 0.008709
O O18 0.500000 0.000000 0.000000
#
# Coordination Sequence:
#
# PCOD8215473 Si02
#       8
#     8   8   8   8   8   8   8   8
#     4   9  22  36  58  87 118 150 191 253 306 348
#     4  10  22  37  55  87 124 159 194 235 293 361
#     4  10  19  37  56  89 121 150 187 242 300 353
#     4   9  19  34  55  79 116 160 193 224 283 358
#     4  11  21  39  58  84 118 157 200 241 304 363
#     4  11  21  36  55  85 121 161 195 236 291 354
#     4  11  21  33  60  84 122 153 191 239 290 356
#     4  11  21  36  58  86 119 153 200 242 294 355
#
# _framework density 19.959391
#
# number of rings (size 3 to 8) (size 9 to 14) (size 15 to 20)
#    0.000    1.750    2.500    3.000    5.250    0.500 
#    0.000    2.500    0.000    0.000    9.750    0.000 
#    0.000    0.000    0.000    0.000    0.000    0.000 
#
# Total GULP energy -793023.827078 kJ/mol
# GULP energy per Si atom -12390.997298 kJ/mol
# Density = 1.991396 g / cm^3
# Si number density = 19.959391 Si / 1000 Ang^3
#
#
#
# Elastic Constant Matrix: (Units=GPa)
#
#
# Indices 1 2 3 4 5 6 
#
# 1 79.0370 36.8660 31.1426 0.0000 0.0000 0.0000
# 2 36.8660 79.4261 22.8914 0.0000 0.0000 0.0000
# 3 31.1426 22.8914 78.1049 0.0000 0.0000 0.0000
# 4 0.0000 0.0000 0.0000 24.6040 0.0000 0.0000
# 5 0.0000 0.0000 0.0000 0.0000 16.7535 0.0000
# 6 0.0000 0.0000 0.0000 0.0000 0.0000 32.5062
#
#
#
# Elastic Compliance Matrix: (Units=1/GPa)
#
#
# Indices 1 2 3 4 5 6 
#
# 1 0.017845 -0.006807 -0.005120 0.000000 0.000000 0.000000
# 2 -0.006807 0.016349 -0.002077 0.000000 0.000000 0.000000
# 3 -0.005120 -0.002077 0.015454 0.000000 0.000000 0.000000
# 4 0.000000 0.000000 0.000000 0.040644 0.000000 0.000000
# 5 0.000000 0.000000 0.000000 0.000000 0.059689 0.000000
# 6 0.000000 0.000000 0.000000 0.000000 0.000000 0.030763
#
#
# Mechanical properties :
#
#
# Convention : Reuss Voigt Hill
#
# Bulk Modulus (GPa) = 46.21525 46.48534 46.35029
# Shear Modulus (GPa) = 23.15188 24.48394 23.81791
#
# Velocity S-wave (km/s) = 3.40950 3.50621 3.45819
# Velocity P-wave (km/s) = 6.22129 6.30332 6.26244
#
# Compressibility (1/GPa) = 0.02163788
#
# Stress axis : x y z
#
# Youngs Moduli (GPa) = 56.03849 61.16739 64.70950
#
# Poissons Ratio (x) = 0.41637 0.33132
# Poissons Ratio (y) = 0.38146 0.13442
# Poissons Ratio (z) = 0.28693 0.12707
#
# Static dielectric constant tensor:
#      x y z
#    x 3.639370 0.000000 0.000000 
#    y 0.000000 4.159820 0.000000 
#    z 0.000000 0.000000 3.449080 
# 
# 
# High freq. dielectric constant tensor:
#      x y z
#    x 1.754570 0.000000 0.000000 
#    y 0.000000 1.789460 0.000000 
#    z 0.000000 0.000000 1.751760 
# 
# From -- ./inp_files/22498.got.cif
#   From: 2010.06.25/outbox.cif.g09.slc.cpg/sg52_12_cif.got.tgz:22498.got - 2010.06.26 19:32:48.
