data_PCOD8215870
_publ_section_title
;
Structure prediction by ZEFSAII (Michael W. Deem and Ramdas Pophale) SiO2 
 PCOD8215870
Probable space group: P N N A
;
_chemical_formula_sum "Si O2"
_cell_formula_units_Z 60
_cell_length_a 29.075859
_cell_length_b 9.370476
_cell_length_c 11.316092
_cell_angle_alpha 90.000000
_cell_angle_beta 90.000000
_cell_angle_gamma 90.000000
_cell_volume 3083.121760
_symmetry_space_group_name_H-M "P N N A"
_symmetry_group_IT_number 52
_symmetry_cell_setting 'orthorhombic'
loop_
_space_group_symop_operation_xyz
x,y,z
1/2-x,-y,z
x,1/2-y,1/2-z
1/2-x,1/2+y,1/2-z
-x,-y,-z
1/2+x,y,-z
-x,1/2+y,1/2+z
1/2+x,1/2-y,1/2+z
loop_
_atom_site_type_symbol
_atom_site_label
_atom_site_fract_x
_atom_site_fract_y
_atom_site_fract_z
Si Si1 0.328231 0.750000 0.250000
Si Si2 0.863151 0.526572 0.560971
Si Si3 0.699126 0.048151 0.547476
Si Si4 0.456371 0.678761 0.989085
Si Si5 0.042043 0.593146 0.142811
Si Si6 0.535661 0.040272 0.899000
Si Si7 0.142446 0.241693 0.612996
Si Si8 0.357741 0.220882 0.376428
O O1 0.357523 0.630705 0.322889
O O2 0.298124 0.842997 0.341199
O O3 0.916195 0.485546 0.552221
O O4 0.844091 0.606730 0.445946
O O5 0.842120 0.367566 0.558607
O O6 0.677137 0.123247 0.434647
O O7 0.750000 0.000000 0.515303
O O8 0.666675 0.913034 0.566399
O O9 0.499122 0.690833 0.897809
O O10 0.410353 0.710134 0.916400
O O11 0.450257 0.523712 0.042957
O O12 0.463240 0.786359 0.099648
O O13 0.027700 0.524053 0.268642
O O14 0.087549 0.690716 0.142390
O O15 0.500000 0.000000 0.000000
O O16 0.150798 0.250000 0.750000
O O17 0.335707 0.250000 0.250000
#
# Coordination Sequence:
#
# PCOD8215870 Si02
#       8
#     4   8   8   8   8   8   8   8
#     4  10  20  38  62  94 122 158 196 254 318 384
#     4  10  22  36  63  89 123 164 204 251 314 371
#     4  11  24  41  66  97 127 157 207 259 324 382
#     4  10  23  37  60  84 121 167 214 257 301 367
#     4  11  22  38  57  88 125 165 207 258 310 368
#     4  11  22  32  53  85 121 164 208 244 302 372
#     4  10  23  45  66  88 124 173 217 257 309 382
#     4  12  21  38  63  94 129 160 199 260 321 370
#
# _framework density 19.460795000000001
#
# number of rings (size 3 to 8) (size 9 to 14) (size 15 to 20)
#    0.000    1.333    4.000    1.200    8.400    0.000 
#    0.000    4.000    0.000    0.000    0.000    0.000 
#    0.000    0.000    0.000    0.000    0.000    0.000 
#
# Total GULP energy -743349.544174 kJ/mol
# GULP energy per Si atom -12389.159070 kJ/mol
# Density = 1.941650 g / cm^3
# Si number density = 19.460795 Si / 1000 Ang^3
#
#
#
# Elastic Constant Matrix: (Units=GPa)
#
#
# Indices 1 2 3 4 5 6 
#
# 1 103.4543 47.7797 44.8549 0.0000 0.0000 0.0000
# 2 47.7797 139.4264 64.1950 0.0000 0.0000 0.0000
# 3 44.8549 64.1950 143.1955 0.0000 0.0000 0.0000
# 4 0.0000 0.0000 0.0000 27.8288 0.0000 0.0000
# 5 0.0000 0.0000 0.0000 0.0000 -1.7723 0.0000
# 6 0.0000 0.0000 0.0000 0.0000 0.0000 12.2472
#
#
#
# Elastic Compliance Matrix: (Units=1/GPa)
#
#
# Indices 1 2 3 4 5 6 
#
# 1 0.012124 -0.003032 -0.002438 0.000000 0.000000 0.000000
# 2 -0.003032 0.009796 -0.003442 0.000000 0.000000 0.000000
# 3 -0.002438 -0.003442 0.009290 0.000000 0.000000 0.000000
# 4 0.000000 0.000000 0.000000 0.035934 0.000000 0.000000
# 5 0.000000 0.000000 0.000000 0.000000 -0.564229 0.000000
# 6 0.000000 0.000000 0.000000 0.000000 0.000000 0.081652
#
#
# Mechanical properties :
#
#
# Convention : Reuss Voigt Hill
#
# Bulk Modulus (GPa) = 74.70773 77.74838 76.22805
# Shear Modulus (GPa) = -12.71787 22.94384 5.11299
#
# Velocity S-wave (km/s) = -2.55916 3.43735 1.62266
# Velocity P-wave (km/s) = 5.45342 7.46939 6.53956
#
# Compressibility (1/GPa) = 0.01338550
#
# Stress axis : x y z
#
# Youngs Moduli (GPa) = 82.48375 102.08324 107.63968
#
# Poissons Ratio (x) = 0.30951 0.26247
# Poissons Ratio (y) = 0.25008 0.37048
# Poissons Ratio (z) = 0.20113 0.35135
#
# Static dielectric constant tensor:
#      x y z
#    x 3.454210 0.000000 0.000000 
#    y 0.000000 3.760810 0.000000 
#    z 0.000000 0.000000 3.451710 
# 
# 
# High freq. dielectric constant tensor:
#      x y z
#    x 1.738930 0.000000 0.000000 
#    y 0.000000 1.784310 0.000000 
#    z 0.000000 0.000000 1.741400 
# 
# From -- ./inp_files/23147.got.cif
#   From: 2010.06.25/outbox.cif.g09.slc.cpg/sg52_12_cif.got.tgz:23147.got - 2010.06.26 19:32:48.
