data_PCOD8215527
_publ_section_title
;
Structure prediction by ZEFSAII (Michael W. Deem and Ramdas Pophale) SiO2 
 PCOD8215527
Probable space group: P N N A
;
_chemical_formula_sum "Si O2"
_cell_formula_units_Z 56
_cell_length_a 21.004005
_cell_length_b 15.200506
_cell_length_c 9.042868
_cell_angle_alpha 90.000000
_cell_angle_beta 90.000000
_cell_angle_gamma 90.000000
_cell_volume 2887.130067
_symmetry_space_group_name_H-M "P N N A"
_symmetry_group_IT_number 52
_symmetry_cell_setting 'orthorhombic'
loop_
_space_group_symop_operation_xyz
x,y,z
1/2-x,-y,z
x,1/2-y,1/2-z
1/2-x,1/2+y,1/2-z
-x,-y,-z
1/2+x,y,-z
-x,1/2+y,1/2+z
1/2+x,1/2-y,1/2+z
loop_
_atom_site_type_symbol
_atom_site_label
_atom_site_fract_x
_atom_site_fract_y
_atom_site_fract_z
Si Si1 0.980773 0.835628 0.689407
Si Si2 0.358052 0.602010 0.283693
Si Si3 0.421814 0.018912 0.725727
Si Si4 0.488039 0.841630 0.659581
Si Si5 0.716302 0.849164 0.765858
Si Si6 0.614001 0.560322 0.901238
Si Si7 0.818621 0.473297 0.471169
O O1 0.019369 0.750000 0.750000
O O2 0.914024 0.826506 0.782328
O O3 0.014422 0.924437 0.747502
O O4 0.971780 0.829455 0.512760
O O5 0.291235 0.643840 0.236130
O O6 0.387968 0.537450 0.160937
O O7 0.348327 0.554411 0.439231
O O8 0.392763 0.053920 0.574562
O O9 0.369135 0.046787 0.844919
O O10 0.439376 0.915132 0.726434
O O11 0.480562 0.750000 0.750000
O O12 0.559785 0.878544 0.673894
O O13 0.693638 0.750000 0.750000
O O14 0.683390 0.901361 0.633133
O O15 0.692623 0.889365 0.922079
O O16 0.750000 0.500000 0.402855
#
# Coordination Sequence:
#
# PCOD8215527 Si02
#       7
#     8   8   8   8   8   8   8
#     4  11  23  38  61  92 122 160 205 248 303 369
#     4  10  19  39  60  85 119 158 203 247 293 361
#     4  11  22  41  61  87 128 156 198 255 312 365
#     4  11  23  40  60  91 125 159 200 257 308 362
#     4  10  21  38  60  88 119 160 210 253 291 356
#     4  10  19  39  63  83 118 162 204 239 302 369
#     4   9  22  38  60  87 117 156 202 250 305 357
#
# _framework density 19.396424
#
# number of rings (size 3 to 8) (size 9 to 14) (size 15 to 20)
#    0.000    1.714    2.857    3.000    2.000    6.286 
#    0.000    0.000    0.000    0.857    0.000    0.000 
#    0.000    0.000    0.000    0.000    0.000    0.000 
#
# Total GULP energy -694009.386647 kJ/mol
# GULP energy per Si atom -12393.024762 kJ/mol
# Density = 1.935228 g / cm^3
# Si number density = 19.396424 Si / 1000 Ang^3
#
#
#
# Elastic Constant Matrix: (Units=GPa)
#
#
# Indices 1 2 3 4 5 6 
#
# 1 102.9789 30.0353 67.1139 0.0000 0.0000 0.0000
# 2 30.0353 121.5409 42.4411 0.0000 0.0000 0.0000
# 3 67.1139 42.4411 75.4156 0.0000 0.0000 0.0000
# 4 0.0000 0.0000 0.0000 22.9541 0.0000 0.0000
# 5 0.0000 0.0000 0.0000 0.0000 26.5158 0.0000
# 6 0.0000 0.0000 0.0000 0.0000 0.0000 21.8333
#
#
#
# Elastic Compliance Matrix: (Units=1/GPa)
#
#
# Indices 1 2 3 4 5 6 
#
# 1 0.023452 0.001857 -0.021916 0.000000 0.000000 0.000000
# 2 0.001857 0.010387 -0.007498 0.000000 0.000000 0.000000
# 3 -0.021916 -0.007498 0.036983 0.000000 0.000000 0.000000
# 4 0.000000 0.000000 0.000000 0.043565 0.000000 0.000000
# 5 0.000000 0.000000 0.000000 0.000000 0.037713 0.000000
# 6 0.000000 0.000000 0.000000 0.000000 0.000000 0.045802
#
#
# Mechanical properties :
#
#
# Convention : Reuss Voigt Hill
#
# Bulk Modulus (GPa) = 63.65949 64.34622 64.00286
# Shear Modulus (GPa) = 19.36097 24.95031 22.15564
#
# Velocity S-wave (km/s) = 3.16281 3.59044 3.38339
# Velocity P-wave (km/s) = 6.79921 7.10174 6.95212
#
# Compressibility (1/GPa) = 0.01570858
#
# Stress axis : x y z
#
# Youngs Moduli (GPa) = 42.64030 96.27379 27.03958
#
# Poissons Ratio (x) = -0.17881 0.59259
# Poissons Ratio (y) = -0.07920 0.20275
# Poissons Ratio (z) = 0.93449 0.72189
#
# Static dielectric constant tensor:
#      x y z
#    x 3.608030 0.000000 0.000000 
#    y 0.000000 3.754800 0.000000 
#    z 0.000000 0.000000 3.290130 
# 
# 
# High freq. dielectric constant tensor:
#      x y z
#    x 1.763310 0.000000 0.000000 
#    y 0.000000 1.765900 0.000000 
#    z 0.000000 0.000000 1.737330 
# 
# From -- ./inp_files/13424.got.cif
#   From: 2010.06.25/outbox.cif.g09.slc.cpg/sg52_7_cif.got.tgz:13424.got - 2010.06.26 19:32:48.
