data_PCOD8215009
_publ_section_title
;
Structure prediction by ZEFSAII (Michael W. Deem and Ramdas Pophale) SiO2 
 PCOD8215009
Probable space group: P N N A
;
_chemical_formula_sum "Si O2"
_cell_formula_units_Z 52
_cell_length_a 12.528003
_cell_length_b 17.525626
_cell_length_c 12.718618
_cell_angle_alpha 90.000000
_cell_angle_beta 90.000000
_cell_angle_gamma 90.000000
_cell_volume 2792.513696
_symmetry_space_group_name_H-M "P N N A"
_symmetry_group_IT_number 52
_symmetry_cell_setting 'orthorhombic'
loop_
_space_group_symop_operation_xyz
x,y,z
1/2-x,-y,z
x,1/2-y,1/2-z
1/2-x,1/2+y,1/2-z
-x,-y,-z
1/2+x,y,-z
-x,1/2+y,1/2+z
1/2+x,1/2-y,1/2+z
loop_
_atom_site_type_symbol
_atom_site_label
_atom_site_fract_x
_atom_site_fract_y
_atom_site_fract_z
Si Si1 0.330814 0.397826 0.331574
Si Si2 0.595044 0.443229 0.699817
Si Si3 0.580982 0.250946 0.044631
Si Si4 0.548346 0.750000 0.750000
Si Si5 0.301647 0.256245 0.636405
Si Si6 0.056059 0.618776 0.539569
Si Si7 0.508109 0.316614 0.837036
O O1 0.378016 0.470075 0.266645
O O2 0.202739 0.397032 0.329710
O O3 0.375146 0.319192 0.285176
O O4 0.364555 0.414623 0.452342
O O5 0.509658 0.445006 0.603508
O O6 0.540346 0.399764 0.796583
O O7 0.524490 0.279403 0.152659
O O8 0.708834 0.245291 0.051754
O O9 0.532517 0.168971 0.019491
O O10 0.570115 0.307022 0.946384
O O11 0.245873 0.250000 0.750000
O O12 0.375339 0.331389 0.622431
O O13 0.382889 0.184614 0.630115
O O14 0.532789 0.250000 0.750000
#
# Coordination Sequence:
#
# PCOD8215009 Si02
#       7
#     8   8   8   4   8   8   8
#     4  10  24  35  57  81 115 148 186 235 283 335
#     4  11  20  38  54  83 115 145 187 234 287 332
#     4  10  19  33  58  85 115 150 188 230 272 334
#     4  10  22  38  54  84 114 148 190 228 280 332
#     4  10  17  31  54  85 113 149 186 227 273 331
#     4  10  19  33  55  84 114 146 183 233 287 332
#     4  10  20  34  56  86 110 146 190 226 274 334
#
# _framework density 18.621216
#
# number of rings (size 3 to 8) (size 9 to 14) (size 15 to 20)
#    0.000    1.846    5.385    1.385    1.077    2.462 
#    0.000    0.769    0.000    4.615    0.000    0.000 
#    0.000    0.000    0.000    0.000    0.000    0.000 
#
# Total GULP energy -644355.286240 kJ/mol
# GULP energy per Si atom -12391.447812 kJ/mol
# Density = 1.857883 g / cm^3
# Si number density = 18.621216 Si / 1000 Ang^3
#
#
#
# Elastic Constant Matrix: (Units=GPa)
#
#
# Indices 1 2 3 4 5 6 
#
# 1 109.0385 24.7429 27.5611 0.0000 0.0000 0.0000
# 2 24.7429 70.4492 18.3388 0.0000 0.0000 0.0000
# 3 27.5611 18.3388 85.0199 0.0000 0.0000 0.0000
# 4 0.0000 0.0000 0.0000 22.1717 0.0000 0.0000
# 5 0.0000 0.0000 0.0000 0.0000 30.7495 0.0000
# 6 0.0000 0.0000 0.0000 0.0000 0.0000 17.5156
#
#
#
# Elastic Compliance Matrix: (Units=1/GPa)
#
#
# Indices 1 2 3 4 5 6 
#
# 1 0.010550 -0.002982 -0.002777 0.000000 0.000000 0.000000
# 2 -0.002982 0.015882 -0.002459 0.000000 0.000000 0.000000
# 3 -0.002777 -0.002459 0.013192 0.000000 0.000000 0.000000
# 4 0.000000 0.000000 0.000000 0.045102 0.000000 0.000000
# 5 0.000000 0.000000 0.000000 0.000000 0.032521 0.000000
# 6 0.000000 0.000000 0.000000 0.000000 0.000000 0.057092
#
#
# Mechanical properties :
#
#
# Convention : Reuss Voigt Hill
#
# Bulk Modulus (GPa) = 43.12515 45.08812 44.10664
# Shear Modulus (GPa) = 25.18828 27.01169 26.09998
#
# Velocity S-wave (km/s) = 3.68185 3.81279 3.74789
# Velocity P-wave (km/s) = 6.42527 6.60674 6.51664
#
# Compressibility (1/GPa) = 0.02318832
#
# Stress axis : x y z
#
# Youngs Moduli (GPa) = 94.78967 62.96357 75.80091
#
# Poissons Ratio (x) = 0.18778 0.21047
# Poissons Ratio (y) = 0.28270 0.18639
# Poissons Ratio (z) = 0.26319 0.15483
#
# Static dielectric constant tensor:
#      x y z
#    x 3.499350 0.000000 0.000000 
#    y 0.000000 3.151070 0.000000 
#    z 0.000000 0.000000 3.589310 
# 
# 
# High freq. dielectric constant tensor:
#      x y z
#    x 1.736700 0.000000 0.000000 
#    y 0.000000 1.685340 0.000000 
#    z 0.000000 0.000000 1.723790 
# 
# From -- ./inp_files/26304.got.cif
#   From: 2010.06.25/outbox.cif.g09.slc.cpg/sg52_14_cif.got.tgz:26304.got - 2010.06.26 19:32:48.
