data_PCOD8215565
_publ_section_title
;
Structure prediction by ZEFSAII (Michael W. Deem and Ramdas Pophale) SiO2 
 PCOD8215565
Probable space group: P N N A
;
_chemical_formula_sum "Si O2"
_cell_formula_units_Z 48
_cell_length_a 23.446900
_cell_length_b 4.891459
_cell_length_c 24.303612
_cell_angle_alpha 90.000000
_cell_angle_beta 90.000000
_cell_angle_gamma 90.000000
_cell_volume 2787.370324
_symmetry_space_group_name_H-M "P N N A"
_symmetry_group_IT_number 52
_symmetry_cell_setting 'orthorhombic'
loop_
_space_group_symop_operation_xyz
x,y,z
1/2-x,-y,z
x,1/2-y,1/2-z
1/2-x,1/2+y,1/2-z
-x,-y,-z
1/2+x,y,-z
-x,1/2+y,1/2+z
1/2+x,1/2-y,1/2+z
loop_
_atom_site_type_symbol
_atom_site_label
_atom_site_fract_x
_atom_site_fract_y
_atom_site_fract_z
Si Si1 0.500792 0.815483 0.620676
Si Si2 0.313067 0.619357 0.870069
Si Si3 0.145941 0.864316 0.806900
Si Si4 0.484819 0.158269 0.808376
Si Si5 0.058222 0.651297 0.483896
Si Si6 0.399132 0.815264 0.543093
O O1 0.515964 0.615224 0.671150
O O2 0.552844 0.781897 0.576854
O O3 0.441552 0.716899 0.592162
O O4 0.495122 0.119914 0.643880
O O5 0.250000 0.500000 0.871996
O O6 0.354797 0.382141 0.849869
O O7 0.335263 0.681590 0.931825
O O8 0.317070 0.880454 0.829453
O O9 0.173565 0.750000 0.750000
O O10 0.080210 0.938714 0.797757
O O11 0.511375 0.250000 0.750000
O O12 0.104156 0.407151 0.493138
O O13 0.000000 0.500000 0.500000
O O14 0.075378 0.896239 0.524188
#
# Coordination Sequence:
#
# PCOD8215565 Si02
#       6
#     8   8   8   8   8   8
#     4  11  18  32  49  70  96 119 158 197 239 292
#     4  12  24  37  53  70  91 127 166 215 267 298
#     4  11  22  38  52  66  90 126 169 218 262 293
#     4  11  20  31  49  70  95 128 158 197 248 288
#     4  10  20  30  51  73  92 120 151 196 254 289
#     4  11  19  34  48  70  97 118 156 208 245 298
#
# _framework density 17.220533
#
# number of rings (size 3 to 8) (size 9 to 14) (size 15 to 20)
#    0.000    1.000    3.333    7.500    0.000    4.000 
#    0.000    0.000    0.000    0.000    0.000    0.000 
#    0.000    0.000    0.000    0.000    0.000   46.667 
#
# Total GULP energy -594849.281001 kJ/mol
# GULP energy per Si atom -12392.693354 kJ/mol
# Density = 1.718134 g / cm^3
# Si number density = 17.220533 Si / 1000 Ang^3
#
#
#
# Elastic Constant Matrix: (Units=GPa)
#
#
# Indices 1 2 3 4 5 6 
#
# 1 41.2391 28.4334 43.5683 0.0000 0.0000 0.0000
# 2 28.4334 109.9556 35.9183 0.0000 0.0000 0.0000
# 3 43.5683 35.9183 79.3626 0.0000 0.0000 0.0000
# 4 0.0000 0.0000 0.0000 41.4305 0.0000 0.0000
# 5 0.0000 0.0000 0.0000 0.0000 -22.7956 0.0000
# 6 0.0000 0.0000 0.0000 0.0000 0.0000 14.5917
#
#
#
# Elastic Compliance Matrix: (Units=1/GPa)
#
#
# Indices 1 2 3 4 5 6 
#
# 1 0.060568 -0.005633 -0.030701 0.000000 0.000000 0.000000
# 2 -0.005633 0.011196 -0.001975 0.000000 0.000000 0.000000
# 3 -0.030701 -0.001975 0.030348 0.000000 0.000000 0.000000
# 4 0.000000 0.000000 0.000000 0.024137 0.000000 0.000000
# 5 0.000000 0.000000 0.000000 0.000000 -0.043868 0.000000
# 6 0.000000 0.000000 0.000000 0.000000 0.000000 0.068532
#
#
# Mechanical properties :
#
#
# Convention : Reuss Voigt Hill
#
# Bulk Modulus (GPa) = 39.22410 49.59973 44.41192
# Shear Modulus (GPa) = 21.18384 14.82114 18.00249
#
# Velocity S-wave (km/s) = 3.51115 2.93689 3.23679
# Velocity P-wave (km/s) = 6.26615 6.35340 6.30992
#
# Compressibility (1/GPa) = 0.02549453
#
# Stress axis : x y z
#
# Youngs Moduli (GPa) = 16.51043 89.31456 32.95093
#
# Poissons Ratio (x) = 0.50315 1.01162
# Poissons Ratio (y) = 0.09301 0.06507
# Poissons Ratio (z) = 0.50688 0.17637
#
# Static dielectric constant tensor:
#      x y z
#    x 2.944150 0.000000 0.000000 
#    y 0.000000 3.468260 0.000000 
#    z 0.000000 0.000000 3.593580 
# 
# 
# High freq. dielectric constant tensor:
#      x y z
#    x 1.589400 0.000000 0.000000 
#    y 0.000000 1.695450 0.000000 
#    z 0.000000 0.000000 1.660760 
# 
# From -- ./inp_files/38089.got.cif
#   From: 2010.06.25/outbox.cif.g09.slc.cpg/sg52_20_cif.got.tgz:38089.got - 2010.06.26 19:32:48.
