data_PCOD8215647
_publ_section_title
;
Structure prediction by ZEFSAII (Michael W. Deem and Ramdas Pophale) SiO2 
 PCOD8215647
Probable space group: P N N A
;
_chemical_formula_sum "Si O2"
_cell_formula_units_Z 60
_cell_length_a 13.009906
_cell_length_b 16.254623
_cell_length_c 14.130308
_cell_angle_alpha 90.000000
_cell_angle_beta 90.000000
_cell_angle_gamma 90.000000
_cell_volume 2988.152020
_symmetry_space_group_name_H-M "P N N A"
_symmetry_group_IT_number 52
_symmetry_cell_setting 'orthorhombic'
loop_
_space_group_symop_operation_xyz
x,y,z
1/2-x,-y,z
x,1/2-y,1/2-z
1/2-x,1/2+y,1/2-z
-x,-y,-z
1/2+x,y,-z
-x,1/2+y,1/2+z
1/2+x,1/2-y,1/2+z
loop_
_atom_site_type_symbol
_atom_site_label
_atom_site_fract_x
_atom_site_fract_y
_atom_site_fract_z
Si Si1 0.402513 0.102386 0.980953
Si Si2 0.157469 0.342496 0.963059
Si Si3 0.964941 0.549616 0.356740
Si Si4 0.632827 0.750000 0.250000
Si Si5 0.522286 0.031698 0.361978
Si Si6 0.481247 0.225967 0.568943
Si Si7 0.134810 0.583440 0.997714
Si Si8 0.221194 0.170987 0.884519
O O1 0.430951 0.076137 0.088080
O O2 0.478574 0.177272 0.954314
O O3 0.282481 0.127874 0.971837
O O4 0.417884 0.028988 0.907387
O O5 0.241019 0.411254 0.996318
O O6 0.096650 0.308864 0.055214
O O7 0.080838 0.384658 0.889000
O O8 0.205601 0.266289 0.908286
O O9 0.993990 0.526640 0.250030
O O10 0.882302 0.623584 0.359224
O O11 0.557169 0.791873 0.325538
O O12 0.701978 0.824044 0.205676
O O13 0.409475 0.032083 0.412679
O O14 0.588801 0.955143 0.400663
O O15 0.405075 0.177714 0.497222
#
# Coordination Sequence:
#
# PCOD8215647 Si02
#       8
#     8   8   8   4   8   8   8   8
#     4  10  22  39  58  89 130 158 196 255 307 360
#     4  11  20  39  62  88 124 159 203 256 308 371
#     4  11  23  39  62  93 122 160 204 254 306 366
#     4  10  20  34  58  90 120 160 210 262 296 362
#     4  10  24  38  63  93 118 159 205 259 308 363
#     4  10  21  37  60  87 122 166 200 254 307 360
#     4  10  21  41  60  87 125 156 202 256 313 357
#     4  11  21  36  62  91 121 159 209 248 309 364
#
# _framework density 20.0793
#
# number of rings (size 3 to 8) (size 9 to 14) (size 15 to 20)
#    0.000    1.600    4.000    1.600    3.733    1.067 
#    0.000    1.333    0.000    8.000    0.000    0.000 
#    0.000    0.000    0.000    0.000    0.000    0.000 
#
# Total GULP energy -743726.538619 kJ/mol
# GULP energy per Si atom -12395.442310 kJ/mol
# Density = 2.003360 g / cm^3
# Si number density = 20.079300 Si / 1000 Ang^3
#
#
#
# Elastic Constant Matrix: (Units=GPa)
#
#
# Indices 1 2 3 4 5 6 
#
# 1 52.6204 -6.0993 44.9809 0.0000 0.0000 0.0000
# 2 -6.0993 64.4463 20.1620 0.0000 0.0000 0.0000
# 3 44.9809 20.1620 128.6905 0.0000 0.0000 0.0000
# 4 0.0000 0.0000 0.0000 25.1066 0.0000 0.0000
# 5 0.0000 0.0000 0.0000 0.0000 25.2370 0.0000
# 6 0.0000 0.0000 0.0000 0.0000 0.0000 35.3982
#
#
#
# Elastic Compliance Matrix: (Units=1/GPa)
#
#
# Indices 1 2 3 4 5 6 
#
# 1 0.029344 0.006294 -0.011243 0.000000 0.000000 0.000000
# 2 0.006294 0.017667 -0.004968 0.000000 0.000000 0.000000
# 3 -0.011243 -0.004968 0.012479 0.000000 0.000000 0.000000
# 4 0.000000 0.000000 0.000000 0.039830 0.000000 0.000000
# 5 0.000000 0.000000 0.000000 0.000000 0.039624 0.000000
# 6 0.000000 0.000000 0.000000 0.000000 0.000000 0.028250
#
#
# Mechanical properties :
#
#
# Convention : Reuss Voigt Hill
#
# Bulk Modulus (GPa) = 25.21627 40.42715 32.82171
# Shear Modulus (GPa) = 24.96936 29.59592 27.28264
#
# Velocity S-wave (km/s) = 3.53021 3.84337 3.69011
# Velocity P-wave (km/s) = 5.40390 6.31449 5.87686
#
# Compressibility (1/GPa) = 0.03965694
#
# Stress axis : x y z
#
# Youngs Moduli (GPa) = 34.07842 56.60360 80.13757
#
# Poissons Ratio (x) = -0.35629 0.90096
# Poissons Ratio (y) = -0.21450 0.39812
# Poissons Ratio (z) = 0.38313 0.28120
#
# Static dielectric constant tensor:
#      x y z
#    x 3.738440 0.000000 0.000000 
#    y 0.000000 3.826930 0.000000 
#    z 0.000000 0.000000 3.513810 
# 
# 
# High freq. dielectric constant tensor:
#      x y z
#    x 1.776270 0.000000 0.000000 
#    y 0.000000 1.804500 0.000000 
#    z 0.000000 0.000000 1.756950 
# 
# From -- ./inp_files/19836.got.cif
#   From: 2010.06.25/outbox.cif.g09.slc.cpg/sg52_10_cif.got.tgz:19836.got - 2010.06.26 19:32:48.
