data_PCOD8215804
_publ_section_title
;
Structure prediction by ZEFSAII (Michael W. Deem and Ramdas Pophale) SiO2 
 PCOD8215804
Probable space group: P N N A
;
_chemical_formula_sum "Si O2"
_cell_formula_units_Z 60
_cell_length_a 13.713900
_cell_length_b 23.456324
_cell_length_c 9.429229
_cell_angle_alpha 90.000000
_cell_angle_beta 90.000000
_cell_angle_gamma 90.000000
_cell_volume 3033.172525
_symmetry_space_group_name_H-M "P N N A"
_symmetry_group_IT_number 52
_symmetry_cell_setting 'orthorhombic'
loop_
_space_group_symop_operation_xyz
x,y,z
1/2-x,-y,z
x,1/2-y,1/2-z
1/2-x,1/2+y,1/2-z
-x,-y,-z
1/2+x,y,-z
-x,1/2+y,1/2+z
1/2+x,1/2-y,1/2+z
loop_
_atom_site_type_symbol
_atom_site_label
_atom_site_fract_x
_atom_site_fract_y
_atom_site_fract_z
Si Si1 0.750000 0.000000 0.760012
Si Si2 0.344092 0.810500 0.304191
Si Si3 0.198825 0.391572 0.429639
Si Si4 0.026911 0.055780 0.913082
Si Si5 0.544521 0.766281 0.405963
Si Si6 0.940252 0.031006 0.621038
Si Si7 0.895410 0.159672 0.924135
Si Si8 0.647389 0.650491 0.897905
O O1 0.741008 0.941787 0.849438
O O2 0.650107 0.008050 0.671856
O O3 0.299757 0.750000 0.250000
O O4 0.370555 0.853144 0.173167
O O5 0.438036 0.795424 0.398618
O O6 0.264769 0.844893 0.396376
O O7 0.135942 0.420856 0.553850
O O8 0.284551 0.348744 0.483804
O O9 0.017573 0.043188 0.746353
O O10 0.951667 0.102781 0.964312
O O11 0.000000 0.000000 0.000000
O O12 0.581503 0.750000 0.250000
O O13 0.545447 0.710651 0.504034
O O14 0.617452 0.810811 0.471949
O O15 0.890477 0.088123 0.562270
O O16 0.000000 0.000000 0.500000
O O17 0.894100 0.170631 0.754498
#
# Coordination Sequence:
#
# PCOD8215804 Si02
#       8
#     4   8   8   8   8   8   8   8
#     4  12  20  44  66  92 128 180 218 260 332 402
#     4  10  20  37  61  91 115 166 212 259 320 384
#     4  11  20  38  68  89 123 171 220 264 311 396
#     4  11  20  36  65  95 119 164 223 270 312 381
#     4  11  23  37  60  92 123 155 212 275 317 374
#     4  11  25  40  64  98 136 171 217 270 340 399
#     4  10  21  40  59  91 123 168 211 259 326 392
#     4  10  21  41  63  84 120 174 211 250 322 402
#
# _framework density 19.781269000000002
#
# number of rings (size 3 to 8) (size 9 to 14) (size 15 to 20)
#    0.000    1.333    5.333    3.600    1.867    1.067 
#    0.000    7.333    0.000    0.000    0.000    0.000 
#    0.000    0.000    0.000    0.000    0.000    0.000 
#
# Total GULP energy -743693.092266 kJ/mol
# GULP energy per Si atom -12394.884871 kJ/mol
# Density = 1.973625 g / cm^3
# Si number density = 19.781269 Si / 1000 Ang^3
#
#
#
# Elastic Constant Matrix: (Units=GPa)
#
#
# Indices 1 2 3 4 5 6 
#
# 1 116.8108 29.1791 61.1788 0.0000 0.0000 0.0000
# 2 29.1791 96.4228 44.1167 0.0000 0.0000 0.0000
# 3 61.1788 44.1167 85.6438 0.0000 0.0000 0.0000
# 4 0.0000 0.0000 0.0000 37.9138 0.0000 0.0000
# 5 0.0000 0.0000 0.0000 0.0000 30.6514 0.0000
# 6 0.0000 0.0000 0.0000 0.0000 0.0000 41.6681
#
#
#
# Elastic Compliance Matrix: (Units=1/GPa)
#
#
# Indices 1 2 3 4 5 6 
#
# 1 0.013692 0.000434 -0.010004 0.000000 0.000000 0.000000
# 2 0.000434 0.013583 -0.007307 0.000000 0.000000 0.000000
# 3 -0.010004 -0.007307 0.022587 0.000000 0.000000 0.000000
# 4 0.000000 0.000000 0.000000 0.026376 0.000000 0.000000
# 5 0.000000 0.000000 0.000000 0.000000 0.032625 0.000000
# 6 0.000000 0.000000 0.000000 0.000000 0.000000 0.023999
#
#
# Mechanical properties :
#
#
# Convention : Reuss Voigt Hill
#
# Bulk Modulus (GPa) = 62.08403 63.09183 62.58793
# Shear Modulus (GPa) = 29.07236 33.00686 31.03961
#
# Velocity S-wave (km/s) = 3.83781 4.08927 3.96554
# Velocity P-wave (km/s) = 7.14785 7.36615 7.25782
#
# Compressibility (1/GPa) = 0.01610720
#
# Stress axis : x y z
#
# Youngs Moduli (GPa) = 73.03427 73.62288 44.27402
#
# Poissons Ratio (x) = -0.03194 0.44293
# Poissons Ratio (y) = -0.03169 0.32349
# Poissons Ratio (z) = 0.73066 0.53794
#
# Static dielectric constant tensor:
#      x y z
#    x 3.668440 0.000000 0.000000 
#    y 0.000000 4.044470 0.000000 
#    z 0.000000 0.000000 3.438780 
# 
# 
# High freq. dielectric constant tensor:
#      x y z
#    x 1.771810 0.000000 0.000000 
#    y 0.000000 1.794020 0.000000 
#    z 0.000000 0.000000 1.739980 
# 
# From -- ./inp_files/10944.got.cif
#   From: 2010.06.25/outbox.cif.g09.slc.cpg/sg52_6_cif.got.tgz:10944.got - 2010.06.26 19:32:48.
