data_PCOD8215010
_publ_section_title
;
Structure prediction by ZEFSAII (Michael W. Deem and Ramdas Pophale) SiO2 
 PCOD8215010
Probable space group: P N N A
;
_chemical_formula_sum "Si O2"
_cell_formula_units_Z 52
_cell_length_a 13.711823
_cell_length_b 15.985645
_cell_length_c 13.471552
_cell_angle_alpha 90.000000
_cell_angle_beta 90.000000
_cell_angle_gamma 90.000000
_cell_volume 2952.860936
_symmetry_space_group_name_H-M "P N N A"
_symmetry_group_IT_number 52
_symmetry_cell_setting 'orthorhombic'
loop_
_space_group_symop_operation_xyz
x,y,z
1/2-x,-y,z
x,1/2-y,1/2-z
1/2-x,1/2+y,1/2-z
-x,-y,-z
1/2+x,y,-z
-x,1/2+y,1/2+z
1/2+x,1/2-y,1/2+z
loop_
_atom_site_type_symbol
_atom_site_label
_atom_site_fract_x
_atom_site_fract_y
_atom_site_fract_z
Si Si1 0.250000 0.500000 0.413159
Si Si2 0.379336 0.039696 0.799382
Si Si3 0.358285 0.023083 0.575527
Si Si4 0.282079 0.610280 0.593296
Si Si5 0.061252 0.940661 0.195248
Si Si6 0.448884 0.718428 0.639352
Si Si7 0.522745 0.889640 0.585125
O O1 0.292525 0.573463 0.482780
O O2 0.167621 0.537853 0.343331
O O3 0.359613 0.062958 0.685180
O O4 0.332622 0.112160 0.871240
O O5 0.330252 0.950143 0.823854
O O6 0.494720 0.024501 0.817647
O O7 0.399378 0.092167 0.500336
O O8 0.250000 0.000000 0.541716
O O9 0.422628 0.939510 0.569667
O O10 0.340116 0.697665 0.596800
O O11 0.070174 0.913960 0.309734
O O12 0.017528 0.863245 0.132304
O O13 0.433781 0.750000 0.750000
O O14 0.498166 0.791503 0.575497
#
# Coordination Sequence:
#
# PCOD8215010 Si02
#       7
#     4   8   8   8   8   8   8
#     4  10  20  32  50  78 100 138 178 200 246 300
#     4   8  15  29  51  76  96 126 170 215 242 284
#     4  10  17  31  55  77  98 126 169 216 249 295
#     4   9  17  30  52  77  99 129 170 208 251 291
#     4   9  18  33  52  71 106 136 171 206 242 305
#     4   9  18  34  51  71 104 133 164 209 252 305
#     4   9  20  33  51  80 100 132 167 205 260 303
#
# _framework density 17.610039
#
# number of rings (size 3 to 8) (size 9 to 14) (size 15 to 20)
#    0.000    3.077    1.538    0.923    1.077    5.538 
#    2.769    0.000    0.000    0.000    0.000    0.000 
#    0.000    0.000    0.000    0.000    0.000    0.000 
#
# Total GULP energy -644478.672940 kJ/mol
# GULP energy per Si atom -12393.820633 kJ/mol
# Density = 1.756996 g / cm^3
# Si number density = 17.610039 Si / 1000 Ang^3
#
#
#
# Elastic Constant Matrix: (Units=GPa)
#
#
# Indices 1 2 3 4 5 6 
#
# 1 113.6865 62.8668 50.5540 0.0000 0.0000 0.0000
# 2 62.8668 82.7584 46.6329 0.0000 0.0000 0.0000
# 3 50.5540 46.6329 85.9189 0.0000 0.0000 0.0000
# 4 0.0000 0.0000 0.0000 16.9343 0.0000 0.0000
# 5 0.0000 0.0000 0.0000 0.0000 23.1404 0.0000
# 6 0.0000 0.0000 0.0000 0.0000 0.0000 22.6983
#
#
#
# Elastic Compliance Matrix: (Units=1/GPa)
#
#
# Indices 1 2 3 4 5 6 
#
# 1 0.016105 -0.009932 -0.004085 0.000000 0.000000 0.000000
# 2 -0.009932 0.023532 -0.006928 0.000000 0.000000 0.000000
# 3 -0.004085 -0.006928 0.017803 0.000000 0.000000 0.000000
# 4 0.000000 0.000000 0.000000 0.059052 0.000000 0.000000
# 5 0.000000 0.000000 0.000000 0.000000 0.043215 0.000000
# 6 0.000000 0.000000 0.000000 0.000000 0.000000 0.044056
#
#
# Mechanical properties :
#
#
# Convention : Reuss Voigt Hill
#
# Bulk Modulus (GPa) = 64.31354 66.94123 65.62738
# Shear Modulus (GPa) = 19.93325 20.70860 20.32093
#
# Velocity S-wave (km/s) = 3.36806 3.43294 3.40065
# Velocity P-wave (km/s) = 7.19203 7.33547 7.26410
#
# Compressibility (1/GPa) = 0.01554883
#
# Stress axis : x y z
#
# Youngs Moduli (GPa) = 62.09215 42.49514 56.17016
#
# Poissons Ratio (x) = 0.42206 0.22948
# Poissons Ratio (y) = 0.61670 0.38916
# Poissons Ratio (z) = 0.25367 0.29442
#
# Static dielectric constant tensor:
#      x y z
#    x 3.441670 0.000000 0.000000 
#    y 0.000000 3.164670 0.000000 
#    z 0.000000 0.000000 3.182070 
# 
# 
# High freq. dielectric constant tensor:
#      x y z
#    x 1.680490 0.000000 0.000000 
#    y 0.000000 1.645000 0.000000 
#    z 0.000000 0.000000 1.675400 
# 
# From -- ./inp_files/19772.got.cif
#   From: 2010.06.25/outbox.cif.g09.slc.cpg/sg52_10_cif.got.tgz:19772.got - 2010.06.26 19:32:48.
