data_PCOD8215705
_publ_section_title
;
Structure prediction by ZEFSAII (Michael W. Deem and Ramdas Pophale) SiO2 
 PCOD8215705
Probable space group: P N N A
;
_chemical_formula_sum "Si O2"
_cell_formula_units_Z 52
_cell_length_a 8.688875
_cell_length_b 24.266416
_cell_length_c 13.929777
_cell_angle_alpha 90.000000
_cell_angle_beta 90.000000
_cell_angle_gamma 90.000000
_cell_volume 2937.063606
_symmetry_space_group_name_H-M "P N N A"
_symmetry_group_IT_number 52
_symmetry_cell_setting 'orthorhombic'
loop_
_space_group_symop_operation_xyz
x,y,z
1/2-x,-y,z
x,1/2-y,1/2-z
1/2-x,1/2+y,1/2-z
-x,-y,-z
1/2+x,y,-z
-x,1/2+y,1/2+z
1/2+x,1/2-y,1/2+z
loop_
_atom_site_type_symbol
_atom_site_label
_atom_site_fract_x
_atom_site_fract_y
_atom_site_fract_z
Si Si1 0.504785 0.577015 0.537319
Si Si2 0.504548 0.319383 0.784484
Si Si3 0.750000 0.000000 0.877567
Si Si4 0.250000 0.500000 0.624835
Si Si5 0.496366 0.699020 0.592900
Si Si6 0.149151 0.763582 0.897481
Si Si7 0.786104 0.250000 0.750000
Si Si8 0.504242 0.572410 0.316585
O O1 0.670257 0.548951 0.558805
O O2 0.377219 0.530048 0.557589
O O3 0.478923 0.632663 0.598390
O O4 0.497618 0.595749 0.426046
O O5 0.393791 0.300675 0.873028
O O6 0.432627 0.298413 0.684991
O O7 0.675744 0.294885 0.801812
O O8 0.514839 0.384747 0.770453
O O9 0.628895 0.027286 0.805065
O O10 0.329974 0.456326 0.695407
O O11 0.331613 0.727929 0.603313
O O12 0.578818 0.718413 0.497138
O O13 0.606533 0.717315 0.677711
#
# Coordination Sequence:
#
# PCOD8215705 Si02
#       8
#     8   8   4   4   8   8   4   8
#     4  11  20  30  50  69 105 146 172 214 249 317
#     4  10  20  36  53  72 105 139 183 218 265 298
#     4  10  21  30  44  76 106 137 184 207 250 312
#     4  10  21  30  44  76 106 137 184 207 250 312
#     4  12  22  35  54  75 107 142 182 215 281 300
#     4  10  21  35  51  74 100 139 183 222 251 326
#     4  10  22  34  50  78 102 134 184 230 252 336
#     4  11  18  32  48  71 105 140 173 212 253 311
#
# _framework density 17.704758000000002
#
# number of rings (size 3 to 8) (size 9 to 14) (size 15 to 20)
#    0.000    1.538    1.538    8.308    2.154    0.000 
#    0.000    0.000    0.000    0.000    0.000    0.000 
#    0.000   41.846    0.000    0.000    0.000    0.000 
#
# Total GULP energy -644420.466712 kJ/mol
# GULP energy per Si atom -12392.701283 kJ/mol
# Density = 1.766446 g / cm^3
# Si number density = 17.704758 Si / 1000 Ang^3
#
#
#
# Elastic Constant Matrix: (Units=GPa)
#
#
# Indices 1 2 3 4 5 6 
#
# 1 118.8261 33.9180 19.7660 0.0000 0.0000 0.0000
# 2 33.9180 99.3771 28.2121 0.0000 0.0000 0.0000
# 3 19.7660 28.2121 34.4390 0.0000 0.0000 0.0000
# 4 0.0000 0.0000 0.0000 34.0631 0.0000 0.0000
# 5 0.0000 0.0000 0.0000 0.0000 22.4415 0.0000
# 6 0.0000 0.0000 0.0000 0.0000 0.0000 22.7907
#
#
#
# Elastic Compliance Matrix: (Units=1/GPa)
#
#
# Indices 1 2 3 4 5 6 
#
# 1 0.009675 -0.002249 -0.003711 0.000000 0.000000 0.000000
# 2 -0.002249 0.013635 -0.009879 0.000000 0.000000 0.000000
# 3 -0.003711 -0.009879 0.039259 0.000000 0.000000 0.000000
# 4 0.000000 0.000000 0.000000 0.029357 0.000000 0.000000
# 5 0.000000 0.000000 0.000000 0.000000 0.044560 0.000000
# 6 0.000000 0.000000 0.000000 0.000000 0.000000 0.043878
#
#
# Mechanical properties :
#
#
# Convention : Reuss Voigt Hill
#
# Bulk Modulus (GPa) = 32.37045 46.27049 39.32047
# Shear Modulus (GPa) = 22.48835 27.24213 24.86524
#
# Velocity S-wave (km/s) = 3.56783 3.92687 3.75165
# Velocity P-wave (km/s) = 5.94102 6.83752 6.40497
#
# Compressibility (1/GPa) = 0.03089237
#
# Stress axis : x y z
#
# Youngs Moduli (GPa) = 103.36169 73.34267 25.47176
#
# Poissons Ratio (x) = 0.16492 0.09452
# Poissons Ratio (y) = 0.23242 0.25163
# Poissons Ratio (z) = 0.38354 0.72454
#
# Static dielectric constant tensor:
#      x y z
#    x 3.665960 0.000000 0.000000 
#    y 0.000000 3.607180 0.000000 
#    z 0.000000 0.000000 3.028820 
# 
# 
# High freq. dielectric constant tensor:
#      x y z
#    x 1.714250 0.000000 0.000000 
#    y 0.000000 1.682290 0.000000 
#    z 0.000000 0.000000 1.626830 
# 
# From -- ./inp_files/25075.got.cif
#   From: 2010.06.25/outbox.cif.g09.slc.cpg/sg52_13_cif.got.tgz:25075.got - 2010.06.26 19:32:48.
