data_PCOD8215208
_publ_section_title
;
Structure prediction by ZEFSAII (Michael W. Deem and Ramdas Pophale) SiO2 
 PCOD8215208
Probable space group: P N N A
;
_chemical_formula_sum "Si O2"
_cell_formula_units_Z 64
_cell_length_a 17.599065
_cell_length_b 20.529982
_cell_length_c 9.232238
_cell_angle_alpha 90.000000
_cell_angle_beta 90.000000
_cell_angle_gamma 90.000000
_cell_volume 3335.685950
_symmetry_space_group_name_H-M "P N N A"
_symmetry_group_IT_number 52
_symmetry_cell_setting 'orthorhombic'
loop_
_space_group_symop_operation_xyz
x,y,z
1/2-x,-y,z
x,1/2-y,1/2-z
1/2-x,1/2+y,1/2-z
-x,-y,-z
1/2+x,y,-z
-x,1/2+y,1/2+z
1/2+x,1/2-y,1/2+z
loop_
_atom_site_type_symbol
_atom_site_label
_atom_site_fract_x
_atom_site_fract_y
_atom_site_fract_z
Si Si1 0.770328 0.689046 0.357797
Si Si2 0.905609 0.368537 0.021861
Si Si3 0.588621 0.125010 0.030350
Si Si4 0.990265 0.319420 0.285959
Si Si5 0.439668 0.381852 0.295694
Si Si6 0.305304 0.061771 0.735783
Si Si7 0.409495 0.485503 0.511284
Si Si8 0.869552 0.278788 0.516817
O O1 0.766535 0.750000 0.250000
O O2 0.854791 0.681677 0.421099
O O3 0.746614 0.622270 0.281333
O O4 0.717898 0.701906 0.497062
O O5 0.972075 0.359371 0.140296
O O6 0.842058 0.418287 0.081525
O O7 0.872252 0.298673 0.977804
O O8 0.939066 0.397961 0.874115
O O9 0.527331 0.117630 0.157924
O O10 0.631805 0.055901 0.004088
O O11 0.549608 0.140148 0.878181
O O12 0.028278 0.250000 0.250000
O O13 0.912934 0.306778 0.375285
O O14 0.390616 0.437747 0.377851
O O15 0.403308 0.311532 0.337651
O O16 0.376749 0.049391 0.844528
O O17 0.250000 0.000000 0.717393
O O18 0.500000 0.500000 0.500000
#
# Coordination Sequence:
#
# PCOD8215208 Si02
#       8
#     8   8   8   8   8   8   8   8
#     4  12  21  37  65  92 120 157 206 254 307 362
#     4  11  20  36  63  88 120 154 202 261 305 359
#     4  10  22  38  60  90 119 161 207 249 296 373
#     4   9  18  36  62  84 115 156 204 249 301 355
#     4  10  21  37  62  90 117 155 207 258 302 354
#     4  12  22  39  63  89 121 162 205 250 307 374
#     4  10  20  38  62  86 115 158 213 249 287 366
#     4  10  18  36  61  87 110 156 207 241 292 372
#
# _framework density 19.186457999999998
#
# number of rings (size 3 to 8) (size 9 to 14) (size 15 to 20)
#    0.000    1.500    5.000    2.250    0.000    3.000 
#    0.000    8.750    5.500    0.000    0.000    0.000 
#    0.000    0.000    0.000    0.000    0.000    0.000 
#
# Total GULP energy -793246.388304 kJ/mol
# GULP energy per Si atom -12394.474817 kJ/mol
# Density = 1.914279 g / cm^3
# Si number density = 19.186458 Si / 1000 Ang^3
#
#
#
# Elastic Constant Matrix: (Units=GPa)
#
#
# Indices 1 2 3 4 5 6 
#
# 1 80.7920 39.9596 43.2934 0.0000 0.0000 0.0000
# 2 39.9596 118.5595 42.4877 0.0000 0.0000 0.0000
# 3 43.2934 42.4877 135.9015 0.0000 0.0000 0.0000
# 4 0.0000 0.0000 0.0000 23.6690 0.0000 0.0000
# 5 0.0000 0.0000 0.0000 0.0000 11.4043 0.0000
# 6 0.0000 0.0000 0.0000 0.0000 0.0000 27.5738
#
#
#
# Elastic Compliance Matrix: (Units=1/GPa)
#
#
# Indices 1 2 3 4 5 6 
#
# 1 0.016565 -0.004158 -0.003977 0.000000 0.000000 0.000000
# 2 -0.004158 0.010542 -0.001971 0.000000 0.000000 0.000000
# 3 -0.003977 -0.001971 0.009242 0.000000 0.000000 0.000000
# 4 0.000000 0.000000 0.000000 0.042249 0.000000 0.000000
# 5 0.000000 0.000000 0.000000 0.000000 0.087687 0.000000
# 6 0.000000 0.000000 0.000000 0.000000 0.000000 0.036266
#
#
# Mechanical properties :
#
#
# Convention : Reuss Voigt Hill
#
# Bulk Modulus (GPa) = 61.97209 65.19272 63.58241
# Shear Modulus (GPa) = 21.91608 26.49690 24.20649
#
# Velocity S-wave (km/s) = 3.38341 3.72024 3.55582
# Velocity P-wave (km/s) = 6.90169 7.24609 7.07599
#
# Compressibility (1/GPa) = 0.01613630
#
# Stress axis : x y z
#
# Youngs Moduli (GPa) = 60.36767 94.85462 108.20653
#
# Poissons Ratio (x) = 0.39439 0.43036
# Poissons Ratio (y) = 0.25100 0.21332
# Poissons Ratio (z) = 0.24009 0.18700
#
# Static dielectric constant tensor:
#      x y z
#    x 3.357070 0.000000 0.000000 
#    y 0.000000 3.953280 0.000000 
#    z 0.000000 0.000000 3.444740 
# 
# 
# High freq. dielectric constant tensor:
#      x y z
#    x 1.721930 0.000000 0.000000 
#    y 0.000000 1.766480 0.000000 
#    z 0.000000 0.000000 1.731110 
# 
# From -- ./inp_files/12656.got.cif
#   From: 2010.06.25/outbox.cif.g09.slc.cpg/sg52_7_cif.got.tgz:12656.got - 2010.06.26 19:32:48.
