data_PCOD8215403
_publ_section_title
;
Structure prediction by ZEFSAII (Michael W. Deem and Ramdas Pophale) SiO2 
 PCOD8215403
Probable space group: P N N A
;
_chemical_formula_sum "Si O2"
_cell_formula_units_Z 56
_cell_length_a 13.953990
_cell_length_b 9.102792
_cell_length_c 22.599400
_cell_angle_alpha 90.000000
_cell_angle_beta 90.000000
_cell_angle_gamma 90.000000
_cell_volume 2870.581857
_symmetry_space_group_name_H-M "P N N A"
_symmetry_group_IT_number 52
_symmetry_cell_setting 'orthorhombic'
loop_
_space_group_symop_operation_xyz
x,y,z
1/2-x,-y,z
x,1/2-y,1/2-z
1/2-x,1/2+y,1/2-z
-x,-y,-z
1/2+x,y,-z
-x,1/2+y,1/2+z
1/2+x,1/2-y,1/2+z
loop_
_atom_site_type_symbol
_atom_site_label
_atom_site_fract_x
_atom_site_fract_y
_atom_site_fract_z
Si Si1 0.362456 0.854211 0.647230
Si Si2 0.632632 0.662858 0.574674
Si Si3 0.850841 0.675801 0.573947
Si Si4 0.841504 0.180279 0.314553
Si Si5 0.465865 0.653286 0.976816
Si Si6 0.029427 0.833418 0.193827
Si Si7 0.967746 0.826323 0.811633
O O1 0.252918 0.794225 0.645353
O O2 0.400346 0.871834 0.580713
O O3 0.425354 0.733967 0.680673
O O4 0.365905 0.005887 0.684815
O O5 0.740217 0.720088 0.567445
O O6 0.627430 0.492232 0.557670
O O7 0.559633 0.747856 0.532692
O O8 0.604382 0.694239 0.641941
O O9 0.904625 0.776106 0.528151
O O10 0.883760 0.704034 0.641489
O O11 0.822348 0.250000 0.250000
O O12 0.933956 0.264203 0.340781
O O13 0.500000 0.500000 0.000000
O O14 0.074307 0.750000 0.250000
O O15 0.016395 0.004952 0.204766
O O16 0.940780 0.750000 0.750000
#
# Coordination Sequence:
#
# PCOD8215403 Si02
#       7
#     8   8   8   8   8   8   8
#     4  10  22  37  54  83 114 150 195 235 286 350
#     4   9  22  40  59  84 110 148 195 231 281 345
#     4  10  21  41  62  81 114 154 191 237 285 344
#     4  10  20  35  55  80 115 152 189 238 290 346
#     4  11  23  39  61  87 118 151 191 245 298 350
#     4  10  19  35  57  80 112 147 184 234 286 340
#     4  10  21  35  56  85 114 148 191 238 289 345
#
# _framework density 19.508240000000001
#
# number of rings (size 3 to 8) (size 9 to 14) (size 15 to 20)
#    0.000    2.000    0.000    3.429    0.000    8.571 
#    0.000    2.857    0.000    0.000    0.000    0.000 
#    0.000    0.000    0.000    0.000    0.000    0.000 
#
# Total GULP energy -694317.477856 kJ/mol
# GULP energy per Si atom -12398.526390 kJ/mol
# Density = 1.946384 g / cm^3
# Si number density = 19.508240 Si / 1000 Ang^3
#
#
#
# Elastic Constant Matrix: (Units=GPa)
#
#
# Indices 1 2 3 4 5 6 
#
# 1 134.6578 61.0499 45.9495 0.0000 0.0000 0.0000
# 2 61.0499 118.8589 63.0580 0.0000 0.0000 0.0000
# 3 45.9495 63.0580 99.8636 0.0000 0.0000 0.0000
# 4 0.0000 0.0000 0.0000 36.6771 0.0000 0.0000
# 5 0.0000 0.0000 0.0000 0.0000 18.9449 0.0000
# 6 0.0000 0.0000 0.0000 0.0000 0.0000 22.1425
#
#
#
# Elastic Compliance Matrix: (Units=1/GPa)
#
#
# Indices 1 2 3 4 5 6 
#
# 1 0.009947 -0.004032 -0.002031 0.000000 0.000000 0.000000
# 2 -0.004032 0.014286 -0.007165 0.000000 0.000000 0.000000
# 3 -0.002031 -0.007165 0.015473 0.000000 0.000000 0.000000
# 4 0.000000 0.000000 0.000000 0.027265 0.000000 0.000000
# 5 0.000000 0.000000 0.000000 0.000000 0.052785 0.000000
# 6 0.000000 0.000000 0.000000 0.000000 0.000000 0.045162
#
#
# Mechanical properties :
#
#
# Convention : Reuss Voigt Hill
#
# Bulk Modulus (GPa) = 75.47716 77.05501 76.26608
# Shear Modulus (GPa) = 25.53754 27.77441 26.65597
#
# Velocity S-wave (km/s) = 3.62202 3.77732 3.70049
# Velocity P-wave (km/s) = 7.50106 7.65563 7.57874
#
# Compressibility (1/GPa) = 0.01324904
#
# Stress axis : x y z
#
# Youngs Moduli (GPa) = 100.53143 70.00073 64.62934
#
# Poissons Ratio (x) = 0.28221 0.13128
# Poissons Ratio (y) = 0.40530 0.46310
# Poissons Ratio (z) = 0.20420 0.50159
#
# Static dielectric constant tensor:
#      x y z
#    x 3.741120 0.000000 0.000000 
#    y 0.000000 3.740470 0.000000 
#    z 0.000000 0.000000 3.534650 
# 
# 
# High freq. dielectric constant tensor:
#      x y z
#    x 1.767210 0.000000 0.000000 
#    y 0.000000 1.767550 0.000000 
#    z 0.000000 0.000000 1.758080 
# 
# From -- ./inp_files/37321.got.cif
#   From: 2010.06.25/outbox.cif.g09.slc.cpg/sg52_19_cif.got.tgz:37321.got - 2010.06.26 19:32:48.
