data_PCOD8215051
_publ_section_title
;
Structure prediction by ZEFSAII (Michael W. Deem and Ramdas Pophale) SiO2 
 PCOD8215051
Probable space group: P N N A
;
_chemical_formula_sum "Si O2"
_cell_formula_units_Z 64
_cell_length_a 12.462186
_cell_length_b 12.404641
_cell_length_c 22.712404
_cell_angle_alpha 90.000000
_cell_angle_beta 90.000000
_cell_angle_gamma 90.000000
_cell_volume 3511.086537
_symmetry_space_group_name_H-M "P N N A"
_symmetry_group_IT_number 52
_symmetry_cell_setting 'orthorhombic'
loop_
_space_group_symop_operation_xyz
x,y,z
1/2-x,-y,z
x,1/2-y,1/2-z
1/2-x,1/2+y,1/2-z
-x,-y,-z
1/2+x,y,-z
-x,1/2+y,1/2+z
1/2+x,1/2-y,1/2+z
loop_
_atom_site_type_symbol
_atom_site_label
_atom_site_fract_x
_atom_site_fract_y
_atom_site_fract_z
Si Si1 0.962901 0.021094 0.564243
Si Si2 0.338550 0.075085 0.624339
Si Si3 0.991806 0.271494 0.182393
Si Si4 0.342480 0.234515 0.424454
Si Si5 0.749756 0.745354 0.452415
Si Si6 0.532748 0.130610 0.053498
Si Si7 0.311569 0.898170 0.356315
Si Si8 0.547004 0.886360 0.077606
O O1 0.929938 0.143946 0.562714
O O2 0.863516 0.944264 0.583001
O O3 0.000000 0.000000 0.500000
O O4 0.063119 0.001144 0.606564
O O5 0.382530 0.166474 0.667109
O O6 0.279446 0.134223 0.569515
O O7 0.250000 0.000000 0.656243
O O8 0.973855 0.250000 0.250000
O O9 0.095420 0.349226 0.183401
O O10 0.007236 0.171105 0.135854
O O11 0.259205 0.254715 0.477118
O O12 0.420089 0.337118 0.414807
O O13 0.272139 0.199158 0.368345
O O14 0.868388 0.710056 0.431824
O O15 0.666446 0.658905 0.426859
O O16 0.556804 0.014961 0.082610
O O17 0.520256 0.135789 0.982248
O O18 0.250000 0.000000 0.325347
#
# Coordination Sequence:
#
# PCOD8215051 Si02
#       8
#     8   8   8   8   8   8   8   8
#     4  10  18  28  47  75 112 147 168 202 271 347
#     4  10  20  31  50  80 109 134 178 221 275 330
#     4  10  21  41  60  74 102 147 192 232 268 322
#     4  10  19  28  47  76 110 145 174 211 267 335
#     4  10  18  28  48  73 107 144 171 206 265 334
#     4  10  19  32  50  75 111 139 173 220 276 332
#     4   9  20  34  51  78 108 133 173 221 273 322
#     4   9  20  35  50  74 103 140 181 223 268 326
#
# _framework density 18.227976000000002
#
# number of rings (size 3 to 8) (size 9 to 14) (size 15 to 20)
#    0.000    2.250    1.250    1.875    5.250    0.000 
#    0.000    5.625    0.000    0.000    0.000    7.000 
#    0.000    0.000    0.000    0.000    0.000    0.000 
#
# Total GULP energy -792889.336527 kJ/mol
# GULP energy per Si atom -12388.895883 kJ/mol
# Density = 1.818649 g / cm^3
# Si number density = 18.227976 Si / 1000 Ang^3
#
#
#
# Elastic Constant Matrix: (Units=GPa)
#
#
# Indices 1 2 3 4 5 6 
#
# 1 92.8299 34.6020 14.7979 0.0000 0.0000 0.0000
# 2 34.6020 78.5170 17.2782 0.0000 0.0000 0.0000
# 3 14.7979 17.2782 61.0864 0.0000 0.0000 0.0000
# 4 0.0000 0.0000 0.0000 14.7992 0.0000 0.0000
# 5 0.0000 0.0000 0.0000 0.0000 10.9744 0.0000
# 6 0.0000 0.0000 0.0000 0.0000 0.0000 33.0210
#
#
#
# Elastic Compliance Matrix: (Units=1/GPa)
#
#
# Indices 1 2 3 4 5 6 
#
# 1 0.013041 -0.005387 -0.001635 0.000000 0.000000 0.000000
# 2 -0.005387 0.015807 -0.003166 0.000000 0.000000 0.000000
# 3 -0.001635 -0.003166 0.017662 0.000000 0.000000 0.000000
# 4 0.000000 0.000000 0.000000 0.067571 0.000000 0.000000
# 5 0.000000 0.000000 0.000000 0.000000 0.091121 0.000000
# 6 0.000000 0.000000 0.000000 0.000000 0.000000 0.030284
#
#
# Mechanical properties :
#
#
# Convention : Reuss Voigt Hill
#
# Bulk Modulus (GPa) = 38.26606 40.64328 39.45467
# Shear Modulus (GPa) = 18.89829 22.80925 20.85377
#
# Velocity S-wave (km/s) = 3.22339 3.54126 3.38605
# Velocity P-wave (km/s) = 5.90697 6.25030 6.08106
#
# Compressibility (1/GPa) = 0.02613282
#
# Stress axis : x y z
#
# Youngs Moduli (GPa) = 76.68013 63.26335 56.61904
#
# Poissons Ratio (x) = 0.34082 0.09259
# Poissons Ratio (y) = 0.41310 0.17925
# Poissons Ratio (z) = 0.12540 0.20029
#
# Static dielectric constant tensor:
#      x y z
#    x 3.684750 0.000000 0.000000 
#    y 0.000000 3.525460 0.000000 
#    z 0.000000 0.000000 2.966660 
# 
# 
# High freq. dielectric constant tensor:
#      x y z
#    x 1.724580 0.000000 0.000000 
#    y 0.000000 1.713300 0.000000 
#    z 0.000000 0.000000 1.642450 
# 
# From -- ./inp_files/40322.got.cif
#   From: 2010.06.25/outbox.cif.g09.slc.cpg/sg52_21_cif.got.tgz:40322.got - 2010.06.26 19:32:48.
