data_PCOD8215209
_publ_section_title
;
Structure prediction by ZEFSAII (Michael W. Deem and Ramdas Pophale) SiO2 
 PCOD8215209
Probable space group: P N N A
;
_chemical_formula_sum "Si O2"
_cell_formula_units_Z 40
_cell_length_a 19.669586
_cell_length_b 8.153100
_cell_length_c 10.614328
_cell_angle_alpha 90.000000
_cell_angle_beta 90.000000
_cell_angle_gamma 90.000000
_cell_volume 1702.199631
_symmetry_space_group_name_H-M "P N N A"
_symmetry_group_IT_number 52
_symmetry_cell_setting 'orthorhombic'
loop_
_space_group_symop_operation_xyz
x,y,z
1/2-x,-y,z
x,1/2-y,1/2-z
1/2-x,1/2+y,1/2-z
-x,-y,-z
1/2+x,y,-z
-x,1/2+y,1/2+z
1/2+x,1/2-y,1/2+z
loop_
_atom_site_type_symbol
_atom_site_label
_atom_site_fract_x
_atom_site_fract_y
_atom_site_fract_z
Si Si1 0.828668 0.020504 0.297531
Si Si2 0.544052 0.782283 0.602536
Si Si3 0.728840 0.189891 0.613269
Si Si4 0.091804 0.368393 0.005195
Si Si5 0.840314 0.162690 0.049537
O O1 0.838367 0.007204 0.145188
O O2 0.855449 0.188914 0.355968
O O3 0.750000 0.000000 0.332908
O O4 0.873631 0.885003 0.367218
O O5 0.531697 0.750000 0.750000
O O6 0.475073 0.759747 0.520509
O O7 0.598422 0.649062 0.551309
O O8 0.572940 0.964450 0.578825
O O9 0.750120 0.250000 0.750000
O O10 0.648262 0.219570 0.592577
O O11 0.768738 0.310675 0.519587
O O12 0.750000 0.000000 0.591589
#
# Coordination Sequence:
#
# PCOD8215209 Si02
#       5
#     8   8   8   8   8
#     4  10  18  36  62  88 122 159 205 256 304 372
#     4  10  21  40  61  83 123 165 201 255 313 362
#     4  12  23  42  66  93 128 164 209 262 313 373
#     4  10  21  41  61  87 120 165 208 251 309 376
#     4  10  20  36  61  90 122 160 201 250 318 366
#
# _framework density 23.499006999999999
#
# number of rings (size 3 to 8) (size 9 to 14) (size 15 to 20)
#    0.000    1.600    6.000    0.600    0.000    2.400 
#   10.800    1.000    0.000    0.000    0.000    0.000 
#    0.000    0.000    0.000    0.000    0.000    0.000 
#
# Total GULP energy -495687.285966 kJ/mol
# GULP energy per Si atom -12392.182149 kJ/mol
# Density = 2.344552 g / cm^3
# Si number density = 23.499007 Si / 1000 Ang^3
#
#
#
# Elastic Constant Matrix: (Units=GPa)
#
#
# Indices 1 2 3 4 5 6 
#
# 1 147.4289 9.4177 25.9810 0.0000 0.0000 0.0000
# 2 9.4177 20.4242 21.4445 0.0000 0.0000 0.0000
# 3 25.9810 21.4445 134.5516 0.0000 0.0000 0.0000
# 4 0.0000 0.0000 0.0000 23.4511 0.0000 0.0000
# 5 0.0000 0.0000 0.0000 0.0000 27.5257 0.0000
# 6 0.0000 0.0000 0.0000 0.0000 0.0000 4.6217
#
#
#
# Elastic Compliance Matrix: (Units=1/GPa)
#
#
# Indices 1 2 3 4 5 6 
#
# 1 0.007104 -0.002204 -0.001020 0.000000 0.000000 0.000000
# 2 -0.002204 0.059485 -0.009055 0.000000 0.000000 0.000000
# 3 -0.001020 -0.009055 0.009072 0.000000 0.000000 0.000000
# 4 0.000000 0.000000 0.000000 0.042642 0.000000 0.000000
# 5 0.000000 0.000000 0.000000 0.000000 0.036330 0.000000
# 6 0.000000 0.000000 0.000000 0.000000 0.000000 0.216373
#
#
# Mechanical properties :
#
#
# Convention : Reuss Voigt Hill
#
# Bulk Modulus (GPa) = 19.56872 46.23234 32.90053
# Shear Modulus (GPa) = 12.11832 27.49047 19.80440
#
# Velocity S-wave (km/s) = 2.27336 3.42403 2.90621
# Velocity P-wave (km/s) = 3.90338 5.94549 5.02918
#
# Compressibility (1/GPa) = 0.05110197
#
# Stress axis : x y z
#
# Youngs Moduli (GPa) = 140.77475 16.81092 110.22599
#
# Poissons Ratio (x) = 0.03705 0.11247
# Poissons Ratio (y) = 0.31029 0.99809
# Poissons Ratio (z) = 0.14364 0.15222
#
# Static dielectric constant tensor:
#      x y z
#    x 4.480140 0.000000 0.000000 
#    y 0.000000 3.655810 0.000000 
#    z 0.000000 0.000000 4.728870 
# 
# 
# High freq. dielectric constant tensor:
#      x y z
#    x 1.936170 0.000000 0.000000 
#    y 0.000000 1.883390 0.000000 
#    z 0.000000 0.000000 1.944930 
# 
# From -- ./inp_files/13150.got.cif
#   From: 2010.06.25/outbox.cif.g09.slc.cpg/sg52_7_cif.got.tgz:13150.got - 2010.06.26 19:32:48.
