data_PCOD8215159
_publ_section_title
;
Structure prediction by ZEFSAII (Michael W. Deem and Ramdas Pophale) SiO2 
 PCOD8215159
Probable space group: P N N A
;
_chemical_formula_sum "Si O2"
_cell_formula_units_Z 64
_cell_length_a 12.835362
_cell_length_b 8.852094
_cell_length_c 27.620595
_cell_angle_alpha 90.000000
_cell_angle_beta 90.000000
_cell_angle_gamma 90.000000
_cell_volume 3138.247335
_symmetry_space_group_name_H-M "P N N A"
_symmetry_group_IT_number 52
_symmetry_cell_setting 'orthorhombic'
loop_
_space_group_symop_operation_xyz
x,y,z
1/2-x,-y,z
x,1/2-y,1/2-z
1/2-x,1/2+y,1/2-z
-x,-y,-z
1/2+x,y,-z
-x,1/2+y,1/2+z
1/2+x,1/2-y,1/2+z
loop_
_atom_site_type_symbol
_atom_site_label
_atom_site_fract_x
_atom_site_fract_y
_atom_site_fract_z
Si Si1 0.365315 0.204219 0.876176
Si Si2 0.963577 0.887863 0.218902
Si Si3 0.754210 0.320520 0.597376
Si Si4 0.660565 0.615716 0.217730
Si Si5 0.687085 0.853920 0.797175
Si Si6 0.365084 0.848747 0.872741
Si Si7 0.532503 0.673884 0.552732
Si Si8 0.962058 0.686281 0.551168
O O1 0.389556 0.310009 0.830097
O O2 0.244404 0.213093 0.892794
O O3 0.443750 0.257893 0.917699
O O4 0.383482 0.028339 0.866662
O O5 0.002246 0.750000 0.250000
O O6 0.876557 0.809691 0.183939
O O7 0.071212 0.921433 0.190207
O O8 0.926691 0.031616 0.250093
O O9 0.750000 0.500000 0.595821
O O10 0.768650 0.271678 0.653780
O O11 0.852249 0.262838 0.564976
O O12 0.648342 0.254612 0.572898
O O13 0.750000 0.500000 0.202119
O O14 0.709763 0.750000 0.250000
O O15 0.696257 0.750000 0.750000
O O16 0.750000 0.000000 0.782903
O O17 0.452769 0.773019 0.905701
O O18 0.535035 0.493720 0.550594
O O19 0.485591 0.743242 0.503234
#
# Coordination Sequence:
#
# PCOD8215159 Si02
#       8
#     8   8   8   8   8   8   8   8
#     4  10  21  32  50  81 112 146 185 230 286 347
#     4  11  22  37  55  81 114 151 197 238 286 347
#     4   9  17  31  51  74 111 146 186 230 283 344
#     4  12  23  36  57  83 114 156 192 237 291 349
#     4  10  22  37  55  81 114 153 196 237 285 348
#     4  10  18  34  51  76 114 147 184 231 286 349
#     4   9  17  30  50  75 107 150 180 230 296 335
#     4   9  19  30  48  78 112 143 187 232 288 354
#
# _framework density 20.393549
#
# number of rings (size 3 to 8) (size 9 to 14) (size 15 to 20)
#    0.000    2.000    2.500    1.875    3.500    1.500 
#    0.000    0.000    0.000    0.000    0.000    4.375 
#    0.000    0.000    0.000    0.000    0.000    0.000 
#
# Total GULP energy -792867.018110 kJ/mol
# GULP energy per Si atom -12388.547158 kJ/mol
# Density = 2.034713 g / cm^3
# Si number density = 20.393549 Si / 1000 Ang^3
#
#
#
# Elastic Constant Matrix: (Units=GPa)
#
#
# Indices 1 2 3 4 5 6 
#
# 1 168.8146 22.1539 84.0542 0.0000 0.0000 0.0000
# 2 22.1539 37.3646 26.0707 0.0000 0.0000 0.0000
# 3 84.0542 26.0707 163.4876 0.0000 0.0000 0.0000
# 4 0.0000 0.0000 0.0000 15.1785 0.0000 0.0000
# 5 0.0000 0.0000 0.0000 0.0000 38.4533 0.0000
# 6 0.0000 0.0000 0.0000 0.0000 0.0000 11.4631
#
#
#
# Elastic Compliance Matrix: (Units=1/GPa)
#
#
# Indices 1 2 3 4 5 6 
#
# 1 0.008111 -0.002137 -0.003829 0.000000 0.000000 0.000000
# 2 -0.002137 0.030677 -0.003793 0.000000 0.000000 0.000000
# 3 -0.003829 -0.003793 0.008690 0.000000 0.000000 0.000000
# 4 0.000000 0.000000 0.000000 0.065883 0.000000 0.000000
# 5 0.000000 0.000000 0.000000 0.000000 0.026006 0.000000
# 6 0.000000 0.000000 0.000000 0.000000 0.000000 0.087237
#
#
# Mechanical properties :
#
#
# Convention : Reuss Voigt Hill
#
# Bulk Modulus (GPa) = 35.76663 70.46940 53.11802
# Shear Modulus (GPa) = 19.57394 28.84483 24.20939
#
# Velocity S-wave (km/s) = 3.10144 3.76494 3.44918
# Velocity P-wave (km/s) = 5.51376 7.31639 6.47808
#
# Compressibility (1/GPa) = 0.02795902
#
# Stress axis : x y z
#
# Youngs Moduli (GPa) = 123.29396 32.59762 115.07148
#
# Poissons Ratio (x) = 0.06967 0.44063
# Poissons Ratio (y) = 0.26350 0.43649
# Poissons Ratio (z) = 0.47211 0.12365
#
# Static dielectric constant tensor:
#      x y z
#    x 3.936780 0.000000 0.000000 
#    y 0.000000 3.143660 0.000000 
#    z 0.000000 0.000000 3.907040 
# 
# 
# High freq. dielectric constant tensor:
#      x y z
#    x 1.812560 0.000000 0.000000 
#    y 0.000000 1.734090 0.000000 
#    z 0.000000 0.000000 1.804660 
# 
# From -- ./inp_files/44854.got.cif
#   From: 2010.06.25/outbox.cif.g09.slc.cpg/sg52_23_cif.got.tgz:44854.got - 2010.06.26 19:32:48.
