data_PCOD8215484
_publ_section_title
;
Structure prediction by ZEFSAII (Michael W. Deem and Ramdas Pophale) SiO2 
 PCOD8215484
Probable space group: P N N A
;
_chemical_formula_sum "Si O2"
_cell_formula_units_Z 56
_cell_length_a 20.932868
_cell_length_b 7.710394
_cell_length_c 16.260085
_cell_angle_alpha 90.000000
_cell_angle_beta 90.000000
_cell_angle_gamma 90.000000
_cell_volume 2624.388448
_symmetry_space_group_name_H-M "P N N A"
_symmetry_group_IT_number 52
_symmetry_cell_setting 'orthorhombic'
loop_
_space_group_symop_operation_xyz
x,y,z
1/2-x,-y,z
x,1/2-y,1/2-z
1/2-x,1/2+y,1/2-z
-x,-y,-z
1/2+x,y,-z
-x,1/2+y,1/2+z
1/2+x,1/2-y,1/2+z
loop_
_atom_site_type_symbol
_atom_site_label
_atom_site_fract_x
_atom_site_fract_y
_atom_site_fract_z
Si Si1 0.135802 0.463277 0.612865
Si Si2 0.894033 0.895047 0.572269
Si Si3 0.846569 0.334060 0.051556
Si Si4 0.223550 0.321594 0.484620
Si Si5 0.600997 0.936344 0.283357
Si Si6 0.967772 0.378360 0.822529
Si Si7 0.980458 0.816294 0.033511
O O1 0.121827 0.645453 0.565547
O O2 0.198625 0.378561 0.574372
O O3 0.142582 0.475419 0.710921
O O4 0.078298 0.334015 0.596099
O O5 0.830968 0.770005 0.572246
O O6 0.958051 0.793490 0.545362
O O7 0.888184 0.052441 0.508951
O O8 0.912356 0.974013 0.662490
O O9 0.849485 0.428885 0.140381
O O10 0.777363 0.318243 0.008213
O O11 0.250000 0.500000 0.440705
O O12 0.578328 0.750000 0.250000
O O13 0.536477 0.040018 0.303037
O O14 0.945390 0.250000 0.750000
O O15 0.966793 0.275755 0.909798
O O16 0.000000 0.000000 0.000000
#
# Coordination Sequence:
#
# PCOD8215484 Si02
#       7
#     8   8   8   8   8   8   8
#     4   9  19  36  56  86 131 171 207 254 314 372
#     4  11  23  37  61  91 123 165 217 265 320 381
#     4  10  19  37  61  89 121 168 224 261 310 374
#     4   9  20  40  61  87 123 166 222 275 318 370
#     4  10  21  36  58  89 136 179 209 254 315 386
#     4  12  24  39  60  93 134 173 209 260 326 396
#     4  11  22  36  60  89 125 172 208 257 308 383
#
# _framework density 21.338304999999998
#
# number of rings (size 3 to 8) (size 9 to 14) (size 15 to 20)
#    0.000    1.714    2.857    1.714    4.000    0.000 
#    0.000   11.429    0.000    0.000    0.000   22.000 
#    0.000    0.000    0.000    0.000    0.000    0.000 
#
# Total GULP energy -693823.325757 kJ/mol
# GULP energy per Si atom -12389.702246 kJ/mol
# Density = 2.128974 g / cm^3
# Si number density = 21.338305 Si / 1000 Ang^3
#
#
#
# Elastic Constant Matrix: (Units=GPa)
#
#
# Indices 1 2 3 4 5 6 
#
# 1 75.2056 47.1312 36.1693 0.0000 0.0000 0.0000
# 2 47.1312 98.5618 46.5560 0.0000 0.0000 0.0000
# 3 36.1693 46.5560 62.8004 0.0000 0.0000 0.0000
# 4 0.0000 0.0000 0.0000 41.2393 0.0000 0.0000
# 5 0.0000 0.0000 0.0000 0.0000 14.9334 0.0000
# 6 0.0000 0.0000 0.0000 0.0000 0.0000 40.8841
#
#
#
# Elastic Compliance Matrix: (Units=1/GPa)
#
#
# Indices 1 2 3 4 5 6 
#
# 1 0.020864 -0.006619 -0.007110 0.000000 0.000000 0.000000
# 2 -0.006619 0.017713 -0.009319 0.000000 0.000000 0.000000
# 3 -0.007110 -0.009319 0.026927 0.000000 0.000000 0.000000
# 4 0.000000 0.000000 0.000000 0.024249 0.000000 0.000000
# 5 0.000000 0.000000 0.000000 0.000000 0.066964 0.000000
# 6 0.000000 0.000000 0.000000 0.000000 0.000000 0.024459
#
#
# Mechanical properties :
#
#
# Convention : Reuss Voigt Hill
#
# Bulk Modulus (GPa) = 51.52371 55.14231 53.33301
# Shear Modulus (GPa) = 21.39120 26.52546 23.95833
#
# Velocity S-wave (km/s) = 3.16963 3.52957 3.35443
# Velocity P-wave (km/s) = 6.13139 6.51986 6.32861
#
# Compressibility (1/GPa) = 0.01940854
#
# Stress axis : x y z
#
# Youngs Moduli (GPa) = 47.92900 56.45629 37.13746
#
# Poissons Ratio (x) = 0.37366 0.26405
# Poissons Ratio (y) = 0.31722 0.34609
# Poissons Ratio (z) = 0.34077 0.52613
#
# Static dielectric constant tensor:
#      x y z
#    x 3.897890 0.000000 0.000000 
#    y 0.000000 4.375740 0.000000 
#    z 0.000000 0.000000 3.642010 
# 
# 
# High freq. dielectric constant tensor:
#      x y z
#    x 1.819650 0.000000 0.000000 
#    y 0.000000 1.863270 0.000000 
#    z 0.000000 0.000000 1.802730 
# 
# From -- ./inp_files/28765.got.cif
#   From: 2010.06.25/outbox.cif.g09.slc.cpg/sg52_15_cif.got.tgz:28765.got - 2010.06.26 19:32:48.
