data_PCOD8215126
_publ_section_title
;
Structure prediction by ZEFSAII (Michael W. Deem and Ramdas Pophale) SiO2 
 PCOD8215126
Probable space group: P N N A
;
_chemical_formula_sum "Si O2"
_cell_formula_units_Z 48
_cell_length_a 15.952023
_cell_length_b 8.854675
_cell_length_c 18.253030
_cell_angle_alpha 90.000000
_cell_angle_beta 90.000000
_cell_angle_gamma 90.000000
_cell_volume 2578.240109
_symmetry_space_group_name_H-M "P N N A"
_symmetry_group_IT_number 52
_symmetry_cell_setting 'orthorhombic'
loop_
_space_group_symop_operation_xyz
x,y,z
1/2-x,-y,z
x,1/2-y,1/2-z
1/2-x,1/2+y,1/2-z
-x,-y,-z
1/2+x,y,-z
-x,1/2+y,1/2+z
1/2+x,1/2-y,1/2+z
loop_
_atom_site_type_symbol
_atom_site_label
_atom_site_fract_x
_atom_site_fract_y
_atom_site_fract_z
Si Si1 0.750000 0.500000 0.110879
Si Si2 0.911747 0.611964 0.584565
Si Si3 0.590430 0.361530 0.180193
Si Si4 0.975559 0.312174 0.171235
Si Si5 0.643721 0.754464 0.457848
Si Si6 0.995311 0.181012 0.938456
Si Si7 0.750000 0.500000 0.526829
O O1 0.686134 0.412268 0.164876
O O2 0.704644 0.605528 0.052070
O O3 0.954834 0.454166 0.610541
O O4 0.810854 0.596811 0.580492
O O5 0.935202 0.752227 0.638305
O O6 0.943858 0.624455 0.501897
O O7 0.586345 0.250000 0.250000
O O8 0.529562 0.507737 0.182354
O O9 0.556611 0.275645 0.110739
O O10 0.956838 0.250000 0.250000
O O11 0.906347 0.237961 0.118221
O O12 0.579210 0.782012 0.525189
O O13 0.696047 0.603977 0.472785
#
# Coordination Sequence:
#
# PCOD8215126 Si02
#       7
#     4   8   8   8   8   8   4
#     4  10  22  34  49  82 115 142 180 230 282 324
#     4   9  18  33  56  81 106 139 181 225 270 324
#     4  11  23  37  55  79 112 150 185 226 274 327
#     4  10  21  36  54  78 107 145 189 224 266 326
#     4   9  20  34  54  82 110 144 182 224 273 324
#     4   9  18  35  55  78 106 144 186 219 262 324
#     4  10  18  32  57  84 111 140 174 228 282 324
#
# _framework density 18.617349999999998
#
# number of rings (size 3 to 8) (size 9 to 14) (size 15 to 20)
#    0.000    2.333    0.000    3.000    0.000   11.333 
#    0.000    1.667    0.000    8.000    0.000    2.333 
#    0.000    0.000    0.000    0.000    0.000    0.000 
#
# Total GULP energy -594743.742115 kJ/mol
# GULP energy per Si atom -12390.494627 kJ/mol
# Density = 1.857498 g / cm^3
# Si number density = 18.617350 Si / 1000 Ang^3
#
#
#
# Elastic Constant Matrix: (Units=GPa)
#
#
# Indices 1 2 3 4 5 6 
#
# 1 107.5682 54.1143 49.9632 0.0000 0.0000 0.0000
# 2 54.1143 102.8666 49.6814 0.0000 0.0000 0.0000
# 3 49.9632 49.6814 86.4345 0.0000 0.0000 0.0000
# 4 0.0000 0.0000 0.0000 32.5229 0.0000 0.0000
# 5 0.0000 0.0000 0.0000 0.0000 11.6227 0.0000
# 6 0.0000 0.0000 0.0000 0.0000 0.0000 40.5769
#
#
#
# Elastic Compliance Matrix: (Units=1/GPa)
#
#
# Indices 1 2 3 4 5 6 
#
# 1 0.014284 -0.004882 -0.005451 0.000000 0.000000 0.000000
# 2 -0.004882 0.015125 -0.005872 0.000000 0.000000 0.000000
# 3 -0.005451 -0.005872 0.018096 0.000000 0.000000 0.000000
# 4 0.000000 0.000000 0.000000 0.030748 0.000000 0.000000
# 5 0.000000 0.000000 0.000000 0.000000 0.086039 0.000000
# 6 0.000000 0.000000 0.000000 0.000000 0.000000 0.024645
#
#
# Mechanical properties :
#
#
# Convention : Reuss Voigt Hill
#
# Bulk Modulus (GPa) = 66.24411 67.15413 66.69912
# Shear Modulus (GPa) = 22.08704 26.48520 24.28612
#
# Velocity S-wave (km/s) = 3.44811 3.77584 3.61569
# Velocity P-wave (km/s) = 7.17717 7.42686 7.30308
#
# Compressibility (1/GPa) = 0.01509568
#
# Stress axis : x y z
#
# Youngs Moduli (GPa) = 70.00785 66.11387 55.26230
#
# Poissons Ratio (x) = 0.32275 0.30123
# Poissons Ratio (y) = 0.34176 0.32450
# Poissons Ratio (z) = 0.38161 0.38822
#
# Static dielectric constant tensor:
#      x y z
#    x 3.694440 0.000000 0.000000 
#    y 0.000000 2.041570 0.000000 
#    z 0.000000 0.000000 3.208130 
# 
# 
# High freq. dielectric constant tensor:
#      x y z
#    x 1.724150 0.000000 0.000000 
#    y 0.000000 1.728240 0.000000 
#    z 0.000000 0.000000 1.700240 
# 
# From -- ./inp_files/33100.got.cif
#   From: 2010.06.25/outbox.cif.g09.slc.cpg/sg52_17_cif.got.tgz:33100.got - 2010.06.26 19:32:48.
