data_PCOD8215916
_publ_section_title
;
Structure prediction by ZEFSAII (Michael W. Deem and Ramdas Pophale) SiO2 
 PCOD8215916
Probable space group: P N N A
;
_chemical_formula_sum "Si O2"
_cell_formula_units_Z 32
_cell_length_a 15.273284
_cell_length_b 13.779898
_cell_length_c 7.284587
_cell_angle_alpha 90.000000
_cell_angle_beta 90.000000
_cell_angle_gamma 90.000000
_cell_volume 1533.145472
_symmetry_space_group_name_H-M "P N N A"
_symmetry_group_IT_number 52
_symmetry_cell_setting 'orthorhombic'
loop_
_space_group_symop_operation_xyz
x,y,z
1/2-x,-y,z
x,1/2-y,1/2-z
1/2-x,1/2+y,1/2-z
-x,-y,-z
1/2+x,y,-z
-x,1/2+y,1/2+z
1/2+x,1/2-y,1/2+z
loop_
_atom_site_type_symbol
_atom_site_label
_atom_site_fract_x
_atom_site_fract_y
_atom_site_fract_z
Si Si1 0.306947 0.858555 0.824799
Si Si2 0.848580 0.986503 0.510078
Si Si3 0.383609 0.363205 0.735729
Si Si4 0.573407 0.359454 0.676351
O O1 0.305231 0.750000 0.750000
O O2 0.354338 0.920732 0.670643
O O3 0.207161 0.898266 0.861637
O O4 0.362245 0.871549 0.007587
O O5 0.904066 0.938456 0.669914
O O6 0.750000 0.000000 0.582687
O O7 0.888400 0.089982 0.441964
O O8 0.375269 0.250000 0.750000
O O9 0.472554 0.384694 0.621032
O O10 0.581936 0.250000 0.750000
#
# Coordination Sequence:
#
# PCOD8215916 Si02
#       4
#     8   8   8   8
#     4  10  20  39  60  86 126 159 203 260 314 364
#     4  10  21  38  63  89 123 165 201 255 311 368
#     4   9  21  39  61  90 125 164 204 260 312 364
#     4  11  21  38  65  91 120 165 212 250 313 380
#
# _framework density 20.872123999999999
#
# number of rings (size 3 to 8) (size 9 to 14) (size 15 to 20)
#    0.000    2.000    2.500    0.750    0.000    4.000 
#    0.000    6.250    0.000    0.000    0.000    0.000 
#    0.000    0.000    0.000    0.000    0.000    0.000 
#
# Total GULP energy -396504.840763 kJ/mol
# GULP energy per Si atom -12390.776274 kJ/mol
# Density = 2.082462 g / cm^3
# Si number density = 20.872124 Si / 1000 Ang^3
#
#
#
# Elastic Constant Matrix: (Units=GPa)
#
#
# Indices 1 2 3 4 5 6 
#
# 1 169.4447 24.0120 83.2365 0.0000 0.0000 0.0000
# 2 24.0120 95.7058 39.1339 0.0000 0.0000 0.0000
# 3 83.2365 39.1339 116.0189 0.0000 0.0000 0.0000
# 4 0.0000 0.0000 0.0000 34.1427 0.0000 0.0000
# 5 0.0000 0.0000 0.0000 0.0000 64.3709 0.0000
# 6 0.0000 0.0000 0.0000 0.0000 0.0000 2.8017
#
#
#
# Elastic Compliance Matrix: (Units=1/GPa)
#
#
# Indices 1 2 3 4 5 6 
#
# 1 0.009130 0.000450 -0.006702 0.000000 0.000000 0.000000
# 2 0.000450 0.012143 -0.004418 0.000000 0.000000 0.000000
# 3 -0.006702 -0.004418 0.014918 0.000000 0.000000 0.000000
# 4 0.000000 0.000000 0.000000 0.029289 0.000000 0.000000
# 5 0.000000 0.000000 0.000000 0.000000 0.015535 0.000000
# 6 0.000000 0.000000 0.000000 0.000000 0.000000 0.356931
#
#
# Mechanical properties :
#
#
# Convention : Reuss Voigt Hill
#
# Bulk Modulus (GPa) = 67.34360 74.88158 71.11259
# Shear Modulus (GPa) = 10.77038 35.91552 23.34295
#
# Velocity S-wave (km/s) = 2.27407 4.15268 3.34785
# Velocity P-wave (km/s) = 6.26339 7.67771 7.00633
#
# Compressibility (1/GPa) = 0.01484922
#
# Stress axis : x y z
#
# Youngs Moduli (GPa) = 109.52740 82.35518 67.03337
#
# Poissons Ratio (x) = -0.03704 0.44926
# Poissons Ratio (y) = -0.04926 0.29618
# Poissons Ratio (z) = 0.73406 0.36388
#
# Static dielectric constant tensor:
#      x y z
#    x 4.439020 0.000000 0.000000 
#    y 0.000000 3.680120 0.000000 
#    z 0.000000 0.000000 3.304520 
# 
# 
# High freq. dielectric constant tensor:
#      x y z
#    x 1.838050 0.000000 0.000000 
#    y 0.000000 1.838870 0.000000 
#    z 0.000000 0.000000 1.776470 
# 
# From -- ./inp_files/2975.got.cif
#   From: 2010.06.25/outbox.cif.g09.slc.cpg/sg52_2_cif.got.tgz:2975.got - 2010.06.26 19:32:48.
