data_PCOD8215981
_publ_section_title
;
Structure prediction by ZEFSAII (Michael W. Deem and Ramdas Pophale) SiO2 
 PCOD8215981
Probable space group: P N N A
;
_chemical_formula_sum "Si O2"
_cell_formula_units_Z 60
_cell_length_a 12.646947
_cell_length_b 8.892435
_cell_length_c 25.340258
_cell_angle_alpha 90.000000
_cell_angle_beta 90.000000
_cell_angle_gamma 90.000000
_cell_volume 2849.820001
_symmetry_space_group_name_H-M "P N N A"
_symmetry_group_IT_number 52
_symmetry_cell_setting 'orthorhombic'
loop_
_space_group_symop_operation_xyz
x,y,z
1/2-x,-y,z
x,1/2-y,1/2-z
1/2-x,1/2+y,1/2-z
-x,-y,-z
1/2+x,y,-z
-x,1/2+y,1/2+z
1/2+x,1/2-y,1/2+z
loop_
_atom_site_type_symbol
_atom_site_label
_atom_site_fract_x
_atom_site_fract_y
_atom_site_fract_z
Si Si1 0.055212 0.175714 0.196125
Si Si2 0.202993 0.168985 0.805500
Si Si3 0.538408 0.833807 0.804621
Si Si4 0.771327 0.766795 0.520960
Si Si5 0.369915 0.236555 0.884634
Si Si6 0.244492 0.677858 0.364077
Si Si7 0.750000 0.000000 0.047399
Si Si8 0.890194 0.448672 0.021330
O O1 0.014146 0.250000 0.250000
O O2 0.172442 0.232700 0.180324
O O3 0.974884 0.203249 0.148387
O O4 0.066909 0.002537 0.209201
O O5 0.211779 0.250000 0.750000
O O6 0.271169 0.268009 0.846085
O O7 0.081835 0.173915 0.826316
O O8 0.250000 0.000000 0.801875
O O9 0.551357 0.750000 0.750000
O O10 0.625222 0.773060 0.847234
O O11 0.788074 0.760434 0.583372
O O12 0.809665 0.616188 0.491550
O O13 0.646538 0.803163 0.512998
O O14 0.820371 0.903368 0.487621
O O15 0.338260 0.086746 0.918042
O O16 0.391524 0.388259 0.918181
O O17 0.250000 0.500000 0.374718
O O18 0.000000 0.500000 0.000000
#
# Coordination Sequence:
#
# PCOD8215981 Si02
#       8
#     8   8   8   8   8   8   4   8
#     4  11  22  40  65  92 130 170 218 266 319 397
#     4  11  22  42  64  94 132 167 216 269 329 395
#     4  10  22  41  60  94 130 166 216 270 321 393
#     4  10  21  44  64  91 130 164 220 274 319 395
#     4  11  21  41  65  93 130 170 216 264 337 393
#     4  10  21  41  65  91 126 172 220 265 329 382
#     4  10  20  40  66  94 128 166 216 270 326 394
#     4  10  23  44  60  92 133 166 215 268 324 393
#
# _framework density 21.05396
#
# number of rings (size 3 to 8) (size 9 to 14) (size 15 to 20)
#    0.000    1.600    2.667    1.600    0.000    0.000 
#   24.000    2.000    0.000    0.000    0.000    0.000 
#    0.000    0.000    0.000    0.000    0.000    0.000 
#
# Total GULP energy -743361.710526 kJ/mol
# GULP energy per Si atom -12389.361842 kJ/mol
# Density = 2.100604 g / cm^3
# Si number density = 21.053960 Si / 1000 Ang^3
#
#
#
# Elastic Constant Matrix: (Units=GPa)
#
#
# Indices 1 2 3 4 5 6 
#
# 1 153.0213 43.1503 65.5625 0.0000 0.0000 0.0000
# 2 43.1503 92.9997 59.6033 0.0000 0.0000 0.0000
# 3 65.5625 59.6033 135.3312 0.0000 0.0000 0.0000
# 4 0.0000 0.0000 0.0000 37.9352 0.0000 0.0000
# 5 0.0000 0.0000 0.0000 0.0000 23.9915 0.0000
# 6 0.0000 0.0000 0.0000 0.0000 0.0000 19.7043
#
#
#
# Elastic Compliance Matrix: (Units=1/GPa)
#
#
# Indices 1 2 3 4 5 6 
#
# 1 0.008460 -0.001809 -0.003302 0.000000 0.000000 0.000000
# 2 -0.001809 0.015368 -0.005892 0.000000 0.000000 0.000000
# 3 -0.003302 -0.005892 0.011584 0.000000 0.000000 0.000000
# 4 0.000000 0.000000 0.000000 0.026361 0.000000 0.000000
# 5 0.000000 0.000000 0.000000 0.000000 0.041681 0.000000
# 6 0.000000 0.000000 0.000000 0.000000 0.000000 0.050750
#
#
# Mechanical properties :
#
#
# Convention : Reuss Voigt Hill
#
# Bulk Modulus (GPa) = 74.59288 79.77605 77.18447
# Shear Modulus (GPa) = 27.67336 30.52861 29.10099
#
# Velocity S-wave (km/s) = 3.62940 3.81204 3.72184
# Velocity P-wave (km/s) = 7.28490 7.57291 7.43030
#
# Compressibility (1/GPa) = 0.01340611
#
# Stress axis : x y z
#
# Youngs Moduli (GPa) = 118.20610 65.06843 86.32717
#
# Poissons Ratio (x) = 0.11772 0.28502
# Poissons Ratio (y) = 0.21386 0.50865
# Poissons Ratio (z) = 0.39027 0.38339
#
# Static dielectric constant tensor:
#      x y z
#    x 3.739540 0.000000 0.000000 
#    y 0.000000 3.827140 0.000000 
#    z 0.000000 0.000000 3.872680 
# 
# 
# High freq. dielectric constant tensor:
#      x y z
#    x 1.830200 0.000000 0.000000 
#    y 0.000000 1.818990 0.000000 
#    z 0.000000 0.000000 1.829210 
# 
# From -- ./inp_files/42784.got.cif
#   From: 2010.06.25/outbox.cif.g09.slc.cpg/sg52_22_cif.got.tgz:42784.got - 2010.06.26 19:32:48.
