data_PCOD8215540
_publ_section_title
;
Structure prediction by ZEFSAII (Michael W. Deem and Ramdas Pophale) SiO2 
 PCOD8215540
Probable space group: P N N A
;
_chemical_formula_sum "Si O2"
_cell_formula_units_Z 40
_cell_length_a 17.548153
_cell_length_b 9.814805
_cell_length_c 11.535600
_cell_angle_alpha 90.000000
_cell_angle_beta 90.000000
_cell_angle_gamma 90.000000
_cell_volume 1986.795996
_symmetry_space_group_name_H-M "P N N A"
_symmetry_group_IT_number 52
_symmetry_cell_setting 'orthorhombic'
loop_
_space_group_symop_operation_xyz
x,y,z
1/2-x,-y,z
x,1/2-y,1/2-z
1/2-x,1/2+y,1/2-z
-x,-y,-z
1/2+x,y,-z
-x,1/2+y,1/2+z
1/2+x,1/2-y,1/2+z
loop_
_atom_site_type_symbol
_atom_site_label
_atom_site_fract_x
_atom_site_fract_y
_atom_site_fract_z
Si Si1 0.660283 0.520173 0.485531
Si Si2 0.829558 0.222454 0.621592
Si Si3 0.350198 0.755872 0.116256
Si Si4 0.410276 0.505043 0.991753
Si Si5 0.173454 0.914543 0.735244
O O1 0.750000 0.500000 0.489531
O O2 0.634879 0.663065 0.539282
O O3 0.625208 0.401824 0.564522
O O4 0.634582 0.524274 0.351424
O O5 0.857112 0.250000 0.750000
O O6 0.738725 0.220385 0.612305
O O7 0.865845 0.079422 0.589109
O O8 0.379533 0.750000 0.250000
O O9 0.389760 0.658793 0.023023
O O10 0.385009 0.448929 0.866666
O O11 0.500000 0.500000 0.000000
O O12 0.189153 0.750000 0.750000
O O13 0.250000 0.000000 0.707682
#
# Coordination Sequence:
#
# PCOD8215540 Si02
#       5
#     8   8   8   8   8
#     4   9  19  35  63  98 120 148 208 273 322 357
#     4  10  19  39  66  92 119 159 215 271 311 364
#     4  10  21  40  68  93 121 161 218 272 315 365
#     4  12  26  41  59  91 135 175 204 250 321 396
#     4  11  23  41  69  98 127 162 216 275 320 373
#
# _framework density 20.132916999999999
#
# number of rings (size 3 to 8) (size 9 to 14) (size 15 to 20)
#    0.000    1.600    2.000    3.000    5.600    4.000 
#    3.600    1.000    0.000    0.000    0.000    0.000 
#    0.000    0.000    0.000    0.000    0.000    0.000 
#
# Total GULP energy -495751.947055 kJ/mol
# GULP energy per Si atom -12393.798676 kJ/mol
# Density = 2.008709 g / cm^3
# Si number density = 20.132917 Si / 1000 Ang^3
#
#
#
# Elastic Constant Matrix: (Units=GPa)
#
#
# Indices 1 2 3 4 5 6 
#
# 1 53.9395 19.5457 34.9325 0.0000 0.0000 0.0000
# 2 19.5457 90.5982 36.4736 0.0000 0.0000 0.0000
# 3 34.9325 36.4736 153.6517 0.0000 0.0000 0.0000
# 4 0.0000 0.0000 0.0000 44.7977 0.0000 0.0000
# 5 0.0000 0.0000 0.0000 0.0000 9.4047 0.0000
# 6 0.0000 0.0000 0.0000 0.0000 0.0000 6.9663
#
#
#
# Elastic Compliance Matrix: (Units=1/GPa)
#
#
# Indices 1 2 3 4 5 6 
#
# 1 0.022496 -0.003090 -0.004381 0.000000 0.000000 0.000000
# 2 -0.003090 0.012628 -0.002295 0.000000 0.000000 0.000000
# 3 -0.004381 -0.002295 0.008049 0.000000 0.000000 0.000000
# 4 0.000000 0.000000 0.000000 0.022323 0.000000 0.000000
# 5 0.000000 0.000000 0.000000 0.000000 0.106330 0.000000
# 6 0.000000 0.000000 0.000000 0.000000 0.000000 0.143548
#
#
# Mechanical properties :
#
#
# Convention : Reuss Voigt Hill
#
# Bulk Modulus (GPa) = 42.29807 53.34366 47.82087
# Shear Modulus (GPa) = 14.58632 26.04958 20.31795
#
# Velocity S-wave (km/s) = 2.69458 3.60096 3.18022
# Velocity P-wave (km/s) = 5.54401 6.62136 6.10649
#
# Compressibility (1/GPa) = 0.02364174
#
# Stress axis : x y z
#
# Youngs Moduli (GPa) = 44.45209 79.18692 124.23742
#
# Poissons Ratio (x) = 0.24465 0.54429
# Poissons Ratio (y) = 0.13734 0.28516
# Poissons Ratio (z) = 0.19475 0.18176
#
# Static dielectric constant tensor:
#      x y z
#    x 3.270770 0.000000 0.000000 
#    y 0.000000 3.976270 0.000000 
#    z 0.000000 0.000000 3.997030 
# 
# 
# High freq. dielectric constant tensor:
#      x y z
#    x 1.736430 0.000000 0.000000 
#    y 0.000000 1.804440 0.000000 
#    z 0.000000 0.000000 1.809280 
# 
# From -- ./inp_files/20287.got.cif
#   From: 2010.06.25/outbox.cif.g09.slc.cpg/sg52_11_cif.got.tgz:20287.got - 2010.06.26 19:32:48.
