data_PCOD8215237
_publ_section_title
;
Structure prediction by ZEFSAII (Michael W. Deem and Ramdas Pophale) SiO2 
 PCOD8215237
Probable space group: P N N A
;
_chemical_formula_sum "Si O2"
_cell_formula_units_Z 24
_cell_length_a 10.511010
_cell_length_b 8.833975
_cell_length_c 9.052838
_cell_angle_alpha 90.000000
_cell_angle_beta 90.000000
_cell_angle_gamma 90.000000
_cell_volume 840.592216
_symmetry_space_group_name_H-M "P N N A"
_symmetry_group_IT_number 52
_symmetry_cell_setting 'orthorhombic'
loop_
_space_group_symop_operation_xyz
x,y,z
1/2-x,-y,z
x,1/2-y,1/2-z
1/2-x,1/2+y,1/2-z
-x,-y,-z
1/2+x,y,-z
-x,1/2+y,1/2+z
1/2+x,1/2-y,1/2+z
loop_
_atom_site_type_symbol
_atom_site_label
_atom_site_fract_x
_atom_site_fract_y
_atom_site_fract_z
Si Si1 0.371788 0.750000 0.250000
Si Si2 0.352651 0.189353 0.050134
Si Si3 0.250000 0.000000 0.791356
Si Si4 0.991292 0.047357 0.689285
O O1 0.284895 0.827195 0.125671
O O2 0.458905 0.628547 0.165455
O O3 0.451529 0.090928 0.144352
O O4 0.412448 0.360510 0.062432
O O5 0.330927 0.125290 0.885619
O O6 0.355765 0.923151 0.684482
#
# Coordination Sequence:
#
# PCOD8215237 Si02
#       4
#     4   8   4   8
#     4  10  18  38  64  92 138 186 218 298 346 398
#     4  10  20  40  67  95 133 184 235 293 346 416
#     4  12  22  40  74 100 134 202 236 272 374 428
#     4  10  22  38  67  97 138 184 236 291 350 418
#
# _framework density 28.551302
#
# number of rings (size 3 to 8) (size 9 to 14) (size 15 to 20)
#    0.000    2.000    3.333    4.000    0.000    2.667 
#    0.000    1.667   14.667    2.000    0.000    0.000 
#    0.000    0.000    0.000    0.000    0.000    0.000 
#
# Total GULP energy -297428.985431 kJ/mol
# GULP energy per Si atom -12392.874393 kJ/mol
# Density = 2.848632 g / cm^3
# Si number density = 28.551302 Si / 1000 Ang^3
#
#
#
# Elastic Constant Matrix: (Units=GPa)
#
#
# Indices 1 2 3 4 5 6 
#
# 1 189.1134 50.7074 31.4995 0.0000 0.0000 0.0000
# 2 50.7074 142.1485 7.4537 0.0000 0.0000 0.0000
# 3 31.4995 7.4537 81.2467 0.0000 0.0000 0.0000
# 4 0.0000 0.0000 0.0000 7.6149 0.0000 0.0000
# 5 0.0000 0.0000 0.0000 0.0000 52.5168 0.0000
# 6 0.0000 0.0000 0.0000 0.0000 0.0000 -6.6058
#
#
#
# Elastic Compliance Matrix: (Units=1/GPa)
#
#
# Indices 1 2 3 4 5 6 
#
# 1 0.006221 -0.002103 -0.002219 0.000000 0.000000 0.000000
# 2 -0.002103 0.007780 0.000102 0.000000 0.000000 0.000000
# 3 -0.002219 0.000102 0.013159 0.000000 0.000000 0.000000
# 4 0.000000 0.000000 0.000000 0.131321 0.000000 0.000000
# 5 0.000000 0.000000 0.000000 0.000000 0.019042 0.000000
# 6 0.000000 0.000000 0.000000 0.000000 0.000000 -0.151382
#
#
# Mechanical properties :
#
#
# Convention : Reuss Voigt Hill
#
# Bulk Modulus (GPa) = 53.42050 65.75888 59.58969
# Shear Modulus (GPa) = 122.48474 32.22838 77.35656
#
# Velocity S-wave (km/s) = 6.55691 3.36339 5.21083
# Velocity P-wave (km/s) = 8.72210 6.17778 7.55778
#
# Compressibility (1/GPa) = 0.01871940
#
# Stress axis : x y z
#
# Youngs Moduli (GPa) = 160.73770 128.53927 75.99235
#
# Poissons Ratio (x) = 0.27031 0.16863
# Poissons Ratio (y) = 0.33802 -0.00772
# Poissons Ratio (z) = 0.35669 -0.01306
#
# Static dielectric constant tensor:
#      x y z
#    x 5.368350 0.000000 0.000000 
#    y 0.000000 5.212320 0.000000 
#    z 0.000000 0.000000 4.737230 
# 
# 
# High freq. dielectric constant tensor:
#      x y z
#    x 2.174460 0.000000 0.000000 
#    y 0.000000 2.154700 0.000000 
#    z 0.000000 0.000000 2.136200 
# 
# From -- ./inp_files/17437.got.cif
#   From: 2010.06.25/outbox.cif.g09.slc.cpg/sg52_9_cif.got.tgz:17437.got - 2010.06.26 19:32:48.
