data_PCOD8215667
_publ_section_title
;
Structure prediction by ZEFSAII (Michael W. Deem and Ramdas Pophale) SiO2 
 PCOD8215667
Probable space group: P N N A
;
_chemical_formula_sum "Si O2"
_cell_formula_units_Z 64
_cell_length_a 9.043116
_cell_length_b 16.905977
_cell_length_c 20.637438
_cell_angle_alpha 90.000000
_cell_angle_beta 90.000000
_cell_angle_gamma 90.000000
_cell_volume 3155.107472
_symmetry_space_group_name_H-M "P N N A"
_symmetry_group_IT_number 52
_symmetry_cell_setting 'orthorhombic'
loop_
_space_group_symop_operation_xyz
x,y,z
1/2-x,-y,z
x,1/2-y,1/2-z
1/2-x,1/2+y,1/2-z
-x,-y,-z
1/2+x,y,-z
-x,1/2+y,1/2+z
1/2+x,1/2-y,1/2+z
loop_
_atom_site_type_symbol
_atom_site_label
_atom_site_fract_x
_atom_site_fract_y
_atom_site_fract_z
Si Si1 0.425843 0.402440 0.257040
Si Si2 0.972881 0.161939 0.511473
Si Si3 0.762136 0.592198 0.088338
Si Si4 0.782721 0.914628 0.878936
Si Si5 0.774344 0.836868 0.269453
Si Si6 0.977878 0.425566 0.275566
Si Si7 0.204431 0.248214 0.066543
Si Si8 0.178916 0.182646 0.298730
O O1 0.341126 0.396819 0.325186
O O2 0.556403 0.339324 0.253811
O O3 0.489867 0.489444 0.244654
O O4 0.309348 0.383240 0.199597
O O5 0.878499 0.115891 0.456662
O O6 0.860398 0.208782 0.557171
O O7 0.079605 0.103139 0.551792
O O8 0.081495 0.230053 0.485410
O O9 0.750000 0.500000 0.106294
O O10 0.759310 0.644383 0.153804
O O11 0.944643 0.916019 0.845352
O O12 0.776426 0.847022 0.933493
O O13 0.750000 0.000000 0.911610
O O14 0.714006 0.750000 0.250000
O O15 0.695425 0.904220 0.224041
O O16 0.030134 0.358785 0.224741
O O17 0.139936 0.277737 0.134096
O O18 0.235044 0.250000 0.250000
#
# Coordination Sequence:
#
# PCOD8215667 Si02
#       8
#     8   8   8   8   8   8   8   8
#     4  10  20  35  53  87 122 152 188 230 299 367
#     4  10  25  40  63  90 112 168 212 252 291 350
#     4  11  23  44  64  87 126 164 208 257 301 352
#     4   9  20  37  62  83 113 154 195 245 294 357
#     4  12  25  34  57  92 128 159 191 241 316 374
#     4  10  20  35  53  87 122 152 188 230 299 367
#     4  11  21  40  60  83 123 147 205 251 296 351
#     4  11  18  32  61  86 110 149 195 242 295 357
#
# _framework density 20.284569999999999
#
# number of rings (size 3 to 8) (size 9 to 14) (size 15 to 20)
#    0.000    1.500    2.500    4.875    3.500    0.000 
#    0.000    6.875    0.000    0.000    0.000    0.000 
#    0.000    0.000    0.000    0.000    0.000    0.000 
#
# Total GULP energy -793346.146785 kJ/mol
# GULP energy per Si atom -12396.033544 kJ/mol
# Density = 2.023840 g / cm^3
# Si number density = 20.284570 Si / 1000 Ang^3
#
#
#
# Elastic Constant Matrix: (Units=GPa)
#
#
# Indices 1 2 3 4 5 6 
#
# 1 73.3265 3.7545 16.3956 0.0000 0.0000 0.0000
# 2 3.7545 116.1749 31.0014 0.0000 0.0000 0.0000
# 3 16.3956 31.0014 60.3455 0.0000 0.0000 0.0000
# 4 0.0000 0.0000 0.0000 29.1418 0.0000 0.0000
# 5 0.0000 0.0000 0.0000 0.0000 6.0379 0.0000
# 6 0.0000 0.0000 0.0000 0.0000 0.0000 21.5691
#
#
#
# Elastic Compliance Matrix: (Units=1/GPa)
#
#
# Indices 1 2 3 4 5 6 
#
# 1 0.014566 0.000678 -0.004306 0.000000 0.000000 0.000000
# 2 0.000678 0.010007 -0.005325 0.000000 0.000000 0.000000
# 3 -0.004306 -0.005325 0.020477 0.000000 0.000000 0.000000
# 4 0.000000 0.000000 0.000000 0.034315 0.000000 0.000000
# 5 0.000000 0.000000 0.000000 0.000000 0.165620 0.000000
# 6 0.000000 0.000000 0.000000 0.000000 0.000000 0.046363
#
#
# Mechanical properties :
#
#
# Convention : Reuss Voigt Hill
#
# Bulk Modulus (GPa) = 36.84066 39.12775 37.98421
# Shear Modulus (GPa) = 15.70845 24.59613 20.15229
#
# Velocity S-wave (km/s) = 2.78583 3.48595 3.15537
# Velocity P-wave (km/s) = 5.34314 5.96102 5.66052
#
# Compressibility (1/GPa) = 0.02714392
#
# Stress axis : x y z
#
# Youngs Moduli (GPa) = 68.65445 99.93203 48.83570
#
# Poissons Ratio (x) = -0.06778 0.21028
# Poissons Ratio (y) = -0.04657 0.26006
# Poissons Ratio (z) = 0.29562 0.53215
#
# Static dielectric constant tensor:
#      x y z
#    x 3.842490 0.000000 0.000000 
#    y 0.000000 3.921500 0.000000 
#    z 0.000000 0.000000 3.692700 
# 
# 
# High freq. dielectric constant tensor:
#      x y z
#    x 1.808380 0.000000 0.000000 
#    y 0.000000 1.804860 0.000000 
#    z 0.000000 0.000000 1.753770 
# 
# From -- ./inp_files/36198.got.cif
#   From: 2010.06.25/outbox.cif.g09.slc.cpg/sg52_19_cif.got.tgz:36198.got - 2010.06.26 19:32:48.
