data_PCOD8215406
_publ_section_title
;
Structure prediction by ZEFSAII (Michael W. Deem and Ramdas Pophale) SiO2 
 PCOD8215406
Probable space group: P N N A
;
_chemical_formula_sum "Si O2"
_cell_formula_units_Z 40
_cell_length_a 13.219064
_cell_length_b 13.371343
_cell_length_c 10.036713
_cell_angle_alpha 90.000000
_cell_angle_beta 90.000000
_cell_angle_gamma 90.000000
_cell_volume 1774.055655
_symmetry_space_group_name_H-M "P N N A"
_symmetry_group_IT_number 52
_symmetry_cell_setting 'orthorhombic'
loop_
_space_group_symop_operation_xyz
x,y,z
1/2-x,-y,z
x,1/2-y,1/2-z
1/2-x,1/2+y,1/2-z
-x,-y,-z
1/2+x,y,-z
-x,1/2+y,1/2+z
1/2+x,1/2-y,1/2+z
loop_
_atom_site_type_symbol
_atom_site_label
_atom_site_fract_x
_atom_site_fract_y
_atom_site_fract_z
Si Si1 0.074453 0.452191 0.800689
Si Si2 0.422859 0.844772 0.967702
Si Si3 0.949941 0.635845 0.758007
Si Si4 0.301586 0.846678 0.495939
Si Si5 0.406525 0.296600 0.114650
O O1 0.096758 0.425565 0.647006
O O2 0.042790 0.568296 0.810386
O O3 0.982342 0.386297 0.854841
O O4 0.172279 0.430610 0.892723
O O5 0.336677 0.761202 0.951325
O O6 0.532598 0.791262 0.960359
O O7 0.414709 0.900085 0.110709
O O8 0.988204 0.750000 0.750000
O O9 0.855182 0.625350 0.856665
O O10 0.181683 0.842174 0.475878
O O11 0.360033 0.250000 0.250000
#
# Coordination Sequence:
#
# PCOD8215406 Si02
#       5
#     8   8   8   8   8
#     4  10  20  36  58  86 114 151 196 232 282 341
#     4   9  19  36  59  83 113 150 186 233 287 343
#     4  10  20  35  57  82 112 148 189 238 284 328
#     4  10  19  35  57  83 115 148 185 234 286 342
#     4   9  18  34  58  87 116 149 189 231 283 348
#
# _framework density 22.547207
#
# number of rings (size 3 to 8) (size 9 to 14) (size 15 to 20)
#    0.000    2.400    0.000    4.800    0.000    0.800 
#    0.000   10.000    0.000   15.600    0.000    0.000 
#    0.000    0.000    0.000    0.000    0.000    0.000 
#
# Total GULP energy -495999.342267 kJ/mol
# GULP energy per Si atom -12399.983557 kJ/mol
# Density = 2.249589 g / cm^3
# Si number density = 22.547207 Si / 1000 Ang^3
#
#
#
# Elastic Constant Matrix: (Units=GPa)
#
#
# Indices 1 2 3 4 5 6 
#
# 1 70.5139 6.5497 36.0243 0.0000 0.0000 0.0000
# 2 6.5497 56.1792 18.0691 0.0000 0.0000 0.0000
# 3 36.0243 18.0691 128.8152 0.0000 0.0000 0.0000
# 4 0.0000 0.0000 0.0000 21.1202 0.0000 0.0000
# 5 0.0000 0.0000 0.0000 0.0000 16.4547 0.0000
# 6 0.0000 0.0000 0.0000 0.0000 0.0000 13.4872
#
#
#
# Elastic Compliance Matrix: (Units=1/GPa)
#
#
# Indices 1 2 3 4 5 6 
#
# 1 0.016557 -0.000462 -0.004565 0.000000 0.000000 0.000000
# 2 -0.000462 0.018654 -0.002487 0.000000 0.000000 0.000000
# 3 -0.004565 -0.002487 0.009389 0.000000 0.000000 0.000000
# 4 0.000000 0.000000 0.000000 0.047348 0.000000 0.000000
# 5 0.000000 0.000000 0.000000 0.000000 0.060773 0.000000
# 6 0.000000 0.000000 0.000000 0.000000 0.000000 0.074144
#
#
# Mechanical properties :
#
#
# Convention : Reuss Voigt Hill
#
# Bulk Modulus (GPa) = 33.81796 41.86603 37.84200
# Shear Modulus (GPa) = 19.86089 23.20345 21.53217
#
# Velocity S-wave (km/s) = 2.97114 3.21145 3.09363
# Velocity P-wave (km/s) = 5.17702 5.68856 5.43881
#
# Compressibility (1/GPa) = 0.02957009
#
# Stress axis : x y z
#
# Youngs Moduli (GPa) = 60.39765 53.60755 106.51033
#
# Poissons Ratio (x) = 0.02476 0.48627
# Poissons Ratio (y) = 0.02790 0.26494
# Poissons Ratio (z) = 0.27575 0.13335
#
# Static dielectric constant tensor:
#      x y z
#    x 3.625600 0.000000 0.000000 
#    y 0.000000 3.906350 0.000000 
#    z 0.000000 0.000000 4.593660 
# 
# 
# High freq. dielectric constant tensor:
#      x y z
#    x 1.857930 0.000000 0.000000 
#    y 0.000000 1.877070 0.000000 
#    z 0.000000 0.000000 1.908890 
# 
# From -- ./inp_files/10082.got.cif
#   From: 2010.06.25/outbox.cif.g09.slc.cpg/sg52_6_cif.got.tgz:10082.got - 2010.06.26 19:32:48.
