data_PCOD8215096
_publ_section_title
;
Structure prediction by ZEFSAII (Michael W. Deem and Ramdas Pophale) SiO2 
 PCOD8215096
Probable space group: P N N A
;
_chemical_formula_sum "Si O2"
_cell_formula_units_Z 64
_cell_length_a 14.526143
_cell_length_b 25.622875
_cell_length_c 8.571963
_cell_angle_alpha 90.000000
_cell_angle_beta 90.000000
_cell_angle_gamma 90.000000
_cell_volume 3190.497884
_symmetry_space_group_name_H-M "P N N A"
_symmetry_group_IT_number 52
_symmetry_cell_setting 'orthorhombic'
loop_
_space_group_symop_operation_xyz
x,y,z
1/2-x,-y,z
x,1/2-y,1/2-z
1/2-x,1/2+y,1/2-z
-x,-y,-z
1/2+x,y,-z
-x,1/2+y,1/2+z
1/2+x,1/2-y,1/2+z
loop_
_atom_site_type_symbol
_atom_site_label
_atom_site_fract_x
_atom_site_fract_y
_atom_site_fract_z
Si Si1 0.324891 0.543418 0.856912
Si Si2 0.396029 0.895313 0.912909
Si Si3 0.896034 0.804508 0.328462
Si Si4 0.230108 0.402935 0.296594
Si Si5 0.759921 0.351222 0.007254
Si Si6 0.571875 0.459297 0.854516
Si Si7 0.570424 0.936429 0.807319
Si Si8 0.537979 0.871072 0.496662
O O1 0.250000 0.500000 0.846226
O O2 0.358671 0.554805 0.682795
O O3 0.286492 0.596856 0.925972
O O4 0.410543 0.522047 0.964688
O O5 0.390376 0.842828 0.816548
O O6 0.503382 0.912131 0.941425
O O7 0.337563 0.884367 0.066486
O O8 0.922768 0.750000 0.250000
O O9 0.797738 0.802710 0.420537
O O10 0.970881 0.823342 0.456765
O O11 0.175617 0.445829 0.198661
O O12 0.324016 0.429109 0.362804
O O13 0.253582 0.353753 0.182379
O O14 0.865766 0.346980 0.063906
O O15 0.541149 0.503790 0.732662
O O16 0.505541 0.408108 0.860056
O O17 0.556687 0.905434 0.647623
#
# Coordination Sequence:
#
# PCOD8215096 Si02
#       8
#     8   8   8   8   8   8   8   8
#     4  10  18  31  52  81 116 155 197 237 273 337
#     4  10  22  38  52  84 119 154 197 239 299 345
#     4  10  20  42  64  84 111 148 191 257 298 342
#     4  10  20  37  53  80 125 154 191 234 289 345
#     4   9  19  36  59  84 112 151 195 237 290 344
#     4  11  18  33  57  82 118 155 199 232 277 348
#     4  10  20  33  57  84 119 162 195 232 286 345
#     4  10  18  34  61  89 109 146 198 244 284 348
#
# _framework density 20.059564999999999
#
# number of rings (size 3 to 8) (size 9 to 14) (size 15 to 20)
#    0.000    2.000    5.000    3.000    1.750    1.500 
#    4.500    4.375    0.000    0.000    0.000    0.000 
#    0.000    0.000    0.000    0.000    0.000    0.000 
#
# Total GULP energy -792909.492564 kJ/mol
# GULP energy per Si atom -12389.210821 kJ/mol
# Density = 2.001391 g / cm^3
# Si number density = 20.059565 Si / 1000 Ang^3
#
#
#
# Elastic Constant Matrix: (Units=GPa)
#
#
# Indices 1 2 3 4 5 6 
#
# 1 140.4907 25.3236 34.4890 0.0000 0.0000 0.0000
# 2 25.3236 64.9045 17.6920 0.0000 0.0000 0.0000
# 3 34.4890 17.6920 58.3158 0.0000 0.0000 0.0000
# 4 0.0000 0.0000 0.0000 43.4652 0.0000 0.0000
# 5 0.0000 0.0000 0.0000 0.0000 30.8741 0.0000
# 6 0.0000 0.0000 0.0000 0.0000 0.0000 18.3379
#
#
#
# Elastic Compliance Matrix: (Units=1/GPa)
#
#
# Indices 1 2 3 4 5 6 
#
# 1 0.008592 -0.002145 -0.004431 0.000000 0.000000 0.000000
# 2 -0.002145 0.017332 -0.003990 0.000000 0.000000 0.000000
# 3 -0.004431 -0.003990 0.020979 0.000000 0.000000 0.000000
# 4 0.000000 0.000000 0.000000 0.023007 0.000000 0.000000
# 5 0.000000 0.000000 0.000000 0.000000 0.032390 0.000000
# 6 0.000000 0.000000 0.000000 0.000000 0.000000 0.054532
#
#
# Mechanical properties :
#
#
# Convention : Reuss Voigt Hill
#
# Bulk Modulus (GPa) = 38.80159 46.52449 42.66304
# Shear Modulus (GPa) = 26.80212 30.94920 28.87566
#
# Velocity S-wave (km/s) = 3.65927 3.93219 3.79818
# Velocity P-wave (km/s) = 6.10237 6.62267 6.36783
#
# Compressibility (1/GPa) = 0.02577214
#
# Stress axis : x y z
#
# Youngs Moduli (GPa) = 116.38425 57.69827 47.66677
#
# Poissons Ratio (x) = 0.12374 0.21121
# Poissons Ratio (y) = 0.24960 0.19018
# Poissons Ratio (z) = 0.51569 0.23020
#
# Static dielectric constant tensor:
#      x y z
#    x 5.300210 0.000000 0.000000 
#    y 0.000000 0.020420 0.000000 
#    z 0.000000 0.000000 3.568540 
# 
# 
# High freq. dielectric constant tensor:
#      x y z
#    x 1.805620 0.000000 0.000000 
#    y 0.000000 1.733670 0.000000 
#    z 0.000000 0.000000 1.760070 
# 
# From -- ./inp_files/11078.got.cif
#   From: 2010.06.25/outbox.cif.g09.slc.cpg/sg52_6_cif.got.tgz:11078.got - 2010.06.26 19:32:48.
