data_PCOD8215273
_publ_section_title
;
Structure prediction by ZEFSAII (Michael W. Deem and Ramdas Pophale) SiO2 
 PCOD8215273
Probable space group: P N N A
;
_chemical_formula_sum "Si O2"
_cell_formula_units_Z 48
_cell_length_a 5.516174
_cell_length_b 11.908826
_cell_length_c 25.163607
_cell_angle_alpha 90.000000
_cell_angle_beta 90.000000
_cell_angle_gamma 90.000000
_cell_volume 1653.026442
_symmetry_space_group_name_H-M "P N N A"
_symmetry_group_IT_number 52
_symmetry_cell_setting 'orthorhombic'
loop_
_space_group_symop_operation_xyz
x,y,z
1/2-x,-y,z
x,1/2-y,1/2-z
1/2-x,1/2+y,1/2-z
-x,-y,-z
1/2+x,y,-z
-x,1/2+y,1/2+z
1/2+x,1/2-y,1/2+z
loop_
_atom_site_type_symbol
_atom_site_label
_atom_site_fract_x
_atom_site_fract_y
_atom_site_fract_z
Si Si1 0.880643 0.873753 0.641959
Si Si2 0.504916 0.874991 0.020860
Si Si3 0.216774 0.125783 0.480624
Si Si4 0.113333 0.122499 0.687223
Si Si5 0.895412 0.620516 0.643885
Si Si6 0.607463 0.382802 0.310629
O O1 0.890111 0.871161 0.578684
O O2 0.619950 0.931781 0.656370
O O3 0.866810 0.747489 0.665534
O O4 0.123907 0.930145 0.669060
O O5 0.484658 0.877657 0.083699
O O6 0.258314 0.815611 0.998330
O O7 0.500000 0.000000 0.000000
O O8 0.486247 0.182865 0.487798
O O9 0.250000 0.000000 0.502320
O O10 0.132277 0.253438 0.671818
O O11 0.055589 0.103945 0.748777
O O12 0.622246 0.567040 0.653660
O O13 0.119758 0.564459 0.677789
#
# Coordination Sequence:
#
# PCOD8215273 Si02
#       6
#     8   8   8   8   8   8
#     4  10  19  31  51  79 105 138 167 217 259 311
#     4  10  21  36  52  73  98 135 181 217 263 318
#     4  10  21  36  52  73 101 139 176 204 253 308
#     4   9  17  30  49  77 109 134 167 203 272 316
#     4  10  19  31  51  79 105 131 176 214 267 307
#     4   9  17  30  49  77 109 135 161 215 261 325
#
# _framework density 29.037648999999998
#
# number of rings (size 3 to 8) (size 9 to 14) (size 15 to 20)
#    0.000    2.333    0.000    3.000    0.000    5.333 
#    0.000    0.000    0.000    0.000   43.333    0.000 
#    0.000    0.000    0.000    0.000    0.000    0.000 
#
# Total GULP energy -595419.328641 kJ/mol
# GULP energy per Si atom -12404.569347 kJ/mol
# Density = 2.897156 g / cm^3
# Si number density = 29.037649 Si / 1000 Ang^3
#
#
#
# Elastic Constant Matrix: (Units=GPa)
#
#
# Indices 1 2 3 4 5 6 
#
# 1 324.4659 106.1534 93.5655 0.0000 0.0000 0.0000
# 2 106.1534 121.8371 -19.1867 0.0000 0.0000 0.0000
# 3 93.5655 -19.1867 162.5339 0.0000 0.0000 0.0000
# 4 0.0000 0.0000 0.0000 40.7040 0.0000 0.0000
# 5 0.0000 0.0000 0.0000 0.0000 69.5266 0.0000
# 6 0.0000 0.0000 0.0000 0.0000 0.0000 82.0278
#
#
#
# Elastic Compliance Matrix: (Units=1/GPa)
#
#
# Indices 1 2 3 4 5 6 
#
# 1 0.006421 -0.006294 -0.004440 0.000000 0.000000 0.000000
# 2 -0.006294 0.014532 0.005339 0.000000 0.000000 0.000000
# 3 -0.004440 0.005339 0.009338 0.000000 0.000000 0.000000
# 4 0.000000 0.000000 0.000000 0.024568 0.000000 0.000000
# 5 0.000000 0.000000 0.000000 0.000000 0.014383 0.000000
# 6 0.000000 0.000000 0.000000 0.000000 0.000000 0.012191
#
#
# Mechanical properties :
#
#
# Convention : Reuss Voigt Hill
#
# Bulk Modulus (GPa) = 51.27578 107.76681 79.52129
# Shear Modulus (GPa) = 50.64641 67.00533 58.82587
#
# Velocity S-wave (km/s) = 4.18085 4.80889 4.50583
# Velocity P-wave (km/s) = 6.40334 8.24786 7.38343
#
# Compressibility (1/GPa) = 0.01950239
#
# Stress axis : x y z
#
# Youngs Moduli (GPa) = 155.73122 68.81331 107.08403
#
# Poissons Ratio (x) = 0.43310 0.47540
# Poissons Ratio (y) = 0.98015 -0.57168
# Poissons Ratio (z) = 0.69137 -0.36737
#
# Static dielectric constant tensor:
#      x y z
#    x 7.757220 0.000000 0.000000 
#    y 0.000000 6.795400 0.000000 
#    z 0.000000 0.000000 4.627180 
# 
# 
# High freq. dielectric constant tensor:
#      x y z
#    x 2.250970 0.000000 0.000000 
#    y 0.000000 2.303990 0.000000 
#    z 0.000000 0.000000 2.126940 
# 
# From -- ./inp_files/38778.got.cif
#   From: 2010.06.25/outbox.cif.g09.slc.cpg/sg52_20_cif.got.tgz:38778.got - 2010.06.26 19:32:48.
