data_PCOD8215048
_publ_section_title
;
Structure prediction by ZEFSAII (Michael W. Deem and Ramdas Pophale) SiO2 
 PCOD8215048
Probable space group: P N N A
;
_chemical_formula_sum "Si O2"
_cell_formula_units_Z 48
_cell_length_a 8.774691
_cell_length_b 14.377962
_cell_length_c 19.908909
_cell_angle_alpha 90.000000
_cell_angle_beta 90.000000
_cell_angle_gamma 90.000000
_cell_volume 2511.751237
_symmetry_space_group_name_H-M "P N N A"
_symmetry_group_IT_number 52
_symmetry_cell_setting 'orthorhombic'
loop_
_space_group_symop_operation_xyz
x,y,z
1/2-x,-y,z
x,1/2-y,1/2-z
1/2-x,1/2+y,1/2-z
-x,-y,-z
1/2+x,y,-z
-x,1/2+y,1/2+z
1/2+x,1/2-y,1/2+z
loop_
_atom_site_type_symbol
_atom_site_label
_atom_site_fract_x
_atom_site_fract_y
_atom_site_fract_z
Si Si1 0.340998 0.851373 0.223472
Si Si2 0.228778 0.726171 0.409681
Si Si3 0.099839 0.957870 0.708992
Si Si4 0.790640 0.105689 0.426515
Si Si5 0.027458 0.282770 0.988530
Si Si6 0.850283 0.081941 0.659626
O O1 0.383032 0.750000 0.250000
O O2 0.273117 0.846860 0.148208
O O3 0.495083 0.911966 0.233408
O O4 0.207752 0.898337 0.265261
O O5 0.379743 0.730960 0.453693
O O6 0.172176 0.827448 0.384535
O O7 0.078155 0.701513 0.453516
O O8 0.146967 0.884747 0.650292
O O9 0.250000 0.000000 0.744775
O O10 0.021611 0.044494 0.668801
O O11 0.639993 0.169306 0.434777
O O12 0.919819 0.139062 0.478243
O O13 0.750000 0.000000 0.444449
O O14 0.750000 0.000000 0.626001
#
# Coordination Sequence:
#
# PCOD8215048 Si02
#       6
#     8   8   8   8   8   8
#     4   9  18  33  52  68  94 133 167 202 247 292
#     4  10  19  33  48  70  98 129 166 200 239 292
#     4  10  19  32  49  76 103 127 162 210 250 289
#     4  10  18  28  43  68 103 134 160 191 229 287
#     4  10  20  29  44  69  99 135 165 190 232 293
#     4   9  17  31  50  71  96 128 162 197 238 291
#
# _framework density 19.110171999999999
#
# number of rings (size 3 to 8) (size 9 to 14) (size 15 to 20)
#    0.000    2.333    0.000    5.500    0.000    4.000 
#    0.000    7.500    0.000    0.000    0.000   15.167 
#    0.000    0.000    0.000    0.000    0.000    0.000 
#
# Total GULP energy -594729.224409 kJ/mol
# GULP energy per Si atom -12390.192175 kJ/mol
# Density = 1.906668 g / cm^3
# Si number density = 19.110172 Si / 1000 Ang^3
#
#
#
# Elastic Constant Matrix: (Units=GPa)
#
#
# Indices 1 2 3 4 5 6 
#
# 1 130.0988 16.2837 44.5354 0.0000 0.0000 0.0000
# 2 16.2837 25.0492 15.7777 0.0000 0.0000 0.0000
# 3 44.5354 15.7777 86.0568 0.0000 0.0000 0.0000
# 4 0.0000 0.0000 0.0000 28.3253 0.0000 0.0000
# 5 0.0000 0.0000 0.0000 0.0000 21.4126 0.0000
# 6 0.0000 0.0000 0.0000 0.0000 0.0000 17.3257
#
#
#
# Elastic Compliance Matrix: (Units=1/GPa)
#
#
# Indices 1 2 3 4 5 6 
#
# 1 0.009608 -0.003521 -0.004327 0.000000 0.000000 0.000000
# 2 -0.003521 0.046423 -0.006689 0.000000 0.000000 0.000000
# 3 -0.004327 -0.006689 0.015086 0.000000 0.000000 0.000000
# 4 0.000000 0.000000 0.000000 0.035304 0.000000 0.000000
# 5 0.000000 0.000000 0.000000 0.000000 0.046701 0.000000
# 6 0.000000 0.000000 0.000000 0.000000 0.000000 0.057718
#
#
# Mechanical properties :
#
#
# Convention : Reuss Voigt Hill
#
# Bulk Modulus (GPa) = 23.78470 43.82207 33.80339
# Shear Modulus (GPa) = 19.69052 24.38661 22.03856
#
# Velocity S-wave (km/s) = 3.21342 3.57614 3.39962
# Velocity P-wave (km/s) = 5.12262 6.32714 5.75647
#
# Compressibility (1/GPa) = 0.04204383
#
# Stress axis : x y z
#
# Youngs Moduli (GPa) = 104.07641 21.54082 66.28704
#
# Poissons Ratio (x) = 0.07584 0.28682
# Poissons Ratio (y) = 0.36642 0.44342
# Poissons Ratio (z) = 0.45033 0.14409
#
# Static dielectric constant tensor:
#      x y z
#    x 3.888710 0.000000 0.000000 
#    y 0.000000 3.443120 0.000000 
#    z 0.000000 0.000000 3.521290 
# 
# 
# High freq. dielectric constant tensor:
#      x y z
#    x 1.766810 0.000000 0.000000 
#    y 0.000000 1.689940 0.000000 
#    z 0.000000 0.000000 1.730350 
# 
# From -- ./inp_files/31371.got.cif
#   From: 2010.06.25/outbox.cif.g09.slc.cpg/sg52_16_cif.got.tgz:31371.got - 2010.06.26 19:32:48.
