data_PCOD8215128
_publ_section_title
;
Structure prediction by ZEFSAII (Michael W. Deem and Ramdas Pophale) SiO2 
 PCOD8215128
Probable space group: P N N A
;
_chemical_formula_sum "Si O2"
_cell_formula_units_Z 44
_cell_length_a 12.539622
_cell_length_b 12.024817
_cell_length_c 15.478812
_cell_angle_alpha 90.000000
_cell_angle_beta 90.000000
_cell_angle_gamma 90.000000
_cell_volume 2333.998359
_symmetry_space_group_name_H-M "P N N A"
_symmetry_group_IT_number 52
_symmetry_cell_setting 'orthorhombic'
loop_
_space_group_symop_operation_xyz
x,y,z
1/2-x,-y,z
x,1/2-y,1/2-z
1/2-x,1/2+y,1/2-z
-x,-y,-z
1/2+x,y,-z
-x,1/2+y,1/2+z
1/2+x,1/2-y,1/2+z
loop_
_atom_site_type_symbol
_atom_site_label
_atom_site_fract_x
_atom_site_fract_y
_atom_site_fract_z
Si Si1 0.831538 0.149735 0.386076
Si Si2 0.575550 0.108499 0.655520
Si Si3 0.250000 0.000000 0.753769
Si Si4 0.250000 0.500000 0.455228
Si Si5 0.893244 0.636090 0.654532
Si Si6 0.750000 0.000000 0.535193
Si Si7 0.880984 0.096016 0.102809
O O1 0.786532 0.104644 0.477021
O O2 0.827437 0.282852 0.382103
O O3 0.951470 0.102004 0.372231
O O4 0.752503 0.107426 0.309507
O O5 0.618575 0.232877 0.659182
O O6 0.589687 0.070908 0.754879
O O7 0.648400 0.033816 0.593250
O O8 0.351004 0.012263 0.818324
O O9 0.212469 0.401980 0.393214
O O10 0.154505 0.546576 0.512280
O O11 0.993500 0.606528 0.594783
#
# Coordination Sequence:
#
# PCOD8215128 Si02
#       7
#     8   8   4   4   8   4   8
#     4  10  20  35  55  80 110 142 183 226 271 322
#     4  10  20  36  56  77 108 148 182 219 271 326
#     4  10  18  32  58  80  98 138 188 218 260 322
#     4  11  21  33  55  86 108 142 183 227 269 315
#     4  10  20  36  56  77 108 148 182 219 271 326
#     4  11  21  33  55  86 108 142 183 227 269 315
#     4  10  20  35  55  80 110 142 183 226 271 322
#
# _framework density 18.851770999999999
#
# number of rings (size 3 to 8) (size 9 to 14) (size 15 to 20)
#    0.000    1.818    1.818    3.273    0.000    0.000 
#    0.000    0.000    0.000    6.545    0.000    0.000 
#    0.000    0.000    0.000    0.000    0.000    0.000 
#
# Total GULP energy -545305.924031 kJ/mol
# GULP energy per Si atom -12393.316455 kJ/mol
# Density = 1.880886 g / cm^3
# Si number density = 18.851771 Si / 1000 Ang^3
#
#
#
# Elastic Constant Matrix: (Units=GPa)
#
#
# Indices 1 2 3 4 5 6 
#
# 1 52.8479 30.1020 35.2960 0.0000 0.0000 0.0000
# 2 30.1020 56.6519 30.0479 0.0000 0.0000 0.0000
# 3 35.2960 30.0479 100.2719 0.0000 0.0000 0.0000
# 4 0.0000 0.0000 0.0000 25.6312 0.0000 0.0000
# 5 0.0000 0.0000 0.0000 0.0000 27.2637 0.0000
# 6 0.0000 0.0000 0.0000 0.0000 0.0000 29.4794
#
#
#
# Elastic Compliance Matrix: (Units=1/GPa)
#
#
# Indices 1 2 3 4 5 6 
#
# 1 0.030843 -0.012639 -0.007069 0.000000 0.000000 0.000000
# 2 -0.012639 0.026167 -0.003392 0.000000 0.000000 0.000000
# 3 -0.007069 -0.003392 0.013478 0.000000 0.000000 0.000000
# 4 0.000000 0.000000 0.000000 0.039015 0.000000 0.000000
# 5 0.000000 0.000000 0.000000 0.000000 0.036679 0.000000
# 6 0.000000 0.000000 0.000000 0.000000 0.000000 0.033922
#
#
# Mechanical properties :
#
#
# Convention : Reuss Voigt Hill
#
# Bulk Modulus (GPa) = 41.17540 44.51815 42.84678
# Shear Modulus (GPa) = 21.33116 24.09657 22.71386
#
# Velocity S-wave (km/s) = 3.36746 3.57909 3.47488
# Velocity P-wave (km/s) = 6.08348 6.38325 6.23517
#
# Compressibility (1/GPa) = 0.02428634
#
# Stress axis : x y z
#
# Youngs Moduli (GPa) = 32.42264 38.21680 74.19574
#
# Poissons Ratio (x) = 0.48301 0.52451
# Poissons Ratio (y) = 0.40978 0.25170
# Poissons Ratio (z) = 0.22921 0.12964
#
# Static dielectric constant tensor:
#      x y z
#    x 3.321420 0.000000 0.000000 
#    y 0.000000 3.352250 0.000000 
#    z 0.000000 0.000000 3.660620 
# 
# 
# High freq. dielectric constant tensor:
#      x y z
#    x 1.722600 0.000000 0.000000 
#    y 0.000000 1.717150 0.000000 
#    z 0.000000 0.000000 1.749960 
# 
# From -- ./inp_files/26032.got.cif
#   From: 2010.06.25/outbox.cif.g09.slc.cpg/sg52_14_cif.got.tgz:26032.got - 2010.06.26 19:32:48.
