data_PCOD8215637
_publ_section_title
;
Structure prediction by ZEFSAII (Michael W. Deem and Ramdas Pophale) SiO2 
 PCOD8215637
Probable space group: P N N A
;
_chemical_formula_sum "Si O2"
_cell_formula_units_Z 20
_cell_length_a 8.881894
_cell_length_b 4.968505
_cell_length_c 19.164790
_cell_angle_alpha 90.000000
_cell_angle_beta 90.000000
_cell_angle_gamma 90.000000
_cell_volume 845.737099
_symmetry_space_group_name_H-M "P N N A"
_symmetry_group_IT_number 52
_symmetry_cell_setting 'orthorhombic'
loop_
_space_group_symop_operation_xyz
x,y,z
1/2-x,-y,z
x,1/2-y,1/2-z
1/2-x,1/2+y,1/2-z
-x,-y,-z
1/2+x,y,-z
-x,1/2+y,1/2+z
1/2+x,1/2-y,1/2+z
loop_
_atom_site_type_symbol
_atom_site_label
_atom_site_fract_x
_atom_site_fract_y
_atom_site_fract_z
Si Si1 0.645300 0.755949 0.034413
Si Si2 0.356229 0.250000 0.250000
Si Si3 0.579458 0.914865 0.607836
O O1 0.750000 0.500000 0.020484
O O2 0.522893 0.678656 0.092931
O O3 0.750000 0.000000 0.059513
O O4 0.564136 0.799011 0.957820
O O5 0.250000 0.500000 0.267425
O O6 0.466606 0.212048 0.317577
O O7 0.750000 0.000000 0.619898
#
# Coordination Sequence:
#
# PCOD8215637 Si02
#       3
#     8   4   8
#     4  10  21  36  57  87 123 160 203 254 311 371
#     4  10  20  34  56  86 118 154 204 262 318 370
#     4   9  20  36  59  88 120 158 206 259 310 370
#
# _framework density 23.648011
#
# number of rings (size 3 to 8) (size 9 to 14) (size 15 to 20)
#    0.000    2.400    0.000    1.200    0.000   20.800 
#    0.000    0.000    0.000   12.000    0.000    0.000 
#    0.000    0.000    0.000    0.000    0.000    6.800 
#
# Total GULP energy -247861.895713 kJ/mol
# GULP energy per Si atom -12393.094786 kJ/mol
# Density = 2.359419 g / cm^3
# Si number density = 23.648011 Si / 1000 Ang^3
#
#
#
# Elastic Constant Matrix: (Units=GPa)
#
#
# Indices 1 2 3 4 5 6 
#
# 1 99.8005 38.4006 63.2557 0.0000 0.0000 0.0000
# 2 38.4006 124.0535 62.3146 0.0000 0.0000 0.0000
# 3 63.2557 62.3146 236.0453 0.0000 0.0000 0.0000
# 4 0.0000 0.0000 0.0000 35.8847 0.0000 0.0000
# 5 0.0000 0.0000 0.0000 0.0000 44.2877 0.0000
# 6 0.0000 0.0000 0.0000 0.0000 0.0000 40.6779
#
#
#
# Elastic Compliance Matrix: (Units=1/GPa)
#
#
# Indices 1 2 3 4 5 6 
#
# 1 0.012743 -0.002570 -0.002736 0.000000 0.000000 0.000000
# 2 -0.002570 0.009812 -0.001902 0.000000 0.000000 0.000000
# 3 -0.002736 -0.001902 0.005472 0.000000 0.000000 0.000000
# 4 0.000000 0.000000 0.000000 0.027867 0.000000 0.000000
# 5 0.000000 0.000000 0.000000 0.000000 0.022580 0.000000
# 6 0.000000 0.000000 0.000000 0.000000 0.000000 0.024583
#
#
# Mechanical properties :
#
#
# Convention : Reuss Voigt Hill
#
# Bulk Modulus (GPa) = 73.47150 87.53788 80.50469
# Shear Modulus (GPa) = 40.98023 43.89862 42.43942
#
# Velocity S-wave (km/s) = 4.16736 4.31319 4.24090
# Velocity P-wave (km/s) = 7.36831 7.86780 7.62215
#
# Compressibility (1/GPa) = 0.01361072
#
# Stress axis : x y z
#
# Youngs Moduli (GPa) = 78.47242 101.91840 182.75557
#
# Poissons Ratio (x) = 0.26194 0.50011
# Poissons Ratio (y) = 0.20168 0.34751
# Poissons Ratio (z) = 0.21474 0.19380
#
# Static dielectric constant tensor:
#      x y z
#    x 4.271630 0.000000 0.000000 
#    y 0.000000 4.092220 0.000000 
#    z 0.000000 0.000000 4.984880 
# 
# 
# High freq. dielectric constant tensor:
#      x y z
#    x 1.916600 0.000000 0.000000 
#    y 0.000000 1.935000 0.000000 
#    z 0.000000 0.000000 1.935470 
# 
# From -- ./inp_files/30432.got.cif
#   From: 2010.06.25/outbox.cif.g09.slc.cpg/sg52_16_cif.got.tgz:30432.got - 2010.06.26 19:32:48.
