data_PCOD8215587
_publ_section_title
;
Structure prediction by ZEFSAII (Michael W. Deem and Ramdas Pophale) SiO2 
 PCOD8215587
Probable space group: P N N A
;
_chemical_formula_sum "Si O2"
_cell_formula_units_Z 64
_cell_length_a 17.187015
_cell_length_b 9.335876
_cell_length_c 22.000666
_cell_angle_alpha 90.000000
_cell_angle_beta 90.000000
_cell_angle_gamma 90.000000
_cell_volume 3530.135362
_symmetry_space_group_name_H-M "P N N A"
_symmetry_group_IT_number 52
_symmetry_cell_setting 'orthorhombic'
loop_
_space_group_symop_operation_xyz
x,y,z
1/2-x,-y,z
x,1/2-y,1/2-z
1/2-x,1/2+y,1/2-z
-x,-y,-z
1/2+x,y,-z
-x,1/2+y,1/2+z
1/2+x,1/2-y,1/2+z
loop_
_atom_site_type_symbol
_atom_site_label
_atom_site_fract_x
_atom_site_fract_y
_atom_site_fract_z
Si Si1 0.176384 0.591051 0.048967
Si Si2 0.672991 0.581072 0.562074
Si Si3 0.933649 0.070952 0.041719
Si Si4 0.109308 0.876333 0.577810
Si Si5 0.978056 0.414688 0.886463
Si Si6 0.521773 0.589219 0.628966
Si Si7 0.036810 0.088868 0.743292
Si Si8 0.822719 0.107735 0.289673
O O1 0.250000 0.500000 0.069986
O O2 0.189353 0.752056 0.071825
O O3 0.100981 0.525868 0.083505
O O4 0.168874 0.583257 0.975880
O O5 0.750000 0.500000 0.580849
O O6 0.649171 0.547274 0.491733
O O7 0.603478 0.524951 0.605517
O O8 0.941776 0.240078 0.055821
O O9 0.943678 0.992467 0.106028
O O10 0.000000 0.000000 0.000000
O O11 0.155750 0.848378 0.640856
O O12 0.051386 0.008947 0.583541
O O13 0.985693 0.246715 0.899573
O O14 0.980405 0.436075 0.813975
O O15 0.521699 0.569026 0.700765
O O16 0.072157 0.250000 0.750000
O O17 0.106288 0.975094 0.742347
O O18 0.804254 0.250000 0.250000
O O19 0.750000 0.000000 0.290629
#
# Coordination Sequence:
#
# PCOD8215587 Si02
#       8
#     8   8   8   8   8   8   8   8
#     4  10  20  33  49  72 101 131 164 207 256 304
#     4   9  19  33  48  72 102 131 165 206 253 304
#     4   9  18  32  51  75 101 130 167 209 254 306
#     4  10  20  35  53  75 102 133 172 213 258 311
#     4   9  19  33  53  76  99 130 169 210 254 307
#     4   9  17  33  54  75  99 131 170 209 254 307
#     4   9  18  35  56  76 100 134 173 212 258 311
#     4  11  22  36  53  77 108 140 175 216 261 312
#
# _framework density 18.129617
#
# number of rings (size 3 to 8) (size 9 to 14) (size 15 to 20)
#    0.000    2.500    0.000    2.625    0.000    3.000 
#    0.000   10.000    0.000    0.000    0.000    0.000 
#    0.000    0.000    0.000    0.000    0.000    0.000 
#
# Total GULP energy -793086.756552 kJ/mol
# GULP energy per Si atom -12391.980571 kJ/mol
# Density = 1.808835 g / cm^3
# Si number density = 18.129617 Si / 1000 Ang^3
#
#
#
# Elastic Constant Matrix: (Units=GPa)
#
#
# Indices 1 2 3 4 5 6 
#
# 1 93.6286 46.0199 38.7961 0.0000 0.0000 0.0000
# 2 46.0199 69.1249 35.1313 0.0000 0.0000 0.0000
# 3 38.7961 35.1313 84.9091 0.0000 0.0000 0.0000
# 4 0.0000 0.0000 0.0000 25.8220 0.0000 0.0000
# 5 0.0000 0.0000 0.0000 0.0000 20.7946 0.0000
# 6 0.0000 0.0000 0.0000 0.0000 0.0000 36.7307
#
#
#
# Elastic Compliance Matrix: (Units=1/GPa)
#
#
# Indices 1 2 3 4 5 6 
#
# 1 0.016821 -0.009234 -0.003865 0.000000 0.000000 0.000000
# 2 -0.009234 0.023388 -0.005458 0.000000 0.000000 0.000000
# 3 -0.003865 -0.005458 0.015801 0.000000 0.000000 0.000000
# 4 0.000000 0.000000 0.000000 0.038727 0.000000 0.000000
# 5 0.000000 0.000000 0.000000 0.000000 0.048089 0.000000
# 6 0.000000 0.000000 0.000000 0.000000 0.000000 0.027225
#
#
# Mechanical properties :
#
#
# Convention : Reuss Voigt Hill
#
# Bulk Modulus (GPa) = 52.91958 54.17301 53.54630
# Shear Modulus (GPa) = 23.42323 25.18382 24.30352
#
# Velocity S-wave (km/s) = 3.59832 3.73110 3.66531
# Velocity P-wave (km/s) = 6.82033 6.96472 6.89290
#
# Compressibility (1/GPa) = 0.01889660
#
# Stress axis : x y z
#
# Youngs Moduli (GPa) = 59.45066 42.75726 63.28576
#
# Poissons Ratio (x) = 0.39482 0.24460
# Poissons Ratio (y) = 0.54897 0.34539
# Poissons Ratio (z) = 0.22978 0.23335
#
# Static dielectric constant tensor:
#      x y z
#    x 3.221540 0.000000 0.000000 
#    y 0.000000 3.451690 0.000000 
#    z 0.000000 0.000000 3.591850 
# 
# 
# High freq. dielectric constant tensor:
#      x y z
#    x 1.684220 0.000000 0.000000 
#    y 0.000000 1.702580 0.000000 
#    z 0.000000 0.000000 1.709370 
# 
# From -- ./inp_files/40680.got.cif
#   From: 2010.06.25/outbox.cif.g09.slc.cpg/sg52_21_cif.got.tgz:40680.got - 2010.06.26 19:32:48.
