data_PCOD8215024
_publ_section_title
;
Structure prediction by ZEFSAII (Michael W. Deem and Ramdas Pophale) SiO2 
 PCOD8215024
Probable space group: P N N A
;
_chemical_formula_sum "Si O2"
_cell_formula_units_Z 44
_cell_length_a 9.178100
_cell_length_b 16.278758
_cell_length_c 15.584285
_cell_angle_alpha 90.000000
_cell_angle_beta 90.000000
_cell_angle_gamma 90.000000
_cell_volume 2328.417925
_symmetry_space_group_name_H-M "P N N A"
_symmetry_group_IT_number 52
_symmetry_cell_setting 'orthorhombic'
loop_
_space_group_symop_operation_xyz
x,y,z
1/2-x,-y,z
x,1/2-y,1/2-z
1/2-x,1/2+y,1/2-z
-x,-y,-z
1/2+x,y,-z
-x,1/2+y,1/2+z
1/2+x,1/2-y,1/2+z
loop_
_atom_site_type_symbol
_atom_site_label
_atom_site_fract_x
_atom_site_fract_y
_atom_site_fract_z
Si Si1 0.750000 0.500000 0.150203
Si Si2 0.059969 0.781283 0.563030
Si Si3 0.575181 0.629764 0.237275
Si Si4 0.177125 0.250000 0.750000
Si Si5 0.372291 0.834898 0.583949
Si Si6 0.250000 0.000000 0.987414
Si Si7 0.015322 0.398766 0.414733
O O1 0.622915 0.539922 0.206631
O O2 0.673446 0.429392 0.094674
O O3 0.013163 0.816184 0.657367
O O4 0.232832 0.783824 0.552072
O O5 0.996008 0.837277 0.487246
O O6 0.003578 0.690311 0.543292
O O7 0.714699 0.676239 0.280309
O O8 0.458753 0.614635 0.312503
O O9 0.078658 0.212172 0.672642
O O10 0.130500 0.953177 0.929517
O O11 0.338135 0.937668 0.048081
#
# Coordination Sequence:
#
# PCOD8215024 Si02
#       7
#     4   8   8   4   8   4   8
#     4   8  19  32  55  82 108 142 186 219 266 325
#     4  10  20  34  62  77 108 147 182 225 267 335
#     4  10  17  34  57  79 105 148 181 225 265 335
#     4   8  16  32  54  78 100 144 182 214 252 334
#     4  10  19  35  55  85 107 145 184 226 271 322
#     4  10  25  32  55  80 112 144 180 239 280 317
#     4  11  19  39  52  81 107 145 184 225 277 330
#
# _framework density 18.896951000000001
#
# number of rings (size 3 to 8) (size 9 to 14) (size 15 to 20)
#    0.000    2.545    3.636    1.636    0.000    2.909 
#    3.273    2.727    4.000    0.000    0.000    0.000 
#    0.000    0.000    0.000    0.000    0.000    0.000 
#
# Total GULP energy -545155.681171 kJ/mol
# GULP energy per Si atom -12389.901845 kJ/mol
# Density = 1.885394 g / cm^3
# Si number density = 18.896951 Si / 1000 Ang^3
#
#
#
# Elastic Constant Matrix: (Units=GPa)
#
#
# Indices 1 2 3 4 5 6 
#
# 1 48.3224 15.3582 20.8861 0.0000 0.0000 0.0000
# 2 15.3582 111.3148 16.6071 0.0000 0.0000 0.0000
# 3 20.8861 16.6071 92.6796 0.0000 0.0000 0.0000
# 4 0.0000 0.0000 0.0000 15.2303 0.0000 0.0000
# 5 0.0000 0.0000 0.0000 0.0000 25.9844 0.0000
# 6 0.0000 0.0000 0.0000 0.0000 0.0000 25.0456
#
#
#
# Elastic Compliance Matrix: (Units=1/GPa)
#
#
# Indices 1 2 3 4 5 6 
#
# 1 0.023602 -0.002530 -0.004865 0.000000 0.000000 0.000000
# 2 -0.002530 0.009502 -0.001132 0.000000 0.000000 0.000000
# 3 -0.004865 -0.001132 0.012089 0.000000 0.000000 0.000000
# 4 0.000000 0.000000 0.000000 0.065659 0.000000 0.000000
# 5 0.000000 0.000000 0.000000 0.000000 0.038485 0.000000
# 6 0.000000 0.000000 0.000000 0.000000 0.000000 0.039927
#
#
# Mechanical properties :
#
#
# Convention : Reuss Voigt Hill
#
# Bulk Modulus (GPa) = 35.54160 39.77996 37.66078
# Shear Modulus (GPa) = 23.18058 26.54975 24.86516
#
# Velocity S-wave (km/s) = 3.50620 3.75237 3.63137
# Velocity P-wave (km/s) = 5.93635 6.31430 6.12824
#
# Compressibility (1/GPa) = 0.02813604
#
# Stress axis : x y z
#
# Youngs Moduli (GPa) = 42.37017 105.24556 82.71840
#
# Poissons Ratio (x) = 0.26632 0.40246
# Poissons Ratio (y) = 0.10722 0.09366
# Poissons Ratio (z) = 0.20615 0.11917
#
# Static dielectric constant tensor:
#      x y z
#    x 3.086910 0.000000 0.000000 
#    y 0.000000 3.656130 0.000000 
#    z 0.000000 0.000000 3.526760 
# 
# 
# High freq. dielectric constant tensor:
#      x y z
#    x 1.683710 0.000000 0.000000 
#    y 0.000000 1.754610 0.000000 
#    z 0.000000 0.000000 1.736070 
# 
# From -- ./inp_files/31196.got.cif
#   From: 2010.06.25/outbox.cif.g09.slc.cpg/sg52_16_cif.got.tgz:31196.got - 2010.06.26 19:32:48.
