data_PCOD8215283
_publ_section_title
;
Structure prediction by ZEFSAII (Michael W. Deem and Ramdas Pophale) SiO2 
 PCOD8215283
Probable space group: P N N A
;
_chemical_formula_sum "Si O2"
_cell_formula_units_Z 64
_cell_length_a 14.238589
_cell_length_b 11.519936
_cell_length_c 22.830317
_cell_angle_alpha 90.000000
_cell_angle_beta 90.000000
_cell_angle_gamma 90.000000
_cell_volume 3744.802881
_symmetry_space_group_name_H-M "P N N A"
_symmetry_group_IT_number 52
_symmetry_cell_setting 'orthorhombic'
loop_
_space_group_symop_operation_xyz
x,y,z
1/2-x,-y,z
x,1/2-y,1/2-z
1/2-x,1/2+y,1/2-z
-x,-y,-z
1/2+x,y,-z
-x,1/2+y,1/2+z
1/2+x,1/2-y,1/2+z
loop_
_atom_site_type_symbol
_atom_site_label
_atom_site_fract_x
_atom_site_fract_y
_atom_site_fract_z
Si Si1 0.476383 0.411859 0.577661
Si Si2 0.230697 0.277651 0.963839
Si Si3 0.071257 0.067915 0.567944
Si Si4 0.345217 0.929912 0.690390
Si Si5 0.774967 0.691346 0.336139
Si Si6 0.849674 0.952155 0.993190
Si Si7 0.436014 0.178174 0.514897
Si Si8 0.114900 0.977076 0.811441
O O1 0.573989 0.471220 0.558197
O O2 0.385680 0.476345 0.549694
O O3 0.478543 0.280468 0.554420
O O4 0.469333 0.423363 0.648765
O O5 0.170666 0.395763 0.961238
O O6 0.260746 0.238395 0.898586
O O7 0.163381 0.183076 0.993292
O O8 0.326415 0.299194 0.999810
O O9 0.080583 0.072905 0.637688
O O10 0.990726 0.159000 0.546677
O O11 0.046605 0.937306 0.552088
O O12 0.313317 0.797547 0.703311
O O13 0.250000 0.000000 0.675594
O O14 0.405069 0.982534 0.744789
O O15 0.853362 0.592553 0.346475
O O16 0.691231 0.624888 0.303259
O O17 0.750000 0.000000 0.971611
#
# Coordination Sequence:
#
# PCOD8215283 Si02
#       8
#     8   8   8   8   8   8   8   8
#     4  11  22  33  53  83 104 148 178 223 279 328
#     4  11  18  33  55  74 106 145 177 222 270 331
#     4  10  23  36  49  79 107 145 181 221 268 332
#     4  11  22  33  51  75 109 148 180 214 271 333
#     4  10  19  32  48  73 107 143 175 214 262 324
#     4  11  20  33  52  77 111 135 179 223 277 333
#     4  11  20  35  54  73 110 139 180 226 270 323
#     4  11  20  33  51  75 108 144 180 218 259 331
#
# _framework density 17.090353
#
# number of rings (size 3 to 8) (size 9 to 14) (size 15 to 20)
#    0.000    1.250    6.250    2.250    0.000    0.000 
#    0.000    0.000    0.000    0.000    0.000    3.500 
#    0.000    0.000    0.000    0.000    0.000    0.000 
#
# Total GULP energy -793125.090853 kJ/mol
# GULP energy per Si atom -12392.579545 kJ/mol
# Density = 1.705145 g / cm^3
# Si number density = 17.090353 Si / 1000 Ang^3
#
#
#
# Elastic Constant Matrix: (Units=GPa)
#
#
# Indices 1 2 3 4 5 6 
#
# 1 83.2590 29.1001 48.9890 0.0000 0.0000 0.0000
# 2 29.1001 90.0679 42.1101 0.0000 0.0000 0.0000
# 3 48.9890 42.1101 115.0703 0.0000 0.0000 0.0000
# 4 0.0000 0.0000 0.0000 24.7627 0.0000 0.0000
# 5 0.0000 0.0000 0.0000 0.0000 22.9487 0.0000
# 6 0.0000 0.0000 0.0000 0.0000 0.0000 22.6462
#
#
#
# Elastic Compliance Matrix: (Units=1/GPa)
#
#
# Indices 1 2 3 4 5 6 
#
# 1 0.016466 -0.002464 -0.006108 0.000000 0.000000 0.000000
# 2 -0.002464 0.013763 -0.003988 0.000000 0.000000 0.000000
# 3 -0.006108 -0.003988 0.012750 0.000000 0.000000 0.000000
# 4 0.000000 0.000000 0.000000 0.040383 0.000000 0.000000
# 5 0.000000 0.000000 0.000000 0.000000 0.043575 0.000000
# 6 0.000000 0.000000 0.000000 0.000000 0.000000 0.044158
#
#
# Mechanical properties :
#
#
# Convention : Reuss Voigt Hill
#
# Bulk Modulus (GPa) = 55.99354 58.75507 57.37431
# Shear Modulus (GPa) = 24.73177 25.28471 25.00824
#
# Velocity S-wave (km/s) = 3.80823 3.85056 3.82945
# Velocity P-wave (km/s) = 7.22296 7.36362 7.29363
#
# Compressibility (1/GPa) = 0.01785920
#
# Stress axis : x y z
#
# Youngs Moduli (GPa) = 60.73086 72.65730 78.43050
#
# Poissons Ratio (x) = 0.17904 0.47908
# Poissons Ratio (y) = 0.14965 0.31275
# Poissons Ratio (z) = 0.37097 0.28973
#
# Static dielectric constant tensor:
#      x y z
#    x 3.049820 0.000000 0.000000 
#    y 0.000000 3.473330 0.000000 
#    z 0.000000 0.000000 3.088570 
# 
# 
# High freq. dielectric constant tensor:
#      x y z
#    x 1.624910 0.000000 0.000000 
#    y 0.000000 1.685890 0.000000 
#    z 0.000000 0.000000 1.635580 
# 
# From -- ./inp_files/42842.got.cif
#   From: 2010.06.25/outbox.cif.g09.slc.cpg/sg52_22_cif.got.tgz:42842.got - 2010.06.26 19:32:48.
