data_PCOD8215755
_publ_section_title
;
Structure prediction by ZEFSAII (Michael W. Deem and Ramdas Pophale) SiO2 
 PCOD8215755
Probable space group: P N N A
;
_chemical_formula_sum "Si O2"
_cell_formula_units_Z 60
_cell_length_a 20.527763
_cell_length_b 8.931366
_cell_length_c 17.313142
_cell_angle_alpha 90.000000
_cell_angle_beta 90.000000
_cell_angle_gamma 90.000000
_cell_volume 3174.208153
_symmetry_space_group_name_H-M "P N N A"
_symmetry_group_IT_number 52
_symmetry_cell_setting 'orthorhombic'
loop_
_space_group_symop_operation_xyz
x,y,z
1/2-x,-y,z
x,1/2-y,1/2-z
1/2-x,1/2+y,1/2-z
-x,-y,-z
1/2+x,y,-z
-x,1/2+y,1/2+z
1/2+x,1/2-y,1/2+z
loop_
_atom_site_type_symbol
_atom_site_label
_atom_site_fract_x
_atom_site_fract_y
_atom_site_fract_z
Si Si1 0.070926 0.705550 0.161896
Si Si2 0.136479 0.811075 0.566938
Si Si3 0.348169 0.750000 0.750000
Si Si4 0.565524 0.411401 0.128222
Si Si5 0.824085 0.018406 0.583298
Si Si6 0.931499 0.060687 0.971547
Si Si7 0.238623 0.333188 0.613295
Si Si8 0.132400 0.255995 0.497142
O O1 0.070464 0.750000 0.250000
O O2 0.137376 0.616153 0.146061
O O3 0.064592 0.855763 0.110553
O O4 0.011057 0.593629 0.145139
O O5 0.172490 0.898767 0.498668
O O6 0.095622 0.670741 0.536880
O O7 0.193078 0.754170 0.624777
O O8 0.086074 0.918628 0.610711
O O9 0.393764 0.636894 0.796718
O O10 0.301650 0.658404 0.692604
O O11 0.575839 0.302452 0.054692
O O12 0.750000 0.000000 0.611601
O O13 0.857861 0.855582 0.575020
O O14 0.883356 0.919153 0.963475
O O15 0.000000 0.000000 0.000000
O O16 0.250000 0.500000 0.584020
O O17 0.198945 0.250964 0.545987
#
# Coordination Sequence:
#
# PCOD8215755 Si02
#       8
#     8   8   4   8   8   8   8   8
#     4  11  24  43  64  87 125 164 202 254 327 378
#     4  10  22  36  62  93 119 160 207 257 293 364
#     4  10  24  34  58  82 132 174 190 240 302 378
#     4  10  21  39  60  86 123 165 206 240 302 367
#     4  10  21  39  66  91 115 153 206 259 310 366
#     4  11  22  38  63  92 120 155 208 262 304 356
#     4  11  21  36  56  90 131 163 204 244 307 356
#     4  10  20  36  62  90 120 154 203 265 293 352
#
# _framework density 18.902352
#
# number of rings (size 3 to 8) (size 9 to 14) (size 15 to 20)
#    0.000    1.600    4.667    0.000    3.733    1.600 
#    0.000    2.000    0.000    0.000    0.000    0.000 
#    0.000    0.000    0.000    0.000    0.000    0.000 
#
# Total GULP energy -744103.807092 kJ/mol
# GULP energy per Si atom -12401.730118 kJ/mol
# Density = 1.885933 g / cm^3
# Si number density = 18.902352 Si / 1000 Ang^3
#
#
#
# Elastic Constant Matrix: (Units=GPa)
#
#
# Indices 1 2 3 4 5 6 
#
# 1 138.4589 58.3018 48.0116 0.0000 0.0000 0.0000
# 2 58.3018 130.1079 36.5823 0.0000 0.0000 0.0000
# 3 48.0116 36.5823 73.5471 0.0000 0.0000 0.0000
# 4 0.0000 0.0000 0.0000 16.3650 0.0000 0.0000
# 5 0.0000 0.0000 0.0000 0.0000 18.9755 0.0000
# 6 0.0000 0.0000 0.0000 0.0000 0.0000 38.1483
#
#
#
# Elastic Compliance Matrix: (Units=1/GPa)
#
#
# Indices 1 2 3 4 5 6 
#
# 1 0.010359 -0.003186 -0.005178 0.000000 0.000000 0.000000
# 2 -0.003186 0.009916 -0.002852 0.000000 0.000000 0.000000
# 3 -0.005178 -0.002852 0.018395 0.000000 0.000000 0.000000
# 4 0.000000 0.000000 0.000000 0.061106 0.000000 0.000000
# 5 0.000000 0.000000 0.000000 0.000000 0.052699 0.000000
# 6 0.000000 0.000000 0.000000 0.000000 0.000000 0.026213
#
#
# Mechanical properties :
#
#
# Convention : Reuss Voigt Hill
#
# Bulk Modulus (GPa) = 61.58293 69.76724 65.67509
# Shear Modulus (GPa) = 24.20906 27.97900 26.09403
#
# Velocity S-wave (km/s) = 3.58263 3.85149 3.71949
# Velocity P-wave (km/s) = 7.05435 7.53446 7.29835
#
# Compressibility (1/GPa) = 0.01623827
#
# Stress axis : x y z
#
# Youngs Moduli (GPa) = 96.53014 100.85117 54.36141
#
# Poissons Ratio (x) = 0.32134 0.28147
# Poissons Ratio (y) = 0.30757 0.15504
# Poissons Ratio (z) = 0.49981 0.28763
#
# Static dielectric constant tensor:
#      x y z
#    x 3.552960 0.000000 0.000000 
#    y 0.000000 3.599970 0.000000 
#    z 0.000000 0.000000 3.209280 
# 
# 
# High freq. dielectric constant tensor:
#      x y z
#    x 1.745970 0.000000 0.000000 
#    y 0.000000 1.742100 0.000000 
#    z 0.000000 0.000000 1.703050 
# 
# From -- ./inp_files/33778.got.cif
#   From: 2010.06.25/outbox.cif.g09.slc.cpg/sg52_17_cif.got.tgz:33778.got - 2010.06.26 19:32:48.
