data_PCOD8215984
_publ_section_title
;
Structure prediction by ZEFSAII (Michael W. Deem and Ramdas Pophale) SiO2 
 PCOD8215984
Probable space group: P N N A
;
_chemical_formula_sum "Si O2"
_cell_formula_units_Z 56
_cell_length_a 18.597326
_cell_length_b 8.662721
_cell_length_c 15.469827
_cell_angle_alpha 90.000000
_cell_angle_beta 90.000000
_cell_angle_gamma 90.000000
_cell_volume 2492.242446
_symmetry_space_group_name_H-M "P N N A"
_symmetry_group_IT_number 52
_symmetry_cell_setting 'orthorhombic'
loop_
_space_group_symop_operation_xyz
x,y,z
1/2-x,-y,z
x,1/2-y,1/2-z
1/2-x,1/2+y,1/2-z
-x,-y,-z
1/2+x,y,-z
-x,1/2+y,1/2+z
1/2+x,1/2-y,1/2+z
loop_
_atom_site_type_symbol
_atom_site_label
_atom_site_fract_x
_atom_site_fract_y
_atom_site_fract_z
Si Si1 0.082673 0.913497 0.766849
Si Si2 0.509003 0.722577 0.982826
Si Si3 0.681268 0.602083 0.432978
Si Si4 0.223781 0.343748 0.021480
Si Si5 0.382981 0.607560 0.423025
Si Si6 0.602230 0.507875 0.081835
Si Si7 0.451793 0.386341 0.313371
O O1 0.042593 0.750000 0.750000
O O2 0.137819 0.887125 0.844248
O O3 0.125077 0.960843 0.680105
O O4 0.025987 0.049648 0.777661
O O5 0.472977 0.584321 0.928314
O O6 0.534853 0.842324 0.912141
O O7 0.455173 0.798188 0.052787
O O8 0.582426 0.669147 0.032414
O O9 0.750000 0.500000 0.411689
O O10 0.709423 0.768993 0.468618
O O11 0.631903 0.517525 0.502810
O O12 0.250000 0.500000 0.071304
O O13 0.164767 0.400504 0.953644
O O14 0.186100 0.221987 0.086274
O O15 0.393069 0.523597 0.328996
O O16 0.423009 0.250000 0.250000
#
# Coordination Sequence:
#
# PCOD8215984 Si02
#       7
#     8   8   8   8   8   8   8
#     4  12  24  37  58  98 143 172 214 270 327 394
#     4  10  20  40  67  92 133 176 217 266 338 390
#     4  10  23  41  63  94 131 183 223 260 316 398
#     4  10  22  41  64  94 127 178 227 262 318 389
#     4  10  22  40  64  94 128 169 221 268 325 401
#     4  10  22  38  63  99 135 170 217 274 323 394
#     4  12  24  40  65  98 133 172 215 278 342 388
#
# _framework density 22.469722999999998
#
# number of rings (size 3 to 8) (size 9 to 14) (size 15 to 20)
#    0.000    1.429    2.857    2.143    4.000    1.714 
#    0.000    0.000    0.000    0.000   11.143    0.000 
#    0.000    0.000    0.000    0.000    0.000    0.000 
#
# Total GULP energy -694058.228475 kJ/mol
# GULP energy per Si atom -12393.896937 kJ/mol
# Density = 2.241858 g / cm^3
# Si number density = 22.469723 Si / 1000 Ang^3
#
#
#
# Elastic Constant Matrix: (Units=GPa)
#
#
# Indices 1 2 3 4 5 6 
#
# 1 94.9881 36.4344 42.7834 0.0000 0.0000 0.0000
# 2 36.4344 124.4549 42.7817 0.0000 0.0000 0.0000
# 3 42.7834 42.7817 73.3511 0.0000 0.0000 0.0000
# 4 0.0000 0.0000 0.0000 36.9979 0.0000 0.0000
# 5 0.0000 0.0000 0.0000 0.0000 8.5050 0.0000
# 6 0.0000 0.0000 0.0000 0.0000 0.0000 29.3587
#
#
#
# Elastic Compliance Matrix: (Units=1/GPa)
#
#
# Indices 1 2 3 4 5 6 
#
# 1 0.014554 -0.001679 -0.007510 0.000000 0.000000 0.000000
# 2 -0.001679 0.010244 -0.004995 0.000000 0.000000 0.000000
# 3 -0.007510 -0.004995 0.020927 0.000000 0.000000 0.000000
# 4 0.000000 0.000000 0.000000 0.027029 0.000000 0.000000
# 5 0.000000 0.000000 0.000000 0.000000 0.117578 0.000000
# 6 0.000000 0.000000 0.000000 0.000000 0.000000 0.034061
#
#
# Mechanical properties :
#
#
# Convention : Reuss Voigt Hill
#
# Bulk Modulus (GPa) = 57.61544 59.64369 58.62957
# Shear Modulus (GPa) = 19.33895 26.35864 22.84879
#
# Velocity S-wave (km/s) = 2.93690 3.42873 3.19230
# Velocity P-wave (km/s) = 6.09898 6.50204 6.30373
#
# Compressibility (1/GPa) = 0.01735646
#
# Stress axis : x y z
#
# Youngs Moduli (GPa) = 68.70906 97.62048 47.78627
#
# Poissons Ratio (x) = 0.16394 0.35885
# Poissons Ratio (y) = 0.11538 0.23870
# Poissons Ratio (z) = 0.51597 0.48763
#
# Static dielectric constant tensor:
#      x y z
#    x 4.140790 0.000000 0.000000 
#    y 0.000000 4.789760 0.000000 
#    z 0.000000 0.000000 3.763590 
# 
# 
# High freq. dielectric constant tensor:
#      x y z
#    x 1.882190 0.000000 0.000000 
#    y 0.000000 1.921400 0.000000 
#    z 0.000000 0.000000 1.850740 
# 
# From -- ./inp_files/28787.got.cif
#   From: 2010.06.25/outbox.cif.g09.slc.cpg/sg52_15_cif.got.tgz:28787.got - 2010.06.26 19:32:48.
