data_PCOD8215279
_publ_section_title
;
Structure prediction by ZEFSAII (Michael W. Deem and Ramdas Pophale) SiO2 
 PCOD8215279
Probable space group: P N N A
;
_chemical_formula_sum "Si O2"
_cell_formula_units_Z 64
_cell_length_a 8.712854
_cell_length_b 19.590847
_cell_length_c 20.680870
_cell_angle_alpha 90.000000
_cell_angle_beta 90.000000
_cell_angle_gamma 90.000000
_cell_volume 3530.062984
_symmetry_space_group_name_H-M "P N N A"
_symmetry_group_IT_number 52
_symmetry_cell_setting 'orthorhombic'
loop_
_space_group_symop_operation_xyz
x,y,z
1/2-x,-y,z
x,1/2-y,1/2-z
1/2-x,1/2+y,1/2-z
-x,-y,-z
1/2+x,y,-z
-x,1/2+y,1/2+z
1/2+x,1/2-y,1/2+z
loop_
_atom_site_type_symbol
_atom_site_label
_atom_site_fract_x
_atom_site_fract_y
_atom_site_fract_z
Si Si1 0.922749 0.634421 0.292869
Si Si2 0.078057 0.024606 0.695350
Si Si3 0.581966 0.114370 0.694857
Si Si4 0.568409 0.844598 0.667455
Si Si5 0.461891 0.293515 0.410106
Si Si6 0.971506 0.289231 0.091818
Si Si7 0.408154 0.310055 0.701125
Si Si8 0.718420 0.254842 0.498589
O O1 0.928473 0.555451 0.268904
O O2 0.748820 0.650357 0.312157
O O3 0.989605 0.681268 0.234321
O O4 0.032424 0.649538 0.354301
O O5 0.023947 0.085821 0.646469
O O6 0.250000 0.000000 0.677950
O O7 0.950371 0.965862 0.691290
O O8 0.755370 0.135178 0.680298
O O9 0.470823 0.147457 0.640721
O O10 0.535543 0.141118 0.766243
O O11 0.550415 0.784740 0.615665
O O12 0.614523 0.301286 0.452654
O O13 0.318810 0.306511 0.457403
O O14 0.973401 0.218780 0.133449
O O15 0.822547 0.293950 0.046284
O O16 0.119924 0.292976 0.046027
O O17 0.367229 0.250000 0.750000
#
# Coordination Sequence:
#
# PCOD8215279 Si02
#       8
#     8   8   8   8   8   8   8   8
#     4  10  21  33  57  83 112 148 183 237 296 341
#     4  10  22  35  55  84 109 153 182 227 294 339
#     4  11  20  37  55  84 119 142 191 230 298 337
#     4  10  22  33  59  80 116 145 182 242 292 340
#     4  11  20  38  55  85 115 143 192 235 287 337
#     4  10  21  34  56  79 114 147 186 236 278 338
#     4  10  19  31  54  82 110 145 180 235 299 342
#     4  10  22  34  53  83 113 153 189 227 282 335
#
# _framework density 18.129988000000001
#
# number of rings (size 3 to 8) (size 9 to 14) (size 15 to 20)
#    0.750    1.000    3.750    1.500    5.250    1.000 
#    0.000    0.000    0.000    4.500    0.000    9.625 
#    0.000    0.000    0.000    0.000    0.000    0.000 
#
# Total GULP energy -792968.520352 kJ/mol
# GULP energy per Si atom -12390.133131 kJ/mol
# Density = 1.808872 g / cm^3
# Si number density = 18.129988 Si / 1000 Ang^3
#
#
#
# Elastic Constant Matrix: (Units=GPa)
#
#
# Indices 1 2 3 4 5 6 
#
# 1 96.0842 7.7406 29.3557 0.0000 0.0000 0.0000
# 2 7.7406 30.5164 12.2188 0.0000 0.0000 0.0000
# 3 29.3557 12.2188 82.9962 0.0000 0.0000 0.0000
# 4 0.0000 0.0000 0.0000 15.3056 0.0000 0.0000
# 5 0.0000 0.0000 0.0000 0.0000 21.0319 0.0000
# 6 0.0000 0.0000 0.0000 0.0000 0.0000 21.6118
#
#
#
# Elastic Compliance Matrix: (Units=1/GPa)
#
#
# Indices 1 2 3 4 5 6 
#
# 1 0.011724 -0.001396 -0.003941 0.000000 0.000000 0.000000
# 2 -0.001396 0.034988 -0.004657 0.000000 0.000000 0.000000
# 3 -0.003941 -0.004657 0.014128 0.000000 0.000000 0.000000
# 4 0.000000 0.000000 0.000000 0.065336 0.000000 0.000000
# 5 0.000000 0.000000 0.000000 0.000000 0.047547 0.000000
# 6 0.000000 0.000000 0.000000 0.000000 0.000000 0.046271
#
#
# Mechanical properties :
#
#
# Convention : Reuss Voigt Hill
#
# Bulk Modulus (GPa) = 24.47870 34.24744 29.36307
# Shear Modulus (GPa) = 19.71607 22.27530 20.99568
#
# Velocity S-wave (km/s) = 3.30128 3.50900 3.40673
# Velocity P-wave (km/s) = 5.29739 5.94545 5.63075
#
# Compressibility (1/GPa) = 0.04085184
#
# Stress axis : x y z
#
# Youngs Moduli (GPa) = 85.29410 28.58118 70.77918
#
# Poissons Ratio (x) = 0.03989 0.27896
# Poissons Ratio (y) = 0.11905 0.32964
# Poissons Ratio (z) = 0.33617 0.13311
#
# Static dielectric constant tensor:
#      x y z
#    x 3.521760 0.000000 0.000000 
#    y 0.000000 3.064410 0.000000 
#    z 0.000000 0.000000 3.451920 
# 
# 
# High freq. dielectric constant tensor:
#      x y z
#    x 1.720980 0.000000 0.000000 
#    y 0.000000 1.660090 0.000000 
#    z 0.000000 0.000000 1.694180 
# 
# From -- ./inp_files/36262.got.cif
#   From: 2010.06.25/outbox.cif.g09.slc.cpg/sg52_19_cif.got.tgz:36262.got - 2010.06.26 19:32:48.
