data_PCOD8215168
_publ_section_title
;
Structure prediction by ZEFSAII (Michael W. Deem and Ramdas Pophale) SiO2 
 PCOD8215168
Probable space group: P N N A
;
_chemical_formula_sum "Si O2"
_cell_formula_units_Z 60
_cell_length_a 16.680759
_cell_length_b 9.107622
_cell_length_c 21.635165
_cell_angle_alpha 90.000000
_cell_angle_beta 90.000000
_cell_angle_gamma 90.000000
_cell_volume 3286.858568
_symmetry_space_group_name_H-M "P N N A"
_symmetry_group_IT_number 52
_symmetry_cell_setting 'orthorhombic'
loop_
_space_group_symop_operation_xyz
x,y,z
1/2-x,-y,z
x,1/2-y,1/2-z
1/2-x,1/2+y,1/2-z
-x,-y,-z
1/2+x,y,-z
-x,1/2+y,1/2+z
1/2+x,1/2-y,1/2+z
loop_
_atom_site_type_symbol
_atom_site_label
_atom_site_fract_x
_atom_site_fract_y
_atom_site_fract_z
Si Si1 0.658515 0.042076 0.400970
Si Si2 0.537492 0.750000 0.750000
Si Si3 0.061750 0.302540 0.548306
Si Si4 0.338766 0.456607 0.477272
Si Si5 0.571524 0.571869 0.639434
Si Si6 0.925849 0.218128 0.460852
Si Si7 0.569828 0.522981 0.217612
Si Si8 0.964913 0.324469 0.332165
O O1 0.633564 0.206940 0.420783
O O2 0.750000 0.000000 0.416041
O O3 0.599237 0.944606 0.442371
O O4 0.644573 0.012262 0.327636
O O5 0.592488 0.685504 0.694795
O O6 0.482213 0.622867 0.778209
O O7 0.098733 0.436027 0.510026
O O8 0.004648 0.364604 0.601757
O O9 0.009006 0.210067 0.498889
O O10 0.250000 0.500000 0.494816
O O11 0.351541 0.456337 0.403265
O O12 0.355574 0.290326 0.498352
O O13 0.547933 0.415051 0.669075
O O14 0.929774 0.323237 0.400792
O O15 0.596133 0.585860 0.285477
O O16 0.517592 0.657223 0.188730
#
# Coordination Sequence:
#
# PCOD8215168 Si02
#       8
#     8   4   8   8   8   8   8   8
#     4  11  22  35  49  78 116 145 174 227 278 321
#     4  10  18  34  58  80  98 138 188 232 260 314
#     4  11  19  35  55  81 103 149 183 222 256 333
#     4  11  21  34  53  83 112 141 173 225 279 325
#     4  10  18  34  57  80 102 136 186 225 261 324
#     4  10  19  35  55  76 106 144 188 221 258 320
#     4   9  19  31  53  76 105 135 181 222 265 316
#     4   9  16  33  54  76  99 136 185 224 252 312
#
# _framework density 18.254512999999999
#
# number of rings (size 3 to 8) (size 9 to 14) (size 15 to 20)
#    0.000    1.867    4.000    2.000    0.000    0.000 
#    0.000    3.333    0.000    3.200    0.000    0.933 
#    0.000    0.000    0.000    0.000    0.000    0.000 
#
# Total GULP energy -743455.112948 kJ/mol
# GULP energy per Si atom -12390.918549 kJ/mol
# Density = 1.821296 g / cm^3
# Si number density = 18.254513 Si / 1000 Ang^3
#
#
#
# Elastic Constant Matrix: (Units=GPa)
#
#
# Indices 1 2 3 4 5 6 
#
# 1 46.1218 2.0107 16.0950 0.0000 0.0000 0.0000
# 2 2.0107 70.8310 21.4364 0.0000 0.0000 0.0000
# 3 16.0950 21.4364 97.5920 0.0000 0.0000 0.0000
# 4 0.0000 0.0000 0.0000 25.4450 0.0000 0.0000
# 5 0.0000 0.0000 0.0000 0.0000 17.3659 0.0000
# 6 0.0000 0.0000 0.0000 0.0000 0.0000 19.6797
#
#
#
# Elastic Compliance Matrix: (Units=1/GPa)
#
#
# Indices 1 2 3 4 5 6 
#
# 1 0.023024 0.000531 -0.003914 0.000000 0.000000 0.000000
# 2 0.000531 0.015136 -0.003412 0.000000 0.000000 0.000000
# 3 -0.003914 -0.003412 0.011642 0.000000 0.000000 0.000000
# 4 0.000000 0.000000 0.000000 0.039300 0.000000 0.000000
# 5 0.000000 0.000000 0.000000 0.000000 0.057584 0.000000
# 6 0.000000 0.000000 0.000000 0.000000 0.000000 0.050814
#
#
# Mechanical properties :
#
#
# Convention : Reuss Voigt Hill
#
# Bulk Modulus (GPa) = 27.61548 32.62544 30.12046
# Shear Modulus (GPa) = 22.40537 24.16497 23.28517
#
# Velocity S-wave (km/s) = 3.50721 3.64233 3.57541
# Velocity P-wave (km/s) = 5.61797 5.96658 5.79490
#
# Compressibility (1/GPa) = 0.03621158
#
# Stress axis : x y z
#
# Youngs Moduli (GPa) = 43.43229 66.06890 85.89809
#
# Poissons Ratio (x) = -0.03507 0.33619
# Poissons Ratio (y) = -0.02306 0.29310
# Poissons Ratio (z) = 0.16999 0.22544
#
# Static dielectric constant tensor:
#      x y z
#    x 2.846180 0.000000 0.000000 
#    y 0.000000 3.492970 0.000000 
#    z 0.000000 0.000000 3.762130 
# 
# 
# High freq. dielectric constant tensor:
#      x y z
#    x 1.646510 0.000000 0.000000 
#    y 0.000000 1.722920 0.000000 
#    z 0.000000 0.000000 1.726970 
# 
# From -- ./inp_files/40635.got.cif
#   From: 2010.06.25/outbox.cif.g09.slc.cpg/sg52_21_cif.got.tgz:40635.got - 2010.06.26 19:32:48.
