data_PCOD8215314
_publ_section_title
;
Structure prediction by ZEFSAII (Michael W. Deem and Ramdas Pophale) SiO2 
 PCOD8215314
Probable space group: P N N A
;
_chemical_formula_sum "Si O2"
_cell_formula_units_Z 44
_cell_length_a 23.889110
_cell_length_b 15.348191
_cell_length_c 5.535787
_cell_angle_alpha 90.000000
_cell_angle_beta 90.000000
_cell_angle_gamma 90.000000
_cell_volume 2029.721896
_symmetry_space_group_name_H-M "P N N A"
_symmetry_group_IT_number 52
_symmetry_cell_setting 'orthorhombic'
loop_
_space_group_symop_operation_xyz
x,y,z
1/2-x,-y,z
x,1/2-y,1/2-z
1/2-x,1/2+y,1/2-z
-x,-y,-z
1/2+x,y,-z
-x,1/2+y,1/2+z
1/2+x,1/2-y,1/2+z
loop_
_atom_site_type_symbol
_atom_site_label
_atom_site_fract_x
_atom_site_fract_y
_atom_site_fract_z
Si Si1 0.448244 0.565984 0.467601
Si Si2 0.015481 0.100132 0.533356
Si Si3 0.250000 0.500000 0.914261
Si Si4 0.403759 0.170156 0.577648
Si Si5 0.294433 0.156720 0.281259
Si Si6 0.651151 0.961819 0.100105
O O1 0.500000 0.500000 0.500000
O O2 0.446258 0.617721 0.726790
O O3 0.387071 0.520944 0.424494
O O4 0.456122 0.626230 0.227110
O O5 0.959291 0.155949 0.581447
O O6 0.000000 0.000000 0.500000
O O7 0.304863 0.518788 0.753597
O O8 0.257243 0.412638 0.072813
O O9 0.414854 0.250000 0.750000
O O10 0.350380 0.187419 0.414964
O O11 0.394466 0.081896 0.727052
O O12 0.261677 0.250000 0.250000
O O13 0.312032 0.111798 0.031728
#
# Coordination Sequence:
#
# PCOD8215314 Si02
#       6
#     8   8   4   8   8   8
#     4  10  19  33  59  86 121 165 202 249 311 395
#     4  10  19  33  53  88 120 164 199 238 318 388
#     4  10  26  38  60  96 124 176 224 292 332 418
#     4  11  21  33  57  95 126 157 204 277 336 393
#     4  11  22  39  64  93 129 165 222 289 357 394
#     4  11  21  39  58  92 126 162 223 267 337 400
#
# _framework density 21.677845999999999
#
# number of rings (size 3 to 8) (size 9 to 14) (size 15 to 20)
#    0.000    1.455    5.455    2.727    2.545    0.000 
#    0.000    0.000    0.000    1.091    9.455    0.000 
#    0.000    0.000    0.000    0.000    0.000    0.000 
#
# Total GULP energy -545186.632185 kJ/mol
# GULP energy per Si atom -12390.605277 kJ/mol
# Density = 2.162851 g / cm^3
# Si number density = 21.677846 Si / 1000 Ang^3
#
#
#
# Elastic Constant Matrix: (Units=GPa)
#
#
# Indices 1 2 3 4 5 6 
#
# 1 86.0666 51.4358 25.1819 0.0000 0.0000 0.0000
# 2 51.4358 90.3425 26.9725 0.0000 0.0000 0.0000
# 3 25.1819 26.9725 134.9535 0.0000 0.0000 0.0000
# 4 0.0000 0.0000 0.0000 28.1006 0.0000 0.0000
# 5 0.0000 0.0000 0.0000 0.0000 16.7205 0.0000
# 6 0.0000 0.0000 0.0000 0.0000 0.0000 17.7940
#
#
#
# Elastic Compliance Matrix: (Units=1/GPa)
#
#
# Indices 1 2 3 4 5 6 
#
# 1 0.017850 -0.009750 -0.001382 0.000000 0.000000 0.000000
# 2 -0.009750 0.017097 -0.001598 0.000000 0.000000 0.000000
# 3 -0.001382 -0.001598 0.007987 0.000000 0.000000 0.000000
# 4 0.000000 0.000000 0.000000 0.035586 0.000000 0.000000
# 5 0.000000 0.000000 0.000000 0.000000 0.059807 0.000000
# 6 0.000000 0.000000 0.000000 0.000000 0.000000 0.056199
#
#
# Mechanical properties :
#
#
# Convention : Reuss Voigt Hill
#
# Bulk Modulus (GPa) = 57.22626 57.61587 57.42107
# Shear Modulus (GPa) = 22.14231 26.37451 24.25841
#
# Velocity S-wave (km/s) = 3.19944 3.49185 3.34884
# Velocity P-wave (km/s) = 6.33280 6.54929 6.44196
#
# Compressibility (1/GPa) = 0.01747449
#
# Stress axis : x y z
#
# Youngs Moduli (GPa) = 56.02130 58.48877 125.20051
#
# Poissons Ratio (x) = 0.57029 0.17303
# Poissons Ratio (y) = 0.54623 0.20004
# Poissons Ratio (z) = 0.07742 0.09345
#
# Static dielectric constant tensor:
#      x y z
#    x 3.746770 0.000000 0.000000 
#    y 0.000000 3.471910 0.000000 
#    z 0.000000 0.000000 7.508580 
# 
# 
# High freq. dielectric constant tensor:
#      x y z
#    x 1.826720 0.000000 0.000000 
#    y 0.000000 1.811380 0.000000 
#    z 0.000000 0.000000 1.873100 
# 
# From -- ./inp_files/5733.got.cif
#   From: 2010.06.25/outbox.cif.g09.slc.cpg/sg52_3_cif.got.tgz:5733.got - 2010.06.26 19:32:48.
