data_PCOD8215622
_publ_section_title
;
Structure prediction by ZEFSAII (Michael W. Deem and Ramdas Pophale) SiO2 
 PCOD8215622
Probable space group: P N N A
;
_chemical_formula_sum "Si O2"
_cell_formula_units_Z 28
_cell_length_a 15.695706
_cell_length_b 8.179408
_cell_length_c 8.399825
_cell_angle_alpha 90.000000
_cell_angle_beta 90.000000
_cell_angle_gamma 90.000000
_cell_volume 1078.382832
_symmetry_space_group_name_H-M "P N N A"
_symmetry_group_IT_number 52
_symmetry_cell_setting 'orthorhombic'
loop_
_space_group_symop_operation_xyz
x,y,z
1/2-x,-y,z
x,1/2-y,1/2-z
1/2-x,1/2+y,1/2-z
-x,-y,-z
1/2+x,y,-z
-x,1/2+y,1/2+z
1/2+x,1/2-y,1/2+z
loop_
_atom_site_type_symbol
_atom_site_label
_atom_site_fract_x
_atom_site_fract_y
_atom_site_fract_z
Si Si1 0.608232 0.054242 0.548691
Si Si2 0.250000 0.000000 0.241758
Si Si3 0.892439 0.327235 0.535164
Si Si4 0.461577 0.967925 0.761952
O O1 0.623633 0.862213 0.513324
O O2 0.595000 0.132773 0.371627
O O3 0.691803 0.117933 0.642558
O O4 0.524373 0.085977 0.657119
O O5 0.186285 0.895093 0.136121
O O6 0.898830 0.422288 0.368273
O O7 0.981314 0.348492 0.630587
#
# Coordination Sequence:
#
# PCOD8215622 Si02
#       4
#     8   4   8   8
#     4  10  20  38  57  82 114 143 177 229 272 318
#     4  10  20  34  54  76 112 148 180 218 270 322
#     4  10  20  38  57  82 114 143 177 229 272 318
#     4   9  19  36  61  81 106 144 187 221 269 328
#
# _framework density 25.964805999999999
#
# number of rings (size 3 to 8) (size 9 to 14) (size 15 to 20)
#    0.000    2.286    0.000    4.286    0.000    1.143 
#    0.000   57.143    0.000    0.000    0.000    0.000 
#    0.000    0.000    0.000    0.000    0.000    0.000 
#
# Total GULP energy -346908.980669 kJ/mol
# GULP energy per Si atom -12389.606452 kJ/mol
# Density = 2.590571 g / cm^3
# Si number density = 25.964806 Si / 1000 Ang^3
#
#
#
# Elastic Constant Matrix: (Units=GPa)
#
#
# Indices 1 2 3 4 5 6 
#
# 1 149.3355 14.6995 68.0568 0.0000 0.0000 0.0000
# 2 14.6995 48.4259 1.1707 0.0000 0.0000 0.0000
# 3 68.0568 1.1707 183.5597 0.0000 0.0000 0.0000
# 4 0.0000 0.0000 0.0000 27.3053 0.0000 0.0000
# 5 0.0000 0.0000 0.0000 0.0000 40.8588 0.0000
# 6 0.0000 0.0000 0.0000 0.0000 0.0000 24.4948
#
#
#
# Elastic Compliance Matrix: (Units=1/GPa)
#
#
# Indices 1 2 3 4 5 6 
#
# 1 0.008340 -0.002457 -0.003077 0.000000 0.000000 0.000000
# 2 -0.002457 0.021377 0.000775 0.000000 0.000000 0.000000
# 3 -0.003077 0.000775 0.006584 0.000000 0.000000 0.000000
# 4 0.000000 0.000000 0.000000 0.036623 0.000000 0.000000
# 5 0.000000 0.000000 0.000000 0.000000 0.024475 0.000000
# 6 0.000000 0.000000 0.000000 0.000000 0.000000 0.040825
#
#
# Mechanical properties :
#
#
# Convention : Reuss Voigt Hill
#
# Bulk Modulus (GPa) = 37.33732 61.01946 49.17839
# Shear Modulus (GPa) = 31.91430 38.35804 35.13617
#
# Velocity S-wave (km/s) = 3.50971 3.84775 3.68261
# Velocity P-wave (km/s) = 5.55295 6.57967 6.08799
#
# Compressibility (1/GPa) = 0.02678286
#
# Stress axis : x y z
#
# Youngs Moduli (GPa) = 119.89971 46.77861 151.89358
#
# Poissons Ratio (x) = 0.11495 0.46731
# Poissons Ratio (y) = 0.29463 -0.11768
# Poissons Ratio (z) = 0.36888 -0.03624
#
# Static dielectric constant tensor:
#      x y z
#    x 5.206460 0.000000 0.000000 
#    y 0.000000 4.163960 0.000000 
#    z 0.000000 0.000000 5.828100 
# 
# 
# High freq. dielectric constant tensor:
#      x y z
#    x 2.026900 0.000000 0.000000 
#    y 0.000000 2.007920 0.000000 
#    z 0.000000 0.000000 2.067510 
# 
# From -- ./inp_files/11348.got.cif
#   From: 2010.06.25/outbox.cif.g09.slc.cpg/sg52_6_cif.got.tgz:11348.got - 2010.06.26 19:32:48.
