data_PCOD8215445
_publ_section_title
;
Structure prediction by ZEFSAII (Michael W. Deem and Ramdas Pophale) SiO2 
 PCOD8215445
Probable space group: P N N A
;
_chemical_formula_sum "Si O2"
_cell_formula_units_Z 52
_cell_length_a 8.729141
_cell_length_b 19.955616
_cell_length_c 15.559202
_cell_angle_alpha 90.000000
_cell_angle_beta 90.000000
_cell_angle_gamma 90.000000
_cell_volume 2710.341195
_symmetry_space_group_name_H-M "P N N A"
_symmetry_group_IT_number 52
_symmetry_cell_setting 'orthorhombic'
loop_
_space_group_symop_operation_xyz
x,y,z
1/2-x,-y,z
x,1/2-y,1/2-z
1/2-x,1/2+y,1/2-z
-x,-y,-z
1/2+x,y,-z
-x,1/2+y,1/2+z
1/2+x,1/2-y,1/2+z
loop_
_atom_site_type_symbol
_atom_site_label
_atom_site_fract_x
_atom_site_fract_y
_atom_site_fract_z
Si Si1 0.631741 0.150999 0.780438
Si Si2 0.500769 0.539096 0.380177
Si Si3 0.280356 0.158645 0.521750
Si Si4 0.750000 0.500000 0.498049
Si Si5 0.515814 0.435855 0.064821
Si Si6 0.942647 0.782346 0.611904
Si Si7 0.614471 0.553298 0.748971
O O1 0.507981 0.096840 0.810405
O O2 0.587616 0.161305 0.682149
O O3 0.605540 0.212702 0.844460
O O4 0.808943 0.124953 0.776554
O O5 0.651361 0.548227 0.436874
O O6 0.355224 0.547169 0.443541
O O7 0.496476 0.467377 0.330446
O O8 0.399515 0.122394 0.460002
O O9 0.184978 0.097554 0.565237
O O10 0.377730 0.207364 0.585980
O O11 0.167325 0.207129 0.469426
O O12 0.480359 0.453023 0.163295
O O13 0.500000 0.500000 0.000000
O O14 0.750000 0.500000 0.755428
#
# Coordination Sequence:
#
# PCOD8215445 Si02
#       7
#     8   8   8   4   8   8   8
#     4  10  20  39  61  79 111 161 194 239 297 351
#     4  10  21  36  60  83 114 145 189 246 296 354
#     4  10  22  37  56  88 117 153 195 247 278 366
#     4  10  20  38  54  84 114 140 182 246 304 334
#     4  11  21  35  60  91 123 156 189 242 305 366
#     4  10  22  39  60  78 117 157 200 235 294 343
#     4  10  19  36  58  91 117 154 195 241 306 366
#
# _framework density 19.185775
#
# number of rings (size 3 to 8) (size 9 to 14) (size 15 to 20)
#    0.000    1.846    3.846    1.385    6.462    2.462 
#    0.000    0.000   13.538    0.000    0.000    0.000 
#    0.000    0.000    0.000    0.000    0.000    0.000 
#
# Total GULP energy -644228.939802 kJ/mol
# GULP energy per Si atom -12389.018073 kJ/mol
# Density = 1.914211 g / cm^3
# Si number density = 19.185775 Si / 1000 Ang^3
#
#
#
# Elastic Constant Matrix: (Units=GPa)
#
#
# Indices 1 2 3 4 5 6 
#
# 1 91.8897 38.4159 46.9496 0.0000 0.0000 0.0000
# 2 38.4159 77.2860 44.5541 0.0000 0.0000 0.0000
# 3 46.9496 44.5541 118.7860 0.0000 0.0000 0.0000
# 4 0.0000 0.0000 0.0000 29.5627 0.0000 0.0000
# 5 0.0000 0.0000 0.0000 0.000014188.9314 0.0000
# 6 0.0000 0.0000 0.0000 0.0000 0.0000 25.2319
#
#
#
# Elastic Compliance Matrix: (Units=1/GPa)
#
#
# Indices 1 2 3 4 5 6 
#
# 1 0.015109 -0.005190 -0.004025 0.000000 0.000000 0.000000
# 2 -0.005190 0.018291 -0.004809 0.000000 0.000000 0.000000
# 3 -0.004025 -0.004809 0.011813 0.000000 0.000000 0.000000
# 4 0.000000 0.000000 0.000000 0.033826 0.000000 0.000000
# 5 0.000000 0.000000 0.000000 0.000000 0.000070 0.000000
# 6 0.000000 0.000000 0.000000 0.000000 0.000000 0.039632
#
#
# Mechanical properties :
#
#
# Convention : Reuss Voigt Hill
#
# Bulk Modulus (GPa) = 58.25863 60.86679 59.56271
# Shear Modulus (GPa) = 32.78423 2859.28134 1446.03279
#
# Velocity S-wave (km/s) = 4.13822 38.64646 27.48339
# Velocity P-wave (km/s) = 7.29826 44.97991 32.22155
#
# Compressibility (1/GPa) = 0.01716484
#
# Stress axis : x y z
#
# Youngs Moduli (GPa) = 66.18666 54.67161 84.64996
#
# Poissons Ratio (x) = 0.28372 0.34073
# Poissons Ratio (y) = 0.34348 0.40712
# Poissons Ratio (z) = 0.26641 0.26294
#
# Static dielectric constant tensor:
#      x y z
#    x 3.708740 0.000000 0.000000 
#    y 0.000000 3.469600 0.000000 
#    z 0.000000 0.000000 3.743700 
# 
# 
# High freq. dielectric constant tensor:
#      x y z
#    x 1.741050 0.000000 0.000000 
#    y 0.000000 1.725900 0.000000 
#    z 0.000000 0.000000 1.761350 
# 
# From -- ./inp_files/25057.got.cif
#   From: 2010.06.25/outbox.cif.g09.slc.cpg/sg52_13_cif.got.tgz:25057.got - 2010.06.26 19:32:48.
