data_PCOD8215874
_publ_section_title
;
Structure prediction by ZEFSAII (Michael W. Deem and Ramdas Pophale) SiO2 
 PCOD8215874
Probable space group: P N N A
;
_chemical_formula_sum "Si O2"
_cell_formula_units_Z 64
_cell_length_a 22.442797
_cell_length_b 15.183326
_cell_length_c 9.067088
_cell_angle_alpha 90.000000
_cell_angle_beta 90.000000
_cell_angle_gamma 90.000000
_cell_volume 3089.667388
_symmetry_space_group_name_H-M "P N N A"
_symmetry_group_IT_number 52
_symmetry_cell_setting 'orthorhombic'
loop_
_space_group_symop_operation_xyz
x,y,z
1/2-x,-y,z
x,1/2-y,1/2-z
1/2-x,1/2+y,1/2-z
-x,-y,-z
1/2+x,y,-z
-x,1/2+y,1/2+z
1/2+x,1/2-y,1/2+z
loop_
_atom_site_type_symbol
_atom_site_label
_atom_site_fract_x
_atom_site_fract_y
_atom_site_fract_z
Si Si1 0.914484 0.763065 0.415993
Si Si2 0.279103 0.762698 0.586924
Si Si3 0.285377 0.921405 0.071837
Si Si4 0.916315 0.570020 0.499864
Si Si5 0.488159 0.323730 0.879351
Si Si6 0.003139 0.491409 0.733626
Si Si7 0.715984 0.843238 0.671860
Si Si8 0.080337 0.663465 0.151876
O O1 0.940031 0.750000 0.250000
O O2 0.846895 0.798420 0.406783
O O3 0.919575 0.674583 0.511198
O O4 0.953621 0.828332 0.514699
O O5 0.252353 0.750000 0.750000
O O6 0.276844 0.667031 0.516908
O O7 0.240503 0.833067 0.495057
O O8 0.258994 0.909828 0.238313
O O9 0.250000 0.000000 0.992563
O O10 0.352405 0.957460 0.063117
O O11 0.963408 0.523456 0.600622
O O12 0.933012 0.543049 0.330857
O O13 0.491005 0.250000 0.750000
O O14 0.481593 0.424250 0.830461
O O15 0.431159 0.303456 0.983665
O O16 0.967807 0.412766 0.813981
O O17 0.719597 0.750000 0.750000
O O18 0.647297 0.875221 0.668170
O O19 0.070675 0.750000 0.250000
#
# Coordination Sequence:
#
# PCOD8215874 Si02
#       8
#     8   8   8   8   8   8   8   8
#     4  10  20  38  63  89 121 166 210 258 321 374
#     4   9  20  38  62  89 122 158 203 266 321 372
#     4  10  20  38  63  89 116 161 210 254 311 372
#     4  10  21  37  62  90 124 159 205 265 308 372
#     4  12  24  38  61  95 124 164 216 260 315 383
#     4  11  23  39  60  94 128 161 208 260 318 369
#     4   9  20  39  62  87 114 159 210 250 305 382
#     4  11  24  42  63  87 128 170 204 256 325 386
#
# _framework density 20.714203999999999
#
# number of rings (size 3 to 8) (size 9 to 14) (size 15 to 20)
#    0.000    1.750    1.250    3.000    3.500    1.000 
#    2.250    0.625    0.000    0.000    0.000    0.000 
#    0.000    0.000    0.000    0.000    0.000    0.000 
#
# Total GULP energy -793034.533253 kJ/mol
# GULP energy per Si atom -12391.164582 kJ/mol
# Density = 2.066706 g / cm^3
# Si number density = 20.714204 Si / 1000 Ang^3
#
#
#
# Elastic Constant Matrix: (Units=GPa)
#
#
# Indices 1 2 3 4 5 6 
#
# 1 131.4234 36.8801 62.0878 0.0000 0.0000 0.0000
# 2 36.8801 56.9238 21.9128 0.0000 0.0000 0.0000
# 3 62.0878 21.9128 128.0230 0.0000 0.0000 0.0000
# 4 0.0000 0.0000 0.0000 18.6177 0.0000 0.0000
# 5 0.0000 0.0000 0.0000 0.0000 35.4547 0.0000
# 6 0.0000 0.0000 0.0000 0.0000 0.0000 17.5948
#
#
#
# Elastic Compliance Matrix: (Units=1/GPa)
#
#
# Indices 1 2 3 4 5 6 
#
# 1 0.011319 -0.005588 -0.004533 0.000000 0.000000 0.000000
# 2 -0.005588 0.021566 -0.000981 0.000000 0.000000 0.000000
# 3 -0.004533 -0.000981 0.010177 0.000000 0.000000 0.000000
# 4 0.000000 0.000000 0.000000 0.053712 0.000000 0.000000
# 5 0.000000 0.000000 0.000000 0.000000 0.028205 0.000000
# 6 0.000000 0.000000 0.000000 0.000000 0.000000 0.056835
#
#
# Mechanical properties :
#
#
# Convention : Reuss Voigt Hill
#
# Bulk Modulus (GPa) = 47.94478 62.01462 54.97970
# Shear Modulus (GPa) = 23.70002 27.36606 25.53304
#
# Velocity S-wave (km/s) = 3.38619 3.63867 3.51470
# Velocity P-wave (km/s) = 6.20358 6.90337 6.56281
#
# Compressibility (1/GPa) = 0.02085733
#
# Stress axis : x y z
#
# Youngs Moduli (GPa) = 88.35069 46.37024 98.25837
#
# Poissons Ratio (x) = 0.25913 0.44537
# Poissons Ratio (y) = 0.49373 0.09640
# Poissons Ratio (z) = 0.40047 0.04549
#
# Static dielectric constant tensor:
#      x y z
#    x 4.028200 0.000000 0.000000 
#    y 0.000000 3.341620 0.000000 
#    z 0.000000 0.000000 4.076400 
# 
# 
# High freq. dielectric constant tensor:
#      x y z
#    x 1.808450 0.000000 0.000000 
#    y 0.000000 1.805440 0.000000 
#    z 0.000000 0.000000 1.812840 
# 
# From -- ./inp_files/13601.got.cif
#   From: 2010.06.25/outbox.cif.g09.slc.cpg/sg52_7_cif.got.tgz:13601.got - 2010.06.26 19:32:48.
