data_PCOD8215849
_publ_section_title
;
Structure prediction by ZEFSAII (Michael W. Deem and Ramdas Pophale) SiO2 
 PCOD8215849
Probable space group: P N N A
;
_chemical_formula_sum "Si O2"
_cell_formula_units_Z 40
_cell_length_a 11.824106
_cell_length_b 14.174633
_cell_length_c 12.234334
_cell_angle_alpha 90.000000
_cell_angle_beta 90.000000
_cell_angle_gamma 90.000000
_cell_volume 2050.503289
_symmetry_space_group_name_H-M "P N N A"
_symmetry_group_IT_number 52
_symmetry_cell_setting 'orthorhombic'
loop_
_space_group_symop_operation_xyz
x,y,z
1/2-x,-y,z
x,1/2-y,1/2-z
1/2-x,1/2+y,1/2-z
-x,-y,-z
1/2+x,y,-z
-x,1/2+y,1/2+z
1/2+x,1/2-y,1/2+z
loop_
_atom_site_type_symbol
_atom_site_label
_atom_site_fract_x
_atom_site_fract_y
_atom_site_fract_z
Si Si1 0.781354 0.106507 0.741675
Si Si2 0.505214 0.925808 0.855044
Si Si3 0.821395 0.734947 0.591499
Si Si4 0.216554 0.184724 0.851400
Si Si5 0.461279 0.131959 0.905094
O O1 0.918540 0.113391 0.754068
O O2 0.731656 0.172504 0.646640
O O3 0.733068 0.139961 0.858551
O O4 0.750000 0.000000 0.713780
O O5 0.373113 0.900463 0.845230
O O6 0.518413 0.038632 0.854558
O O7 0.557384 0.882388 0.965886
O O8 0.797211 0.743293 0.463231
O O9 0.956374 0.722667 0.613464
O O10 0.188401 0.250000 0.750000
O O11 0.343548 0.146895 0.843093
#
# Coordination Sequence:
#
# PCOD8215849 Si02
#       5
#     8   8   8   8   8
#     4  11  21  38  65  91 116 152 207 255 299 354
#     4  10  21  36  62  89 118 156 204 256 299 354
#     4  10  23  38  61  90 117 159 203 245 299 361
#     4  11  24  37  58  88 126 162 195 246 307 365
#     4  10  20  38  60  89 121 153 206 253 300 350
#
# _framework density 19.507406
#
# number of rings (size 3 to 8) (size 9 to 14) (size 15 to 20)
#    0.000    1.600    4.000    0.600    5.600    0.000 
#    0.000    2.000    0.000    3.600    0.000    0.000 
#    0.000    0.000    0.000    0.000    0.000    0.000 
#
# Total GULP energy -495804.159348 kJ/mol
# GULP energy per Si atom -12395.103984 kJ/mol
# Density = 1.946301 g / cm^3
# Si number density = 19.507406 Si / 1000 Ang^3
#
#
#
# Elastic Constant Matrix: (Units=GPa)
#
#
# Indices 1 2 3 4 5 6 
#
# 1 137.3149 44.5256 37.2953 0.0000 0.0000 0.0000
# 2 44.5256 113.1894 48.9364 0.0000 0.0000 0.0000
# 3 37.2953 48.9364 103.7396 0.0000 0.0000 0.0000
# 4 0.0000 0.0000 0.0000 21.7920 0.0000 0.0000
# 5 0.0000 0.0000 0.0000 0.0000 25.1426 0.0000
# 6 0.0000 0.0000 0.0000 0.0000 0.0000 23.5301
#
#
#
# Elastic Compliance Matrix: (Units=1/GPa)
#
#
# Indices 1 2 3 4 5 6 
#
# 1 0.008631 -0.002580 -0.001886 0.000000 0.000000 0.000000
# 2 -0.002580 0.011869 -0.004672 0.000000 0.000000 0.000000
# 3 -0.001886 -0.004672 0.012521 0.000000 0.000000 0.000000
# 4 0.000000 0.000000 0.000000 0.045888 0.000000 0.000000
# 5 0.000000 0.000000 0.000000 0.000000 0.039773 0.000000
# 6 0.000000 0.000000 0.000000 0.000000 0.000000 0.042499
#
#
# Mechanical properties :
#
#
# Convention : Reuss Voigt Hill
#
# Bulk Modulus (GPa) = 67.81076 68.41762 68.11419
# Shear Modulus (GPa) = 27.11897 28.99204 28.05551
#
# Velocity S-wave (km/s) = 3.73257 3.85932 3.79647
# Velocity P-wave (km/s) = 7.30843 7.41673 7.36278
#
# Compressibility (1/GPa) = 0.01474692
#
# Stress axis : x y z
#
# Youngs Moduli (GPa) = 115.85673 84.25082 79.86434
#
# Poissons Ratio (x) = 0.21736 0.15063
# Poissons Ratio (y) = 0.29890 0.37309
# Poissons Ratio (z) = 0.21851 0.39358
#
# Static dielectric constant tensor:
#      x y z
#    x 3.725520 0.000000 0.000000 
#    y 0.000000 3.288840 0.000000 
#    z 0.000000 0.000000 3.336870 
# 
# 
# High freq. dielectric constant tensor:
#      x y z
#    x 1.781490 0.000000 0.000000 
#    y 0.000000 1.741750 0.000000 
#    z 0.000000 0.000000 1.734830 
# 
# From -- ./inp_files/18001.got.cif
#   From: 2010.06.25/outbox.cif.g09.slc.cpg/sg52_10_cif.got.tgz:18001.got - 2010.06.26 19:32:48.
