data_PCOD8215538
_publ_section_title
;
Structure prediction by ZEFSAII (Michael W. Deem and Ramdas Pophale) SiO2 
 PCOD8215538
Probable space group: P N N A
;
_chemical_formula_sum "Si O2"
_cell_formula_units_Z 48
_cell_length_a 8.552142
_cell_length_b 13.907891
_cell_length_c 19.645617
_cell_angle_alpha 90.000000
_cell_angle_beta 90.000000
_cell_angle_gamma 90.000000
_cell_volume 2336.694061
_symmetry_space_group_name_H-M "P N N A"
_symmetry_group_IT_number 52
_symmetry_cell_setting 'orthorhombic'
loop_
_space_group_symop_operation_xyz
x,y,z
1/2-x,-y,z
x,1/2-y,1/2-z
1/2-x,1/2+y,1/2-z
-x,-y,-z
1/2+x,y,-z
-x,1/2+y,1/2+z
1/2+x,1/2-y,1/2+z
loop_
_atom_site_type_symbol
_atom_site_label
_atom_site_fract_x
_atom_site_fract_y
_atom_site_fract_z
Si Si1 0.750000 0.500000 0.247758
Si Si2 0.508026 0.007530 0.653126
Si Si3 0.750000 0.000000 0.761663
Si Si4 0.417500 0.184363 0.186838
Si Si5 0.784962 0.317472 0.311559
Si Si6 0.833262 0.321676 0.076228
Si Si7 0.461719 0.171560 0.426991
O O1 0.623785 0.448777 0.197175
O O2 0.846918 0.424088 0.293994
O O3 0.426303 0.092118 0.611399
O O4 0.625830 0.048884 0.709814
O O5 0.594660 0.931685 0.602891
O O6 0.677674 0.916145 0.809678
O O7 0.366643 0.250000 0.250000
O O8 0.600572 0.164387 0.185670
O O9 0.384669 0.243226 0.117411
O O10 0.835332 0.250000 0.250000
O O11 0.859727 0.276675 0.380895
O O12 0.648723 0.338431 0.073348
O O13 0.900657 0.308367 0.001783
#
# Coordination Sequence:
#
# PCOD8215538 Si02
#       7
#     4   8   4   8   8   8   8
#     4  12  18  40  66  92 120 168 220 262 332 374
#     4  12  22  39  64  97 127 165 212 275 328 390
#     4  12  24  38  66  98 128 168 220 272 330 386
#     4  10  20  41  62  87 127 169 210 265 331 377
#     4  10  19  39  65  88 124 167 214 271 319 386
#     4  11  24  40  62  93 128 171 216 262 331 391
#     4  11  23  42  63  89 132 171 209 268 329 392
#
# _framework density 20.541843
#
# number of rings (size 3 to 8) (size 9 to 14) (size 15 to 20)
#    0.000    1.000    6.667    1.500    2.333    0.000 
#    6.000    0.833    0.000    4.000    0.000    0.000 
#    0.000    0.000    0.000    0.000    0.000    0.000 
#
# Total GULP energy -594744.711552 kJ/mol
# GULP energy per Si atom -12390.514824 kJ/mol
# Density = 2.049509 g / cm^3
# Si number density = 20.541843 Si / 1000 Ang^3
#
#
#
# Elastic Constant Matrix: (Units=GPa)
#
#
# Indices 1 2 3 4 5 6 
#
# 1 54.6179 31.4567 44.6399 0.0000 0.0000 0.0000
# 2 31.4567 146.0033 94.2895 0.0000 0.0000 0.0000
# 3 44.6399 94.2895 172.5412 0.0000 0.0000 0.0000
# 4 0.0000 0.0000 0.0000 29.8284 0.0000 0.0000
# 5 0.0000 0.0000 0.0000 0.0000 32.2478 0.0000
# 6 0.0000 0.0000 0.0000 0.0000 0.0000 29.3666
#
#
#
# Elastic Compliance Matrix: (Units=1/GPa)
#
#
# Indices 1 2 3 4 5 6 
#
# 1 0.023507 -0.001757 -0.005121 0.000000 0.000000 0.000000
# 2 -0.001757 0.010716 -0.005401 0.000000 0.000000 0.000000
# 3 -0.005121 -0.005401 0.010072 0.000000 0.000000 0.000000
# 4 0.000000 0.000000 0.000000 0.033525 0.000000 0.000000
# 5 0.000000 0.000000 0.000000 0.000000 0.031010 0.000000
# 6 0.000000 0.000000 0.000000 0.000000 0.000000 0.034052
#
#
# Mechanical properties :
#
#
# Convention : Reuss Voigt Hill
#
# Bulk Modulus (GPa) = 50.67061 79.32607 64.99834
# Shear Modulus (GPa) = 28.73216 31.80699 30.26957
#
# Velocity S-wave (km/s) = 3.74400 3.93924 3.84286
# Velocity P-wave (km/s) = 6.58867 7.70654 7.16943
#
# Compressibility (1/GPa) = 0.01973531
#
# Stress axis : x y z
#
# Youngs Moduli (GPa) = 42.54072 93.31838 99.28033
#
# Poissons Ratio (x) = 0.16397 0.50846
# Poissons Ratio (y) = 0.07475 0.53626
# Poissons Ratio (z) = 0.21787 0.50405
#
# Static dielectric constant tensor:
#      x y z
#    x 3.795050 0.000000 0.000000 
#    y 0.000000 3.751870 0.000000 
#    z 0.000000 0.000000 3.875460 
# 
# 
# High freq. dielectric constant tensor:
#      x y z
#    x 1.798300 0.000000 0.000000 
#    y 0.000000 1.795920 0.000000 
#    z 0.000000 0.000000 1.797440 
# 
# From -- ./inp_files/31298.got.cif
#   From: 2010.06.25/outbox.cif.g09.slc.cpg/sg52_16_cif.got.tgz:31298.got - 2010.06.26 19:32:48.
