data_PCOD8215433
_publ_section_title
;
Structure prediction by ZEFSAII (Michael W. Deem and Ramdas Pophale) SiO2 
 PCOD8215433
Probable space group: P N N A
;
_chemical_formula_sum "Si O2"
_cell_formula_units_Z 48
_cell_length_a 31.295559
_cell_length_b 9.009416
_cell_length_c 7.665621
_cell_angle_alpha 90.000000
_cell_angle_beta 90.000000
_cell_angle_gamma 90.000000
_cell_volume 2161.357946
_symmetry_space_group_name_H-M "P N N A"
_symmetry_group_IT_number 52
_symmetry_cell_setting 'orthorhombic'
loop_
_space_group_symop_operation_xyz
x,y,z
1/2-x,-y,z
x,1/2-y,1/2-z
1/2-x,1/2+y,1/2-z
-x,-y,-z
1/2+x,y,-z
-x,1/2+y,1/2+z
1/2+x,1/2-y,1/2+z
loop_
_atom_site_type_symbol
_atom_site_label
_atom_site_fract_x
_atom_site_fract_y
_atom_site_fract_z
Si Si1 0.141351 0.923005 0.065677
Si Si2 0.950323 0.024279 0.849507
Si Si3 0.940097 0.478076 0.041963
Si Si4 0.205204 0.926472 0.763567
Si Si5 0.649516 0.573211 0.955770
Si Si6 0.493128 0.747980 0.039244
O O1 0.091675 0.965723 0.025556
O O2 0.146447 0.748096 0.064625
O O3 0.152759 0.992524 0.258466
O O4 0.172756 0.983742 0.915306
O O5 0.938616 0.079690 0.658273
O O6 0.965898 0.852218 0.827316
O O7 0.988186 0.130785 0.908539
O O8 0.889915 0.480374 0.082830
O O9 0.961597 0.638679 0.068279
O O10 0.969845 0.352715 0.136297
O O11 0.209410 0.750000 0.750000
O O12 0.189757 0.979765 0.571289
O O13 0.250000 0.000000 0.808542
#
# Coordination Sequence:
#
# PCOD8215433 Si02
#       6
#     8   8   8   8   8   8
#     4   9  18  37  63  85 117 160 194 236 296 363
#     4  10  19  36  52  79 118 157 204 246 292 346
#     4  10  19  36  52  79 118 157 204 246 292 346
#     4  10  22  42  64  92 118 148 196 248 302 370
#     4   9  18  37  63  85 117 160 194 236 296 363
#     4  10  20  32  52  82 112 158 198 252 290 332
#
# _framework density 22.208259000000002
#
# number of rings (size 3 to 8) (size 9 to 14) (size 15 to 20)
#    0.000    2.333    1.667    1.000    0.000    0.667 
#   21.000    0.000    0.000    0.000    0.000    0.000 
#    0.000    0.000    0.000    0.000    0.000    0.000 
#
# Total GULP energy -594645.819658 kJ/mol
# GULP energy per Si atom -12388.454576 kJ/mol
# Density = 2.215771 g / cm^3
# Si number density = 22.208259 Si / 1000 Ang^3
#
#
#
# Elastic Constant Matrix: (Units=GPa)
#
#
# Indices 1 2 3 4 5 6 
#
# 1 120.9589 18.5888 50.4573 0.0000 0.0000 0.0000
# 2 18.5888 68.5908 19.5468 0.0000 0.0000 0.0000
# 3 50.4573 19.5468 81.5560 0.0000 0.0000 0.0000
# 4 0.0000 0.0000 0.0000 18.5745 0.0000 0.0000
# 5 0.0000 0.0000 0.0000 0.0000 35.4710 0.0000
# 6 0.0000 0.0000 0.0000 0.0000 0.0000 31.8898
#
#
#
# Elastic Compliance Matrix: (Units=1/GPa)
#
#
# Indices 1 2 3 4 5 6 
#
# 1 0.011226 -0.001141 -0.006672 0.000000 0.000000 0.000000
# 2 -0.001141 0.015764 -0.003072 0.000000 0.000000 0.000000
# 3 -0.006672 -0.003072 0.017126 0.000000 0.000000 0.000000
# 4 0.000000 0.000000 0.000000 0.053837 0.000000 0.000000
# 5 0.000000 0.000000 0.000000 0.000000 0.028192 0.000000
# 6 0.000000 0.000000 0.000000 0.000000 0.000000 0.031358
#
#
# Mechanical properties :
#
#
# Convention : Reuss Voigt Hill
#
# Bulk Modulus (GPa) = 44.75227 49.81019 47.28123
# Shear Modulus (GPa) = 26.77795 29.35458 28.06626
#
# Velocity S-wave (km/s) = 3.47618 3.63958 3.55882
# Velocity P-wave (km/s) = 6.02550 6.33557 6.18248
#
# Compressibility (1/GPa) = 0.02234523
#
# Stress axis : x y z
#
# Youngs Moduli (GPa) = 89.08160 63.43578 58.39245
#
# Poissons Ratio (x) = 0.07238 0.38957
# Poissons Ratio (y) = 0.10164 0.17940
# Poissons Ratio (z) = 0.59432 0.19489
#
# Static dielectric constant tensor:
#      x y z
#    x 4.104720 0.000000 0.000000 
#    y 0.000000 3.851620 0.000000 
#    z 0.000000 0.000000 4.260830 
# 
# 
# High freq. dielectric constant tensor:
#      x y z
#    x 1.860030 0.000000 0.000000 
#    y 0.000000 1.854570 0.000000 
#    z 0.000000 0.000000 1.878130 
# 
# From -- ./inp_files/15535.got.cif
#   From: 2010.06.25/outbox.cif.g09.slc.cpg/sg52_8_cif.got.tgz:15535.got - 2010.06.26 19:32:48.
