data_PCOD8215377
_publ_section_title
;
Structure prediction by ZEFSAII (Michael W. Deem and Ramdas Pophale) SiO2 
 PCOD8215377
Probable space group: P N N A
;
_chemical_formula_sum "Si O2"
_cell_formula_units_Z 60
_cell_length_a 15.961786
_cell_length_b 15.833958
_cell_length_c 11.734627
_cell_angle_alpha 90.000000
_cell_angle_beta 90.000000
_cell_angle_gamma 90.000000
_cell_volume 2965.789082
_symmetry_space_group_name_H-M "P N N A"
_symmetry_group_IT_number 52
_symmetry_cell_setting 'orthorhombic'
loop_
_space_group_symop_operation_xyz
x,y,z
1/2-x,-y,z
x,1/2-y,1/2-z
1/2-x,1/2+y,1/2-z
-x,-y,-z
1/2+x,y,-z
-x,1/2+y,1/2+z
1/2+x,1/2-y,1/2+z
loop_
_atom_site_type_symbol
_atom_site_label
_atom_site_fract_x
_atom_site_fract_y
_atom_site_fract_z
Si Si1 0.313618 0.306270 0.066925
Si Si2 0.681721 0.250000 0.750000
Si Si3 0.241322 0.291785 0.637663
Si Si4 0.933835 0.901892 0.810963
Si Si5 0.384859 0.411810 0.637469
Si Si6 0.662252 0.956486 0.703231
Si Si7 0.583821 0.653251 0.608756
Si Si8 0.904073 0.906545 0.068695
O O1 0.235568 0.289849 0.149772
O O2 0.335757 0.407101 0.080534
O O3 0.396475 0.253377 0.102740
O O4 0.285507 0.280321 0.939757
O O5 0.621038 0.180557 0.802661
O O6 0.201356 0.250000 0.750000
O O7 0.306457 0.361202 0.688090
O O8 0.169242 0.337648 0.565702
O O9 0.032017 0.881274 0.794937
O O10 0.908819 0.971734 0.715874
O O11 0.923313 0.938437 0.939782
O O12 0.384856 0.389453 0.505428
O O13 0.376504 0.513503 0.645479
O O14 0.643786 0.882579 0.793113
O O15 0.750000 0.000000 0.732545
O O16 0.485465 0.636330 0.627140
#
# Coordination Sequence:
#
# PCOD8215377 Si02
#       8
#     8   4   8   8   8   8   8   8
#     4  11  22  37  58  93 126 155 194 250 319 364
#     4  12  20  34  62  96 120 158 188 254 326 376
#     4  11  26  43  59  82 119 171 215 249 294 363
#     4  11  21  35  61  96 126 149 197 250 320 375
#     4  10  21  37  61  89 115 159 202 255 299 359
#     4  12  20  32  59  94 127 155 183 248 322 377
#     4  10  19  34  58  95 127 148 194 250 313 365
#     4  11  20  38  64  89 117 160 208 258 296 360
#
# _framework density 20.230702999999998
#
# number of rings (size 3 to 8) (size 9 to 14) (size 15 to 20)
#    0.000    1.067    6.667    1.200    2.800    1.067 
#    0.000    1.333    0.000    0.800    0.000    0.000 
#    0.000    0.000    0.000    0.000    0.000    0.000 
#
# Total GULP energy -743756.690297 kJ/mol
# GULP energy per Si atom -12395.944838 kJ/mol
# Density = 2.018466 g / cm^3
# Si number density = 20.230703 Si / 1000 Ang^3
#
#
#
# Elastic Constant Matrix: (Units=GPa)
#
#
# Indices 1 2 3 4 5 6 
#
# 1 93.5414 40.2497 17.7050 0.0000 0.0000 0.0000
# 2 40.2497 88.1526 27.0185 0.0000 0.0000 0.0000
# 3 17.7050 27.0185 45.6430 0.0000 0.0000 0.0000
# 4 0.0000 0.0000 0.0000 29.1801 0.0000 0.0000
# 5 0.0000 0.0000 0.0000 0.0000 20.3453 0.0000
# 6 0.0000 0.0000 0.0000 0.0000 0.0000 26.4302
#
#
#
# Elastic Compliance Matrix: (Units=1/GPa)
#
#
# Indices 1 2 3 4 5 6 
#
# 1 0.013442 -0.005546 -0.001932 0.000000 0.000000 0.000000
# 2 -0.005546 0.016146 -0.007407 0.000000 0.000000 0.000000
# 3 -0.001932 -0.007407 0.027043 0.000000 0.000000 0.000000
# 4 0.000000 0.000000 0.000000 0.034270 0.000000 0.000000
# 5 0.000000 0.000000 0.000000 0.000000 0.049152 0.000000
# 6 0.000000 0.000000 0.000000 0.000000 0.000000 0.037836
#
#
# Mechanical properties :
#
#
# Convention : Reuss Voigt Hill
#
# Bulk Modulus (GPa) = 37.22497 44.14259 40.68378
# Shear Modulus (GPa) = 23.08293 24.68202 23.88248
#
# Velocity S-wave (km/s) = 3.38151 3.49668 3.43958
# Velocity P-wave (km/s) = 5.80399 6.17813 5.99398
#
# Compressibility (1/GPa) = 0.02686369
#
# Stress axis : x y z
#
# Youngs Moduli (GPa) = 74.39229 61.93427 36.97842
#
# Poissons Ratio (x) = 0.34346 0.07142
# Poissons Ratio (y) = 0.41255 0.27389
# Poissons Ratio (z) = 0.14369 0.45872
#
# Static dielectric constant tensor:
#      x y z
#    x 3.814650 0.000000 0.000000 
#    y 0.000000 3.879900 0.000000 
#    z 0.000000 0.000000 3.315970 
# 
# 
# High freq. dielectric constant tensor:
#      x y z
#    x 1.792840 0.000000 0.000000 
#    y 0.000000 1.795080 0.000000 
#    z 0.000000 0.000000 1.747650 
# 
# From -- ./inp_files/20849.got.cif
#   From: 2010.06.25/outbox.cif.g09.slc.cpg/sg52_11_cif.got.tgz:20849.got - 2010.06.26 19:32:48.
