data_PCOD8215450
_publ_section_title
;
Structure prediction by ZEFSAII (Michael W. Deem and Ramdas Pophale) SiO2 
 PCOD8215450
Probable space group: P N N A
;
_chemical_formula_sum "Si O2"
_cell_formula_units_Z 56
_cell_length_a 19.040957
_cell_length_b 17.585081
_cell_length_c 8.954774
_cell_angle_alpha 90.000000
_cell_angle_beta 90.000000
_cell_angle_gamma 90.000000
_cell_volume 2998.387613
_symmetry_space_group_name_H-M "P N N A"
_symmetry_group_IT_number 52
_symmetry_cell_setting 'orthorhombic'
loop_
_space_group_symop_operation_xyz
x,y,z
1/2-x,-y,z
x,1/2-y,1/2-z
1/2-x,1/2+y,1/2-z
-x,-y,-z
1/2+x,y,-z
-x,1/2+y,1/2+z
1/2+x,1/2-y,1/2+z
loop_
_atom_site_type_symbol
_atom_site_label
_atom_site_fract_x
_atom_site_fract_y
_atom_site_fract_z
Si Si1 0.173630 0.670609 0.838996
Si Si2 0.920883 0.937224 0.641688
Si Si3 0.176416 0.986808 0.809893
Si Si4 0.561812 0.057993 0.984643
Si Si5 0.459348 0.666531 0.733870
Si Si6 0.672974 0.378541 0.096146
Si Si7 0.057423 0.597578 0.025043
O O1 0.163231 0.750000 0.750000
O O2 0.161255 0.601487 0.723920
O O3 0.252225 0.665180 0.908831
O O4 0.115265 0.660088 0.971179
O O5 0.910985 0.929815 0.818019
O O6 0.863111 0.880952 0.567763
O O7 0.001673 0.914329 0.608777
O O8 0.904020 0.019738 0.571133
O O9 0.250000 0.000000 0.893683
O O10 0.180169 0.035277 0.656355
O O11 0.121182 0.018343 0.921978
O O12 0.540815 0.138167 0.061881
O O13 0.500000 0.000000 0.000000
O O14 0.490335 0.750000 0.750000
O O15 0.379901 0.666314 0.795315
O O16 0.513302 0.616373 0.827611
#
# Coordination Sequence:
#
# PCOD8215450 Si02
#       7
#     8   8   8   8   8   8   8
#     4  11  21  35  60  88 118 155 195 244 311 361
#     4  10  19  36  59  84 110 145 208 248 286 352
#     4   9  19  36  54  79 109 146 196 234 282 357
#     4  11  20  34  58  86 111 153 193 251 296 351
#     4  10  21  37  57  84 120 153 196 240 305 362
#     4   9  19  38  62  79 108 159 205 238 280 368
#     4  10  20  35  55  85 113 150 193 248 293 358
#
# _framework density 18.676704999999998
#
# number of rings (size 3 to 8) (size 9 to 14) (size 15 to 20)
#    0.000    2.000    2.857    1.286    0.000    2.286 
#    2.571    2.143    0.000    1.714    0.000    0.000 
#    0.000    0.000    0.000    0.000    0.000    0.000 
#
# Total GULP energy -693997.487818 kJ/mol
# GULP energy per Si atom -12392.812282 kJ/mol
# Density = 1.863420 g / cm^3
# Si number density = 18.676705 Si / 1000 Ang^3
#
#
#
# Elastic Constant Matrix: (Units=GPa)
#
#
# Indices 1 2 3 4 5 6 
#
# 1 97.5732 16.8569 44.4017 0.0000 0.0000 0.0000
# 2 16.8569 85.5803 27.0311 0.0000 0.0000 0.0000
# 3 44.4017 27.0311 95.9908 0.0000 0.0000 0.0000
# 4 0.0000 0.0000 0.0000 19.3874 0.0000 0.0000
# 5 0.0000 0.0000 0.0000 0.0000 12.8682 0.0000
# 6 0.0000 0.0000 0.0000 0.0000 0.0000 20.6196
#
#
#
# Elastic Compliance Matrix: (Units=1/GPa)
#
#
# Indices 1 2 3 4 5 6 
#
# 1 0.013022 -0.000727 -0.005819 0.000000 0.000000 0.000000
# 2 -0.000727 0.012866 -0.003287 0.000000 0.000000 0.000000
# 3 -0.005819 -0.003287 0.014035 0.000000 0.000000 0.000000
# 4 0.000000 0.000000 0.000000 0.051580 0.000000 0.000000
# 5 0.000000 0.000000 0.000000 0.000000 0.077711 0.000000
# 6 0.000000 0.000000 0.000000 0.000000 0.000000 0.048498
#
#
# Mechanical properties :
#
#
# Convention : Reuss Voigt Hill
#
# Bulk Modulus (GPa) = 49.36365 50.63598 49.99982
# Shear Modulus (GPa) = 20.48089 23.29867 21.88978
#
# Velocity S-wave (km/s) = 3.31509 3.53579 3.42722
# Velocity P-wave (km/s) = 6.41413 6.62116 6.51847
#
# Compressibility (1/GPa) = 0.02025782
#
# Stress axis : x y z
#
# Youngs Moduli (GPa) = 76.79159 77.72234 71.25132
#
# Poissons Ratio (x) = 0.05651 0.41460
# Poissons Ratio (y) = 0.05584 0.23419
# Poissons Ratio (z) = 0.44684 0.25546
#
# Static dielectric constant tensor:
#      x y z
#    x -0.258970 0.000000 0.000000 
#    y 0.000000 3.385490 0.000000 
#    z 0.000000 0.000000 3.230120 
# 
# 
# High freq. dielectric constant tensor:
#      x y z
#    x 1.736140 0.000000 0.000000 
#    y 0.000000 1.712820 0.000000 
#    z 0.000000 0.000000 1.707310 
# 
# From -- ./inp_files/13546.got.cif
#   From: 2010.06.25/outbox.cif.g09.slc.cpg/sg52_7_cif.got.tgz:13546.got - 2010.06.26 19:32:48.
