data_PCOD8215654
_publ_section_title
;
Structure prediction by ZEFSAII (Michael W. Deem and Ramdas Pophale) SiO2 
 PCOD8215654
Probable space group: P N N A
;
_chemical_formula_sum "Si O2"
_cell_formula_units_Z 56
_cell_length_a 17.834248
_cell_length_b 11.325450
_cell_length_c 15.693768
_cell_angle_alpha 90.000000
_cell_angle_beta 90.000000
_cell_angle_gamma 90.000000
_cell_volume 3169.841134
_symmetry_space_group_name_H-M "P N N A"
_symmetry_group_IT_number 52
_symmetry_cell_setting 'orthorhombic'
loop_
_space_group_symop_operation_xyz
x,y,z
1/2-x,-y,z
x,1/2-y,1/2-z
1/2-x,1/2+y,1/2-z
-x,-y,-z
1/2+x,y,-z
-x,1/2+y,1/2+z
1/2+x,1/2-y,1/2+z
loop_
_atom_site_type_symbol
_atom_site_label
_atom_site_fract_x
_atom_site_fract_y
_atom_site_fract_z
Si Si1 0.420872 0.653667 0.473058
Si Si2 0.012139 0.562116 0.382475
Si Si3 0.888588 0.275113 0.928635
Si Si4 0.512237 0.884370 0.445668
Si Si5 0.777260 0.790824 0.886700
Si Si6 0.041311 0.533462 0.199550
Si Si7 0.191371 0.084274 0.276195
O O1 0.465076 0.572601 0.404479
O O2 0.436843 0.601968 0.567434
O O3 0.447844 0.788646 0.464025
O O4 0.330560 0.653007 0.459494
O O5 0.079729 0.644664 0.415017
O O6 0.994607 0.578910 0.281597
O O7 0.799201 0.264383 0.922820
O O8 0.928413 0.360439 0.859346
O O9 0.908954 0.325005 0.023549
O O10 0.500000 0.000000 0.500000
O O11 0.508584 0.933527 0.348771
O O12 0.763439 0.883733 0.810806
O O13 0.826348 0.689998 0.840553
O O14 0.112867 0.475017 0.244977
O O15 0.250000 0.000000 0.325493
#
# Coordination Sequence:
#
# PCOD8215654 Si02
#       7
#     8   8   8   8   8   8   8
#     4  10  20  35  48  73 109 140 177 216 265 325
#     4  10  21  33  50  73 110 141 179 220 264 323
#     4  10  21  34  50  77 113 143 172 220 277 327
#     4   9  20  35  51  72 106 136 180 220 265 318
#     4  11  21  30  49  75 113 141 173 215 269 338
#     4  11  18  33  53  74 108 141 183 224 265 325
#     4  11  20  29  46  79 108 142 172 210 274 331
#
# _framework density 17.666499999999999
#
# number of rings (size 3 to 8) (size 9 to 14) (size 15 to 20)
#    0.000    1.714    4.286    1.286    2.000    0.571 
#    0.000    0.000    0.000    0.000    0.000    0.000 
#  141.429    0.000    0.000    0.000    0.000    0.000 
#
# Total GULP energy -693759.101631 kJ/mol
# GULP energy per Si atom -12388.555386 kJ/mol
# Density = 1.762629 g / cm^3
# Si number density = 17.666500 Si / 1000 Ang^3
#
#
#
# Elastic Constant Matrix: (Units=GPa)
#
#
# Indices 1 2 3 4 5 6 
#
# 1 79.9593 22.5165 57.5207 0.0000 0.0000 0.0000
# 2 22.5165 91.1147 28.2090 0.0000 0.0000 0.0000
# 3 57.5207 28.2090 107.2355 0.0000 0.0000 0.0000
# 4 0.0000 0.0000 0.0000 16.6886 0.0000 0.0000
# 5 0.0000 0.0000 0.0000 0.0000 28.8886 0.0000
# 6 0.0000 0.0000 0.0000 0.0000 0.0000 24.7402
#
#
#
# Elastic Compliance Matrix: (Units=1/GPa)
#
#
# Indices 1 2 3 4 5 6 
#
# 1 0.020638 -0.001821 -0.010591 0.000000 0.000000 0.000000
# 2 -0.001821 0.012109 -0.002208 0.000000 0.000000 0.000000
# 3 -0.010591 -0.002208 0.015587 0.000000 0.000000 0.000000
# 4 0.000000 0.000000 0.000000 0.059921 0.000000 0.000000
# 5 0.000000 0.000000 0.000000 0.000000 0.034616 0.000000
# 6 0.000000 0.000000 0.000000 0.000000 0.000000 0.040420
#
#
# Mechanical properties :
#
#
# Convention : Reuss Voigt Hill
#
# Bulk Modulus (GPa) = 52.37566 54.97798 53.67682
# Shear Modulus (GPa) = 22.84174 25.40103 24.12138
#
# Velocity S-wave (km/s) = 3.59965 3.79596 3.69911
# Velocity P-wave (km/s) = 6.85477 7.09929 6.97810
#
# Compressibility (1/GPa) = 0.01909284
#
# Stress axis : x y z
#
# Youngs Moduli (GPa) = 48.45369 82.58345 64.15473
#
# Poissons Ratio (x) = 0.15040 0.67948
# Poissons Ratio (y) = 0.08824 0.14168
# Poissons Ratio (z) = 0.51318 0.18238
#
# Static dielectric constant tensor:
#      x y z
#    x 3.039500 0.000000 0.000000 
#    y 0.000000 3.638570 0.000000 
#    z 0.000000 0.000000 3.412350 
# 
# 
# High freq. dielectric constant tensor:
#      x y z
#    x 1.646730 0.000000 0.000000 
#    y 0.000000 1.710920 0.000000 
#    z 0.000000 0.000000 1.663550 
# 
# From -- ./inp_files/33813.got.cif
#   From: 2010.06.25/outbox.cif.g09.slc.cpg/sg52_17_cif.got.tgz:33813.got - 2010.06.26 19:32:48.
