data_PCOD8215036
_publ_section_title
;
Structure prediction by ZEFSAII (Michael W. Deem and Ramdas Pophale) SiO2 
 PCOD8215036
Probable space group: P N N A
;
_chemical_formula_sum "Si O2"
_cell_formula_units_Z 64
_cell_length_a 24.140871
_cell_length_b 9.447740
_cell_length_c 13.936524
_cell_angle_alpha 90.000000
_cell_angle_beta 90.000000
_cell_angle_gamma 90.000000
_cell_volume 3178.596021
_symmetry_space_group_name_H-M "P N N A"
_symmetry_group_IT_number 52
_symmetry_cell_setting 'orthorhombic'
loop_
_space_group_symop_operation_xyz
x,y,z
1/2-x,-y,z
x,1/2-y,1/2-z
1/2-x,1/2+y,1/2-z
-x,-y,-z
1/2+x,y,-z
-x,1/2+y,1/2+z
1/2+x,1/2-y,1/2+z
loop_
_atom_site_type_symbol
_atom_site_label
_atom_site_fract_x
_atom_site_fract_y
_atom_site_fract_z
Si Si1 0.864516 0.494197 0.389173
Si Si2 0.053101 0.829979 0.153011
Si Si3 0.800814 0.902766 0.290273
Si Si4 0.481889 0.840478 0.501733
Si Si5 0.358846 0.798795 0.525522
Si Si6 0.488170 0.422276 0.600181
Si Si7 0.287579 0.701495 0.359056
Si Si8 0.173878 0.897098 0.078391
O O1 0.836998 0.511744 0.286450
O O2 0.873043 0.640799 0.443046
O O3 0.923930 0.423540 0.371358
O O4 0.824808 0.404872 0.461473
O O5 0.064354 0.750000 0.250000
O O6 0.112628 0.842677 0.102632
O O7 0.009411 0.737904 0.092271
O O8 0.026286 0.986322 0.173826
O O9 0.782244 0.750000 0.250000
O O10 0.833515 0.888164 0.388348
O O11 0.750000 0.000000 0.316057
O O12 0.416946 0.867389 0.503643
O O13 0.494958 0.743604 0.407288
O O14 0.500000 0.000000 0.500000
O O15 0.319429 0.806106 0.431994
O O16 0.500000 0.500000 0.500000
O O17 0.295944 0.750000 0.250000
O O18 0.222377 0.708699 0.387557
O O19 0.313391 0.545935 0.370406
#
# Coordination Sequence:
#
# PCOD8215036 Si02
#       8
#     8   8   8   8   8   8   8   8
#     4  10  18  35  68  90 119 166 218 261 302 395
#     4  11  22  37  67  96 128 167 223 267 317 405
#     4  10  24  41  63  95 127 171 222 265 325 394
#     4  11  23  41  61  95 131 167 213 271 335 391
#     4  10  21  41  63  88 131 168 206 270 335 382
#     4  10  17  37  62  91 123 170 212 258 324 391
#     4  10  22  39  64  89 127 169 223 272 329 390
#     4  10  20  38  63  96 120 169 220 265 318 386
#
# _framework density 20.134675999999999
#
# number of rings (size 3 to 8) (size 9 to 14) (size 15 to 20)
#    0.000    1.750    5.000    1.125    7.000    1.000 
#    6.750    0.625    0.000    0.000    0.000    0.000 
#    0.000    0.000    0.000    0.000    0.000    0.000 
#
# Total GULP energy -793193.571774 kJ/mol
# GULP energy per Si atom -12393.649559 kJ/mol
# Density = 2.008885 g / cm^3
# Si number density = 20.134676 Si / 1000 Ang^3
#
#
#
# Elastic Constant Matrix: (Units=GPa)
#
#
# Indices 1 2 3 4 5 6 
#
# 1 150.8592 53.4068 60.9958 0.0000 0.0000 0.0000
# 2 53.4068 102.1106 43.4799 0.0000 0.0000 0.0000
# 3 60.9958 43.4799 132.9253 0.0000 0.0000 0.0000
# 4 0.0000 0.0000 0.0000 23.0550 0.0000 0.0000
# 5 0.0000 0.0000 0.0000 0.0000 521.2842 0.0000
# 6 0.0000 0.0000 0.0000 0.0000 0.0000 29.1130
#
#
#
# Elastic Compliance Matrix: (Units=1/GPa)
#
#
# Indices 1 2 3 4 5 6 
#
# 1 0.009080 -0.003456 -0.003036 0.000000 0.000000 0.000000
# 2 -0.003456 0.012694 -0.002566 0.000000 0.000000 0.000000
# 3 -0.003036 -0.002566 0.009756 0.000000 0.000000 0.000000
# 4 0.000000 0.000000 0.000000 0.043375 0.000000 0.000000
# 5 0.000000 0.000000 0.000000 0.000000 0.001918 0.000000
# 6 0.000000 0.000000 0.000000 0.000000 0.000000 0.034349
#
#
# Mechanical properties :
#
#
# Convention : Reuss Voigt Hill
#
# Bulk Modulus (GPa) = 74.55801 77.96225 76.26013
# Shear Modulus (GPa) = 37.38088 129.89128 83.63608
#
# Velocity S-wave (km/s) = 4.31344 8.04060 6.45202
# Velocity P-wave (km/s) = 7.86878 11.18062 9.66757
#
# Compressibility (1/GPa) = 0.01341237
#
# Stress axis : x y z
#
# Youngs Moduli (GPa) = 110.13505 78.77911 102.50623
#
# Poissons Ratio (x) = 0.27228 0.31120
# Poissons Ratio (y) = 0.38065 0.26304
# Poissons Ratio (z) = 0.33436 0.20216
#
# Static dielectric constant tensor:
#      x y z
#    x 3.409650 0.000000 0.000000 
#    y 0.000000 3.910390 0.000000 
#    z 0.000000 0.000000 3.665390 
# 
# 
# High freq. dielectric constant tensor:
#      x y z
#    x 1.803240 0.000000 0.000000 
#    y 0.000000 1.769270 0.000000 
#    z 0.000000 0.000000 1.772340 
# 
# From -- ./inp_files/29247.got.cif
#   From: 2010.06.25/outbox.cif.g09.slc.cpg/sg52_15_cif.got.tgz:29247.got - 2010.06.26 19:32:48.
