data_PCOD8215734
_publ_section_title
;
Structure prediction by ZEFSAII (Michael W. Deem and Ramdas Pophale) SiO2 
 PCOD8215734
Probable space group: P N N A
;
_chemical_formula_sum "Si O2"
_cell_formula_units_Z 60
_cell_length_a 13.246609
_cell_length_b 7.882862
_cell_length_c 26.366083
_cell_angle_alpha 90.000000
_cell_angle_beta 90.000000
_cell_angle_gamma 90.000000
_cell_volume 2753.177781
_symmetry_space_group_name_H-M "P N N A"
_symmetry_group_IT_number 52
_symmetry_cell_setting 'orthorhombic'
loop_
_space_group_symop_operation_xyz
x,y,z
1/2-x,-y,z
x,1/2-y,1/2-z
1/2-x,1/2+y,1/2-z
-x,-y,-z
1/2+x,y,-z
-x,1/2+y,1/2+z
1/2+x,1/2-y,1/2+z
loop_
_atom_site_type_symbol
_atom_site_label
_atom_site_fract_x
_atom_site_fract_y
_atom_site_fract_z
Si Si1 0.291500 0.683781 0.497486
Si Si2 0.648404 0.917442 0.280486
Si Si3 0.420971 0.194976 0.353485
Si Si4 0.508712 0.323048 0.865013
Si Si5 0.890054 0.358818 0.041118
Si Si6 0.026519 0.283033 0.949717
Si Si7 0.286774 0.809959 0.115756
Si Si8 0.464985 0.750000 0.750000
O O1 0.250000 0.500000 0.489208
O O2 0.225252 0.798224 0.536034
O O3 0.400957 0.649267 0.522463
O O4 0.300728 0.767034 0.441205
O O5 0.682330 0.750000 0.250000
O O6 0.570239 0.836279 0.319578
O O7 0.750000 0.000000 0.305394
O O8 0.598957 0.073803 0.248532
O O9 0.480647 0.298841 0.397973
O O10 0.300253 0.211808 0.353341
O O11 0.464405 0.248207 0.299358
O O12 0.441605 0.005675 0.372278
O O13 0.450010 0.256137 0.915012
O O14 0.605294 0.200418 0.854650
O O15 0.899059 0.554779 0.057719
O O16 0.933425 0.330593 0.985189
O O17 0.250000 0.000000 0.114255
#
# Coordination Sequence:
#
# PCOD8215734 Si02
#       8
#     8   8   8   8   8   8   8   4
#     4  11  23  36  54  90 133 171 210 266 327 398
#     4  11  24  47  75 100 132 173 226 286 353 406
#     4  10  22  42  66  89 127 172 220 276 332 395
#     4  10  23  41  67  95 126 167 221 276 330 401
#     4  10  20  36  59  88 119 162 215 264 313 387
#     4  10  20  36  61  86 117 170 219 260 318 391
#     4  11  23  38  60  94 137 175 213 264 336 404
#     4  10  24  46  68 102 134 174 224 286 338 408
#
# _framework density 21.792998999999998
#
# number of rings (size 3 to 8) (size 9 to 14) (size 15 to 20)
#    0.000    1.600    3.333    0.800    1.867    5.867 
#    1.200    0.000    0.000    0.000    0.000    0.000 
#    0.000    0.000    0.000    0.000    0.000    0.000 
#
# Total GULP energy -743419.008758 kJ/mol
# GULP energy per Si atom -12390.316813 kJ/mol
# Density = 2.174340 g / cm^3
# Si number density = 21.792999 Si / 1000 Ang^3
#
#
#
# Elastic Constant Matrix: (Units=GPa)
#
#
# Indices 1 2 3 4 5 6 
#
# 1 156.6185 28.6425 60.2808 0.0000 0.0000 0.0000
# 2 28.6425 48.2624 26.6928 0.0000 0.0000 0.0000
# 3 60.2808 26.6928 119.1165 0.0000 0.0000 0.0000
# 4 0.0000 0.0000 0.0000 22.8081 0.0000 0.0000
# 5 0.0000 0.0000 0.0000 0.0000 30.6702 0.0000
# 6 0.0000 0.0000 0.0000 0.0000 0.0000 37.1264
#
#
#
# Elastic Compliance Matrix: (Units=1/GPa)
#
#
# Indices 1 2 3 4 5 6 
#
# 1 0.008285 -0.002966 -0.003528 0.000000 0.000000 0.000000
# 2 -0.002966 0.024713 -0.004037 0.000000 0.000000 0.000000
# 3 -0.003528 -0.004037 0.011085 0.000000 0.000000 0.000000
# 4 0.000000 0.000000 0.000000 0.043844 0.000000 0.000000
# 5 0.000000 0.000000 0.000000 0.000000 0.032605 0.000000
# 6 0.000000 0.000000 0.000000 0.000000 0.000000 0.026935
#
#
# Mechanical properties :
#
#
# Convention : Reuss Voigt Hill
#
# Bulk Modulus (GPa) = 43.43779 61.69217 52.56498
# Shear Modulus (GPa) = 28.37625 32.01303 30.19464
#
# Velocity S-wave (km/s) = 3.61235 3.83686 3.72630
# Velocity P-wave (km/s) = 6.11343 6.92808 6.53347
#
# Compressibility (1/GPa) = 0.02302143
#
# Stress axis : x y z
#
# Youngs Moduli (GPa) = 120.69526 40.46460 90.20888
#
# Poissons Ratio (x) = 0.12001 0.31829
# Poissons Ratio (y) = 0.35794 0.36418
# Poissons Ratio (z) = 0.42585 0.16336
#
# Static dielectric constant tensor:
#      x y z
#    x 4.357650 0.000000 0.000000 
#    y 0.000000 3.875790 0.000000 
#    z 0.000000 0.000000 3.761110 
# 
# 
# High freq. dielectric constant tensor:
#      x y z
#    x 1.875610 0.000000 0.000000 
#    y 0.000000 1.843760 0.000000 
#    z 0.000000 0.000000 1.833000 
# 
# From -- ./inp_files/42773.got.cif
#   From: 2010.06.25/outbox.cif.g09.slc.cpg/sg52_22_cif.got.tgz:42773.got - 2010.06.26 19:32:48.
