data_PCOD8215304
_publ_section_title
;
Structure prediction by ZEFSAII (Michael W. Deem and Ramdas Pophale) SiO2 
 PCOD8215304
Probable space group: P N N A
;
_chemical_formula_sum "Si O2"
_cell_formula_units_Z 60
_cell_length_a 5.255069
_cell_length_b 18.859046
_cell_length_c 35.629674
_cell_angle_alpha 90.000000
_cell_angle_beta 90.000000
_cell_angle_gamma 90.000000
_cell_volume 3531.099792
_symmetry_space_group_name_H-M "P N N A"
_symmetry_group_IT_number 52
_symmetry_cell_setting 'orthorhombic'
loop_
_space_group_symop_operation_xyz
x,y,z
1/2-x,-y,z
x,1/2-y,1/2-z
1/2-x,1/2+y,1/2-z
-x,-y,-z
1/2+x,y,-z
-x,1/2+y,1/2+z
1/2+x,1/2-y,1/2+z
loop_
_atom_site_type_symbol
_atom_site_label
_atom_site_fract_x
_atom_site_fract_y
_atom_site_fract_z
Si Si1 0.750000 0.000000 0.023796
Si Si2 0.228419 0.079192 0.743109
Si Si3 0.779015 0.220926 0.291711
Si Si4 0.708236 0.206659 0.914375
Si Si5 0.717032 0.223890 0.510602
Si Si6 0.297349 0.846997 0.946783
Si Si7 0.220323 0.778423 0.170243
Si Si8 0.228859 0.420632 0.291386
O O1 0.741819 0.928762 0.047329
O O2 0.500000 0.000000 0.000000
O O3 0.260834 0.135321 0.709464
O O4 0.450420 0.091606 0.773676
O O5 0.950146 0.090910 0.760860
O O6 0.250000 0.000000 0.726196
O O7 0.736428 0.250000 0.250000
O O8 0.557199 0.250857 0.318070
O O9 0.058793 0.240796 0.306039
O O10 0.739190 0.268203 0.945075
O O11 0.426607 0.175576 0.918564
O O12 0.740618 0.239310 0.873291
O O13 0.936675 0.152897 0.924258
O O14 0.461808 0.179547 0.502591
O O15 0.698149 0.298226 0.485168
O O16 0.235724 0.863482 0.175637
O O17 0.250000 0.500000 0.308489
#
# Coordination Sequence:
#
# PCOD8215304 Si02
#       8
#     4   8   8   8   8   8   8   8
#     4  12  20  30  50  72  88 118 174 230 258 286
#     4  10  20  34  54  74  96 119 160 206 245 291
#     4  12  21  35  56  75  95 128 170 201 249 302
#     4  10  20  33  46  65  93 117 157 198 254 298
#     4   8  14  27  45  59  77 113 148 185 226 286
#     4  10  19  33  47  63  87 121 160 202 248 299
#     4  12  22  34  52  73  99 129 163 214 250 304
#     4  10  19  33  48  69  94 128 159 203 251 291
#
# _framework density 16.991873999999999
#
# number of rings (size 3 to 8) (size 9 to 14) (size 15 to 20)
#    0.000    1.600    2.667    5.200    0.000    0.000 
#    2.400    0.000    0.000    0.000    0.000    0.000 
#    0.000    0.000    0.000    0.000    0.000  120.000 
#
# Total GULP energy -743403.576720 kJ/mol
# GULP energy per Si atom -12390.059612 kJ/mol
# Density = 1.695320 g / cm^3
# Si number density = 16.991874 Si / 1000 Ang^3
#
#
#
# Elastic Constant Matrix: (Units=GPa)
#
#
# Indices 1 2 3 4 5 6 
#
# 1 100.7189 6.2737 8.8179 0.0000 0.0000 0.0000
# 2 6.2737 57.1329 17.9398 0.0000 0.0000 0.0000
# 3 8.8179 17.9398 77.6105 0.0000 0.0000 0.0000
# 4 0.0000 0.0000 0.0000 11.3495 0.0000 0.0000
# 5 0.0000 0.0000 0.0000 0.0000 25.6764 0.0000
# 6 0.0000 0.0000 0.0000 0.0000 0.0000 20.3157
#
#
#
# Elastic Compliance Matrix: (Units=1/GPa)
#
#
# Indices 1 2 3 4 5 6 
#
# 1 0.010063 -0.000804 -0.000957 0.000000 0.000000 0.000000
# 2 -0.000804 0.018937 -0.004286 0.000000 0.000000 0.000000
# 3 -0.000957 -0.004286 0.013984 0.000000 0.000000 0.000000
# 4 0.000000 0.000000 0.000000 0.088110 0.000000 0.000000
# 5 0.000000 0.000000 0.000000 0.000000 0.038946 0.000000
# 6 0.000000 0.000000 0.000000 0.000000 0.000000 0.049223
#
#
# Mechanical properties :
#
#
# Convention : Reuss Voigt Hill
#
# Bulk Modulus (GPa) = 32.37428 33.50278 32.93853
# Shear Modulus (GPa) = 20.69068 24.96370 22.82719
#
# Velocity S-wave (km/s) = 3.49331 3.83711 3.66924
# Velocity P-wave (km/s) = 5.94686 6.27623 6.11376
#
# Compressibility (1/GPa) = 0.03088872
#
# Stress axis : x y z
#
# Youngs Moduli (GPa) = 99.37848 52.80619 71.50854
#
# Poissons Ratio (x) = 0.04247 0.06846
# Poissons Ratio (y) = 0.07993 0.30648
# Poissons Ratio (z) = 0.09514 0.22633
#
# Static dielectric constant tensor:
#      x y z
#    x 3.827470 0.000000 0.000000 
#    y 0.000000 2.960050 0.000000 
#    z 0.000000 0.000000 2.938340 
# 
# 
# High freq. dielectric constant tensor:
#      x y z
#    x 1.697860 0.000000 0.000000 
#    y 0.000000 1.609700 0.000000 
#    z 0.000000 0.000000 1.627130 
# 
# From -- ./inp_files/43880.got.cif
#   From: 2010.06.25/outbox.cif.g09.slc.cpg/sg52_22_cif.got.tgz:43880.got - 2010.06.26 19:32:48.
