data_PCOD8215044
_publ_section_title
;
Structure prediction by ZEFSAII (Michael W. Deem and Ramdas Pophale) SiO2 
 PCOD8215044
Probable space group: P N N A
;
_chemical_formula_sum "Si O2"
_cell_formula_units_Z 52
_cell_length_a 24.999726
_cell_length_b 5.166726
_cell_length_c 27.680860
_cell_angle_alpha 90.000000
_cell_angle_beta 90.000000
_cell_angle_gamma 90.000000
_cell_volume 3575.446289
_symmetry_space_group_name_H-M "P N N A"
_symmetry_group_IT_number 52
_symmetry_cell_setting 'orthorhombic'
loop_
_space_group_symop_operation_xyz
x,y,z
1/2-x,-y,z
x,1/2-y,1/2-z
1/2-x,1/2+y,1/2-z
-x,-y,-z
1/2+x,y,-z
-x,1/2+y,1/2+z
1/2+x,1/2-y,1/2+z
loop_
_atom_site_type_symbol
_atom_site_label
_atom_site_fract_x
_atom_site_fract_y
_atom_site_fract_z
Si Si1 0.403835 0.990465 0.089533
Si Si2 0.422889 0.999952 0.537460
Si Si3 0.864271 0.498745 0.480342
Si Si4 0.806033 0.153877 0.853754
Si Si5 0.250000 0.000000 0.421740
Si Si6 0.285574 0.250000 0.250000
Si Si7 0.250000 0.500000 0.486772
Si Si8 0.462781 0.491060 0.071870
O O1 0.353809 0.979978 0.125875
O O2 0.440006 0.241805 0.099391
O O3 0.440846 0.742813 0.099480
O O4 0.381820 0.998636 0.035650
O O5 0.382537 0.761244 0.546052
O O6 0.443987 0.998702 0.483134
O O7 0.391347 0.263310 0.548368
O O8 0.472833 0.981620 0.573986
O O9 0.800529 0.454202 0.478568
O O10 0.799644 0.412694 0.887216
O O11 0.821121 0.222716 0.798447
O O12 0.750000 0.000000 0.855614
O O13 0.235222 0.248189 0.454415
O O14 0.250000 0.500000 0.241321
#
# Coordination Sequence:
#
# PCOD8215044 Si02
#       8
#     8   8   8   8   4   4   4   8
#     4  10  19  27  43  58  74  94 123 159 199 231
#     4   9  17  29  41  53  76  98 122 149 191 232
#     4  10  18  27  40  57  76 102 121 154 191 231
#     4  11  22  33  46  60  79 101 128 163 206 253
#     4  12  20  30  43  56  78 100 124 168 192 250
#     4  10  22  34  46  58  76 102 130 156 198 254
#     4  12  22  28  41  64  82 100 132 160 198 238
#     4   9  18  29  41  58  72  94 123 154 189 238
#
# _framework density 14.54364
#
# number of rings (size 3 to 8) (size 9 to 14) (size 15 to 20)
#    0.000    1.846    3.077    1.846    6.462    3.692 
#    0.000    0.000    0.000    0.000    0.000    0.000 
#    0.000    0.000    0.000    0.000    0.000    0.000 
#
# Total GULP energy -644645.687831 kJ/mol
# GULP energy per Si atom -12397.032458 kJ/mol
# Density = 1.451054 g / cm^3
# Si number density = 14.543640 Si / 1000 Ang^3
#
#
#
# Elastic Constant Matrix: (Units=GPa)
#
#
# Indices 1 2 3 4 5 6 
#
# 1 99.8351 42.2299 27.8329 0.0000 0.0000 0.0000
# 2 42.2299 112.5530 18.8105 0.0000 0.0000 0.0000
# 3 27.8329 18.8105 28.5696 0.0000 0.0000 0.0000
# 4 0.0000 0.0000 0.0000 8.8803 0.0000 0.0000
# 5 0.0000 0.0000 0.0000 0.0000 9.3543 0.0000
# 6 0.0000 0.0000 0.0000 0.0000 0.0000 24.7956
#
#
#
# Elastic Compliance Matrix: (Units=1/GPa)
#
#
# Indices 1 2 3 4 5 6 
#
# 1 0.014922 -0.003561 -0.012193 0.000000 0.000000 0.000000
# 2 -0.003561 0.010833 -0.003663 0.000000 0.000000 0.000000
# 3 -0.012193 -0.003663 0.049292 0.000000 0.000000 0.000000
# 4 0.000000 0.000000 0.000000 0.112608 0.000000 0.000000
# 5 0.000000 0.000000 0.000000 0.000000 0.106903 0.000000
# 6 0.000000 0.000000 0.000000 0.000000 0.000000 0.040330
#
#
# Mechanical properties :
#
#
# Convention : Reuss Voigt Hill
#
# Bulk Modulus (GPa) = 27.61406 46.52272 37.06839
# Shear Modulus (GPa) = 12.96031 18.74502 15.85266
#
# Velocity S-wave (km/s) = 2.98842 3.59399 3.30511
# Velocity P-wave (km/s) = 5.56200 7.01998 6.33309
#
# Compressibility (1/GPa) = 0.03621344
#
# Stress axis : x y z
#
# Youngs Moduli (GPa) = 67.01534 92.31009 20.28713
#
# Poissons Ratio (x) = 0.32872 0.24735
# Poissons Ratio (y) = 0.23864 0.07432
# Poissons Ratio (z) = 0.81709 0.33817
#
# Static dielectric constant tensor:
#      x y z
#    x 2.849950 0.000000 0.000000 
#    y 0.000000 3.143830 0.000000 
#    z 0.000000 0.000000 2.410930 
# 
# 
# High freq. dielectric constant tensor:
#      x y z
#    x 1.545490 0.000000 0.000000 
#    y 0.000000 1.582650 0.000000 
#    z 0.000000 0.000000 1.475320 
# 
# From -- ./inp_files/45181.got.cif
#   From: 2010.06.25/outbox.cif.g09.slc.cpg/sg52_23_cif.got.tgz:45181.got - 2010.06.26 19:32:48.
