data_PCOD8215161
_publ_section_title
;
Structure prediction by ZEFSAII (Michael W. Deem and Ramdas Pophale) SiO2 
 PCOD8215161
Probable space group: P N N A
;
_chemical_formula_sum "Si O2"
_cell_formula_units_Z 56
_cell_length_a 9.983405
_cell_length_b 15.449605
_cell_length_c 19.796016
_cell_angle_alpha 90.000000
_cell_angle_beta 90.000000
_cell_angle_gamma 90.000000
_cell_volume 3053.330853
_symmetry_space_group_name_H-M "P N N A"
_symmetry_group_IT_number 52
_symmetry_cell_setting 'orthorhombic'
loop_
_space_group_symop_operation_xyz
x,y,z
1/2-x,-y,z
x,1/2-y,1/2-z
1/2-x,1/2+y,1/2-z
-x,-y,-z
1/2+x,y,-z
-x,1/2+y,1/2+z
1/2+x,1/2-y,1/2+z
loop_
_atom_site_type_symbol
_atom_site_label
_atom_site_fract_x
_atom_site_fract_y
_atom_site_fract_z
Si Si1 0.563901 0.425142 0.285093
Si Si2 0.124411 0.767051 0.642270
Si Si3 0.578019 0.283801 0.383145
Si Si4 0.137152 0.615088 0.740489
Si Si5 0.730012 0.601253 0.934148
Si Si6 0.369061 0.319447 0.200384
Si Si7 0.510829 0.186246 0.508309
O O1 0.563107 0.385216 0.361673
O O2 0.702327 0.390459 0.253847
O O3 0.564872 0.528499 0.284512
O O4 0.432062 0.398889 0.242786
O O5 0.275153 0.755784 0.618188
O O6 0.084854 0.685568 0.687725
O O7 0.097168 0.855849 0.683885
O O8 0.032132 0.770390 0.577476
O O9 0.495946 0.231104 0.328049
O O10 0.524022 0.268501 0.458415
O O11 0.750000 0.500000 0.922814
O O12 0.726213 0.646319 0.859787
O O13 0.849862 0.637378 0.979808
O O14 0.593696 0.618089 0.975998
O O15 0.292237 0.250000 0.250000
#
# Coordination Sequence:
#
# PCOD8215161 Si02
#       7
#     8   8   8   8   8   8   8
#     4   9  16  31  56  82 106 139 191 230 268 321
#     4  10  18  34  53  80 116 138 180 229 284 327
#     4   9  17  34  55  76 106 147 187 220 264 337
#     4   9  18  30  53  88 108 139 179 239 280 316
#     4  11  24  39  55  82 111 147 188 224 272 335
#     4   9  18  35  57  77 106 145 181 220 274 336
#     4  11  22  39  56  78 111 155 182 222 282 331
#
# _framework density 18.340626
#
# number of rings (size 3 to 8) (size 9 to 14) (size 15 to 20)
#    0.000    2.286    2.857    0.429    2.000    0.000 
#    5.143    0.714    0.000    0.000    0.000    0.000 
#    0.000    0.000    0.000    0.000    0.000    0.000 
#
# Total GULP energy -694002.362446 kJ/mol
# GULP energy per Si atom -12392.899329 kJ/mol
# Density = 1.829888 g / cm^3
# Si number density = 18.340626 Si / 1000 Ang^3
#
#
#
# Elastic Constant Matrix: (Units=GPa)
#
#
# Indices 1 2 3 4 5 6 
#
# 1 61.8804 33.3218 39.4619 0.0000 0.0000 0.0000
# 2 33.3218 117.5266 57.9454 0.0000 0.0000 0.0000
# 3 39.4619 57.9454 128.0389 0.0000 0.0000 0.0000
# 4 0.0000 0.0000 0.0000 22.1578 0.0000 0.0000
# 5 0.0000 0.0000 0.0000 0.0000 28.0419 0.0000
# 6 0.0000 0.0000 0.0000 0.0000 0.0000 17.2019
#
#
#
# Elastic Compliance Matrix: (Units=1/GPa)
#
#
# Indices 1 2 3 4 5 6 
#
# 1 0.021232 -0.003596 -0.004916 0.000000 0.000000 0.000000
# 2 -0.003596 0.011562 -0.004124 0.000000 0.000000 0.000000
# 3 -0.004916 -0.004124 0.011192 0.000000 0.000000 0.000000
# 4 0.000000 0.000000 0.000000 0.045131 0.000000 0.000000
# 5 0.000000 0.000000 0.000000 0.000000 0.035661 0.000000
# 6 0.000000 0.000000 0.000000 0.000000 0.000000 0.058133
#
#
# Mechanical properties :
#
#
# Convention : Reuss Voigt Hill
#
# Bulk Modulus (GPa) = 53.43995 63.21158 58.32577
# Shear Modulus (GPa) = 23.31873 25.26143 24.29008
#
# Velocity S-wave (km/s) = 3.56957 3.71529 3.64316
# Velocity P-wave (km/s) = 6.79631 7.27631 7.04040
#
# Compressibility (1/GPa) = 0.01871259
#
# Stress axis : x y z
#
# Youngs Moduli (GPa) = 47.09940 86.49374 89.35148
#
# Poissons Ratio (x) = 0.31101 0.43928
# Poissons Ratio (y) = 0.16936 0.36849
# Poissons Ratio (z) = 0.23156 0.35671
#
# Static dielectric constant tensor:
#      x y z
#    x 3.209410 0.000000 0.000000 
#    y 0.000000 3.442690 0.000000 
#    z 0.000000 0.000000 3.504340 
# 
# 
# High freq. dielectric constant tensor:
#      x y z
#    x 1.697270 0.000000 0.000000 
#    y 0.000000 1.700200 0.000000 
#    z 0.000000 0.000000 1.714440 
# 
# From -- ./inp_files/36015.got.cif
#   From: 2010.06.25/outbox.cif.g09.slc.cpg/sg52_19_cif.got.tgz:36015.got - 2010.06.26 19:32:48.
