data_PCOD8215442
_publ_section_title
;
Structure prediction by ZEFSAII (Michael W. Deem and Ramdas Pophale) SiO2 
 PCOD8215442
Probable space group: P N N A
;
_chemical_formula_sum "Si O2"
_cell_formula_units_Z 48
_cell_length_a 12.872952
_cell_length_b 8.824958
_cell_length_c 23.521913
_cell_angle_alpha 90.000000
_cell_angle_beta 90.000000
_cell_angle_gamma 90.000000
_cell_volume 2672.166016
_symmetry_space_group_name_H-M "P N N A"
_symmetry_group_IT_number 52
_symmetry_cell_setting 'orthorhombic'
loop_
_space_group_symop_operation_xyz
x,y,z
1/2-x,-y,z
x,1/2-y,1/2-z
1/2-x,1/2+y,1/2-z
-x,-y,-z
1/2+x,y,-z
-x,1/2+y,1/2+z
1/2+x,1/2-y,1/2+z
loop_
_atom_site_type_symbol
_atom_site_label
_atom_site_fract_x
_atom_site_fract_y
_atom_site_fract_z
Si Si1 0.276866 0.675948 0.962637
Si Si2 0.750000 0.500000 0.847894
Si Si3 0.897454 0.254747 0.688862
Si Si4 0.024187 0.173182 0.925023
Si Si5 0.250000 0.500000 0.347335
Si Si6 0.427680 0.163668 0.954739
Si Si7 0.355279 0.752112 0.081795
O O1 0.250000 0.500000 0.967319
O O2 0.383036 0.703358 0.927731
O O3 0.179069 0.760425 0.934257
O O4 0.293045 0.754155 0.023235
O O5 0.832037 0.400388 0.813116
O O6 0.675914 0.396402 0.885175
O O7 0.958051 0.250000 0.750000
O O8 0.814551 0.390020 0.693030
O O9 0.970268 0.287066 0.634851
O O10 0.074389 0.006713 0.930393
O O11 0.940457 0.180612 0.976505
O O12 0.329433 0.591993 0.386844
O O13 0.521506 0.256527 0.926704
#
# Coordination Sequence:
#
# PCOD8215442 Si02
#       7
#     8   4   8   8   4   8   8
#     4  11  23  33  54  85 122 149 182 231 293 350
#     4  10  21  34  56  86 116 146 179 238 284 336
#     4  11  22  38  58  84 114 154 196 236 281 334
#     4  10  22  36  58  82 113 154 190 235 277 348
#     4  10  19  36  58  84 114 148 189 226 290 340
#     4  10  20  36  57  85 114 150 188 224 290 352
#     4  10  20  33  56  84 119 146 182 228 285 349
#
# _framework density 17.962955000000001
#
# number of rings (size 3 to 8) (size 9 to 14) (size 15 to 20)
#    0.000    1.667    2.500    3.000    7.000    1.333 
#    0.000    0.000    0.000    2.000    0.000    0.000 
#    0.000    0.000    0.000    0.000    0.000    0.000 
#
# Total GULP energy -594895.990695 kJ/mol
# GULP energy per Si atom -12393.666473 kJ/mol
# Density = 1.792207 g / cm^3
# Si number density = 17.962955 Si / 1000 Ang^3
#
#
#
# Elastic Constant Matrix: (Units=GPa)
#
#
# Indices 1 2 3 4 5 6 
#
# 1 86.9814 26.0794 35.9640 0.0000 0.0000 0.0000
# 2 26.0794 73.3861 23.9533 0.0000 0.0000 0.0000
# 3 35.9640 23.9533 114.7297 0.0000 0.0000 0.0000
# 4 0.0000 0.0000 0.0000 12.6734 0.0000 0.0000
# 5 0.0000 0.0000 0.0000 0.0000 23.2542 0.0000
# 6 0.0000 0.0000 0.0000 0.0000 0.0000 28.5224
#
#
#
# Elastic Compliance Matrix: (Units=1/GPa)
#
#
# Indices 1 2 3 4 5 6 
#
# 1 0.014151 -0.003843 -0.003634 0.000000 0.000000 0.000000
# 2 -0.003843 0.015667 -0.002066 0.000000 0.000000 0.000000
# 3 -0.003634 -0.002066 0.010287 0.000000 0.000000 0.000000
# 4 0.000000 0.000000 0.000000 0.078905 0.000000 0.000000
# 5 0.000000 0.000000 0.000000 0.000000 0.043003 0.000000
# 6 0.000000 0.000000 0.000000 0.000000 0.000000 0.035060
#
#
# Mechanical properties :
#
#
# Convention : Reuss Voigt Hill
#
# Bulk Modulus (GPa) = 47.57634 49.67672 48.62653
# Shear Modulus (GPa) = 22.40497 25.49672 23.95084
#
# Velocity S-wave (km/s) = 3.53553 3.77159 3.65546
# Velocity P-wave (km/s) = 6.57342 6.83239 6.70416
#
# Compressibility (1/GPa) = 0.02101885
#
# Stress axis : x y z
#
# Youngs Moduli (GPa) = 70.66479 63.82978 97.21423
#
# Poissons Ratio (x) = 0.24530 0.35324
# Poissons Ratio (y) = 0.27156 0.20087
# Poissons Ratio (z) = 0.25677 0.13189
#
# Static dielectric constant tensor:
#      x y z
#    x 3.357170 0.000000 0.000000 
#    y 0.000000 3.549380 0.000000 
#    z 0.000000 0.000000 3.114620 
# 
# 
# High freq. dielectric constant tensor:
#      x y z
#    x 1.691430 0.000000 0.000000 
#    y 0.000000 1.712430 0.000000 
#    z 0.000000 0.000000 1.665330 
# 
# From -- ./inp_files/40203.got.cif
#   From: 2010.06.25/outbox.cif.g09.slc.cpg/sg52_21_cif.got.tgz:40203.got - 2010.06.26 19:32:48.
