data_PCOD8215841
_publ_section_title
;
Structure prediction by ZEFSAII (Michael W. Deem and Ramdas Pophale) SiO2 
 PCOD8215841
Probable space group: P N N A
;
_chemical_formula_sum "Si O2"
_cell_formula_units_Z 40
_cell_length_a 11.679740
_cell_length_b 11.462350
_cell_length_c 15.230823
_cell_angle_alpha 90.000000
_cell_angle_beta 90.000000
_cell_angle_gamma 90.000000
_cell_volume 2039.060969
_symmetry_space_group_name_H-M "P N N A"
_symmetry_group_IT_number 52
_symmetry_cell_setting 'orthorhombic'
loop_
_space_group_symop_operation_xyz
x,y,z
1/2-x,-y,z
x,1/2-y,1/2-z
1/2-x,1/2+y,1/2-z
-x,-y,-z
1/2+x,y,-z
-x,1/2+y,1/2+z
1/2+x,1/2-y,1/2+z
loop_
_atom_site_type_symbol
_atom_site_label
_atom_site_fract_x
_atom_site_fract_y
_atom_site_fract_z
Si Si1 0.606884 0.325874 0.332141
Si Si2 0.617811 0.467498 0.886415
Si Si3 0.545365 0.575214 0.259684
Si Si4 0.642808 0.739540 0.130427
Si Si5 0.004799 0.679453 0.024642
O O1 0.565246 0.250000 0.250000
O O2 0.586785 0.459549 0.308689
O O3 0.738725 0.304095 0.354401
O O4 0.536677 0.289559 0.418787
O O5 0.750000 0.500000 0.887336
O O6 0.578953 0.434927 0.787171
O O7 0.536956 0.576111 0.909904
O O8 0.593373 0.363387 0.955998
O O9 0.637274 0.616656 0.184198
O O10 0.541131 0.676444 0.333227
O O11 0.619154 0.716588 0.028180
#
# Coordination Sequence:
#
# PCOD8215841 Si02
#       5
#     8   8   8   8   8
#     4  12  21  36  64  91 115 155 197 245 291 346
#     4  10  20  38  59  83 116 155 197 246 292 339
#     4  10  21  38  58  87 117 151 203 239 286 357
#     4  10  22  39  60  88 120 156 192 244 298 345
#     4  10  22  37  56  89 118 149 199 246 288 353
#
# _framework density 19.616872000000001
#
# number of rings (size 3 to 8) (size 9 to 14) (size 15 to 20)
#    0.000    1.600    4.000    1.800    0.000    0.800 
#    0.000   10.000    0.000    0.000    0.000    0.000 
#    0.000    0.000    0.000    0.000    0.000    0.000 
#
# Total GULP energy -495811.859444 kJ/mol
# GULP energy per Si atom -12395.296486 kJ/mol
# Density = 1.957222 g / cm^3
# Si number density = 19.616872 Si / 1000 Ang^3
#
#
#
# Elastic Constant Matrix: (Units=GPa)
#
#
# Indices 1 2 3 4 5 6 
#
# 1 77.3686 25.4169 25.1744 0.0000 0.0000 0.0000
# 2 25.4169 114.8031 48.0631 0.0000 0.0000 0.0000
# 3 25.1744 48.0631 91.7063 0.0000 0.0000 0.0000
# 4 0.0000 0.0000 0.0000 30.0923 0.0000 0.0000
# 5 0.0000 0.0000 0.0000 0.0000 27.6373 0.0000
# 6 0.0000 0.0000 0.0000 0.0000 0.0000 20.2126
#
#
#
# Elastic Compliance Matrix: (Units=1/GPa)
#
#
# Indices 1 2 3 4 5 6 
#
# 1 0.014537 -0.001983 -0.002951 0.000000 0.000000 0.000000
# 2 -0.001983 0.011430 -0.005446 0.000000 0.000000 0.000000
# 3 -0.002951 -0.005446 0.014569 0.000000 0.000000 0.000000
# 4 0.000000 0.000000 0.000000 0.033231 0.000000 0.000000
# 5 0.000000 0.000000 0.000000 0.000000 0.036183 0.000000
# 6 0.000000 0.000000 0.000000 0.000000 0.000000 0.049474
#
#
# Mechanical properties :
#
#
# Convention : Reuss Voigt Hill
#
# Bulk Modulus (GPa) = 50.56883 53.46521 52.01702
# Shear Modulus (GPa) = 26.77017 27.93667 27.35342
#
# Velocity S-wave (km/s) = 3.69813 3.77784 3.73819
# Velocity P-wave (km/s) = 6.63845 6.80759 6.72355
#
# Compressibility (1/GPa) = 0.01977503
#
# Stress axis : x y z
#
# Youngs Moduli (GPa) = 68.79070 87.49289 68.64018
#
# Poissons Ratio (x) = 0.17348 0.20258
# Poissons Ratio (y) = 0.13640 0.37381
# Poissons Ratio (z) = 0.20303 0.47648
#
# Static dielectric constant tensor:
#      x y z
#    x 3.330190 0.000000 0.000000 
#    y 0.000000 3.636500 0.000000 
#    z 0.000000 0.000000 3.730650 
# 
# 
# High freq. dielectric constant tensor:
#      x y z
#    x 1.736990 0.000000 0.000000 
#    y 0.000000 1.765880 0.000000 
#    z 0.000000 0.000000 1.767620 
# 
# From -- ./inp_files/25808.got.cif
#   From: 2010.06.25/outbox.cif.g09.slc.cpg/sg52_13_cif.got.tgz:25808.got - 2010.06.26 19:32:48.
