data_PCOD8215085
_publ_section_title
;
Structure prediction by ZEFSAII (Michael W. Deem and Ramdas Pophale) SiO2 
 PCOD8215085
Probable space group: P N N A
;
_chemical_formula_sum "Si O2"
_cell_formula_units_Z 36
_cell_length_a 10.798837
_cell_length_b 16.453062
_cell_length_c 11.189034
_cell_angle_alpha 90.000000
_cell_angle_beta 90.000000
_cell_angle_gamma 90.000000
_cell_volume 1987.999696
_symmetry_space_group_name_H-M "P N N A"
_symmetry_group_IT_number 52
_symmetry_cell_setting 'orthorhombic'
loop_
_space_group_symop_operation_xyz
x,y,z
1/2-x,-y,z
x,1/2-y,1/2-z
1/2-x,1/2+y,1/2-z
-x,-y,-z
1/2+x,y,-z
-x,1/2+y,1/2+z
1/2+x,1/2-y,1/2+z
loop_
_atom_site_type_symbol
_atom_site_label
_atom_site_fract_x
_atom_site_fract_y
_atom_site_fract_z
Si Si1 0.986519 0.999898 0.358759
Si Si2 0.814700 0.917199 0.797204
Si Si3 0.567074 0.842103 0.769349
Si Si4 0.250000 0.000000 0.783636
Si Si5 0.926713 0.919629 0.035428
O O1 0.856537 0.034607 0.306098
O O2 0.999709 0.905983 0.318401
O O3 0.000000 0.000000 0.500000
O O4 0.091904 0.059821 0.308617
O O5 0.714634 0.852418 0.750400
O O6 0.750000 0.000000 0.842959
O O7 0.880315 0.878193 0.913206
O O8 0.525809 0.750000 0.750000
O O9 0.527544 0.860646 0.905303
O O10 0.186704 0.066343 0.871280
O O11 0.000000 0.000000 0.000000
#
# Coordination Sequence:
#
# PCOD8215085 Si02
#       5
#     8   8   8   4   8
#     4  10  22  36  59  82 113 155 200 223 284 361
#     4  10  18  34  60  83 108 151 195 233 275 348
#     4  10  22  38  55  84 120 148 185 249 300 325
#     4  10  18  30  56  86 108 134 192 250 264 324
#     4  11  16  34  61  86 107 143 200 238 280 341
#
# _framework density 18.108654999999999
#
# number of rings (size 3 to 8) (size 9 to 14) (size 15 to 20)
#    0.000    1.778    7.778    0.000    4.667    0.000 
#    4.000    0.000    0.000    5.333    0.000    0.000 
#    0.000    0.000    0.000    0.000    0.000    0.000 
#
# Total GULP energy -446073.165692 kJ/mol
# GULP energy per Si atom -12390.921269 kJ/mol
# Density = 1.806744 g / cm^3
# Si number density = 18.108655 Si / 1000 Ang^3
#
#
#
# Elastic Constant Matrix: (Units=GPa)
#
#
# Indices 1 2 3 4 5 6 
#
# 1 114.0359 26.8553 54.2272 0.0000 0.0000 0.0000
# 2 26.8553 78.9443 25.9198 0.0000 0.0000 0.0000
# 3 54.2272 25.9198 151.0942 0.0000 0.0000 0.0000
# 4 0.0000 0.0000 0.0000 18.6160 0.0000 0.0000
# 5 0.0000 0.0000 0.0000 0.0000 34.4747 0.0000
# 6 0.0000 0.0000 0.0000 0.0000 0.0000 14.2891
#
#
#
# Elastic Compliance Matrix: (Units=1/GPa)
#
#
# Indices 1 2 3 4 5 6 
#
# 1 0.011057 -0.002605 -0.003521 0.000000 0.000000 0.000000
# 2 -0.002605 0.014037 -0.001473 0.000000 0.000000 0.000000
# 3 -0.003521 -0.001473 0.008135 0.000000 0.000000 0.000000
# 4 0.000000 0.000000 0.000000 0.053717 0.000000 0.000000
# 5 0.000000 0.000000 0.000000 0.000000 0.029007 0.000000
# 6 0.000000 0.000000 0.000000 0.000000 0.000000 0.069983
#
#
# Mechanical properties :
#
#
# Convention : Reuss Voigt Hill
#
# Bulk Modulus (GPa) = 55.46387 62.00878 58.73632
# Shear Modulus (GPa) = 24.13757 29.28076 26.70916
#
# Velocity S-wave (km/s) = 3.65489 4.02549 3.84466
# Velocity P-wave (km/s) = 6.96461 7.47817 7.22596
#
# Compressibility (1/GPa) = 0.01802976
#
# Stress axis : x y z
#
# Youngs Moduli (GPa) = 90.43827 71.24002 122.92663
#
# Poissons Ratio (x) = 0.18560 0.43289
# Poissons Ratio (y) = 0.23561 0.18107
# Poissons Ratio (z) = 0.31848 0.10494
#
# Static dielectric constant tensor:
#      x y z
#    x 3.852490 0.000000 0.000000 
#    y 0.000000 2.933320 0.000000 
#    z 0.000000 0.000000 3.635630 
# 
# 
# High freq. dielectric constant tensor:
#      x y z
#    x 1.721390 0.000000 0.000000 
#    y 0.000000 1.638660 0.000000 
#    z 0.000000 0.000000 1.708740 
# 
# From -- ./inp_files/18102.got.cif
#   From: 2010.06.25/outbox.cif.g09.slc.cpg/sg52_10_cif.got.tgz:18102.got - 2010.06.26 19:32:48.
