data_PCOD8215672
_publ_section_title
;
Structure prediction by ZEFSAII (Michael W. Deem and Ramdas Pophale) SiO2 
 PCOD8215672
Probable space group: P N N A
;
_chemical_formula_sum "Si O2"
_cell_formula_units_Z 44
_cell_length_a 20.262876
_cell_length_b 9.436029
_cell_length_c 12.515079
_cell_angle_alpha 90.000000
_cell_angle_beta 90.000000
_cell_angle_gamma 90.000000
_cell_volume 2392.896691
_symmetry_space_group_name_H-M "P N N A"
_symmetry_group_IT_number 52
_symmetry_cell_setting 'orthorhombic'
loop_
_space_group_symop_operation_xyz
x,y,z
1/2-x,-y,z
x,1/2-y,1/2-z
1/2-x,1/2+y,1/2-z
-x,-y,-z
1/2+x,y,-z
-x,1/2+y,1/2+z
1/2+x,1/2-y,1/2+z
loop_
_atom_site_type_symbol
_atom_site_label
_atom_site_fract_x
_atom_site_fract_y
_atom_site_fract_z
Si Si1 0.457389 0.250000 0.250000
Si Si2 0.670090 0.250000 0.750000
Si Si3 0.750000 0.000000 0.835656
Si Si4 0.931315 0.794332 0.930224
Si Si5 0.379059 0.102299 0.062082
Si Si6 0.578923 0.780466 0.367240
Si Si7 0.541606 0.425475 0.092588
O O1 0.411443 0.184578 0.159820
O O2 0.500169 0.375274 0.196073
O O3 0.715430 0.388150 0.742439
O O4 0.624651 0.267900 0.853442
O O5 0.697090 0.926465 0.912837
O O6 0.002516 0.766461 0.878161
O O7 0.920914 0.959342 0.955509
O O8 0.923329 0.712824 0.043124
O O9 0.379299 0.197913 0.956227
O O10 0.606279 0.750000 0.250000
O O11 0.591345 0.950055 0.374260
O O12 0.500000 0.500000 0.000000
#
# Coordination Sequence:
#
# PCOD8215672 Si02
#       7
#     4   4   4   8   8   8   8
#     4  12  21  34  60  86 130 157 194 246 312 370
#     4  10  21  38  62  82 124 157 198 252 290 362
#     4  10  24  38  56  86 112 166 210 238 294 352
#     4  10  20  35  54  86 120 150 187 245 309 351
#     4  11  23  37  59  82 120 163 199 250 290 363
#     4  11  21  36  58  87 118 152 196 243 311 361
#     4  10  22  33  51  90 121 154 190 233 307 379
#
# _framework density 18.387754999999999
#
# number of rings (size 3 to 8) (size 9 to 14) (size 15 to 20)
#    0.000    1.455    4.545    2.182   10.182    1.455 
#    0.000    0.000    0.000    4.364    0.000    0.000 
#    0.000    0.000    0.000    0.000    0.000    0.000 
#
# Total GULP energy -545477.681651 kJ/mol
# GULP energy per Si atom -12397.220038 kJ/mol
# Density = 1.834590 g / cm^3
# Si number density = 18.387755 Si / 1000 Ang^3
#
#
#
# Elastic Constant Matrix: (Units=GPa)
#
#
# Indices 1 2 3 4 5 6 
#
# 1 69.2691 30.5732 29.3033 0.0000 0.0000 0.0000
# 2 30.5732 118.8566 59.0678 0.0000 0.0000 0.0000
# 3 29.3033 59.0678 137.5324 0.0000 0.0000 0.0000
# 4 0.0000 0.0000 0.0000 41.2057 0.0000 0.0000
# 5 0.0000 0.0000 0.0000 0.0000 4.4381 0.0000
# 6 0.0000 0.0000 0.0000 0.0000 0.0000 29.2249
#
#
#
# Elastic Compliance Matrix: (Units=1/GPa)
#
#
# Indices 1 2 3 4 5 6 
#
# 1 0.016789 -0.003230 -0.002190 0.000000 0.000000 0.000000
# 2 -0.003230 0.011318 -0.004173 0.000000 0.000000 0.000000
# 3 -0.002190 -0.004173 0.009530 0.000000 0.000000 0.000000
# 4 0.000000 0.000000 0.000000 0.024268 0.000000 0.000000
# 5 0.000000 0.000000 0.000000 0.000000 0.225320 0.000000
# 6 0.000000 0.000000 0.000000 0.000000 0.000000 0.034217
#
#
# Mechanical properties :
#
#
# Convention : Reuss Voigt Hill
#
# Bulk Modulus (GPa) = 54.19763 62.61631 58.40697
# Shear Modulus (GPa) = 14.41846 28.75467 21.58657
#
# Velocity S-wave (km/s) = 2.80328 3.95877 3.43003
# Velocity P-wave (km/s) = 6.32587 7.41775 6.89346
#
# Compressibility (1/GPa) = 0.01845099
#
# Stress axis : x y z
#
# Youngs Moduli (GPa) = 59.56456 88.35410 104.93562
#
# Poissons Ratio (x) = 0.28541 0.22978
# Poissons Ratio (y) = 0.19241 0.43786
# Poissons Ratio (z) = 0.13043 0.36867
#
# Static dielectric constant tensor:
#      x y z
#    x 3.156960 0.000000 0.000000 
#    y 0.000000 3.980170 0.000000 
#    z 0.000000 0.000000 4.335660 
# 
# 
# High freq. dielectric constant tensor:
#      x y z
#    x 1.672190 0.000000 0.000000 
#    y 0.000000 1.737810 0.000000 
#    z 0.000000 0.000000 1.717080 
# 
# From -- ./inp_files/22257.got.cif
#   From: 2010.06.25/outbox.cif.g09.slc.cpg/sg52_12_cif.got.tgz:22257.got - 2010.06.26 19:32:48.
