data_PCOD8215322
_publ_section_title
;
Structure prediction by ZEFSAII (Michael W. Deem and Ramdas Pophale) SiO2 
 PCOD8215322
Probable space group: P N N A
;
_chemical_formula_sum "Si O2"
_cell_formula_units_Z 56
_cell_length_a 9.438902
_cell_length_b 20.818130
_cell_length_c 14.094121
_cell_angle_alpha 90.000000
_cell_angle_beta 90.000000
_cell_angle_gamma 90.000000
_cell_volume 2769.498848
_symmetry_space_group_name_H-M "P N N A"
_symmetry_group_IT_number 52
_symmetry_cell_setting 'orthorhombic'
loop_
_space_group_symop_operation_xyz
x,y,z
1/2-x,-y,z
x,1/2-y,1/2-z
1/2-x,1/2+y,1/2-z
-x,-y,-z
1/2+x,y,-z
-x,1/2+y,1/2+z
1/2+x,1/2-y,1/2+z
loop_
_atom_site_type_symbol
_atom_site_label
_atom_site_fract_x
_atom_site_fract_y
_atom_site_fract_z
Si Si1 0.885430 0.539155 0.939390
Si Si2 0.471906 0.640114 0.420346
Si Si3 0.742644 0.070842 0.049850
Si Si4 0.132143 0.348253 0.926127
Si Si5 0.711660 0.428458 0.240025
Si Si6 0.071694 0.782329 0.555749
Si Si7 0.006196 0.127617 0.287066
O O1 0.750000 0.500000 0.909368
O O2 0.949178 0.562126 0.839375
O O3 0.824277 0.598782 0.997481
O O4 0.000000 0.500000 0.000000
O O5 0.593693 0.588079 0.435618
O O6 0.337290 0.622328 0.484603
O O7 0.541665 0.707424 0.448858
O O8 0.412496 0.640277 0.311885
O O9 0.658485 0.066637 0.151217
O O10 0.750000 0.000000 0.003018
O O11 0.103897 0.388532 0.828249
O O12 0.262125 0.297144 0.927063
O O13 0.986201 0.313237 0.956844
O O14 0.750000 0.500000 0.200158
O O15 0.843943 0.380854 0.240887
O O16 0.979596 0.811675 0.642537
#
# Coordination Sequence:
#
# PCOD8215322 Si02
#       7
#     8   8   8   8   8   8   8
#     4  11  20  33  55  86 119 149 181 226 282 336
#     4  11  21  39  58  76 107 145 183 230 279 325
#     4  10  22  38  58  82 105 137 183 229 275 329
#     4  10  19  33  54  81 112 143 182 225 269 327
#     4   9  17  33  55  79 108 142 179 224 276 324
#     4  10  20  35  54  79 107 145 186 225 271 333
#     4   9  20  33  53  79 107 145 184 219 269 336
#
# _framework density 20.220265000000001
#
# number of rings (size 3 to 8) (size 9 to 14) (size 15 to 20)
#    0.000    2.000    0.000    5.571    0.000    0.571 
#    0.000    6.429    0.000    0.000    0.000    0.000 
#    0.000    0.000    0.000    0.000    0.000    0.000 
#
# Total GULP energy -693998.549769 kJ/mol
# GULP energy per Si atom -12392.831246 kJ/mol
# Density = 2.017424 g / cm^3
# Si number density = 20.220265 Si / 1000 Ang^3
#
#
#
# Elastic Constant Matrix: (Units=GPa)
#
#
# Indices 1 2 3 4 5 6 
#
# 1 47.5709 7.1759 14.3577 0.0000 0.0000 0.0000
# 2 7.1759 97.9635 19.6042 0.0000 0.0000 0.0000
# 3 14.3577 19.6042 92.3643 0.0000 0.0000 0.0000
# 4 0.0000 0.0000 0.0000 27.5708 0.0000 0.0000
# 5 0.0000 0.0000 0.0000 0.0000 26.5300 0.0000
# 6 0.0000 0.0000 0.0000 0.0000 0.0000 34.3842
#
#
#
# Elastic Compliance Matrix: (Units=1/GPa)
#
#
# Indices 1 2 3 4 5 6 
#
# 1 0.022145 -0.000975 -0.003235 0.000000 0.000000 0.000000
# 2 -0.000975 0.010704 -0.002120 0.000000 0.000000 0.000000
# 3 -0.003235 -0.002120 0.011780 0.000000 0.000000 0.000000
# 4 0.000000 0.000000 0.000000 0.036270 0.000000 0.000000
# 5 0.000000 0.000000 0.000000 0.000000 0.037693 0.000000
# 6 0.000000 0.000000 0.000000 0.000000 0.000000 0.029083
#
#
# Mechanical properties :
#
#
# Convention : Reuss Voigt Hill
#
# Bulk Modulus (GPa) = 31.28209 35.57493 33.42851
# Shear Modulus (GPa) = 29.24128 30.81440 30.02784
#
# Velocity S-wave (km/s) = 3.80694 3.90800 3.85780
# Velocity P-wave (km/s) = 5.90152 6.16402 6.03420
#
# Compressibility (1/GPa) = 0.03196718
#
# Stress axis : x y z
#
# Youngs Moduli (GPa) = 45.15737 93.42656 84.89208
#
# Poissons Ratio (x) = 0.09106 0.27466
# Poissons Ratio (y) = 0.04401 0.18000
# Poissons Ratio (z) = 0.14610 0.19809
#
# Static dielectric constant tensor:
#      x y z
#    x 3.144170 0.000000 0.000000 
#    y 0.000000 3.512920 0.000000 
#    z 0.000000 0.000000 4.048560 
# 
# 
# High freq. dielectric constant tensor:
#      x y z
#    x 1.756220 0.000000 0.000000 
#    y 0.000000 1.797390 0.000000 
#    z 0.000000 0.000000 1.788100 
# 
# From -- ./inp_files/24947.got.cif
#   From: 2010.06.25/outbox.cif.g09.slc.cpg/sg52_13_cif.got.tgz:24947.got - 2010.06.26 19:32:48.
