data_PCOD8215189
_publ_section_title
;
Structure prediction by ZEFSAII (Michael W. Deem and Ramdas Pophale) SiO2 
 PCOD8215189
Probable space group: P N N A
;
_chemical_formula_sum "Si O2"
_cell_formula_units_Z 48
_cell_length_a 12.242992
_cell_length_b 8.779467
_cell_length_c 24.233508
_cell_angle_alpha 90.000000
_cell_angle_beta 90.000000
_cell_angle_gamma 90.000000
_cell_volume 2604.785723
_symmetry_space_group_name_H-M "P N N A"
_symmetry_group_IT_number 52
_symmetry_cell_setting 'orthorhombic'
loop_
_space_group_symop_operation_xyz
x,y,z
1/2-x,-y,z
x,1/2-y,1/2-z
1/2-x,1/2+y,1/2-z
-x,-y,-z
1/2+x,y,-z
-x,1/2+y,1/2+z
1/2+x,1/2-y,1/2+z
loop_
_atom_site_type_symbol
_atom_site_label
_atom_site_fract_x
_atom_site_fract_y
_atom_site_fract_z
Si Si1 0.056324 0.055189 0.614099
Si Si2 0.250000 0.500000 0.130930
Si Si3 0.425858 0.305088 0.019778
Si Si4 0.625800 0.538503 0.595340
Si Si5 0.416668 0.279469 0.185821
Si Si6 0.750000 0.500000 0.042744
Si Si7 0.433329 0.703501 0.084211
O O1 0.952477 0.097265 0.574085
O O2 0.038185 0.155453 0.669116
O O3 0.170194 0.091650 0.584716
O O4 0.029212 0.875207 0.622149
O O5 0.329687 0.409818 0.171775
O O6 0.313434 0.627601 0.093799
O O7 0.408475 0.132635 0.040624
O O8 0.316112 0.375708 0.992724
O O9 0.531074 0.315989 0.979943
O O10 0.750000 0.500000 0.587300
O O11 0.605644 0.624363 0.652894
O O12 0.560287 0.380691 0.599136
O O13 0.414432 0.250000 0.250000
#
# Coordination Sequence:
#
# PCOD8215189 Si02
#       7
#     8   4   8   8   8   4   8
#     4   9  21  34  56  80 105 144 182 225 253 326
#     4  10  20  33  56  76 106 138 180 213 264 334
#     4  10  22  32  54  79 112 149 173 217 258 319
#     4  11  22  33  52  79 112 141 175 218 264 319
#     4  10  22  38  55  77 104 138 179 231 275 311
#     4  10  18  35  60  78 110 148 190 201 268 322
#     4  10  19  35  49  78 114 140 173 209 267 317
#
# _framework density 18.427620000000001
#
# number of rings (size 3 to 8) (size 9 to 14) (size 15 to 20)
#    0.000    2.000    1.667    2.500    5.833    2.000 
#    0.000    2.500    0.000    4.000    0.000    0.000 
#    0.000    0.000    0.000    0.000    0.000    0.000 
#
# Total GULP energy -594792.053530 kJ/mol
# GULP energy per Si atom -12391.501115 kJ/mol
# Density = 1.838568 g / cm^3
# Si number density = 18.427620 Si / 1000 Ang^3
#
#
#
# Elastic Constant Matrix: (Units=GPa)
#
#
# Indices 1 2 3 4 5 6 
#
# 1 82.6213 35.6921 44.4095 0.0000 0.0000 0.0000
# 2 35.6921 124.3655 52.0838 0.0000 0.0000 0.0000
# 3 44.4095 52.0838 119.6284 0.0000 0.0000 0.0000
# 4 0.0000 0.0000 0.0000 19.4179 0.0000 0.0000
# 5 0.0000 0.0000 0.0000 0.0000 19.2274 0.0000
# 6 0.0000 0.0000 0.0000 0.0000 0.0000 21.9401
#
#
#
# Elastic Compliance Matrix: (Units=1/GPa)
#
#
# Indices 1 2 3 4 5 6 
#
# 1 0.015747 -0.002533 -0.004743 0.000000 0.000000 0.000000
# 2 -0.002533 0.010241 -0.003519 0.000000 0.000000 0.000000
# 3 -0.004743 -0.003519 0.011652 0.000000 0.000000 0.000000
# 4 0.000000 0.000000 0.000000 0.051499 0.000000 0.000000
# 5 0.000000 0.000000 0.000000 0.000000 0.052009 0.000000
# 6 0.000000 0.000000 0.000000 0.000000 0.000000 0.045579
#
#
# Mechanical properties :
#
#
# Convention : Reuss Voigt Hill
#
# Bulk Modulus (GPa) = 62.30045 65.66512 63.98279
# Shear Modulus (GPa) = 23.40099 25.07906 24.24002
#
# Velocity S-wave (km/s) = 3.56741 3.69311 3.63080
# Velocity P-wave (km/s) = 7.13093 7.34145 7.23695
#
# Compressibility (1/GPa) = 0.01605125
#
# Stress axis : x y z
#
# Youngs Moduli (GPa) = 63.50412 97.64362 85.82333
#
# Poissons Ratio (x) = 0.24733 0.40705
# Poissons Ratio (y) = 0.16085 0.30197
# Poissons Ratio (z) = 0.30120 0.34356
#
# Static dielectric constant tensor:
#      x y z
#    x 3.404430 0.000000 0.000000 
#    y 0.000000 4.176900 0.000000 
#    z 0.000000 0.000000 3.172190 
# 
# 
# High freq. dielectric constant tensor:
#      x y z
#    x 1.707170 0.000000 0.000000 
#    y 0.000000 1.725490 0.000000 
#    z 0.000000 0.000000 1.684760 
# 
# From -- ./inp_files/40213.got.cif
#   From: 2010.06.25/outbox.cif.g09.slc.cpg/sg52_21_cif.got.tgz:40213.got - 2010.06.26 19:32:48.
