data_PCOD8215764
_publ_section_title
;
Structure prediction by ZEFSAII (Michael W. Deem and Ramdas Pophale) SiO2 
 PCOD8215764
Probable space group: P N N A
;
_chemical_formula_sum "Si O2"
_cell_formula_units_Z 32
_cell_length_a 13.942658
_cell_length_b 5.141471
_cell_length_c 21.196486
_cell_angle_alpha 90.000000
_cell_angle_beta 90.000000
_cell_angle_gamma 90.000000
_cell_volume 1519.486458
_symmetry_space_group_name_H-M "P N N A"
_symmetry_group_IT_number 52
_symmetry_cell_setting 'orthorhombic'
loop_
_space_group_symop_operation_xyz
x,y,z
1/2-x,-y,z
x,1/2-y,1/2-z
1/2-x,1/2+y,1/2-z
-x,-y,-z
1/2+x,y,-z
-x,1/2+y,1/2+z
1/2+x,1/2-y,1/2+z
loop_
_atom_site_type_symbol
_atom_site_label
_atom_site_fract_x
_atom_site_fract_y
_atom_site_fract_z
Si Si1 0.750000 0.500000 0.327609
Si Si2 0.188546 0.258487 0.441247
Si Si3 0.491410 0.295008 0.879120
Si Si4 0.381245 0.782494 0.920173
Si Si5 0.409981 0.250000 0.750000
O O1 0.714098 0.269167 0.375094
O O2 0.659898 0.543959 0.282674
O O3 0.250000 0.500000 0.414523
O O4 0.104043 0.201699 0.391985
O O5 0.147088 0.344084 0.508561
O O6 0.250000 0.000000 0.448629
O O7 0.437818 0.512139 0.920307
O O8 0.476687 0.368365 0.805076
O O9 0.448884 0.014754 0.896071
#
# Coordination Sequence:
#
# PCOD8215764 Si02
#       5
#     4   8   8   8   4
#     4  10  20  36  64  96 126 160 200 256 318 374
#     4  12  24  41  64  92 123 164 213 258 304 362
#     4  11  24  41  62  91 127 168 204 252 310 369
#     4  11  22  39  64  92 129 159 202 259 320 367
#     4  10  22  38  62  92 130 162 204 246 306 382
#
# _framework density 21.059747000000002
#
# number of rings (size 3 to 8) (size 9 to 14) (size 15 to 20)
#    0.000    1.000    1.250    6.000    3.500    3.000 
#    0.000    1.250    0.000    0.000    0.000    0.000 
#    0.000    0.000    0.000    0.000    0.000    0.000 
#
# Total GULP energy -396720.368870 kJ/mol
# GULP energy per Si atom -12397.511527 kJ/mol
# Density = 2.101181 g / cm^3
# Si number density = 21.059747 Si / 1000 Ang^3
#
#
#
# Elastic Constant Matrix: (Units=GPa)
#
#
# Indices 1 2 3 4 5 6 
#
# 1 121.9076 25.4460 67.9407 0.0000 0.0000 0.0000
# 2 25.4460 81.8542 9.7238 0.0000 0.0000 0.0000
# 3 67.9407 9.7238 116.3273 0.0000 0.0000 0.0000
# 4 0.0000 0.0000 0.0000 14.9279 0.0000 0.0000
# 5 0.0000 0.0000 0.0000 0.0000 25.6030 0.0000
# 6 0.0000 0.0000 0.0000 0.0000 0.0000 36.4497
#
#
#
# Elastic Compliance Matrix: (Units=1/GPa)
#
#
# Indices 1 2 3 4 5 6 
#
# 1 0.012919 -0.003151 -0.007282 0.000000 0.000000 0.000000
# 2 -0.003151 0.013108 0.000745 0.000000 0.000000 0.000000
# 3 -0.007282 0.000745 0.012787 0.000000 0.000000 0.000000
# 4 0.000000 0.000000 0.000000 0.066988 0.000000 0.000000
# 5 0.000000 0.000000 0.000000 0.000000 0.039058 0.000000
# 6 0.000000 0.000000 0.000000 0.000000 0.000000 0.027435
#
#
# Mechanical properties :
#
#
# Convention : Reuss Voigt Hill
#
# Bulk Modulus (GPa) = 51.44692 58.47890 54.96291
# Shear Modulus (GPa) = 25.23324 29.86136 27.54730
#
# Velocity S-wave (km/s) = 3.46522 3.76963 3.62063
# Velocity P-wave (km/s) = 6.36336 6.83924 6.60559
#
# Compressibility (1/GPa) = 0.01943751
#
# Stress axis : x y z
#
# Youngs Moduli (GPa) = 77.40558 76.28961 78.20339
#
# Poissons Ratio (x) = 0.24039 0.56947
# Poissons Ratio (y) = 0.24391 -0.05824
# Poissons Ratio (z) = 0.56366 -0.05681
#
# Static dielectric constant tensor:
#      x y z
#    x 4.075900 0.000000 0.000000 
#    y 0.000000 3.658390 0.000000 
#    z 0.000000 0.000000 4.175180 
# 
# 
# High freq. dielectric constant tensor:
#      x y z
#    x 1.822100 0.000000 0.000000 
#    y 0.000000 1.823060 0.000000 
#    z 0.000000 0.000000 1.824890 
# 
# From -- ./inp_files/36484.got.cif
#   From: 2010.06.25/outbox.cif.g09.slc.cpg/sg52_19_cif.got.tgz:36484.got - 2010.06.26 19:32:48.
