data_PCOD8215950
_publ_section_title
;
Structure prediction by ZEFSAII (Michael W. Deem and Ramdas Pophale) SiO2 
 PCOD8215950
Probable space group: P N N A
;
_chemical_formula_sum "Si O2"
_cell_formula_units_Z 48
_cell_length_a 9.144921
_cell_length_b 23.978078
_cell_length_c 9.175793
_cell_angle_alpha 90.000000
_cell_angle_beta 90.000000
_cell_angle_gamma 90.000000
_cell_volume 2012.046134
_symmetry_space_group_name_H-M "P N N A"
_symmetry_group_IT_number 52
_symmetry_cell_setting 'orthorhombic'
loop_
_space_group_symop_operation_xyz
x,y,z
1/2-x,-y,z
x,1/2-y,1/2-z
1/2-x,1/2+y,1/2-z
-x,-y,-z
1/2+x,y,-z
-x,1/2+y,1/2+z
1/2+x,1/2-y,1/2+z
loop_
_atom_site_type_symbol
_atom_site_label
_atom_site_fract_x
_atom_site_fract_y
_atom_site_fract_z
Si Si1 0.245500 0.714316 0.401102
Si Si2 0.131077 0.044636 0.876353
Si Si3 0.396913 0.966595 0.197634
Si Si4 0.246208 0.840694 0.813814
Si Si5 0.954379 0.716605 0.095680
Si Si6 0.939061 0.650550 0.826770
O O1 0.201063 0.665838 0.515220
O O2 0.377002 0.740915 0.489051
O O3 0.310837 0.811394 0.250022
O O4 0.115206 0.758654 0.370136
O O5 0.193781 0.097307 0.790602
O O6 0.250000 0.000000 0.919028
O O7 0.068833 0.060242 0.037159
O O8 0.016192 0.014532 0.769990
O O9 0.406949 0.914772 0.307429
O O10 0.250000 0.000000 0.221237
O O11 0.372164 0.797929 0.750780
O O12 0.097793 0.830225 0.727982
O O13 0.950541 0.659575 0.001021
#
# Coordination Sequence:
#
# PCOD8215950 Si02
#       6
#     8   8   8   8   8   8
#     4  12  26  46  74 103 137 192 242 290 347 421
#     4  10  20  39  72 105 137 180 233 293 349 416
#     4  10  22  39  69 108 139 174 238 296 346 416
#     4  12  25  47  73 105 143 190 236 289 365 423
#     4  12  28  46  69 105 147 186 239 294 350 428
#     4  12  25  48  72 104 146 189 232 293 363 423
#
# _framework density 23.856311999999999
#
# number of rings (size 3 to 8) (size 9 to 14) (size 15 to 20)
#    0.000    0.667    6.667    1.000    0.000    5.333 
#    0.000    1.667    0.000    0.000    0.000    0.000 
#    0.000    0.000    0.000    0.000    0.000    0.000 
#
# Total GULP energy -594783.774558 kJ/mol
# GULP energy per Si atom -12391.328637 kJ/mol
# Density = 2.380201 g / cm^3
# Si number density = 23.856312 Si / 1000 Ang^3
#
#
#
# Elastic Constant Matrix: (Units=GPa)
#
#
# Indices 1 2 3 4 5 6 
#
# 1 129.7912 50.3689 29.4307 0.0000 0.0000 0.0000
# 2 50.3689 136.8055 42.4220 0.0000 0.0000 0.0000
# 3 29.4307 42.4220 129.7280 0.0000 0.0000 0.0000
# 4 0.0000 0.0000 0.0000 36.3101 0.0000 0.0000
# 5 0.0000 0.0000 0.0000 0.0000 27.8113 0.0000
# 6 0.0000 0.0000 0.0000 0.0000 0.0000 49.6439
#
#
#
# Elastic Compliance Matrix: (Units=1/GPa)
#
#
# Indices 1 2 3 4 5 6 
#
# 1 0.009123 -0.003024 -0.001081 0.000000 0.000000 0.000000
# 2 -0.003024 0.009137 -0.002302 0.000000 0.000000 0.000000
# 3 -0.001081 -0.002302 0.008706 0.000000 0.000000 0.000000
# 4 0.000000 0.000000 0.000000 0.027541 0.000000 0.000000
# 5 0.000000 0.000000 0.000000 0.000000 0.035957 0.000000
# 6 0.000000 0.000000 0.000000 0.000000 0.000000 0.020143
#
#
# Mechanical properties :
#
#
# Convention : Reuss Voigt Hill
#
# Bulk Modulus (GPa) = 70.65497 71.19644 70.92570
# Shear Modulus (GPa) = 39.02051 41.02659 40.02355
#
# Velocity S-wave (km/s) = 4.04870 4.15147 4.10041
# Velocity P-wave (km/s) = 7.17894 7.27243 7.22584
#
# Compressibility (1/GPa) = 0.01415329
#
# Stress axis : x y z
#
# Youngs Moduli (GPa) = 109.60995 109.44866 114.85854
#
# Poissons Ratio (x) = 0.33095 0.12416
# Poissons Ratio (y) = 0.33144 0.26438
# Poissons Ratio (z) = 0.11848 0.25193
#
# Static dielectric constant tensor:
#      x y z
#    x 4.320770 0.000000 0.000000 
#    y 0.000000 4.311490 0.000000 
#    z 0.000000 0.000000 5.104750 
# 
# 
# High freq. dielectric constant tensor:
#      x y z
#    x 1.959890 0.000000 0.000000 
#    y 0.000000 1.951350 0.000000 
#    z 0.000000 0.000000 1.937050 
# 
# From -- ./inp_files/16921.got.cif
#   From: 2010.06.25/outbox.cif.g09.slc.cpg/sg52_9_cif.got.tgz:16921.got - 2010.06.26 19:32:48.
