data_PCOD8215438
_publ_section_title
;
Structure prediction by ZEFSAII (Michael W. Deem and Ramdas Pophale) SiO2 
 PCOD8215438
Probable space group: P N N A
;
_chemical_formula_sum "Si O2"
_cell_formula_units_Z 32
_cell_length_a 9.637805
_cell_length_b 18.103712
_cell_length_c 9.194968
_cell_angle_alpha 90.000000
_cell_angle_beta 90.000000
_cell_angle_gamma 90.000000
_cell_volume 1604.338440
_symmetry_space_group_name_H-M "P N N A"
_symmetry_group_IT_number 52
_symmetry_cell_setting 'orthorhombic'
loop_
_space_group_symop_operation_xyz
x,y,z
1/2-x,-y,z
x,1/2-y,1/2-z
1/2-x,1/2+y,1/2-z
-x,-y,-z
1/2+x,y,-z
-x,1/2+y,1/2+z
1/2+x,1/2-y,1/2+z
loop_
_atom_site_type_symbol
_atom_site_label
_atom_site_fract_x
_atom_site_fract_y
_atom_site_fract_z
Si Si1 0.027772 0.082676 0.548675
Si Si2 0.769034 0.682767 0.437782
Si Si3 0.438891 0.169391 0.177378
Si Si4 0.303023 0.150917 0.626394
O O1 0.957692 0.105089 0.703102
O O2 0.957991 0.134651 0.426733
O O3 0.192848 0.094369 0.554243
O O4 0.000000 0.000000 0.500000
O O5 0.701210 0.652817 0.586908
O O6 0.744349 0.769417 0.425802
O O7 0.698558 0.642478 0.300141
O O8 0.933314 0.667236 0.436770
O O9 0.434034 0.250000 0.250000
#
# Coordination Sequence:
#
# PCOD8215438 Si02
#       4
#     8   8   8   8
#     4  11  22  37  59  87 121 160 196 241 305 367
#     4  10  19  36  59  88 118 153 200 256 297 332
#     4  11  20  38  59  91 123 150 205 254 293 355
#     4  10  19  36  57  85 119 154 200 248 293 352
#
# _framework density 19.945917000000001
#
# number of rings (size 3 to 8) (size 9 to 14) (size 15 to 20)
#    0.000    1.500    7.500    0.750    0.000    2.000 
#    4.500    1.250    0.000    3.000    0.000    0.000 
#    0.000    0.000    0.000    0.000    0.000    0.000 
#
# Total GULP energy -396702.262034 kJ/mol
# GULP energy per Si atom -12396.945689 kJ/mol
# Density = 1.990052 g / cm^3
# Si number density = 19.945917 Si / 1000 Ang^3
#
#
#
# Elastic Constant Matrix: (Units=GPa)
#
#
# Indices 1 2 3 4 5 6 
#
# 1 75.8283 22.9770 57.3851 0.0000 0.0000 0.0000
# 2 22.9770 86.1596 36.3676 0.0000 0.0000 0.0000
# 3 57.3851 36.3676 93.5009 0.0000 0.0000 0.0000
# 4 0.0000 0.0000 0.0000 30.2375 0.0000 0.0000
# 5 0.0000 0.0000 0.0000 0.0000 39.4206 0.0000
# 6 0.0000 0.0000 0.0000 0.0000 0.0000 17.9073
#
#
#
# Elastic Compliance Matrix: (Units=1/GPa)
#
#
# Indices 1 2 3 4 5 6 
#
# 1 0.024629 -0.000225 -0.015028 0.000000 0.000000 0.000000
# 2 -0.000225 0.013888 -0.005264 0.000000 0.000000 0.000000
# 3 -0.015028 -0.005264 0.021966 0.000000 0.000000 0.000000
# 4 0.000000 0.000000 0.000000 0.033072 0.000000 0.000000
# 5 0.000000 0.000000 0.000000 0.000000 0.025367 0.000000
# 6 0.000000 0.000000 0.000000 0.000000 0.000000 0.055843
#
#
# Mechanical properties :
#
#
# Convention : Reuss Voigt Hill
#
# Bulk Modulus (GPa) = 51.41615 54.32757 52.87186
# Shear Modulus (GPa) = 22.49395 26.76369 24.62882
#
# Velocity S-wave (km/s) = 3.36184 3.66705 3.51776
# Velocity P-wave (km/s) = 6.39555 6.72505 6.56236
#
# Compressibility (1/GPa) = 0.01944914
#
# Stress axis : x y z
#
# Youngs Moduli (GPa) = 40.60282 72.00369 45.52491
#
# Poissons Ratio (x) = 0.01617 0.68416
# Poissons Ratio (y) = 0.00912 0.23964
# Poissons Ratio (z) = 0.61019 0.37903
#
# Static dielectric constant tensor:
#      x y z
#    x 3.952140 0.000000 0.000000 
#    y 0.000000 3.442390 0.000000 
#    z 0.000000 0.000000 2.400480 
# 
# 
# High freq. dielectric constant tensor:
#      x y z
#    x 1.783380 0.000000 0.000000 
#    y 0.000000 1.748780 0.000000 
#    z 0.000000 0.000000 1.776160 
# 
# From -- ./inp_files/7210.got.cif
#   From: 2010.06.25/outbox.cif.g09.slc.cpg/sg52_4_cif.got.tgz:7210.got - 2010.06.26 19:32:48.
