data_PCOD8215165
_publ_section_title
;
Structure prediction by ZEFSAII (Michael W. Deem and Ramdas Pophale) SiO2 
 PCOD8215165
Probable space group: P N N A
;
_chemical_formula_sum "Si O2"
_cell_formula_units_Z 48
_cell_length_a 9.004610
_cell_length_b 27.390995
_cell_length_c 9.335146
_cell_angle_alpha 90.000000
_cell_angle_beta 90.000000
_cell_angle_gamma 90.000000
_cell_volume 2302.469209
_symmetry_space_group_name_H-M "P N N A"
_symmetry_group_IT_number 52
_symmetry_cell_setting 'orthorhombic'
loop_
_space_group_symop_operation_xyz
x,y,z
1/2-x,-y,z
x,1/2-y,1/2-z
1/2-x,1/2+y,1/2-z
-x,-y,-z
1/2+x,y,-z
-x,1/2+y,1/2+z
1/2+x,1/2-y,1/2+z
loop_
_atom_site_type_symbol
_atom_site_label
_atom_site_fract_x
_atom_site_fract_y
_atom_site_fract_z
Si Si1 0.893779 0.594368 0.854671
Si Si2 0.784804 0.250000 0.750000
Si Si3 0.538186 0.200599 0.587886
Si Si4 0.284487 0.250000 0.750000
Si Si5 0.544475 0.919791 0.653801
Si Si6 0.534168 0.180377 0.254468
Si Si7 0.921263 0.991656 0.849867
O O1 0.716499 0.592594 0.872583
O O2 0.947769 0.561869 0.719340
O O3 0.948046 0.649543 0.825004
O O4 0.963656 0.574790 0.002048
O O5 0.680766 0.233726 0.619420
O O6 0.887435 0.205878 0.810856
O O7 0.386835 0.228331 0.625571
O O8 0.534362 0.191401 0.422120
O O9 0.180865 0.205786 0.812551
O O10 0.471880 0.878160 0.758089
O O11 0.517481 0.970171 0.734424
O O12 0.750000 0.000000 0.879760
O O13 0.000000 0.000000 0.000000
#
# Coordination Sequence:
#
# PCOD8215165 Si02
#       7
#     8   4   8   4   8   8   8
#     4  10  21  38  66  93 120 154 205 253 296 354
#     4  10  18  34  56  78 120 150 184 246 298 342
#     4  10  20  36  57  84 116 153 200 244 298 341
#     4  10  22  34  56  86 116 154 192 246 290 362
#     4  10  21  38  66  93 120 154 205 253 296 354
#     4  10  20  36  57  84 116 153 200 244 298 341
#     4  10  23  44  62  90 128 160 193 244 308 366
#
# _framework density 20.847183999999999
#
# number of rings (size 3 to 8) (size 9 to 14) (size 15 to 20)
#    0.000    2.000    1.667    1.500    7.000    1.333 
#    0.000   10.000    0.000    0.000    0.000    0.000 
#    0.000    0.000    0.000    0.000    0.000    0.000 
#
# Total GULP energy -595033.295760 kJ/mol
# GULP energy per Si atom -12396.526995 kJ/mol
# Density = 2.079973 g / cm^3
# Si number density = 20.847184 Si / 1000 Ang^3
#
#
#
# Elastic Constant Matrix: (Units=GPa)
#
#
# Indices 1 2 3 4 5 6 
#
# 1 113.4236 50.6657 34.0808 0.0000 0.0000 0.0000
# 2 50.6657 126.4301 54.3201 0.0000 0.0000 0.0000
# 3 34.0808 54.3201 73.3881 0.0000 0.0000 0.0000
# 4 0.0000 0.0000 0.0000 31.6588 0.0000 0.0000
# 5 0.0000 0.0000 0.0000 0.0000 31.4995 0.0000
# 6 0.0000 0.0000 0.0000 0.0000 0.0000 56.0902
#
#
#
# Elastic Compliance Matrix: (Units=1/GPa)
#
#
# Indices 1 2 3 4 5 6 
#
# 1 0.011100 -0.003275 -0.002731 0.000000 0.000000 0.000000
# 2 -0.003275 0.012564 -0.007779 0.000000 0.000000 0.000000
# 3 -0.002731 -0.007779 0.020652 0.000000 0.000000 0.000000
# 4 0.000000 0.000000 0.000000 0.031587 0.000000 0.000000
# 5 0.000000 0.000000 0.000000 0.000000 0.031747 0.000000
# 6 0.000000 0.000000 0.000000 0.000000 0.000000 0.017828
#
#
# Mechanical properties :
#
#
# Convention : Reuss Voigt Hill
#
# Bulk Modulus (GPa) = 59.71164 65.70832 62.70998
# Shear Modulus (GPa) = 31.52016 35.46138 33.49077
#
# Velocity S-wave (km/s) = 3.89261 4.12881 4.01245
# Velocity P-wave (km/s) = 6.99342 7.37000 7.18418
#
# Compressibility (1/GPa) = 0.01674715
#
# Stress axis : x y z
#
# Youngs Moduli (GPa) = 90.09087 79.59240 48.42174
#
# Poissons Ratio (x) = 0.26066 0.13222
# Poissons Ratio (y) = 0.29505 0.37666
# Poissons Ratio (z) = 0.24601 0.61913
#
# Static dielectric constant tensor:
#      x y z
#    x 4.002700 0.000000 0.000000 
#    y 0.000000 4.352630 0.000000 
#    z 0.000000 0.000000 3.478300 
# 
# 
# High freq. dielectric constant tensor:
#      x y z
#    x 1.828550 0.000000 0.000000 
#    y 0.000000 1.825440 0.000000 
#    z 0.000000 0.000000 1.788760 
# 
# From -- ./inp_files/7737.got.cif
#   From: 2010.06.25/outbox.cif.g09.slc.cpg/sg52_4_cif.got.tgz:7737.got - 2010.06.26 19:32:48.
