data_PCOD8215731
_publ_section_title
;
Structure prediction by ZEFSAII (Michael W. Deem and Ramdas Pophale) SiO2 
 PCOD8215731
Probable space group: P N N A
;
_chemical_formula_sum "Si O2"
_cell_formula_units_Z 36
_cell_length_a 8.507802
_cell_length_b 13.867815
_cell_length_c 14.401333
_cell_angle_alpha 90.000000
_cell_angle_beta 90.000000
_cell_angle_gamma 90.000000
_cell_volume 1699.135862
_symmetry_space_group_name_H-M "P N N A"
_symmetry_group_IT_number 52
_symmetry_cell_setting 'orthorhombic'
loop_
_space_group_symop_operation_xyz
x,y,z
1/2-x,-y,z
x,1/2-y,1/2-z
1/2-x,1/2+y,1/2-z
-x,-y,-z
1/2+x,y,-z
-x,1/2+y,1/2+z
1/2+x,1/2-y,1/2+z
loop_
_atom_site_type_symbol
_atom_site_label
_atom_site_fract_x
_atom_site_fract_y
_atom_site_fract_z
Si Si1 0.042987 0.261687 0.088720
Si Si2 0.319124 0.250000 0.750000
Si Si3 0.395741 0.209023 0.390505
Si Si4 0.964994 0.621327 0.280683
Si Si5 0.072948 0.034260 0.095117
O O1 0.210799 0.312611 0.101715
O O2 0.060852 0.147874 0.099988
O O3 0.924414 0.296224 0.168701
O O4 0.975046 0.294263 0.990657
O O5 0.211189 0.336564 0.709986
O O6 0.420451 0.313654 0.344655
O O7 0.475653 0.126880 0.325976
O O8 0.973947 0.512645 0.319360
O O9 0.250000 0.000000 0.103062
O O10 0.000000 0.000000 0.000000
#
# Coordination Sequence:
#
# PCOD8215731 Si02
#       5
#     8   4   8   8   8
#     4  12  21  38  61  91 120 166 209 256 307 361
#     4  10  24  36  60  84 120 168 214 256 294 378
#     4  10  20  36  59  83 125 160 210 247 303 375
#     4  10  21  38  55  89 127 164 201 249 316 372
#     4  12  24  36  60  94 133 159 192 262 318 362
#
# _framework density 21.187242999999999
#
# number of rings (size 3 to 8) (size 9 to 14) (size 15 to 20)
#    0.000    1.333    4.444    4.000    3.111    0.000 
#    0.000    0.000    0.000    1.333    0.000    0.000 
#    0.000    0.000    0.000    0.000    0.000    0.000 
#
# Total GULP energy -446445.767014 kJ/mol
# GULP energy per Si atom -12401.271306 kJ/mol
# Density = 2.113902 g / cm^3
# Si number density = 21.187243 Si / 1000 Ang^3
#
#
#
# Elastic Constant Matrix: (Units=GPa)
#
#
# Indices 1 2 3 4 5 6 
#
# 1 142.0992 0.3221 51.9575 0.0000 0.0000 0.0000
# 2 0.3221 41.9895 15.4310 0.0000 0.0000 0.0000
# 3 51.9575 15.4310 163.7592 0.0000 0.0000 0.0000
# 4 0.0000 0.0000 0.0000 32.6582 0.0000 0.0000
# 5 0.0000 0.0000 0.0000 0.0000 46.7436 0.0000
# 6 0.0000 0.0000 0.0000 0.0000 0.0000 17.9083
#
#
#
# Elastic Compliance Matrix: (Units=1/GPa)
#
#
# Indices 1 2 3 4 5 6 
#
# 1 0.007994 0.000902 -0.002621 0.000000 0.000000 0.000000
# 2 0.000902 0.024772 -0.002620 0.000000 0.000000 0.000000
# 3 -0.002621 -0.002620 0.007185 0.000000 0.000000 0.000000
# 4 0.000000 0.000000 0.000000 0.030620 0.000000 0.000000
# 5 0.000000 0.000000 0.000000 0.000000 0.021393 0.000000
# 6 0.000000 0.000000 0.000000 0.000000 0.000000 0.055840
#
#
# Mechanical properties :
#
#
# Convention : Reuss Voigt Hill
#
# Bulk Modulus (GPa) = 31.97846 53.69656 42.83751
# Shear Modulus (GPa) = 29.95684 38.13785 34.04734
#
# Velocity S-wave (km/s) = 3.76428 4.24729 4.01306
# Velocity P-wave (km/s) = 5.83259 7.03217 6.46028
#
# Compressibility (1/GPa) = 0.03127105
#
# Stress axis : x y z
#
# Youngs Moduli (GPa) = 125.09804 40.36894 139.17669
#
# Poissons Ratio (x) = -0.03641 0.36482
# Poissons Ratio (y) = -0.11283 0.36470
# Poissons Ratio (z) = 0.32791 0.10578
#
# Static dielectric constant tensor:
#      x y z
#    x 4.106170 0.000000 0.000000 
#    y 0.000000 3.583020 0.000000 
#    z 0.000000 0.000000 4.048690 
# 
# 
# High freq. dielectric constant tensor:
#      x y z
#    x 1.851480 0.000000 0.000000 
#    y 0.000000 1.784080 0.000000 
#    z 0.000000 0.000000 1.842310 
# 
# From -- ./inp_files/24343.got.cif
#   From: 2010.06.25/outbox.cif.g09.slc.cpg/sg52_13_cif.got.tgz:24343.got - 2010.06.26 19:32:48.
