data_PCOD8215702
_publ_section_title
;
Structure prediction by ZEFSAII (Michael W. Deem and Ramdas Pophale) SiO2 
 PCOD8215702
Probable space group: P N N A
;
_chemical_formula_sum "Si O2"
_cell_formula_units_Z 64
_cell_length_a 22.343289
_cell_length_b 12.278316
_cell_length_c 12.067636
_cell_angle_alpha 90.000000
_cell_angle_beta 90.000000
_cell_angle_gamma 90.000000
_cell_volume 3310.610676
_symmetry_space_group_name_H-M "P N N A"
_symmetry_group_IT_number 52
_symmetry_cell_setting 'orthorhombic'
loop_
_space_group_symop_operation_xyz
x,y,z
1/2-x,-y,z
x,1/2-y,1/2-z
1/2-x,1/2+y,1/2-z
-x,-y,-z
1/2+x,y,-z
-x,1/2+y,1/2+z
1/2+x,1/2-y,1/2+z
loop_
_atom_site_type_symbol
_atom_site_label
_atom_site_fract_x
_atom_site_fract_y
_atom_site_fract_z
Si Si1 0.379944 0.870073 0.738321
Si Si2 0.002596 0.356884 0.189092
Si Si3 0.818017 0.534544 0.030026
Si Si4 0.413847 0.589482 0.515513
Si Si5 0.950639 0.362904 0.556113
Si Si6 0.082835 0.868682 0.494575
Si Si7 0.489555 0.088543 0.282170
Si Si8 0.131841 0.219690 0.373779
O O1 0.352729 0.750000 0.750000
O O2 0.336104 0.933952 0.655734
O O3 0.388047 0.922408 0.859897
O O4 0.445973 0.862848 0.683272
O O5 0.976820 0.250000 0.250000
O O6 0.007050 0.463596 0.268485
O O7 0.066037 0.330146 0.135396
O O8 0.955667 0.401958 0.100479
O O9 0.750000 0.500000 0.028025
O O10 0.852773 0.424353 0.998259
O O11 0.828193 0.632078 0.940783
O O12 0.482155 0.632710 0.506551
O O13 0.410698 0.468576 0.466342
O O14 0.371450 0.668974 0.444535
O O15 0.913203 0.262242 0.507444
O O16 0.958521 0.339869 0.686964
O O17 0.050848 0.917705 0.388654
O O18 0.156969 0.250000 0.250000
#
# Coordination Sequence:
#
# PCOD8215702 Si02
#       8
#     8   8   8   8   8   8   8   8
#     4  11  21  38  64  91 126 164 206 260 317 385
#     4  11  21  32  58  96 130 160 197 253 330 400
#     4  12  27  46  65  89 121 176 236 276 304 354
#     4  10  20  35  62  98 135 165 200 241 321 405
#     4  10  21  33  56  99 139 163 187 247 325 410
#     4  12  22  37  58  90 129 165 210 262 321 377
#     4  11  20  35  58  95 130 164 198 250 330 407
#     4  11  21  40  69  95 127 168 210 262 325 387
#
# _framework density 19.331779999999998
#
# number of rings (size 3 to 8) (size 9 to 14) (size 15 to 20)
#    0.000    1.000    5.000    4.500    3.500    0.000 
#    0.000    3.125    0.000    0.000    0.000    0.000 
#    0.000    0.000    0.000    0.000    0.000    0.000 
#
# Total GULP energy -793394.867901 kJ/mol
# GULP energy per Si atom -12396.794811 kJ/mol
# Density = 1.928778 g / cm^3
# Si number density = 19.331780 Si / 1000 Ang^3
#
#
#
# Elastic Constant Matrix: (Units=GPa)
#
#
# Indices 1 2 3 4 5 6 
#
# 1 96.3144 44.5071 49.4224 0.0000 0.0000 0.0000
# 2 44.5071 126.9222 33.6650 0.0000 0.0000 0.0000
# 3 49.4224 33.6650 104.2837 0.0000 0.0000 0.0000
# 4 0.0000 0.0000 0.0000 33.7374 0.0000 0.0000
# 5 0.0000 0.0000 0.0000 0.0000 14.5426 0.0000
# 6 0.0000 0.0000 0.0000 0.0000 0.0000 22.3969
#
#
#
# Elastic Compliance Matrix: (Units=1/GPa)
#
#
# Indices 1 2 3 4 5 6 
#
# 1 0.015182 -0.003735 -0.005989 0.000000 0.000000 0.000000
# 2 -0.003735 0.009536 -0.001308 0.000000 0.000000 0.000000
# 3 -0.005989 -0.001308 0.012850 0.000000 0.000000 0.000000
# 4 0.000000 0.000000 0.000000 0.029641 0.000000 0.000000
# 5 0.000000 0.000000 0.000000 0.000000 0.068764 0.000000
# 6 0.000000 0.000000 0.000000 0.000000 0.000000 0.044649
#
#
# Mechanical properties :
#
#
# Convention : Reuss Voigt Hill
#
# Bulk Modulus (GPa) = 64.50610 64.74547 64.62578
# Shear Modulus (GPa) = 24.05540 27.46378 25.75959
#
# Velocity S-wave (km/s) = 3.53135 3.77325 3.65430
# Velocity P-wave (km/s) = 7.07585 7.24897 7.16293
#
# Compressibility (1/GPa) = 0.01550241
#
# Stress axis : x y z
#
# Youngs Moduli (GPa) = 65.86732 104.87023 77.82106
#
# Poissons Ratio (x) = 0.39171 0.46610
# Poissons Ratio (y) = 0.24603 0.10180
# Poissons Ratio (z) = 0.39450 0.13718
#
# Static dielectric constant tensor:
#      x y z
#    x 2.934900 0.000000 0.000000 
#    y 0.000000 3.866460 0.000000 
#    z 0.000000 0.000000 3.748430 
# 
# 
# High freq. dielectric constant tensor:
#      x y z
#    x 1.678210 0.000000 0.000000 
#    y 0.000000 1.778120 0.000000 
#    z 0.000000 0.000000 1.770190 
# 
# From -- ./inp_files/22486.got.cif
#   From: 2010.06.25/outbox.cif.g09.slc.cpg/sg52_12_cif.got.tgz:22486.got - 2010.06.26 19:32:48.
