data_PCOD8215749
_publ_section_title
;
Structure prediction by ZEFSAII (Michael W. Deem and Ramdas Pophale) SiO2 
 PCOD8215749
Probable space group: P N N A
;
_chemical_formula_sum "Si O2"
_cell_formula_units_Z 48
_cell_length_a 18.351248
_cell_length_b 8.730571
_cell_length_c 15.155731
_cell_angle_alpha 90.000000
_cell_angle_beta 90.000000
_cell_angle_gamma 90.000000
_cell_volume 2428.203838
_symmetry_space_group_name_H-M "P N N A"
_symmetry_group_IT_number 52
_symmetry_cell_setting 'orthorhombic'
loop_
_space_group_symop_operation_xyz
x,y,z
1/2-x,-y,z
x,1/2-y,1/2-z
1/2-x,1/2+y,1/2-z
-x,-y,-z
1/2+x,y,-z
-x,1/2+y,1/2+z
1/2+x,1/2-y,1/2+z
loop_
_atom_site_type_symbol
_atom_site_label
_atom_site_fract_x
_atom_site_fract_y
_atom_site_fract_z
Si Si1 0.566666 0.191579 0.653980
Si Si2 0.327378 0.670516 0.482240
Si Si3 0.583460 0.663452 0.338801
Si Si4 0.661231 0.678993 0.511790
Si Si5 0.533251 0.893495 0.578383
Si Si6 0.092413 0.186251 0.843015
O O1 0.591207 0.250000 0.750000
O O2 0.627024 0.220580 0.580643
O O3 0.491555 0.269389 0.621909
O O4 0.555611 0.008470 0.657394
O O5 0.349104 0.496550 0.456365
O O6 0.244239 0.720616 0.466300
O O7 0.343077 0.697839 0.585673
O O8 0.605859 0.750000 0.250000
O O9 0.649062 0.688463 0.406704
O O10 0.568142 0.485969 0.322538
O O11 0.605369 0.796480 0.555792
O O12 0.475432 0.776122 0.616670
O O13 0.500000 0.000000 0.500000
O O14 0.121063 0.250000 0.750000
#
# Coordination Sequence:
#
# PCOD8215749 Si02
#       6
#     8   8   8   8   8   8
#     4  11  22  39  62  88 123 160 207 259 312 368
#     4  10  22  42  59  87 125 169 203 254 316 384
#     4  10  20  36  61  89 121 160 208 261 312 370
#     4  10  22  39  62  84 125 167 206 254 322 372
#     4  12  22  39  63  95 123 161 215 261 308 375
#     4  11  22  37  62  92 125 162 208 258 311 375
#
# _framework density 19.767699
#
# number of rings (size 3 to 8) (size 9 to 14) (size 15 to 20)
#    0.000    1.333    3.333    3.000    0.000    4.000 
#    0.000    4.167    0.000    0.000    0.000    0.000 
#    0.000    0.000    0.000    0.000    0.000    0.000 
#
# Total GULP energy -595045.730605 kJ/mol
# GULP energy per Si atom -12396.786054 kJ/mol
# Density = 1.972271 g / cm^3
# Si number density = 19.767699 Si / 1000 Ang^3
#
#
#
# Elastic Constant Matrix: (Units=GPa)
#
#
# Indices 1 2 3 4 5 6 
#
# 1 69.2729 22.6395 8.8193 0.0000 0.0000 0.0000
# 2 22.6395 115.1191 27.3774 0.0000 0.0000 0.0000
# 3 8.8193 27.3774 70.5066 0.0000 0.0000 0.0000
# 4 0.0000 0.0000 0.0000 38.9732 0.0000 0.0000
# 5 0.0000 0.0000 0.0000 0.0000 17.0840 0.0000
# 6 0.0000 0.0000 0.0000 0.0000 0.0000 30.5200
#
#
#
# Elastic Compliance Matrix: (Units=1/GPa)
#
#
# Indices 1 2 3 4 5 6 
#
# 1 0.015471 -0.002845 -0.000830 0.000000 0.000000 0.000000
# 2 -0.002845 0.010094 -0.003563 0.000000 0.000000 0.000000
# 3 -0.000830 -0.003563 0.015671 0.000000 0.000000 0.000000
# 4 0.000000 0.000000 0.000000 0.025659 0.000000 0.000000
# 5 0.000000 0.000000 0.000000 0.000000 0.058534 0.000000
# 6 0.000000 0.000000 0.000000 0.000000 0.000000 0.032765
#
#
# Mechanical properties :
#
#
# Convention : Reuss Voigt Hill
#
# Bulk Modulus (GPa) = 37.37276 41.39677 39.38476
# Shear Modulus (GPa) = 27.53442 30.38627 28.96034
#
# Velocity S-wave (km/s) = 3.73621 3.92493 3.83173
# Velocity P-wave (km/s) = 6.12857 6.44416 6.28834
#
# Compressibility (1/GPa) = 0.02675746
#
# Stress axis : x y z
#
# Youngs Moduli (GPa) = 64.63617 99.07247 63.81372
#
# Poissons Ratio (x) = 0.28187 0.05300
# Poissons Ratio (y) = 0.18390 0.22740
# Poissons Ratio (z) = 0.05368 0.35304
#
# Static dielectric constant tensor:
#      x y z
#    x 3.439280 0.000000 0.000000 
#    y 0.000000 3.880950 0.000000 
#    z 0.000000 0.000000 3.603110 
# 
# 
# High freq. dielectric constant tensor:
#      x y z
#    x 1.758770 0.000000 0.000000 
#    y 0.000000 1.787740 0.000000 
#    z 0.000000 0.000000 1.767650 
# 
# From -- ./inp_files/28045.got.cif
#   From: 2010.06.25/outbox.cif.g09.slc.cpg/sg52_15_cif.got.tgz:28045.got - 2010.06.26 19:32:48.
