data_PCOD8215395
_publ_section_title
;
Structure prediction by ZEFSAII (Michael W. Deem and Ramdas Pophale) SiO2 
 PCOD8215395
Probable space group: P N N A
;
_chemical_formula_sum "Si O2"
_cell_formula_units_Z 56
_cell_length_a 19.552471
_cell_length_b 9.710477
_cell_length_c 15.039709
_cell_angle_alpha 90.000000
_cell_angle_beta 90.000000
_cell_angle_gamma 90.000000
_cell_volume 2855.496602
_symmetry_space_group_name_H-M "P N N A"
_symmetry_group_IT_number 52
_symmetry_cell_setting 'orthorhombic'
loop_
_space_group_symop_operation_xyz
x,y,z
1/2-x,-y,z
x,1/2-y,1/2-z
1/2-x,1/2+y,1/2-z
-x,-y,-z
1/2+x,y,-z
-x,1/2+y,1/2+z
1/2+x,1/2-y,1/2+z
loop_
_atom_site_type_symbol
_atom_site_label
_atom_site_fract_x
_atom_site_fract_y
_atom_site_fract_z
Si Si1 0.069097 0.031636 0.949265
Si Si2 0.016458 0.897788 0.207370
Si Si3 0.756418 0.662262 0.664245
Si Si4 0.014925 0.643679 0.823140
Si Si5 0.922610 0.044071 0.487348
Si Si6 0.611947 0.228687 0.564988
Si Si7 0.376211 0.317835 0.435569
O O1 0.051916 0.054713 0.845894
O O2 0.105418 0.168522 0.983227
O O3 0.118288 0.902111 0.971348
O O4 0.000000 0.000000 0.000000
O O5 0.003025 0.750000 0.250000
O O6 0.083592 0.895393 0.144541
O O7 0.026024 0.012743 0.283050
O O8 0.750000 0.500000 0.686926
O O9 0.735268 0.750000 0.750000
O O10 0.829856 0.715757 0.631223
O O11 0.703234 0.695697 0.586290
O O12 0.043832 0.750000 0.750000
O O13 0.959139 0.726605 0.881055
O O14 0.079805 0.592545 0.883569
O O15 0.907667 0.167861 0.554001
O O16 0.872720 0.919081 0.517372
O O17 0.000000 0.000000 0.500000
#
# Coordination Sequence:
#
# PCOD8215395 Si02
#       7
#     8   8   8   8   8   8   8
#     4  10  19  35  56  78 113 156 192 242 296 353
#     4  11  20  32  57  87 117 146 193 248 302 344
#     4  12  28  41  61  88 121 164 207 239 283 352
#     4  11  20  33  57  90 118 152 190 248 308 345
#     4  10  21  37  58  84 118 158 196 241 299 358
#     4  11  22  39  57  81 124 161 199 233 289 355
#     4  11  22  39  55  83 122 159 196 234 288 356
#
# _framework density 19.611298999999999
#
# number of rings (size 3 to 8) (size 9 to 14) (size 15 to 20)
#    0.000    1.143    1.429    9.429    4.000    0.000 
#    0.000    0.000    0.000    0.000    0.000   15.000 
#    0.000    0.000    0.000    0.000    0.000    0.000 
#
# Total GULP energy -694142.548593 kJ/mol
# GULP energy per Si atom -12395.402653 kJ/mol
# Density = 1.956666 g / cm^3
# Si number density = 19.611299 Si / 1000 Ang^3
#
#
#
# Elastic Constant Matrix: (Units=GPa)
#
#
# Indices 1 2 3 4 5 6 
#
# 1 47.9610 20.8571 13.9338 0.0000 0.0000 0.0000
# 2 20.8571 135.1047 24.1970 0.0000 0.0000 0.0000
# 3 13.9338 24.1970 53.4684 0.0000 0.0000 0.0000
# 4 0.0000 0.0000 0.0000 50.0139 0.0000 0.0000
# 5 0.0000 0.0000 0.0000 0.0000 23.8256 0.0000
# 6 0.0000 0.0000 0.0000 0.0000 0.0000 24.8343
#
#
#
# Elastic Compliance Matrix: (Units=1/GPa)
#
#
# Indices 1 2 3 4 5 6 
#
# 1 0.023461 -0.002750 -0.004869 0.000000 0.000000 0.000000
# 2 -0.002750 0.008377 -0.003074 0.000000 0.000000 0.000000
# 3 -0.004869 -0.003074 0.021363 0.000000 0.000000 0.000000
# 4 0.000000 0.000000 0.000000 0.019994 0.000000 0.000000
# 5 0.000000 0.000000 0.000000 0.000000 0.041972 0.000000
# 6 0.000000 0.000000 0.000000 0.000000 0.000000 0.040267
#
#
# Mechanical properties :
#
#
# Convention : Reuss Voigt Hill
#
# Bulk Modulus (GPa) = 31.43328 39.38999 35.41163
# Shear Modulus (GPa) = 26.67738 31.57119 29.12428
#
# Velocity S-wave (km/s) = 3.69223 4.01664 3.85785
# Velocity P-wave (km/s) = 5.85147 6.45292 6.15954
#
# Compressibility (1/GPa) = 0.03181342
#
# Stress axis : x y z
#
# Youngs Moduli (GPa) = 42.62438 119.37788 46.81012
#
# Poissons Ratio (x) = 0.32825 0.22794
# Poissons Ratio (y) = 0.11720 0.14391
# Poissons Ratio (z) = 0.20756 0.36701
#
# Static dielectric constant tensor:
#      x y z
#    x 3.292300 0.000000 0.000000 
#    y 0.000000 3.242420 0.000000 
#    z 0.000000 0.000000 4.604010 
# 
# 
# High freq. dielectric constant tensor:
#      x y z
#    x 1.708460 0.000000 0.000000 
#    y 0.000000 1.797000 0.000000 
#    z 0.000000 0.000000 1.761900 
# 
# From -- ./inp_files/28791.got.cif
#   From: 2010.06.25/outbox.cif.g09.slc.cpg/sg52_15_cif.got.tgz:28791.got - 2010.06.26 19:32:48.
