data_PCOD8215546
_publ_section_title
;
Structure prediction by ZEFSAII (Michael W. Deem and Ramdas Pophale) SiO2 
 PCOD8215546
Probable space group: P N N A
;
_chemical_formula_sum "Si O2"
_cell_formula_units_Z 32
_cell_length_a 18.896194
_cell_length_b 7.847733
_cell_length_c 9.905168
_cell_angle_alpha 90.000000
_cell_angle_beta 90.000000
_cell_angle_gamma 90.000000
_cell_volume 1468.859998
_symmetry_space_group_name_H-M "P N N A"
_symmetry_group_IT_number 52
_symmetry_cell_setting 'orthorhombic'
loop_
_space_group_symop_operation_xyz
x,y,z
1/2-x,-y,z
x,1/2-y,1/2-z
1/2-x,1/2+y,1/2-z
-x,-y,-z
1/2+x,y,-z
-x,1/2+y,1/2+z
1/2+x,1/2-y,1/2+z
loop_
_atom_site_type_symbol
_atom_site_label
_atom_site_fract_x
_atom_site_fract_y
_atom_site_fract_z
Si Si1 0.155072 0.250000 0.750000
Si Si2 0.933219 0.418778 0.327601
Si Si3 0.090243 0.486090 0.376590
Si Si4 0.184323 0.750000 0.250000
Si Si5 0.716343 0.187456 0.979051
O O1 0.106255 0.416347 0.731789
O O2 0.207889 0.277817 0.876379
O O3 0.906248 0.250000 0.250000
O O4 0.920180 0.399201 0.487967
O O5 0.017242 0.436736 0.305622
O O6 0.135101 0.587289 0.266392
O O7 0.136929 0.321382 0.416179
O O8 0.232956 0.793016 0.380001
O O9 0.750000 0.000000 0.998712
#
# Coordination Sequence:
#
# PCOD8215546 Si02
#       5
#     4   8   8   4   8
#     4  10  21  44  66  94 127 166 222 262 322 384
#     4  10  21  41  68  95 128 167 209 278 318 375
#     4   9  20  40  61  90 132 165 213 262 326 378
#     4  10  19  40  62  86 129 178 202 260 328 376
#     4   9  20  40  61  87 130 170 208 267 315 380
#
# _framework density 21.785602000000001
#
# number of rings (size 3 to 8) (size 9 to 14) (size 15 to 20)
#    0.000    2.500    0.000    0.750    1.750    0.000 
#   33.750   12.500    0.000    0.000    0.000    0.000 
#    0.000    0.000    0.000    0.000    0.000    0.000 
#
# Total GULP energy -396697.332994 kJ/mol
# GULP energy per Si atom -12396.791656 kJ/mol
# Density = 2.173602 g / cm^3
# Si number density = 21.785602 Si / 1000 Ang^3
#
#
#
# Elastic Constant Matrix: (Units=GPa)
#
#
# Indices 1 2 3 4 5 6 
#
# 1 125.7503 29.3582 57.7194 0.0000 0.0000 0.0000
# 2 29.3582 94.2798 54.4475 0.0000 0.0000 0.0000
# 3 57.7194 54.4475 123.7863 0.0000 0.0000 0.0000
# 4 0.0000 0.0000 0.0000 36.3564 0.0000 0.0000
# 5 0.0000 0.0000 0.0000 0.0000 38.1160 0.0000
# 6 0.0000 0.0000 0.0000 0.0000 0.0000 20.0793
#
#
#
# Elastic Compliance Matrix: (Units=1/GPa)
#
#
# Indices 1 2 3 4 5 6 
#
# 1 0.010141 -0.000572 -0.004477 0.000000 0.000000 0.000000
# 2 -0.000572 0.014251 -0.006001 0.000000 0.000000 0.000000
# 3 -0.004477 -0.006001 0.012805 0.000000 0.000000 0.000000
# 4 0.000000 0.000000 0.000000 0.027505 0.000000 0.000000
# 5 0.000000 0.000000 0.000000 0.000000 0.026236 0.000000
# 6 0.000000 0.000000 0.000000 0.000000 0.000000 0.049803
#
#
# Mechanical properties :
#
#
# Convention : Reuss Voigt Hill
#
# Bulk Modulus (GPa) = 66.24181 69.65182 67.94682
# Shear Modulus (GPa) = 29.78432 32.39643 31.09037
#
# Velocity S-wave (km/s) = 3.70152 3.86042 3.78180
# Velocity P-wave (km/s) = 6.98144 7.20495 7.09408
#
# Compressibility (1/GPa) = 0.01509621
#
# Stress axis : x y z
#
# Youngs Moduli (GPa) = 98.61266 70.17158 78.09157
#
# Poissons Ratio (x) = 0.04017 0.34959
# Poissons Ratio (y) = 0.05645 0.46865
# Poissons Ratio (z) = 0.44145 0.42112
#
# Static dielectric constant tensor:
#      x y z
#    x 4.304640 0.000000 0.000000 
#    y 0.000000 3.510400 0.000000 
#    z 0.000000 0.000000 4.110400 
# 
# 
# High freq. dielectric constant tensor:
#      x y z
#    x 1.878200 0.000000 0.000000 
#    y 0.000000 1.820140 0.000000 
#    z 0.000000 0.000000 1.858680 
# 
# From -- ./inp_files/12845.got.cif
#   From: 2010.06.25/outbox.cif.g09.slc.cpg/sg52_7_cif.got.tgz:12845.got - 2010.06.26 19:32:48.
