data_PCOD8215498
_publ_section_title
;
Structure prediction by ZEFSAII (Michael W. Deem and Ramdas Pophale) SiO2 
 PCOD8215498
Probable space group: P N N A
;
_chemical_formula_sum "Si O2"
_cell_formula_units_Z 48
_cell_length_a 16.409630
_cell_length_b 17.573517
_cell_length_c 8.008225
_cell_angle_alpha 90.000000
_cell_angle_beta 90.000000
_cell_angle_gamma 90.000000
_cell_volume 2309.371178
_symmetry_space_group_name_H-M "P N N A"
_symmetry_group_IT_number 52
_symmetry_cell_setting 'orthorhombic'
loop_
_space_group_symop_operation_xyz
x,y,z
1/2-x,-y,z
x,1/2-y,1/2-z
1/2-x,1/2+y,1/2-z
-x,-y,-z
1/2+x,y,-z
-x,1/2+y,1/2+z
1/2+x,1/2-y,1/2+z
loop_
_atom_site_type_symbol
_atom_site_label
_atom_site_fract_x
_atom_site_fract_y
_atom_site_fract_z
Si Si1 0.096299 0.059252 0.869436
Si Si2 0.844495 0.388820 0.948891
Si Si3 0.430381 0.999454 0.230727
Si Si4 0.515338 0.299000 0.492074
Si Si5 0.006851 0.354637 0.142982
Si Si6 0.250000 0.000000 0.669204
Si Si7 0.379373 0.250000 0.250000
O O1 0.179243 0.035729 0.781555
O O2 0.020508 0.035908 0.752412
O O3 0.087759 0.150125 0.910709
O O4 0.092345 0.012896 0.039986
O O5 0.861101 0.446078 0.798330
O O6 0.823218 0.306830 0.862494
O O7 0.773817 0.426144 0.059285
O O8 0.922992 0.380694 0.063747
O O9 0.428637 0.923418 0.345929
O O10 0.484479 0.332693 0.667143
O O11 0.546600 0.213004 0.531108
O O12 0.437733 0.300256 0.369349
#
# Coordination Sequence:
#
# PCOD8215498 Si02
#       7
#     8   8   8   8   8   4   4
#     4  10  21  38  60  93 125 167 207 271 317 387
#     4  11  22  37  61  96 121 164 205 266 317 397
#     4  10  19  37  66  90 117 161 229 262 302 375
#     4   9  18  34  59  92 120 152 213 267 310 362
#     4   9  18  33  61  94 117 152 210 275 305 361
#     4  12  26  36  58  96 140 168 206 266 354 386
#     4  10  20  36  66  90 114 162 222 258 306 380
#
# _framework density 20.784877999999999
#
# number of rings (size 3 to 8) (size 9 to 14) (size 15 to 20)
#    0.000    2.000    3.333    0.500    0.000    0.667 
#    0.000    0.000    0.000   26.000    0.000    0.000 
#    0.000    0.000    0.000    0.000    0.000    0.000 
#
# Total GULP energy -594859.408824 kJ/mol
# GULP energy per Si atom -12392.904351 kJ/mol
# Density = 2.073757 g / cm^3
# Si number density = 20.784878 Si / 1000 Ang^3
#
#
#
# Elastic Constant Matrix: (Units=GPa)
#
#
# Indices 1 2 3 4 5 6 
#
# 1 78.9576 45.8374 40.7206 0.0000 0.0000 0.0000
# 2 45.8374 124.6192 49.2311 0.0000 0.0000 0.0000
# 3 40.7206 49.2311 81.1627 0.0000 0.0000 0.0000
# 4 0.0000 0.0000 0.0000 36.3286 0.0000 0.0000
# 5 0.0000 0.0000 0.0000 0.0000 24.2787 0.0000
# 6 0.0000 0.0000 0.0000 0.0000 0.0000 26.0950
#
#
#
# Elastic Compliance Matrix: (Units=1/GPa)
#
#
# Indices 1 2 3 4 5 6 
#
# 1 0.018583 -0.004145 -0.006809 0.000000 0.000000 0.000000
# 2 -0.004145 0.011478 -0.004882 0.000000 0.000000 0.000000
# 3 -0.006809 -0.004882 0.018699 0.000000 0.000000 0.000000
# 4 0.000000 0.000000 0.000000 0.027527 0.000000 0.000000
# 5 0.000000 0.000000 0.000000 0.000000 0.041188 0.000000
# 6 0.000000 0.000000 0.000000 0.000000 0.000000 0.038322
#
#
# Mechanical properties :
#
#
# Convention : Reuss Voigt Hill
#
# Bulk Modulus (GPa) = 58.52671 61.81306 60.16988
# Shear Modulus (GPa) = 25.88459 27.27049 26.57754
#
# Velocity S-wave (km/s) = 3.53279 3.62613 3.57977
# Velocity P-wave (km/s) = 6.69778 6.88010 6.78955
#
# Compressibility (1/GPa) = 0.01708622
#
# Stress axis : x y z
#
# Youngs Moduli (GPa) = 53.81241 87.12313 53.47973
#
# Poissons Ratio (x) = 0.36115 0.36414
# Poissons Ratio (y) = 0.22307 0.26111
# Poissons Ratio (z) = 0.36641 0.42538
#
# Static dielectric constant tensor:
#      x y z
#    x 3.238950 0.000000 0.000000 
#    y 0.000000 4.321830 0.000000 
#    z 0.000000 0.000000 3.997670 
# 
# 
# High freq. dielectric constant tensor:
#      x y z
#    x 1.748460 0.000000 0.000000 
#    y 0.000000 1.834910 0.000000 
#    z 0.000000 0.000000 1.837710 
# 
# From -- ./inp_files/12335.got.cif
#   From: 2010.06.25/outbox.cif.g09.slc.cpg/sg52_7_cif.got.tgz:12335.got - 2010.06.26 19:32:48.
