data_PCOD8215099
_publ_section_title
;
Structure prediction by ZEFSAII (Michael W. Deem and Ramdas Pophale) SiO2 
 PCOD8215099
Probable space group: P N N A
;
_chemical_formula_sum "Si O2"
_cell_formula_units_Z 48
_cell_length_a 8.519464
_cell_length_b 15.105838
_cell_length_c 19.189560
_cell_angle_alpha 90.000000
_cell_angle_beta 90.000000
_cell_angle_gamma 90.000000
_cell_volume 2469.574385
_symmetry_space_group_name_H-M "P N N A"
_symmetry_group_IT_number 52
_symmetry_cell_setting 'orthorhombic'
loop_
_space_group_symop_operation_xyz
x,y,z
1/2-x,-y,z
x,1/2-y,1/2-z
1/2-x,1/2+y,1/2-z
-x,-y,-z
1/2+x,y,-z
-x,1/2+y,1/2+z
1/2+x,1/2-y,1/2+z
loop_
_atom_site_type_symbol
_atom_site_label
_atom_site_fract_x
_atom_site_fract_y
_atom_site_fract_z
Si Si1 0.431461 0.402237 0.072553
Si Si2 0.250000 0.000000 0.209635
Si Si3 0.961591 0.741641 0.827188
Si Si4 0.631128 0.674140 0.792696
Si Si5 0.750000 0.000000 0.016175
Si Si6 0.557864 0.399752 0.930844
Si Si7 0.540369 0.079252 0.904437
O O1 0.482614 0.352355 0.143281
O O2 0.504561 0.500507 0.075720
O O3 0.244350 0.400103 0.071661
O O4 0.501128 0.355915 0.003763
O O5 0.197633 0.915113 0.255617
O O6 0.400147 0.976428 0.162339
O O7 0.040509 0.750000 0.750000
O O8 0.774874 0.734382 0.819676
O O9 0.021026 0.653671 0.867040
O O10 0.995611 0.822390 0.878732
O O11 0.534270 0.750000 0.750000
O O12 0.622218 0.958033 0.066876
O O13 0.829367 0.925301 0.966222
#
# Coordination Sequence:
#
# PCOD8215099 Si02
#       7
#     8   4   8   8   4   8   8
#     4   9  18  32  53  76 104 144 172 233 279 326
#     4  11  18  34  60  84 113 150 188 252 277 346
#     4  10  18  32  55  86 105 146 194 231 278 343
#     4  10  18  31  54  85 108 140 196 229 277 339
#     4   9  22  40  54  88 109 154 190 234 301 348
#     4   9  18  32  52  76 106 134 184 224 275 333
#     4  10  20  36  61  81 116 148 191 240 291 349
#
# _framework density 19.436547000000001
#
# number of rings (size 3 to 8) (size 9 to 14) (size 15 to 20)
#    0.000    2.333    3.333    2.000    0.000    2.667 
#    3.000    0.000    3.667    0.000    0.000    0.000 
#    0.000    0.000    0.000    0.000    0.000    0.000 
#
# Total GULP energy -594630.999179 kJ/mol
# GULP energy per Si atom -12388.145816 kJ/mol
# Density = 1.939231 g / cm^3
# Si number density = 19.436547 Si / 1000 Ang^3
#
#
#
# Elastic Constant Matrix: (Units=GPa)
#
#
# Indices 1 2 3 4 5 6 
#
# 1 35.0799 13.6568 30.3078 0.0000 0.0000 0.0000
# 2 13.6568 105.9348 78.5582 0.0000 0.0000 0.0000
# 3 30.3078 78.5582 179.4568 0.0000 0.0000 0.0000
# 4 0.0000 0.0000 0.0000 46.6861 0.0000 0.0000
# 5 0.0000 0.0000 0.0000 0.0000 24.4268 0.0000
# 6 0.0000 0.0000 0.0000 0.0000 0.0000 11.9472
#
#
#
# Elastic Compliance Matrix: (Units=1/GPa)
#
#
# Indices 1 2 3 4 5 6 
#
# 1 0.033379 -0.000182 -0.005558 0.000000 0.000000 0.000000
# 2 -0.000182 0.013978 -0.006088 0.000000 0.000000 0.000000
# 3 -0.005558 -0.006088 0.009176 0.000000 0.000000 0.000000
# 4 0.000000 0.000000 0.000000 0.021420 0.000000 0.000000
# 5 0.000000 0.000000 0.000000 0.000000 0.040939 0.000000
# 6 0.000000 0.000000 0.000000 0.000000 0.000000 0.083701
#
#
# Mechanical properties :
#
#
# Convention : Reuss Voigt Hill
#
# Bulk Modulus (GPa) = 30.41580 62.83524 46.62552
# Shear Modulus (GPa) = 21.07862 29.80861 25.44362
#
# Velocity S-wave (km/s) = 3.29672 3.92042 3.62202
# Velocity P-wave (km/s) = 5.49308 7.27265 6.44459
#
# Compressibility (1/GPa) = 0.03287765
#
# Stress axis : x y z
#
# Youngs Moduli (GPa) = 29.95925 71.54042 108.97780
#
# Poissons Ratio (x) = 0.01300 0.60566
# Poissons Ratio (y) = 0.00544 0.66349
# Poissons Ratio (z) = 0.16650 0.43556
#
# Static dielectric constant tensor:
#      x y z
#    x 3.054250 0.000000 0.000000 
#    y 0.000000 3.819430 0.000000 
#    z 0.000000 0.000000 4.210740 
# 
# 
# High freq. dielectric constant tensor:
#      x y z
#    x 1.700310 0.000000 0.000000 
#    y 0.000000 1.756520 0.000000 
#    z 0.000000 0.000000 1.783260 
# 
# From -- ./inp_files/35934.got.cif
#   From: 2010.06.25/outbox.cif.g09.slc.cpg/sg52_18_cif.got.tgz:35934.got - 2010.06.26 19:32:48.
