data_PCOD8215356
_publ_section_title
;
Structure prediction by ZEFSAII (Michael W. Deem and Ramdas Pophale) SiO2 
 PCOD8215356
Probable space group: P N N A
;
_chemical_formula_sum "Si O2"
_cell_formula_units_Z 36
_cell_length_a 8.727695
_cell_length_b 13.828936
_cell_length_c 13.728945
_cell_angle_alpha 90.000000
_cell_angle_beta 90.000000
_cell_angle_gamma 90.000000
_cell_volume 1657.011387
_symmetry_space_group_name_H-M "P N N A"
_symmetry_group_IT_number 52
_symmetry_cell_setting 'orthorhombic'
loop_
_space_group_symop_operation_xyz
x,y,z
1/2-x,-y,z
x,1/2-y,1/2-z
1/2-x,1/2+y,1/2-z
-x,-y,-z
1/2+x,y,-z
-x,1/2+y,1/2+z
1/2+x,1/2-y,1/2+z
loop_
_atom_site_type_symbol
_atom_site_label
_atom_site_fract_x
_atom_site_fract_y
_atom_site_fract_z
Si Si1 0.887848 0.750000 0.250000
Si Si2 0.881404 0.428948 0.049452
Si Si3 0.314442 0.605583 0.308493
Si Si4 0.329903 0.297065 0.127297
Si Si5 0.349100 0.094744 0.763384
O O1 0.773939 0.826838 0.202320
O O2 0.994913 0.704733 0.165798
O O3 0.750000 0.500000 0.079523
O O4 0.922016 0.385714 0.155146
O O5 0.829260 0.341598 0.979960
O O6 0.000000 0.500000 0.000000
O O7 0.250000 0.500000 0.335132
O O8 0.269594 0.633452 0.197432
O O9 0.240828 0.688872 0.377348
O O10 0.497114 0.600564 0.328436
O O11 0.250000 0.000000 0.778850
#
# Coordination Sequence:
#
# PCOD8215356 Si02
#       5
#     4   8   8   8   8
#     4  10  20  34  50  78 110 144 182 226 270 328
#     4  11  21  34  56  86 116 143 178 237 294 337
#     4  10  19  34  54  79 112 153 192 228 276 349
#     4  10  20  34  54  80 113 154 192 228 283 350
#     4  11  21  34  55  83 113 143 181 235 286 325
#
# _framework density 21.725863
#
# number of rings (size 3 to 8) (size 9 to 14) (size 15 to 20)
#    0.000    1.778    0.000   10.000    0.000    0.000 
#    0.000    0.000    0.000    1.333    0.000   28.000 
#    0.000    0.000    0.000    0.000    0.000    0.000 
#
# Total GULP energy -446006.172808 kJ/mol
# GULP energy per Si atom -12389.060356 kJ/mol
# Density = 2.167641 g / cm^3
# Si number density = 21.725863 Si / 1000 Ang^3
#
#
#
# Elastic Constant Matrix: (Units=GPa)
#
#
# Indices 1 2 3 4 5 6 
#
# 1 164.2732 48.7488 -4.4452 0.0000 0.0000 0.0000
# 2 48.7488 142.1215 7.3687 0.0000 0.0000 0.0000
# 3 -4.4452 7.3687 22.6643 0.0000 0.0000 0.0000
# 4 0.0000 0.0000 0.0000 20.8671 0.0000 0.0000
# 5 0.0000 0.0000 0.0000 0.0000 12.3580 0.0000
# 6 0.0000 0.0000 0.0000 0.0000 0.0000 51.5071
#
#
#
# Elastic Compliance Matrix: (Units=1/GPa)
#
#
# Indices 1 2 3 4 5 6 
#
# 1 0.006879 -0.002471 0.002153 0.000000 0.000000 0.000000
# 2 -0.002471 0.008045 -0.003100 0.000000 0.000000 0.000000
# 3 0.002153 -0.003100 0.045552 0.000000 0.000000 0.000000
# 4 0.000000 0.000000 0.000000 0.047922 0.000000 0.000000
# 5 0.000000 0.000000 0.000000 0.000000 0.080919 0.000000
# 6 0.000000 0.000000 0.000000 0.000000 0.000000 0.019415
#
#
# Mechanical properties :
#
#
# Convention : Reuss Voigt Hill
#
# Bulk Modulus (GPa) = 18.64328 48.04484 33.34406
# Shear Modulus (GPa) = 21.41792 35.43888 28.42840
#
# Velocity S-wave (km/s) = 3.14319 4.04317 3.62125
# Velocity P-wave (km/s) = 4.66612 6.63012 5.73285
#
# Compressibility (1/GPa) = 0.05363862
#
# Stress axis : x y z
#
# Youngs Moduli (GPa) = 145.36999 124.30703 21.95273
#
# Poissons Ratio (x) = 0.30718 -0.04726
# Poissons Ratio (y) = 0.35923 0.06806
# Poissons Ratio (z) = -0.31293 0.38537
#
# Static dielectric constant tensor:
#      x y z
#    x 4.122850 0.000000 0.000000 
#    y 0.000000 3.851450 0.000000 
#    z 0.000000 0.000000 3.503790 
# 
# 
# High freq. dielectric constant tensor:
#      x y z
#    x 1.878350 0.000000 0.000000 
#    y 0.000000 1.866690 0.000000 
#    z 0.000000 0.000000 1.798910 
# 
# From -- ./inp_files/24326.got.cif
#   From: 2010.06.25/outbox.cif.g09.slc.cpg/sg52_13_cif.got.tgz:24326.got - 2010.06.26 19:32:48.
