data_PCOD8215791
_publ_section_title
;
Structure prediction by ZEFSAII (Michael W. Deem and Ramdas Pophale) SiO2 
 PCOD8215791
Probable space group: P N N A
;
_chemical_formula_sum "Si O2"
_cell_formula_units_Z 44
_cell_length_a 15.992449
_cell_length_b 5.017635
_cell_length_c 28.240188
_cell_angle_alpha 90.000000
_cell_angle_beta 90.000000
_cell_angle_gamma 90.000000
_cell_volume 2266.113323
_symmetry_space_group_name_H-M "P N N A"
_symmetry_group_IT_number 52
_symmetry_cell_setting 'orthorhombic'
loop_
_space_group_symop_operation_xyz
x,y,z
1/2-x,-y,z
x,1/2-y,1/2-z
1/2-x,1/2+y,1/2-z
-x,-y,-z
1/2+x,y,-z
-x,1/2+y,1/2+z
1/2+x,1/2-y,1/2+z
loop_
_atom_site_type_symbol
_atom_site_label
_atom_site_fract_x
_atom_site_fract_y
_atom_site_fract_z
Si Si1 0.551841 0.933070 0.045968
Si Si2 0.346645 0.501061 0.282060
Si Si3 0.511043 0.089089 0.852276
Si Si4 0.592533 0.414890 0.166263
Si Si5 0.155870 0.057159 0.565182
Si Si6 0.798710 0.750000 0.250000
O O1 0.487332 0.921037 0.090412
O O2 0.594647 0.647271 0.038413
O O3 0.626343 0.145507 0.052929
O O4 0.500000 0.000000 0.000000
O O5 0.250000 0.500000 0.297460
O O6 0.370861 0.250000 0.250000
O O7 0.398777 0.511336 0.330902
O O8 0.369557 0.750000 0.250000
O O9 0.484088 0.376425 0.831838
O O10 0.442219 0.881921 0.835230
O O11 0.649972 0.489946 0.121445
O O12 0.648654 0.422615 0.212597
O O13 0.250000 0.000000 0.548196
O O14 0.750000 0.500000 0.274727
#
# Coordination Sequence:
#
# PCOD8215791 Si02
#       6
#     8   8   8   8   8   4
#     4  10  21  38  60  85 114 144 187 242 288 339
#     4  10  21  36  56  81 111 148 187 235 284 334
#     4  10  21  37  57  82 109 149 188 229 282 342
#     4  10  22  35  55  81 110 151 188 225 269 327
#     4  10  20  37  59  82 112 149 189 226 280 343
#     4  12  24  36  50  78 118 150 186 232 274 312
#
# _framework density 19.416505000000001
#
# number of rings (size 3 to 8) (size 9 to 14) (size 15 to 20)
#    0.000    1.818    0.000    3.818    3.818    2.909 
#    0.000    1.818    0.000    2.182    0.000    0.000 
#    0.000    0.000    0.000    0.000    0.000    0.000 
#
# Total GULP energy -545581.505270 kJ/mol
# GULP energy per Si atom -12399.579665 kJ/mol
# Density = 1.937231 g / cm^3
# Si number density = 19.416505 Si / 1000 Ang^3
#
#
#
# Elastic Constant Matrix: (Units=GPa)
#
#
# Indices 1 2 3 4 5 6 
#
# 1 89.2934 11.9079 58.3967 0.0000 0.0000 0.0000
# 2 11.9079 96.6409 28.0435 0.0000 0.0000 0.0000
# 3 58.3967 28.0435 104.7674 0.0000 0.0000 0.0000
# 4 0.0000 0.0000 0.0000 21.9169 0.0000 0.0000
# 5 0.0000 0.0000 0.0000 0.0000 21.9190 0.0000
# 6 0.0000 0.0000 0.0000 0.0000 0.0000 27.9791
#
#
#
# Elastic Compliance Matrix: (Units=1/GPa)
#
#
# Indices 1 2 3 4 5 6 
#
# 1 0.017672 0.000738 -0.010048 0.000000 0.000000 0.000000
# 2 0.000738 0.011250 -0.003423 0.000000 0.000000 0.000000
# 3 -0.010048 -0.003423 0.016062 0.000000 0.000000 0.000000
# 4 0.000000 0.000000 0.000000 0.045627 0.000000 0.000000
# 5 0.000000 0.000000 0.000000 0.000000 0.045622 0.000000
# 6 0.000000 0.000000 0.000000 0.000000 0.000000 0.035741
#
#
# Mechanical properties :
#
#
# Convention : Reuss Voigt Hill
#
# Bulk Modulus (GPa) = 51.23298 54.15532 52.69415
# Shear Modulus (GPa) = 24.51655 27.18660 25.85157
#
# Velocity S-wave (km/s) = 3.55726 3.74596 3.65282
# Velocity P-wave (km/s) = 6.58146 6.83092 6.70735
#
# Compressibility (1/GPa) = 0.01951868
#
# Stress axis : x y z
#
# Youngs Moduli (GPa) = 56.58792 88.89011 62.26021
#
# Poissons Ratio (x) = -0.06562 0.62557
# Poissons Ratio (y) = -0.04177 0.21310
# Poissons Ratio (z) = 0.56857 0.30425
#
# Static dielectric constant tensor:
#      x y z
#    x 3.360990 0.000000 0.000000 
#    y 0.000000 3.903610 0.000000 
#    z 0.000000 0.000000 3.366630 
# 
# 
# High freq. dielectric constant tensor:
#      x y z
#    x 1.743940 0.000000 0.000000 
#    y 0.000000 1.781980 0.000000 
#    z 0.000000 0.000000 1.735960 
# 
# From -- ./inp_files/42941.got.cif
#   From: 2010.06.25/outbox.cif.g09.slc.cpg/sg52_22_cif.got.tgz:42941.got - 2010.06.26 19:32:48.
