data_PCOD8215591
_publ_section_title
;
Structure prediction by ZEFSAII (Michael W. Deem and Ramdas Pophale) SiO2 
 PCOD8215591
Probable space group: P N N A
;
_chemical_formula_sum "Si O2"
_cell_formula_units_Z 64
_cell_length_a 18.919940
_cell_length_b 8.788414
_cell_length_c 21.367196
_cell_angle_alpha 90.000000
_cell_angle_beta 90.000000
_cell_angle_gamma 90.000000
_cell_volume 3552.857557
_symmetry_space_group_name_H-M "P N N A"
_symmetry_group_IT_number 52
_symmetry_cell_setting 'orthorhombic'
loop_
_space_group_symop_operation_xyz
x,y,z
1/2-x,-y,z
x,1/2-y,1/2-z
1/2-x,1/2+y,1/2-z
-x,-y,-z
1/2+x,y,-z
-x,1/2+y,1/2+z
1/2+x,1/2-y,1/2+z
loop_
_atom_site_type_symbol
_atom_site_label
_atom_site_fract_x
_atom_site_fract_y
_atom_site_fract_z
Si Si1 0.616726 0.908237 0.008834
Si Si2 0.676721 0.917852 0.508886
Si Si3 0.460270 0.556932 0.685841
Si Si4 0.042447 0.459988 0.063324
Si Si5 0.823531 0.427401 0.361333
Si Si6 0.541042 0.093943 0.324297
Si Si7 0.469005 0.615018 0.425732
Si Si8 0.676343 0.930896 0.366048
O O1 0.666139 0.766951 0.985538
O O2 0.600792 0.033239 0.955219
O O3 0.656593 0.983064 0.068206
O O4 0.537095 0.864198 0.029248
O O5 0.659524 0.968182 0.438223
O O6 0.750000 0.000000 0.528145
O O7 0.622098 0.987435 0.556751
O O8 0.383646 0.478496 0.686670
O O9 0.446590 0.728552 0.664289
O O10 0.492100 0.555459 0.756089
O O11 0.513139 0.470901 0.638821
O O12 0.050231 0.287851 0.085912
O O13 0.011128 0.547693 0.121538
O O14 0.000000 0.500000 0.000000
O O15 0.750000 0.500000 0.340446
O O16 0.819442 0.247638 0.356486
O O17 0.614886 0.005248 0.325894
O O18 0.750000 0.000000 0.343492
#
# Coordination Sequence:
#
# PCOD8215591 Si02
#       8
#     8   8   8   8   8   8   8   8
#     4   9  18  32  51  78 111 147 183 235 280 331
#     4  10  20  34  52  82 116 147 185 228 288 344
#     4  10  23  37  54  78 109 147 190 235 282 333
#     4  12  21  34  58  85 109 145 187 234 291 337
#     4  10  20  33  51  77 111 152 190 228 277 334
#     4  11  22  38  56  78 109 148 192 235 280 346
#     4  10  20  33  55  83 108 145 187 237 287 327
#     4  10  20  33  52  76 109 150 188 234 275 327
#
# _framework density 18.013669
#
# number of rings (size 3 to 8) (size 9 to 14) (size 15 to 20)
#    0.000    1.750    2.500    3.000    3.500    5.500 
#    0.000    0.000    0.000    0.000    0.000    7.875 
#    0.000    0.000    0.000    0.000    0.000    0.000 
#
# Total GULP energy -793133.855821 kJ/mol
# GULP energy per Si atom -12392.716497 kJ/mol
# Density = 1.797267 g / cm^3
# Si number density = 18.013669 Si / 1000 Ang^3
#
#
#
# Elastic Constant Matrix: (Units=GPa)
#
#
# Indices 1 2 3 4 5 6 
#
# 1 66.7222 41.0286 38.7545 0.0000 0.0000 0.0000
# 2 41.0286 105.2851 50.1272 0.0000 0.0000 0.0000
# 3 38.7545 50.1272 86.8284 0.0000 0.0000 0.0000
# 4 0.0000 0.0000 0.0000 26.1530 0.0000 0.0000
# 5 0.0000 0.0000 0.0000 0.0000 18.8760 0.0000
# 6 0.0000 0.0000 0.0000 0.0000 0.0000 35.0038
#
#
#
# Elastic Compliance Matrix: (Units=1/GPa)
#
#
# Indices 1 2 3 4 5 6 
#
# 1 0.022288 -0.005446 -0.006804 0.000000 0.000000 0.000000
# 2 -0.005446 0.014429 -0.005899 0.000000 0.000000 0.000000
# 3 -0.006804 -0.005899 0.017960 0.000000 0.000000 0.000000
# 4 0.000000 0.000000 0.000000 0.038237 0.000000 0.000000
# 5 0.000000 0.000000 0.000000 0.000000 0.052977 0.000000
# 6 0.000000 0.000000 0.000000 0.000000 0.000000 0.028568
#
#
# Mechanical properties :
#
#
# Convention : Reuss Voigt Hill
#
# Bulk Modulus (GPa) = 54.41219 57.62848 56.02034
# Shear Modulus (GPa) = 23.05380 24.60158 23.82769
#
# Velocity S-wave (km/s) = 3.58130 3.69957 3.64092
# Velocity P-wave (km/s) = 6.88278 7.09296 6.98866
#
# Compressibility (1/GPa) = 0.01837823
#
# Stress axis : x y z
#
# Youngs Moduli (GPa) = 44.86637 69.30468 55.68072
#
# Poissons Ratio (x) = 0.37744 0.37885
# Poissons Ratio (y) = 0.24435 0.32848
# Poissons Ratio (z) = 0.30527 0.40885
#
# Static dielectric constant tensor:
#      x y z
#    x 3.299860 0.000000 0.000000 
#    y 0.000000 4.033140 0.000000 
#    z 0.000000 0.000000 3.236960 
# 
# 
# High freq. dielectric constant tensor:
#      x y z
#    x 1.675000 0.000000 0.000000 
#    y 0.000000 1.714490 0.000000 
#    z 0.000000 0.000000 1.679570 
# 
# From -- ./inp_files/34115.got.cif
#   From: 2010.06.25/outbox.cif.g09.slc.cpg/sg52_18_cif.got.tgz:34115.got - 2010.06.26 19:32:48.
