data_PCOD8215456
_publ_section_title
;
Structure prediction by ZEFSAII (Michael W. Deem and Ramdas Pophale) SiO2 
 PCOD8215456
Probable space group: P N N A
;
_chemical_formula_sum "Si O2"
_cell_formula_units_Z 52
_cell_length_a 18.788112
_cell_length_b 8.785321
_cell_length_c 15.738114
_cell_angle_alpha 90.000000
_cell_angle_beta 90.000000
_cell_angle_gamma 90.000000
_cell_volume 2597.726721
_symmetry_space_group_name_H-M "P N N A"
_symmetry_group_IT_number 52
_symmetry_cell_setting 'orthorhombic'
loop_
_space_group_symop_operation_xyz
x,y,z
1/2-x,-y,z
x,1/2-y,1/2-z
1/2-x,1/2+y,1/2-z
-x,-y,-z
1/2+x,y,-z
-x,1/2+y,1/2+z
1/2+x,1/2-y,1/2+z
loop_
_atom_site_type_symbol
_atom_site_label
_atom_site_fract_x
_atom_site_fract_y
_atom_site_fract_z
Si Si1 0.391623 0.824169 0.503342
Si Si2 0.990464 0.373201 0.430894
Si Si3 0.473689 0.585750 0.252300
Si Si4 0.988584 0.815692 0.344666
Si Si5 0.739590 0.180797 0.923398
Si Si6 0.888882 0.184573 0.527241
Si Si7 0.164656 0.250000 0.250000
O O1 0.445603 0.751809 0.433947
O O2 0.418402 0.786848 0.599137
O O3 0.316686 0.739025 0.493453
O O4 0.388476 0.004730 0.490133
O O5 0.998203 0.473267 0.344351
O O6 0.916349 0.280625 0.444790
O O7 0.000000 0.500000 0.500000
O O8 0.510671 0.750000 0.250000
O O9 0.503740 0.495543 0.172462
O O10 0.386834 0.600150 0.246438
O O11 0.986313 0.750000 0.250000
O O12 0.058163 0.766267 0.396746
O O13 0.811604 0.264585 0.946073
O O14 0.715305 0.238690 0.831224
O O15 0.750000 0.000000 0.926950
#
# Coordination Sequence:
#
# PCOD8215456 Si02
#       7
#     8   8   8   8   8   8   4
#     4  11  22  44  59  89 132 174 217 263 323 391
#     4  11  20  37  62  90 123 163 219 265 313 378
#     4  10  19  36  60  88 123 161 202 262 319 363
#     4  11  23  36  65  97 123 160 216 274 318 374
#     4  12  26  42  63  92 129 176 211 263 320 406
#     4  11  24  38  64  91 128 175 211 259 327 395
#     4  10  24  38  62  90 138 158 202 260 326 392
#
# _framework density 20.017502
#
# number of rings (size 3 to 8) (size 9 to 14) (size 15 to 20)
#    0.462    0.615    1.538    7.846    3.231    1.231 
#    0.000    0.000    0.000    6.462    0.000    0.000 
#    0.000    0.000    0.000    0.000    0.000    0.000 
#
# Total GULP energy -644367.055839 kJ/mol
# GULP energy per Si atom -12391.674151 kJ/mol
# Density = 1.997194 g / cm^3
# Si number density = 20.017502 Si / 1000 Ang^3
#
#
#
# Elastic Constant Matrix: (Units=GPa)
#
#
# Indices 1 2 3 4 5 6 
#
# 1 144.3671 45.4643 72.6546 0.0000 0.0000 0.0000
# 2 45.4643 58.2019 8.7244 0.0000 0.0000 0.0000
# 3 72.6546 8.7244 89.6238 0.0000 0.0000 0.0000
# 4 0.0000 0.0000 0.0000 38.6995 0.0000 0.0000
# 5 0.0000 0.0000 0.0000 0.0000 29.6963 0.0000
# 6 0.0000 0.0000 0.0000 0.0000 0.0000 33.1435
#
#
#
# Elastic Compliance Matrix: (Units=1/GPa)
#
#
# Indices 1 2 3 4 5 6 
#
# 1 0.016731 -0.011200 -0.012473 0.000000 0.000000 0.000000
# 2 -0.011200 0.024933 0.006652 0.000000 0.000000 0.000000
# 3 -0.012473 0.006652 0.020622 0.000000 0.000000 0.000000
# 4 0.000000 0.000000 0.000000 0.025840 0.000000 0.000000
# 5 0.000000 0.000000 0.000000 0.000000 0.033674 0.000000
# 6 0.000000 0.000000 0.000000 0.000000 0.000000 0.030172
#
#
# Mechanical properties :
#
#
# Convention : Reuss Voigt Hill
#
# Bulk Modulus (GPa) = 35.40524 60.65328 48.02926
# Shear Modulus (GPa) = 25.58493 31.33117 28.45805
#
# Velocity S-wave (km/s) = 3.57897 3.96054 3.77458
# Velocity P-wave (km/s) = 5.89951 7.16103 6.56066
#
# Compressibility (1/GPa) = 0.02824441
#
# Stress axis : x y z
#
# Youngs Moduli (GPa) = 59.76946 40.10745 48.49305
#
# Poissons Ratio (x) = 0.44919 0.60485
# Poissons Ratio (y) = 0.66940 -0.32258
# Poissons Ratio (z) = 0.74550 -0.26680
#
# Static dielectric constant tensor:
#      x y z
#    x 3.619450 0.000000 0.000000 
#    y 0.000000 4.458080 0.000000 
#    z 0.000000 0.000000 4.785570 
# 
# 
# High freq. dielectric constant tensor:
#      x y z
#    x 1.753510 0.000000 0.000000 
#    y 0.000000 1.805420 0.000000 
#    z 0.000000 0.000000 1.784780 
# 
# From -- ./inp_files/33715.got.cif
#   From: 2010.06.25/outbox.cif.g09.slc.cpg/sg52_17_cif.got.tgz:33715.got - 2010.06.26 19:32:48.
