data_PCOD8215071
_publ_section_title
;
Structure prediction by ZEFSAII (Michael W. Deem and Ramdas Pophale) SiO2 
 PCOD8215071
Probable space group: P N N A
;
_chemical_formula_sum "Si O2"
_cell_formula_units_Z 56
_cell_length_a 5.388249
_cell_length_b 22.931105
_cell_length_c 18.802056
_cell_angle_alpha 90.000000
_cell_angle_beta 90.000000
_cell_angle_gamma 90.000000
_cell_volume 2323.153904
_symmetry_space_group_name_H-M "P N N A"
_symmetry_group_IT_number 52
_symmetry_cell_setting 'orthorhombic'
loop_
_space_group_symop_operation_xyz
x,y,z
1/2-x,-y,z
x,1/2-y,1/2-z
1/2-x,1/2+y,1/2-z
-x,-y,-z
1/2+x,y,-z
-x,1/2+y,1/2+z
1/2+x,1/2-y,1/2+z
loop_
_atom_site_type_symbol
_atom_site_label
_atom_site_fract_x
_atom_site_fract_y
_atom_site_fract_z
Si Si1 0.250000 0.104229 0.086671
Si Si2 0.750000 0.935222 0.107848
Si Si3 0.250000 0.734496 0.405242
Si Si4 0.250000 0.877299 0.745149
Si Si5 0.750000 0.228027 0.342969
Si Si6 0.250000 0.069514 0.251069
Si Si7 0.750000 0.659939 0.018891
O O1 0.505646 0.074175 0.058775
O O2 0.250000 0.170676 0.060362
O O3 0.250000 0.094445 0.171545
O O4 0.994354 0.074175 0.058775
O O5 0.750000 0.887536 0.170465
O O6 0.750000 0.000000 0.141682
O O7 0.494878 0.737098 0.355299
O O8 0.250000 0.780711 0.469853
O O9 0.005122 0.737098 0.355299
O O10 0.250000 0.806296 0.733387
O O11 0.499842 0.905966 0.710839
O O12 0.000158 0.905966 0.710839
O O13 0.750000 0.174126 0.398492
O O14 0.250000 0.000000 0.252228
O O15 0.500000 0.623900 1.000000
#
# Coordination Sequence:
#
# PCOD8215071 Si02
#       7
#     8   8   8   8   8   8   8
#     4  10  18  30  48  69  93 130 165 188 234 285
#     4  10  19  33  48  67  98 127 161 203 236 273
#     4  10  19  32  47  69  99 125 159 196 233 282
#     4  10  18  30  48  69  93 130 165 188 234 285
#     4  10  19  32  47  69  99 125 159 196 233 282
#     4  10  19  33  48  67  98 127 161 203 236 273
#     4   8  16  30  48  64  90 120 150 194 234 268
#
# _framework density 24.105160999999999
#
# number of rings (size 3 to 8) (size 9 to 14) (size 15 to 20)
#    0.000    2.286    0.000    6.000    0.000    0.000 
#    0.000   17.143    0.000    0.000    0.000    0.000 
#    0.000  349.714    0.000    0.000    0.000    0.000 
#
# Total GULP energy -693732.565570 kJ/mol
# GULP energy per Si atom -12388.081528 kJ/mol
# Density = 2.405030 g / cm^3
# Si number density = 24.105161 Si / 1000 Ang^3
#
#
#
# Elastic Constant Matrix: (Units=GPa)
#
#
# Indices 1 2 3 4 5 6 
#
# 1 282.5236 23.5239 -8.8872 0.0000 0.0000 0.0000
# 2 23.5239 95.7619 1.8891 0.0000 0.0000 0.0000
# 3 -8.8872 1.8891 25.3048 0.0000 0.0000 0.0000
# 4 0.0000 0.0000 0.0000 23.8383 0.0000 0.0000
# 5 0.0000 0.0000 0.0000 0.0000 38.9636 0.0000
# 6 0.0000 0.0000 0.0000 0.0000 0.0000 35.8254
#
#
#
# Elastic Compliance Matrix: (Units=1/GPa)
#
#
# Indices 1 2 3 4 5 6 
#
# 1 0.003659 -0.000926 0.001354 0.000000 0.000000 0.000000
# 2 -0.000926 0.010692 -0.001123 0.000000 0.000000 0.000000
# 3 0.001354 -0.001123 0.040078 0.000000 0.000000 0.000000
# 4 0.000000 0.000000 0.000000 0.041949 0.000000 0.000000
# 5 0.000000 0.000000 0.000000 0.000000 0.025665 0.000000
# 6 0.000000 0.000000 0.000000 0.000000 0.000000 0.027913
#
#
# Mechanical properties :
#
#
# Convention : Reuss Voigt Hill
#
# Bulk Modulus (GPa) = 18.85380 48.51576 33.68478
# Shear Modulus (GPa) = 29.58132 45.52977 37.55555
#
# Velocity S-wave (km/s) = 3.50691 4.35074 3.95142
# Velocity P-wave (km/s) = 4.92304 6.73862 5.90108
#
# Compressibility (1/GPa) = 0.05303970
#
# Stress axis : x y z
#
# Youngs Moduli (GPa) = 273.28411 93.52703 24.95153
#
# Poissons Ratio (x) = 0.08657 -0.03379
# Poissons Ratio (y) = 0.25295 0.02803
# Poissons Ratio (z) = -0.37009 0.10506
#
# Static dielectric constant tensor:
#      x y z
#    x 7.064190 0.000000 0.000000 
#    y 0.000000 3.800640 0.000000 
#    z 0.000000 0.000000 3.775120 
# 
# 
# High freq. dielectric constant tensor:
#      x y z
#    x 2.010910 0.000000 0.000000 
#    y 0.000000 1.909580 0.000000 
#    z 0.000000 0.000000 1.918150 
# 
# From -- ./inp_files/38845.got.cif
#   From: 2010.06.25/outbox.cif.g09.slc.cpg/sg52_20_cif.got.tgz:38845.got - 2010.06.26 19:32:48.
