data_PCOD8215254
_publ_section_title
;
Structure prediction by ZEFSAII (Michael W. Deem and Ramdas Pophale) SiO2 
 PCOD8215254
Probable space group: P N N A
;
_chemical_formula_sum "Si O2"
_cell_formula_units_Z 48
_cell_length_a 20.866694
_cell_length_b 5.006832
_cell_length_c 31.463608
_cell_angle_alpha 90.000000
_cell_angle_beta 90.000000
_cell_angle_gamma 90.000000
_cell_volume 3287.192893
_symmetry_space_group_name_H-M "P N N A"
_symmetry_group_IT_number 52
_symmetry_cell_setting 'orthorhombic'
loop_
_space_group_symop_operation_xyz
x,y,z
1/2-x,-y,z
x,1/2-y,1/2-z
1/2-x,1/2+y,1/2-z
-x,-y,-z
1/2+x,y,-z
-x,1/2+y,1/2+z
1/2+x,1/2-y,1/2+z
loop_
_atom_site_type_symbol
_atom_site_label
_atom_site_fract_x
_atom_site_fract_y
_atom_site_fract_z
Si Si1 0.823435 0.481244 0.512967
Si Si2 0.326325 0.001242 0.724375
Si Si3 0.483331 0.789336 0.962559
Si Si4 0.325741 0.973235 0.628231
Si Si5 0.371177 0.021171 0.919297
Si Si6 0.399776 0.976273 0.473682
O O1 0.750000 0.500000 0.526505
O O2 0.833134 0.535091 0.463057
O O3 0.868157 0.691577 0.540203
O O4 0.841425 0.178746 0.522794
O O5 0.354199 0.250000 0.750000
O O6 0.250000 0.000000 0.724043
O O7 0.353702 0.750000 0.750000
O O8 0.351014 0.014462 0.676090
O O9 0.545291 0.623398 0.944637
O O10 0.447136 0.954993 0.925587
O O11 0.434457 0.565158 0.980791
O O12 0.500000 0.000000 0.000000
O O13 0.342097 0.671225 0.616141
O O14 0.250000 0.000000 0.624216
O O15 0.362129 0.177353 0.596922
#
# Coordination Sequence:
#
# PCOD8215254 Si02
#       6
#     8   8   8   8   8   8
#     4  11  20  30  42  59  81 103 128 165 221 264
#     4   9  17  30  46  58  74 103 132 157 193 254
#     4  10  19  32  45  56  75 105 145 168 197 255
#     4  11  21  31  42  63  85 101 128 168 220 268
#     4  11  21  29  42  59  81 104 127 170 216 254
#     4  10  19  30  44  57  71 101 138 168 194 253
#
# _framework density 14.602123000000001
#
# number of rings (size 3 to 8) (size 9 to 14) (size 15 to 20)
#    0.000    1.667    3.333    5.000    2.333    2.667 
#    0.000    0.000    0.000    0.000    0.000    0.000 
#    0.000    0.000    0.000    0.000    0.000    0.000 
#
# Total GULP energy -594732.095196 kJ/mol
# GULP energy per Si atom -12390.251983 kJ/mol
# Density = 1.456889 g / cm^3
# Si number density = 14.602123 Si / 1000 Ang^3
#
#
#
# Elastic Constant Matrix: (Units=GPa)
#
#
# Indices 1 2 3 4 5 6 
#
# 1 64.4799 13.9942 8.0765 0.0000 0.0000 0.0000
# 2 13.9942 78.0824 7.3322 0.0000 0.0000 0.0000
# 3 8.0765 7.3322 36.1670 0.0000 0.0000 0.0000
# 4 0.0000 0.0000 0.0000 9.7391 0.0000 0.0000
# 5 0.0000 0.0000 0.0000 0.0000 7.4562 0.0000
# 6 0.0000 0.0000 0.0000 0.0000 0.0000 28.5191
#
#
#
# Elastic Compliance Matrix: (Units=1/GPa)
#
#
# Indices 1 2 3 4 5 6 
#
# 1 0.016479 -0.002659 -0.003141 0.000000 0.000000 0.000000
# 2 -0.002659 0.013484 -0.002140 0.000000 0.000000 0.000000
# 3 -0.003141 -0.002140 0.028785 0.000000 0.000000 0.000000
# 4 0.000000 0.000000 0.000000 0.102679 0.000000 0.000000
# 5 0.000000 0.000000 0.000000 0.000000 0.134117 0.000000
# 6 0.000000 0.000000 0.000000 0.000000 0.000000 0.035064
#
#
# Mechanical properties :
#
#
# Convention : Reuss Voigt Hill
#
# Bulk Modulus (GPa) = 23.32679 26.39281 24.85980
# Shear Modulus (GPa) = 13.85895 19.09795 16.47845
#
# Velocity S-wave (km/s) = 3.08410 3.62040 3.36296
# Velocity P-wave (km/s) = 5.35647 5.96576 5.66931
#
# Compressibility (1/GPa) = 0.04286917
#
# Stress axis : x y z
#
# Youngs Moduli (GPa) = 60.68283 74.15968 34.74059
#
# Poissons Ratio (x) = 0.19715 0.10912
# Poissons Ratio (y) = 0.16133 0.07435
# Poissons Ratio (z) = 0.19061 0.15871
#
# Static dielectric constant tensor:
#      x y z
#    x 2.866130 0.000000 0.000000 
#    y 0.000000 3.179340 0.000000 
#    z 0.000000 0.000000 2.510120 
# 
# 
# High freq. dielectric constant tensor:
#      x y z
#    x 1.539520 0.000000 0.000000 
#    y 0.000000 1.591170 0.000000 
#    z 0.000000 0.000000 1.491100 
# 
# From -- ./inp_files/43255.got.cif
#   From: 2010.06.25/outbox.cif.g09.slc.cpg/sg52_22_cif.got.tgz:43255.got - 2010.06.26 19:32:48.
