data_PCOD8215261
_publ_section_title
;
Structure prediction by ZEFSAII (Michael W. Deem and Ramdas Pophale) SiO2 
 PCOD8215261
Probable space group: P N N A
;
_chemical_formula_sum "Si O2"
_cell_formula_units_Z 40
_cell_length_a 8.523994
_cell_length_b 9.846723
_cell_length_c 20.945082
_cell_angle_alpha 90.000000
_cell_angle_beta 90.000000
_cell_angle_gamma 90.000000
_cell_volume 1757.992108
_symmetry_space_group_name_H-M "P N N A"
_symmetry_group_IT_number 52
_symmetry_cell_setting 'orthorhombic'
loop_
_space_group_symop_operation_xyz
x,y,z
1/2-x,-y,z
x,1/2-y,1/2-z
1/2-x,1/2+y,1/2-z
-x,-y,-z
1/2+x,y,-z
-x,1/2+y,1/2+z
1/2+x,1/2-y,1/2+z
loop_
_atom_site_type_symbol
_atom_site_label
_atom_site_fract_x
_atom_site_fract_y
_atom_site_fract_z
Si Si1 0.898090 0.598736 0.231429
Si Si2 0.547461 0.619755 0.453350
Si Si3 0.426000 0.447211 0.354747
Si Si4 0.016533 0.851103 0.405029
Si Si5 0.210710 0.191316 0.491469
O O1 0.750000 0.500000 0.235343
O O2 0.838365 0.750000 0.250000
O O3 0.036740 0.563082 0.280286
O O4 0.985064 0.580458 0.163175
O O5 0.500000 0.500000 0.500000
O O6 0.548771 0.557916 0.382200
O O7 0.430348 0.748642 0.449840
O O8 0.713506 0.677430 0.474150
O O9 0.250000 0.500000 0.365230
O O10 0.453500 0.309006 0.394425
O O11 0.171781 0.897595 0.445938
O O12 0.867252 0.891151 0.449366
#
# Coordination Sequence:
#
# PCOD8215261 Si02
#       5
#     8   8   8   8   8
#     4  10  25  45  65  89 132 178 226 268 318 394
#     4  11  17  26  51  88 128 156 204 270 331 378
#     4  11  20  34  57  90 128 169 207 275 338 377
#     4  10  21  37  57  90 131 162 216 267 327 390
#     4  10  19  30  55  91 124 163 201 266 335 381
#
# _framework density 22.753231
#
# number of rings (size 3 to 8) (size 9 to 14) (size 15 to 20)
#    0.000    1.600    6.000    0.600    5.600    0.000 
#    0.000    8.000    0.000    0.000    0.000    0.000 
#    0.000    0.000    0.000    0.000    0.000    0.000 
#
# Total GULP energy -495541.368950 kJ/mol
# GULP energy per Si atom -12388.534224 kJ/mol
# Density = 2.270144 g / cm^3
# Si number density = 22.753231 Si / 1000 Ang^3
#
#
#
# Elastic Constant Matrix: (Units=GPa)
#
#
# Indices 1 2 3 4 5 6 
#
# 1 82.2699 15.8570 40.5263 0.0000 0.0000 0.0000
# 2 15.8570 31.6400 18.1368 0.0000 0.0000 0.0000
# 3 40.5263 18.1368 150.1643 0.0000 0.0000 0.0000
# 4 0.0000 0.0000 0.0000 31.5504 0.0000 0.0000
# 5 0.0000 0.0000 0.0000 0.0000 35.1445 0.0000
# 6 0.0000 0.0000 0.0000 0.0000 0.0000 26.7074
#
#
#
# Elastic Compliance Matrix: (Units=1/GPa)
#
#
# Indices 1 2 3 4 5 6 
#
# 1 0.014869 -0.005535 -0.003344 0.000000 0.000000 0.000000
# 2 -0.005535 0.036017 -0.002856 0.000000 0.000000 0.000000
# 3 -0.003344 -0.002856 0.007907 0.000000 0.000000 0.000000
# 4 0.000000 0.000000 0.000000 0.031695 0.000000 0.000000
# 5 0.000000 0.000000 0.000000 0.000000 0.028454 0.000000
# 6 0.000000 0.000000 0.000000 0.000000 0.000000 0.037443
#
#
# Mechanical properties :
#
#
# Convention : Reuss Voigt Hill
#
# Bulk Modulus (GPa) = 28.31117 45.90160 37.10638
# Shear Modulus (GPa) = 26.09185 31.31742 28.70463
#
# Velocity S-wave (km/s) = 3.39002 3.71400 3.55570
# Velocity P-wave (km/s) = 5.27187 6.21363 5.76203
#
# Compressibility (1/GPa) = 0.03532175
#
# Stress axis : x y z
#
# Youngs Moduli (GPa) = 67.25208 27.76474 126.47096
#
# Poissons Ratio (x) = 0.15368 0.42297
# Poissons Ratio (y) = 0.37224 0.36124
# Poissons Ratio (z) = 0.22492 0.07931
#
# Static dielectric constant tensor:
#      x y z
#    x 4.210390 0.000000 0.000000 
#    y 0.000000 3.932700 0.000000 
#    z 0.000000 0.000000 4.406390 
# 
# 
# High freq. dielectric constant tensor:
#      x y z
#    x 1.899580 0.000000 0.000000 
#    y 0.000000 1.883230 0.000000 
#    z 0.000000 0.000000 1.903170 
# 
# From -- ./inp_files/30879.got.cif
#   From: 2010.06.25/outbox.cif.g09.slc.cpg/sg52_16_cif.got.tgz:30879.got - 2010.06.26 19:32:48.
