data_PCOD8215783
_publ_section_title
;
Structure prediction by ZEFSAII (Michael W. Deem and Ramdas Pophale) SiO2 
 PCOD8215783
Probable space group: P N N A
;
_chemical_formula_sum "Si O2"
_cell_formula_units_Z 64
_cell_length_a 12.478065
_cell_length_b 9.129709
_cell_length_c 29.536508
_cell_angle_alpha 90.000000
_cell_angle_beta 90.000000
_cell_angle_gamma 90.000000
_cell_volume 3364.831550
_symmetry_space_group_name_H-M "P N N A"
_symmetry_group_IT_number 52
_symmetry_cell_setting 'orthorhombic'
loop_
_space_group_symop_operation_xyz
x,y,z
1/2-x,-y,z
x,1/2-y,1/2-z
1/2-x,1/2+y,1/2-z
-x,-y,-z
1/2+x,y,-z
-x,1/2+y,1/2+z
1/2+x,1/2-y,1/2+z
loop_
_atom_site_type_symbol
_atom_site_label
_atom_site_fract_x
_atom_site_fract_y
_atom_site_fract_z
Si Si1 0.130520 0.175400 0.702116
Si Si2 0.511868 0.661249 0.628895
Si Si3 0.022926 0.322011 0.366091
Si Si4 0.746966 0.830930 0.897735
Si Si5 0.059619 0.823395 0.961726
Si Si6 0.396150 0.636564 0.536634
Si Si7 0.767553 0.329633 0.991508
Si Si8 0.874027 0.167617 0.296386
O O1 0.106381 0.250000 0.750000
O O2 0.253422 0.203615 0.686218
O O3 0.051503 0.238378 0.664180
O O4 0.109245 0.004604 0.709467
O O5 0.495182 0.492074 0.642265
O O6 0.637992 0.703043 0.629860
O O7 0.470069 0.690906 0.578096
O O8 0.151601 0.297067 0.365289
O O9 0.975765 0.263129 0.413309
O O10 0.966216 0.223872 0.329113
O O11 0.755131 0.732444 0.942139
O O12 0.750000 0.000000 0.913727
O O13 0.137063 0.966377 0.955236
O O14 0.111495 0.696546 0.992162
O O15 0.952790 0.868556 0.987840
O O16 0.299222 0.749752 0.531419
O O17 0.750000 0.500000 0.990926
O O18 0.894122 0.250000 0.250000
#
# Coordination Sequence:
#
# PCOD8215783 Si02
#       8
#     8   8   8   8   8   8   8   8
#     4  10  22  41  64  89 119 149 184 233 289 347
#     4  10  21  37  62  88 113 150 196 242 285 340
#     4  10  21  37  62  88 113 150 196 242 285 340
#     4  10  20  40  61  81 114 157 202 236 280 345
#     4  10  20  37  58  79 109 155 203 239 278 337
#     4  10  20  37  58  79 109 155 203 239 278 337
#     4  12  24  34  50  79 118 155 192 246 297 337
#     4  10  22  41  64  89 119 149 184 233 289 347
#
# _framework density 19.020268999999999
#
# number of rings (size 3 to 8) (size 9 to 14) (size 15 to 20)
#    0.000    1.750    2.500    1.875    1.750    4.000 
#    0.000    0.625    0.000    0.000    0.000    0.000 
#    0.000    0.000    0.000    0.000    0.000    0.000 
#
# Total GULP energy -793440.729045 kJ/mol
# GULP energy per Si atom -12397.511391 kJ/mol
# Density = 1.897698 g / cm^3
# Si number density = 19.020269 Si / 1000 Ang^3
#
#
#
# Elastic Constant Matrix: (Units=GPa)
#
#
# Indices 1 2 3 4 5 6 
#
# 1 100.4138 58.0842 57.4042 0.0000 0.0000 0.0000
# 2 58.0842 109.4676 55.4977 0.0000 0.0000 0.0000
# 3 57.4042 55.4977 103.5779 0.0000 0.0000 0.0000
# 4 0.0000 0.0000 0.0000 32.9636 0.0000 0.0000
# 5 0.0000 0.0000 0.0000 0.0000 28.7101 0.0000
# 6 0.0000 0.0000 0.0000 0.0000 0.0000 26.5890
#
#
#
# Elastic Compliance Matrix: (Units=1/GPa)
#
#
# Indices 1 2 3 4 5 6 
#
# 1 0.016882 -0.005786 -0.006256 0.000000 0.000000 0.000000
# 2 -0.005786 0.014525 -0.004576 0.000000 0.000000 0.000000
# 3 -0.006256 -0.004576 0.015574 0.000000 0.000000 0.000000
# 4 0.000000 0.000000 0.000000 0.030336 0.000000 0.000000
# 5 0.000000 0.000000 0.000000 0.000000 0.034831 0.000000
# 6 0.000000 0.000000 0.000000 0.000000 0.000000 0.037610
#
#
# Mechanical properties :
#
#
# Convention : Reuss Voigt Hill
#
# Bulk Modulus (GPa) = 72.75544 72.82573 72.79058
# Shear Modulus (GPa) = 26.65590 27.15077 26.90334
#
# Velocity S-wave (km/s) = 3.74765 3.78228 3.76501
# Velocity P-wave (km/s) = 7.55388 7.57930 7.56660
#
# Compressibility (1/GPa) = 0.01374468
#
# Stress axis : x y z
#
# Youngs Moduli (GPa) = 59.23400 68.84602 64.21122
#
# Poissons Ratio (x) = 0.39835 0.40171
# Poissons Ratio (y) = 0.34273 0.29383
# Poissons Ratio (z) = 0.37057 0.31504
#
# Static dielectric constant tensor:
#      x y z
#    x 3.632270 0.000000 0.000000 
#    y 0.000000 3.391420 0.000000 
#    z 0.000000 0.000000 3.282320 
# 
# 
# High freq. dielectric constant tensor:
#      x y z
#    x 1.746090 0.000000 0.000000 
#    y 0.000000 1.733010 0.000000 
#    z 0.000000 0.000000 1.724470 
# 
# From -- ./inp_files/44589.got.cif
#   From: 2010.06.25/outbox.cif.g09.slc.cpg/sg52_23_cif.got.tgz:44589.got - 2010.06.26 19:32:48.
