data_PCOD8215695
_publ_section_title
;
Structure prediction by ZEFSAII (Michael W. Deem and Ramdas Pophale) SiO2 
 PCOD8215695
Probable space group: P N N A
;
_chemical_formula_sum "Si O2"
_cell_formula_units_Z 52
_cell_length_a 25.506514
_cell_length_b 10.688138
_cell_length_c 9.142447
_cell_angle_alpha 90.000000
_cell_angle_beta 90.000000
_cell_angle_gamma 90.000000
_cell_volume 2492.387768
_symmetry_space_group_name_H-M "P N N A"
_symmetry_group_IT_number 52
_symmetry_cell_setting 'orthorhombic'
loop_
_space_group_symop_operation_xyz
x,y,z
1/2-x,-y,z
x,1/2-y,1/2-z
1/2-x,1/2+y,1/2-z
-x,-y,-z
1/2+x,y,-z
-x,1/2+y,1/2+z
1/2+x,1/2-y,1/2+z
loop_
_atom_site_type_symbol
_atom_site_label
_atom_site_fract_x
_atom_site_fract_y
_atom_site_fract_z
Si Si1 0.667512 0.300407 0.088027
Si Si2 0.415061 0.519761 0.017669
Si Si3 0.463836 0.886282 0.212221
Si Si4 0.750000 0.000000 0.537077
Si Si5 0.867913 0.544829 0.518068
Si Si6 0.832820 0.390781 0.774465
Si Si7 0.580198 0.611920 0.274486
O O1 0.675442 0.250000 0.250000
O O2 0.610014 0.357746 0.059634
O O3 0.711974 0.407027 0.056380
O O4 0.665833 0.172643 0.992270
O O5 0.462775 0.543729 0.129809
O O6 0.371670 0.456254 0.115974
O O7 0.433305 0.432075 0.888111
O O8 0.442255 0.750000 0.250000
O O9 0.425115 0.943097 0.091754
O O10 0.522988 0.884073 0.147096
O O11 0.777475 0.099427 0.644301
O O12 0.831609 0.456538 0.616539
O O13 0.878890 0.476752 0.361213
O O14 0.850339 0.250000 0.750000
O O15 0.604718 0.750000 0.250000
#
# Coordination Sequence:
#
# PCOD8215695 Si02
#       7
#     8   8   8   4   8   8   8
#     4  11  22  44  67  93 126 164 213 260 331 385
#     4  10  20  38  62  86 127 172 208 257 312 374
#     4  10  20  35  59  94 128 167 217 264 300 367
#     4  10  26  42  66  96 122 154 208 276 318 400
#     4  11  22  39  68  88 126 172 210 257 319 383
#     4  10  23  41  62  91 123 158 208 260 321 384
#     4  11  22  36  58  93 132 170 217 259 308 363
#
# _framework density 20.863527999999999
#
# number of rings (size 3 to 8) (size 9 to 14) (size 15 to 20)
#    0.000    1.538    3.077    1.846    2.154    0.000 
#    2.769    1.538    3.385    0.000    0.000    0.000 
#    0.000    0.000    0.000    0.000    0.000    0.000 
#
# Total GULP energy -644202.331206 kJ/mol
# GULP energy per Si atom -12388.506369 kJ/mol
# Density = 2.081604 g / cm^3
# Si number density = 20.863528 Si / 1000 Ang^3
#
#
#
# Elastic Constant Matrix: (Units=GPa)
#
#
# Indices 1 2 3 4 5 6 
#
# 1 34.5665 4.7474 10.1472 0.0000 0.0000 0.0000
# 2 4.7474 120.4425 36.2850 0.0000 0.0000 0.0000
# 3 10.1472 36.2850 100.6104 0.0000 0.0000 0.0000
# 4 0.0000 0.0000 0.0000 26.5541 0.0000 0.0000
# 5 0.0000 0.0000 0.0000 0.0000 44.0297 0.0000
# 6 0.0000 0.0000 0.0000 0.0000 0.0000 25.3343
#
#
#
# Elastic Compliance Matrix: (Units=1/GPa)
#
#
# Indices 1 2 3 4 5 6 
#
# 1 0.029822 -0.000302 -0.002899 0.000000 0.000000 0.000000
# 2 -0.000302 0.009318 -0.003330 0.000000 0.000000 0.000000
# 3 -0.002899 -0.003330 0.011433 0.000000 0.000000 0.000000
# 4 0.000000 0.000000 0.000000 0.037659 0.000000 0.000000
# 5 0.000000 0.000000 0.000000 0.000000 0.022712 0.000000
# 6 0.000000 0.000000 0.000000 0.000000 0.000000 0.039472
#
#
# Mechanical properties :
#
#
# Convention : Reuss Voigt Hill
#
# Bulk Modulus (GPa) = 26.65900 39.77541 33.21720
# Shear Modulus (GPa) = 28.41211 32.81294 30.61252
#
# Velocity S-wave (km/s) = 3.69427 3.97008 3.83466
# Velocity P-wave (km/s) = 5.56798 6.33414 5.96338
#
# Compressibility (1/GPa) = 0.03751079
#
# Stress axis : x y z
#
# Youngs Moduli (GPa) = 33.53204 107.32114 87.46888
#
# Poissons Ratio (x) = 0.03243 0.25355
# Poissons Ratio (y) = 0.01013 0.29127
# Poissons Ratio (z) = 0.09720 0.35738
#
# Static dielectric constant tensor:
#      x y z
#    x 3.669690 0.000000 0.000000 
#    y 0.000000 3.835390 0.000000 
#    z 0.000000 0.000000 3.918820 
# 
# 
# High freq. dielectric constant tensor:
#      x y z
#    x 1.798240 0.000000 0.000000 
#    y 0.000000 1.825990 0.000000 
#    z 0.000000 0.000000 1.823040 
# 
# From -- ./inp_files/14995.got.cif
#   From: 2010.06.25/outbox.cif.g09.slc.cpg/sg52_8_cif.got.tgz:14995.got - 2010.06.26 19:32:48.
