data_PCOD8215994
_publ_section_title
;
Structure prediction by ZEFSAII (Michael W. Deem and Ramdas Pophale) SiO2 
 PCOD8215994
Probable space group: P N N A
;
_chemical_formula_sum "Si O2"
_cell_formula_units_Z 44
_cell_length_a 9.350187
_cell_length_b 28.990535
_cell_length_c 7.392033
_cell_angle_alpha 90.000000
_cell_angle_beta 90.000000
_cell_angle_gamma 90.000000
_cell_volume 2003.735644
_symmetry_space_group_name_H-M "P N N A"
_symmetry_group_IT_number 52
_symmetry_cell_setting 'orthorhombic'
loop_
_space_group_symop_operation_xyz
x,y,z
1/2-x,-y,z
x,1/2-y,1/2-z
1/2-x,1/2+y,1/2-z
-x,-y,-z
1/2+x,y,-z
-x,1/2+y,1/2+z
1/2+x,1/2-y,1/2+z
loop_
_atom_site_type_symbol
_atom_site_label
_atom_site_fract_x
_atom_site_fract_y
_atom_site_fract_z
Si Si1 0.020841 0.073423 0.917813
Si Si2 0.727726 0.864897 0.982826
Si Si3 0.014195 0.519555 0.771024
Si Si4 0.666032 0.299048 0.823044
Si Si5 0.334903 0.299405 0.817819
Si Si6 0.750000 0.000000 0.527293
O O1 0.913709 0.115962 0.881533
O O2 0.178908 0.092056 0.950036
O O3 0.022335 0.036128 0.757347
O O4 0.957533 0.047988 0.093162
O O5 0.686500 0.835699 0.158277
O O6 0.814162 0.835743 0.836238
O O7 0.143436 0.532068 0.907921
O O8 0.855894 0.531531 0.849472
O O9 0.724096 0.250000 0.750000
O O10 0.500010 0.296032 0.873764
O O11 0.748810 0.314417 0.003581
O O12 0.277300 0.250000 0.750000
#
# Coordination Sequence:
#
# PCOD8215994 Si02
#       6
#     8   8   8   8   8   4
#     4  11  24  44  66  90 136 178 220 268 340 405
#     4  12  24  45  64 105 134 178 228 282 328 412
#     4  10  22  44  66  92 130 180 210 276 342 390
#     4  11  25  45  70  98 134 180 224 277 345 401
#     4  11  25  45  70  98 134 180 224 277 345 401
#     4  10  20  40  68  96 120 160 236 264 324 404
#
# _framework density 21.958984000000001
#
# number of rings (size 3 to 8) (size 9 to 14) (size 15 to 20)
#    0.000    1.091    3.636    2.182    2.545    3.636 
#   19.636    0.000    0.000    0.000    0.000    0.000 
#    0.000    0.000    0.000    0.000    0.000    0.000 
#
# Total GULP energy -545670.006046 kJ/mol
# GULP energy per Si atom -12401.591047 kJ/mol
# Density = 2.190900 g / cm^3
# Si number density = 21.958984 Si / 1000 Ang^3
#
#
#
# Elastic Constant Matrix: (Units=GPa)
#
#
# Indices 1 2 3 4 5 6 
#
# 1 113.3680 14.8018 31.7966 0.0000 0.0000 0.0000
# 2 14.8018 86.2539 23.5491 0.0000 0.0000 0.0000
# 3 31.7966 23.5491 92.9529 0.0000 0.0000 0.0000
# 4 0.0000 0.0000 0.0000 15.0365 0.0000 0.0000
# 5 0.0000 0.0000 0.0000 0.0000 39.4805 0.0000
# 6 0.0000 0.0000 0.0000 0.0000 0.0000 23.7344
#
#
#
# Elastic Compliance Matrix: (Units=1/GPa)
#
#
# Indices 1 2 3 4 5 6 
#
# 1 0.009811 -0.000824 -0.003147 0.000000 0.000000 0.000000
# 2 -0.000824 0.012524 -0.002891 0.000000 0.000000 0.000000
# 3 -0.003147 -0.002891 0.012567 0.000000 0.000000 0.000000
# 4 0.000000 0.000000 0.000000 0.066505 0.000000 0.000000
# 5 0.000000 0.000000 0.000000 0.000000 0.025329 0.000000
# 6 0.000000 0.000000 0.000000 0.000000 0.000000 0.042133
#
#
# Mechanical properties :
#
#
# Convention : Reuss Voigt Hill
#
# Bulk Modulus (GPa) = 47.22006 48.09666 47.65836
# Shear Modulus (GPa) = 26.36381 30.47877 28.42129
#
# Velocity S-wave (km/s) = 3.46872 3.72961 3.60153
# Velocity P-wave (km/s) = 6.13132 6.36374 6.24861
#
# Compressibility (1/GPa) = 0.02117744
#
# Stress axis : x y z
#
# Youngs Moduli (GPa) = 101.92442 79.84380 79.57252
#
# Poissons Ratio (x) = 0.06582 0.25044
# Poissons Ratio (y) = 0.08403 0.23004
# Poissons Ratio (z) = 0.32078 0.23083
#
# Static dielectric constant tensor:
#      x y z
#    x 3.970250 0.000000 0.000000 
#    y 0.000000 3.897880 0.000000 
#    z 0.000000 0.000000 3.963200 
# 
# 
# High freq. dielectric constant tensor:
#      x y z
#    x 1.879480 0.000000 0.000000 
#    y 0.000000 1.847010 0.000000 
#    z 0.000000 0.000000 1.870140 
# 
# From -- ./inp_files/7629.got.cif
#   From: 2010.06.25/outbox.cif.g09.slc.cpg/sg52_4_cif.got.tgz:7629.got - 2010.06.26 19:32:48.
