data_PCOD8215680
_publ_section_title
;
Structure prediction by ZEFSAII (Michael W. Deem and Ramdas Pophale) SiO2 
 PCOD8215680
Probable space group: P N N A
;
_chemical_formula_sum "Si O2"
_cell_formula_units_Z 52
_cell_length_a 11.292068
_cell_length_b 13.615430
_cell_length_c 18.572658
_cell_angle_alpha 90.000000
_cell_angle_beta 90.000000
_cell_angle_gamma 90.000000
_cell_volume 2855.478589
_symmetry_space_group_name_H-M "P N N A"
_symmetry_group_IT_number 52
_symmetry_cell_setting 'orthorhombic'
loop_
_space_group_symop_operation_xyz
x,y,z
1/2-x,-y,z
x,1/2-y,1/2-z
1/2-x,1/2+y,1/2-z
-x,-y,-z
1/2+x,y,-z
-x,1/2+y,1/2+z
1/2+x,1/2-y,1/2+z
loop_
_atom_site_type_symbol
_atom_site_label
_atom_site_fract_x
_atom_site_fract_y
_atom_site_fract_z
Si Si1 0.402274 0.593176 0.668670
Si Si2 0.132651 0.823766 0.647060
Si Si3 0.084572 0.650422 0.214867
Si Si4 0.250000 0.000000 0.361331
Si Si5 0.947985 0.592896 0.960672
Si Si6 0.357832 0.383950 0.699657
Si Si7 0.604482 0.211934 0.401873
O O1 0.512332 0.600621 0.721290
O O2 0.394566 0.477069 0.649866
O O3 0.283436 0.625001 0.709833
O O4 0.409296 0.668133 0.600509
O O5 0.091616 0.711850 0.660678
O O6 0.099483 0.889356 0.717297
O O7 0.271197 0.827911 0.628064
O O8 0.057560 0.863744 0.582055
O O9 0.138207 0.750000 0.250000
O O10 0.188695 0.578832 0.190672
O O11 0.000246 0.668315 0.146642
O O12 0.160237 0.061581 0.410395
O O13 0.906077 0.676346 0.016303
O O14 0.000000 0.500000 0.000000
#
# Coordination Sequence:
#
# PCOD8215680 Si02
#       7
#     8   8   8   4   8   8   8
#     4   9  17  33  59  83 109 139 183 225 281 330
#     4  10  20  35  56  86 114 134 185 237 281 317
#     4  10  20  38  58  79 113 152 185 226 277 339
#     4  12  24  40  52  86 114 154 196 222 286 350
#     4  12  24  37  55  80 116 152 182 232 278 342
#     4   9  17  32  59  91 107 131 176 245 284 310
#     4  10  20  36  56  82 111 149 182 223 278 340
#
# _framework density 18.210607
#
# number of rings (size 3 to 8) (size 9 to 14) (size 15 to 20)
#    0.000    1.846    3.077    1.846    0.000    0.000 
#    5.538    0.769    0.000    0.000    0.000    0.000 
#    0.000    0.000    0.000    0.000    0.000    0.000 
#
# Total GULP energy -644422.889132 kJ/mol
# GULP energy per Si atom -12392.747868 kJ/mol
# Density = 1.816916 g / cm^3
# Si number density = 18.210607 Si / 1000 Ang^3
#
#
#
# Elastic Constant Matrix: (Units=GPa)
#
#
# Indices 1 2 3 4 5 6 
#
# 1 84.8992 59.8155 41.6861 0.0000 0.0000 0.0000
# 2 59.8155 141.6281 67.3117 0.0000 0.0000 0.0000
# 3 41.6861 67.3117 92.0554 0.0000 0.0000 0.0000
# 4 0.0000 0.0000 0.0000 34.6592 0.0000 0.0000
# 5 0.0000 0.0000 0.0000 0.0000 29.8638 0.0000
# 6 0.0000 0.0000 0.0000 0.0000 0.0000 29.3659
#
#
#
# Elastic Compliance Matrix: (Units=1/GPa)
#
#
# Indices 1 2 3 4 5 6 
#
# 1 0.017633 -0.005598 -0.003892 0.000000 0.000000 0.000000
# 2 -0.005598 0.012598 -0.006677 0.000000 0.000000 0.000000
# 3 -0.003892 -0.006677 0.017508 0.000000 0.000000 0.000000
# 4 0.000000 0.000000 0.000000 0.028852 0.000000 0.000000
# 5 0.000000 0.000000 0.000000 0.000000 0.033485 0.000000
# 6 0.000000 0.000000 0.000000 0.000000 0.000000 0.034053
#
#
# Mechanical properties :
#
#
# Convention : Reuss Voigt Hill
#
# Bulk Modulus (GPa) = 64.90986 72.91214 68.91100
# Shear Modulus (GPa) = 27.53310 28.76242 28.14776
#
# Velocity S-wave (km/s) = 3.89257 3.97852 3.93578
# Velocity P-wave (km/s) = 7.47825 7.82496 7.65357
#
# Compressibility (1/GPa) = 0.01540598
#
# Stress axis : x y z
#
# Youngs Moduli (GPa) = 56.71036 79.37568 57.11686
#
# Poissons Ratio (x) = 0.44431 0.22231
# Poissons Ratio (y) = 0.31744 0.38138
# Poissons Ratio (z) = 0.22072 0.53001
#
# Static dielectric constant tensor:
#      x y z
#    x 3.259640 0.000000 0.000000 
#    y 0.000000 3.671230 0.000000 
#    z 0.000000 0.000000 3.272590 
# 
# 
# High freq. dielectric constant tensor:
#      x y z
#    x 1.694620 0.000000 0.000000 
#    y 0.000000 1.720500 0.000000 
#    z 0.000000 0.000000 1.684700 
# 
# From -- ./inp_files/35957.got.cif
#   From: 2010.06.25/outbox.cif.g09.slc.cpg/sg52_18_cif.got.tgz:35957.got - 2010.06.26 19:32:48.
