data_PCOD8215653
_publ_section_title
;
Structure prediction by ZEFSAII (Michael W. Deem and Ramdas Pophale) SiO2 
 PCOD8215653
Probable space group: P N N A
;
_chemical_formula_sum "Si O2"
_cell_formula_units_Z 28
_cell_length_a 14.303242
_cell_length_b 5.231347
_cell_length_c 21.678736
_cell_angle_alpha 90.000000
_cell_angle_beta 90.000000
_cell_angle_gamma 90.000000
_cell_volume 1622.116237
_symmetry_space_group_name_H-M "P N N A"
_symmetry_group_IT_number 52
_symmetry_cell_setting 'orthorhombic'
loop_
_space_group_symop_operation_xyz
x,y,z
1/2-x,-y,z
x,1/2-y,1/2-z
1/2-x,1/2+y,1/2-z
-x,-y,-z
1/2+x,y,-z
-x,1/2+y,1/2+z
1/2+x,1/2-y,1/2+z
loop_
_atom_site_type_symbol
_atom_site_label
_atom_site_fract_x
_atom_site_fract_y
_atom_site_fract_z
Si Si1 0.929305 0.206685 0.129400
Si Si2 0.997039 0.301409 0.917253
Si Si3 0.810066 0.250000 0.250000
Si Si4 0.645295 0.923577 0.486569
O O1 0.873104 0.179369 0.192092
O O2 0.996839 0.456196 0.129675
O O3 0.856625 0.228812 0.071818
O O4 0.992464 0.955660 0.121792
O O5 0.897867 0.292529 0.952361
O O6 0.080361 0.330322 0.968670
O O7 0.750000 0.500000 0.233096
O O8 0.750000 0.000000 0.502414
#
# Coordination Sequence:
#
# PCOD8215653 Si02
#       4
#     8   8   4   8
#     4  10  20  35  48  71 110 139 164 220 248 321
#     4   9  20  34  49  74 107 134 175 208 270 310
#     4  12  24  34  52  80 104 144 188 206 260 336
#     4   9  19  32  53  77 103 138 168 221 261 316
#
# _framework density 17.261402
#
# number of rings (size 3 to 8) (size 9 to 14) (size 15 to 20)
#    1.714    0.571    0.000    3.429    4.000    0.000 
#    0.000    0.000    0.000    0.000    0.000    4.000 
#    0.000    0.000    0.000    0.000    0.000    0.000 
#
# Total GULP energy -346959.657823 kJ/mol
# GULP energy per Si atom -12391.416351 kJ/mol
# Density = 1.722211 g / cm^3
# Si number density = 17.261402 Si / 1000 Ang^3
#
#
#
# Elastic Constant Matrix: (Units=GPa)
#
#
# Indices 1 2 3 4 5 6 
#
# 1 94.3734 29.3964 38.9771 0.0000 0.0000 0.0000
# 2 29.3964 126.9062 35.6418 0.0000 0.0000 0.0000
# 3 38.9771 35.6418 83.5370 0.0000 0.0000 0.0000
# 4 0.0000 0.0000 0.0000 22.2320 0.0000 0.0000
# 5 0.0000 0.0000 0.0000 0.0000 11.5168 0.0000
# 6 0.0000 0.0000 0.0000 0.0000 0.0000 22.6217
#
#
#
# Elastic Compliance Matrix: (Units=1/GPa)
#
#
# Indices 1 2 3 4 5 6 
#
# 1 0.013382 -0.001529 -0.005591 0.000000 0.000000 0.000000
# 2 -0.001529 0.009127 -0.003181 0.000000 0.000000 0.000000
# 3 -0.005591 -0.003181 0.015937 0.000000 0.000000 0.000000
# 4 0.000000 0.000000 0.000000 0.044980 0.000000 0.000000
# 5 0.000000 0.000000 0.000000 0.000000 0.086830 0.000000
# 6 0.000000 0.000000 0.000000 0.000000 0.000000 0.044205
#
#
# Mechanical properties :
#
#
# Convention : Reuss Voigt Hill
#
# Bulk Modulus (GPa) = 56.04389 56.98304 56.51347
# Shear Modulus (GPa) = 20.74589 24.66085 22.70337
#
# Velocity S-wave (km/s) = 3.47055 3.78388 3.63060
# Velocity P-wave (km/s) = 6.97122 7.22314 7.09830
#
# Compressibility (1/GPa) = 0.01784316
#
# Stress axis : x y z
#
# Youngs Moduli (GPa) = 74.72817 109.56005 62.74877
#
# Poissons Ratio (x) = 0.16757 0.35084
# Poissons Ratio (y) = 0.11429 0.19958
# Poissons Ratio (z) = 0.41782 0.34847
#
# Static dielectric constant tensor:
#      x y z
#    x 2.869640 0.000000 0.000000 
#    y 0.000000 3.195190 0.000000 
#    z 0.000000 0.000000 2.988290 
# 
# 
# High freq. dielectric constant tensor:
#      x y z
#    x 1.631980 0.000000 0.000000 
#    y 0.000000 1.673350 0.000000 
#    z 0.000000 0.000000 1.643070 
# 
# From -- ./inp_files/33375.got.cif
#   From: 2010.06.25/outbox.cif.g09.slc.cpg/sg52_17_cif.got.tgz:33375.got - 2010.06.26 19:32:48.
