data_PCOD8215143
_publ_section_title
;
Structure prediction by ZEFSAII (Michael W. Deem and Ramdas Pophale) SiO2 
 PCOD8215143
Probable space group: P N N A
;
_chemical_formula_sum "Si O2"
_cell_formula_units_Z 64
_cell_length_a 26.240067
_cell_length_b 11.748539
_cell_length_c 11.114830
_cell_angle_alpha 90.000000
_cell_angle_beta 90.000000
_cell_angle_gamma 90.000000
_cell_volume 3426.507029
_symmetry_space_group_name_H-M "P N N A"
_symmetry_group_IT_number 52
_symmetry_cell_setting 'orthorhombic'
loop_
_space_group_symop_operation_xyz
x,y,z
1/2-x,-y,z
x,1/2-y,1/2-z
1/2-x,1/2+y,1/2-z
-x,-y,-z
1/2+x,y,-z
-x,1/2+y,1/2+z
1/2+x,1/2-y,1/2+z
loop_
_atom_site_type_symbol
_atom_site_label
_atom_site_fract_x
_atom_site_fract_y
_atom_site_fract_z
Si Si1 0.116549 0.865193 0.811740
Si Si2 0.380515 0.972809 0.597596
Si Si3 0.151376 0.770009 0.037382
Si Si4 0.308211 0.475084 0.094732
Si Si5 0.116960 0.552334 0.291386
Si Si6 0.057888 0.632040 0.068168
Si Si7 0.047071 0.274469 0.880799
Si Si8 0.442010 0.970507 0.982807
O O1 0.093736 0.750000 0.750000
O O2 0.137589 0.948091 0.707968
O O3 0.075006 0.940079 0.881684
O O4 0.161960 0.828726 0.906403
O O5 0.402526 0.851362 0.636553
O O6 0.329274 0.954263 0.519195
O O7 0.426012 0.029387 0.519451
O O8 0.184972 0.659214 0.064291
O O9 0.155205 0.855092 0.149105
O O10 0.090772 0.741311 0.027980
O O11 0.250000 0.500000 0.121709
O O12 0.342800 0.515679 0.207683
O O13 0.072335 0.603913 0.207215
O O14 0.090506 0.477842 0.394269
O O15 0.998497 0.660705 0.049091
O O16 0.024101 0.250000 0.750000
O O17 0.064732 0.159782 0.944903
O O18 0.500000 0.000000 0.000000
#
# Coordination Sequence:
#
# PCOD8215143 Si02
#       8
#     8   8   8   8   8   8   8   8
#     4  11  18  36  57  82 112 145 194 242 284 334
#     4  10  22  36  56  84 114 152 193 243 296 341
#     4   9  17  32  60  83 110 140 189 245 286 335
#     4  10  20  38  62  84 110 145 194 248 298 357
#     4   9  19  36  55  85 113 147 196 245 284 337
#     4  10  18  33  53  79 115 152 197 231 272 342
#     4  12  21  35  52  79 123 165 189 225 292 350
#     4  11  23  35  55  85 122 161 200 232 279 350
#
# _framework density 18.677914000000001
#
# number of rings (size 3 to 8) (size 9 to 14) (size 15 to 20)
#    0.000    2.000    3.750    4.875    0.000    0.000 
#    0.000    5.000    2.750    3.000    0.000    0.000 
#    0.000    0.000    0.000    0.000    0.000    0.000 
#
# Total GULP energy -792935.933692 kJ/mol
# GULP energy per Si atom -12389.623964 kJ/mol
# Density = 1.863540 g / cm^3
# Si number density = 18.677914 Si / 1000 Ang^3
#
#
#
# Elastic Constant Matrix: (Units=GPa)
#
#
# Indices 1 2 3 4 5 6 
#
# 1 89.3968 24.3478 31.1491 0.0000 0.0000 0.0000
# 2 24.3478 77.3132 33.7067 0.0000 0.0000 0.0000
# 3 31.1491 33.7067 117.7409 0.0000 0.0000 0.0000
# 4 0.0000 0.0000 0.0000 24.5580 0.0000 0.0000
# 5 0.0000 0.0000 0.0000 0.0000 15.4639 0.0000
# 6 0.0000 0.0000 0.0000 0.0000 0.0000 19.8296
#
#
#
# Elastic Compliance Matrix: (Units=1/GPa)
#
#
# Indices 1 2 3 4 5 6 
#
# 1 0.012880 -0.002937 -0.002567 0.000000 0.000000 0.000000
# 2 -0.002937 0.015449 -0.003646 0.000000 0.000000 0.000000
# 3 -0.002567 -0.003646 0.010216 0.000000 0.000000 0.000000
# 4 0.000000 0.000000 0.000000 0.040720 0.000000 0.000000
# 5 0.000000 0.000000 0.000000 0.000000 0.064667 0.000000
# 6 0.000000 0.000000 0.000000 0.000000 0.000000 0.050430
#
#
# Mechanical properties :
#
#
# Convention : Reuss Voigt Hill
#
# Bulk Modulus (GPa) = 49.39263 51.42867 50.41065
# Shear Modulus (GPa) = 22.78846 24.98679 23.88762
#
# Velocity S-wave (km/s) = 3.49675 3.66152 3.58008
# Velocity P-wave (km/s) = 6.54254 6.74314 6.64360
#
# Compressibility (1/GPa) = 0.02024594
#
# Stress axis : x y z
#
# Youngs Moduli (GPa) = 77.63723 64.72986 97.88655
#
# Poissons Ratio (x) = 0.19013 0.25125
# Poissons Ratio (y) = 0.22805 0.35685
# Poissons Ratio (z) = 0.19927 0.23598
#
# Static dielectric constant tensor:
#      x y z
#    x 2.926730 0.000000 0.000000 
#    y 0.000000 3.164850 0.000000 
#    z 0.000000 0.000000 3.794970 
# 
# 
# High freq. dielectric constant tensor:
#      x y z
#    x 1.671970 0.000000 0.000000 
#    y 0.000000 1.718410 0.000000 
#    z 0.000000 0.000000 1.748510 
# 
# From -- ./inp_files/22949.got.cif
#   From: 2010.06.25/outbox.cif.g09.slc.cpg/sg52_12_cif.got.tgz:22949.got - 2010.06.26 19:32:48.
