data_PCOD8215251
_publ_section_title
;
Structure prediction by ZEFSAII (Michael W. Deem and Ramdas Pophale) SiO2 
 PCOD8215251
Probable space group: P N N A
;
_chemical_formula_sum "Si O2"
_cell_formula_units_Z 64
_cell_length_a 9.005504
_cell_length_b 18.014719
_cell_length_c 24.978446
_cell_angle_alpha 90.000000
_cell_angle_beta 90.000000
_cell_angle_gamma 90.000000
_cell_volume 4052.293860
_symmetry_space_group_name_H-M "P N N A"
_symmetry_group_IT_number 52
_symmetry_cell_setting 'orthorhombic'
loop_
_space_group_symop_operation_xyz
x,y,z
1/2-x,-y,z
x,1/2-y,1/2-z
1/2-x,1/2+y,1/2-z
-x,-y,-z
1/2+x,y,-z
-x,1/2+y,1/2+z
1/2+x,1/2-y,1/2+z
loop_
_atom_site_type_symbol
_atom_site_label
_atom_site_fract_x
_atom_site_fract_y
_atom_site_fract_z
Si Si1 0.863802 0.210040 0.306502
Si Si2 0.122177 0.555181 0.445674
Si Si3 0.277921 0.652766 0.648016
Si Si4 0.188682 0.079499 0.739505
Si Si5 0.159950 0.923268 0.253323
Si Si6 0.127329 0.661261 0.355273
Si Si7 0.699318 0.209399 0.693431
Si Si8 0.119597 0.552919 0.561969
O O1 0.869768 0.250000 0.250000
O O2 0.786852 0.264933 0.348015
O O3 0.762148 0.136559 0.302714
O O4 0.031472 0.195062 0.326808
O O5 0.250000 0.500000 0.459558
O O6 0.183968 0.622625 0.409585
O O7 0.062976 0.585778 0.503987
O O8 0.002167 0.504187 0.413225
O O9 0.261057 0.603329 0.701139
O O10 0.450683 0.665288 0.636113
O O11 0.176041 0.615592 0.602529
O O12 0.012959 0.071984 0.732872
O O13 0.250000 0.000000 0.725232
O O14 0.178111 0.888995 0.194450
O O15 0.227047 0.870832 0.299341
O O16 0.250000 0.000000 0.255028
O O17 0.204201 0.742011 0.348931
O O18 0.701558 0.250000 0.750000
O O19 0.250000 0.500000 0.546640
#
# Coordination Sequence:
#
# PCOD8215251 Si02
#       8
#     8   8   8   8   8   8   8   8
#     4   9  18  31  44  64  87 117 150 190 227 273
#     4  10  21  31  46  66  92 121 157 195 231 270
#     4  10  19  30  48  62  89 121 158 188 230 275
#     4  10  19  29  46  67  89 119 155 189 227 274
#     4  10  19  30  46  66  91 119 151 192 230 271
#     4  10  19  31  45  65  88 123 155 190 231 277
#     4   9  18  31  44  62  90 115 149 190 231 270
#     4  10  19  34  46  64  92 123 155 196 233 264
#
# _framework density 15.793524
#
# number of rings (size 3 to 8) (size 9 to 14) (size 15 to 20)
#    0.000    2.250    1.250    2.250    3.500    4.000 
#    0.000    0.000    0.000    0.000    0.000    0.000 
#    0.000    1.000    0.000    7.250    0.000    2.500 
#
# Total GULP energy -792867.457433 kJ/mol
# GULP energy per Si atom -12388.554022 kJ/mol
# Density = 1.575758 g / cm^3
# Si number density = 15.793524 Si / 1000 Ang^3
#
#
#
# Elastic Constant Matrix: (Units=GPa)
#
#
# Indices 1 2 3 4 5 6 
#
# 1 90.4975 55.0583 23.4535 0.0000 0.0000 0.0000
# 2 55.0583 120.7516 46.7607 0.0000 0.0000 0.0000
# 3 23.4535 46.7607 58.6080 0.0000 0.0000 0.0000
# 4 0.0000 0.0000 0.0000 20.5947 0.0000 0.0000
# 5 0.0000 0.0000 0.0000 0.0000 10.8621 0.0000
# 6 0.0000 0.0000 0.0000 0.0000 0.0000 33.2437
#
#
#
# Elastic Compliance Matrix: (Units=1/GPa)
#
#
# Indices 1 2 3 4 5 6 
#
# 1 0.015318 -0.006672 -0.000807 0.000000 0.000000 0.000000
# 2 -0.006672 0.014890 -0.009210 0.000000 0.000000 0.000000
# 3 -0.000807 -0.009210 0.024734 0.000000 0.000000 0.000000
# 4 0.000000 0.000000 0.000000 0.048556 0.000000 0.000000
# 5 0.000000 0.000000 0.000000 0.000000 0.092064 0.000000
# 6 0.000000 0.000000 0.000000 0.000000 0.000000 0.030081
#
#
# Mechanical properties :
#
#
# Convention : Reuss Voigt Hill
#
# Bulk Modulus (GPa) = 46.37285 57.82247 52.09766
# Shear Modulus (GPa) = 18.78217 22.57906 20.68062
#
# Velocity S-wave (km/s) = 3.45227 3.78516 3.62254
# Velocity P-wave (km/s) = 6.73176 7.46955 7.11023
#
# Compressibility (1/GPa) = 0.02156434
#
# Stress axis : x y z
#
# Youngs Moduli (GPa) = 65.28064 67.15693 40.43054
#
# Poissons Ratio (x) = 0.44809 0.03261
# Poissons Ratio (y) = 0.43558 0.37238
# Poissons Ratio (z) = 0.05265 0.61854
#
# Static dielectric constant tensor:
#      x y z
#    x 3.167540 0.000000 0.000000 
#    y 0.000000 2.996130 0.000000 
#    z 0.000000 0.000000 2.733580 
# 
# 
# High freq. dielectric constant tensor:
#      x y z
#    x 1.628400 0.000000 0.000000 
#    y 0.000000 1.592920 0.000000 
#    z 0.000000 0.000000 1.562500 
# 
# From -- ./inp_files/42423.got.cif
#   From: 2010.06.25/outbox.cif.g09.slc.cpg/sg52_22_cif.got.tgz:42423.got - 2010.06.26 19:32:48.
