data_PCOD8215173
_publ_section_title
;
Structure prediction by ZEFSAII (Michael W. Deem and Ramdas Pophale) SiO2 
 PCOD8215173
Probable space group: P N N A
;
_chemical_formula_sum "Si O2"
_cell_formula_units_Z 36
_cell_length_a 13.910683
_cell_length_b 19.692072
_cell_length_c 6.398716
_cell_angle_alpha 90.000000
_cell_angle_beta 90.000000
_cell_angle_gamma 90.000000
_cell_volume 1752.801369
_symmetry_space_group_name_H-M "P N N A"
_symmetry_group_IT_number 52
_symmetry_cell_setting 'orthorhombic'
loop_
_space_group_symop_operation_xyz
x,y,z
1/2-x,-y,z
x,1/2-y,1/2-z
1/2-x,1/2+y,1/2-z
-x,-y,-z
1/2+x,y,-z
-x,1/2+y,1/2+z
1/2+x,1/2-y,1/2+z
loop_
_atom_site_type_symbol
_atom_site_label
_atom_site_fract_x
_atom_site_fract_y
_atom_site_fract_z
Si Si1 0.750000 0.000000 0.651674
Si Si2 0.144885 0.324692 0.234459
Si Si3 0.198347 0.887657 0.028999
Si Si4 0.987471 0.918520 0.006637
Si Si5 0.337956 0.904017 0.653609
O O1 0.668518 0.032420 0.503786
O O2 0.802249 0.052963 0.800279
O O3 0.097286 0.250000 0.250000
O O4 0.245065 0.323990 0.367882
O O5 0.080160 0.386851 0.325000
O O6 0.166043 0.336654 0.989706
O O7 0.086030 0.875809 0.985244
O O8 0.248352 0.908001 0.811857
O O9 0.939304 0.903466 0.229236
O O10 0.000000 0.000000 0.000000
#
# Coordination Sequence:
#
# PCOD8215173 Si02
#       5
#     4   8   8   8   8
#     4  10  18  34  60  90 124 162 206 248 324 372
#     4  10  24  44  59  88 127 168 215 261 324 393
#     4  10  21  37  58  91 121 163 208 254 315 387
#     4  11  22  38  63  98 126 159 218 267 318 389
#     4  10  21  38  63  85 132 166 197 270 315 365
#
# _framework density 20.538550999999998
#
# number of rings (size 3 to 8) (size 9 to 14) (size 15 to 20)
#    0.000    1.778    0.000    6.000    0.000   10.667 
#    8.000    0.000    0.000    0.000    0.000    0.000 
#    0.000    0.000    0.000    0.000    0.000    0.000 
#
# Total GULP energy -446093.399807 kJ/mol
# GULP energy per Si atom -12391.483328 kJ/mol
# Density = 2.049180 g / cm^3
# Si number density = 20.538551 Si / 1000 Ang^3
#
#
#
# Elastic Constant Matrix: (Units=GPa)
#
#
# Indices 1 2 3 4 5 6 
#
# 1 133.9836 25.8560 49.7319 0.0000 0.0000 0.0000
# 2 25.8560 106.6737 46.1417 0.0000 0.0000 0.0000
# 3 49.7319 46.1417 149.7694 0.0000 0.0000 0.0000
# 4 0.0000 0.0000 0.0000 10.8336 0.0000 0.0000
# 5 0.0000 0.0000 0.0000 0.0000 21.8639 0.0000
# 6 0.0000 0.0000 0.0000 0.0000 0.0000 22.7740
#
#
#
# Elastic Compliance Matrix: (Units=1/GPa)
#
#
# Indices 1 2 3 4 5 6 
#
# 1 0.008601 -0.000980 -0.002554 0.000000 0.000000 0.000000
# 2 -0.000980 0.010927 -0.003041 0.000000 0.000000 0.000000
# 3 -0.002554 -0.003041 0.008462 0.000000 0.000000 0.000000
# 4 0.000000 0.000000 0.000000 0.092305 0.000000 0.000000
# 5 0.000000 0.000000 0.000000 0.000000 0.045738 0.000000
# 6 0.000000 0.000000 0.000000 0.000000 0.000000 0.043910
#
#
# Mechanical properties :
#
#
# Convention : Reuss Voigt Hill
#
# Bulk Modulus (GPa) = 67.38641 70.43175 68.90908
# Shear Modulus (GPa) = 21.92605 29.00744 25.46675
#
# Velocity S-wave (km/s) = 3.27089 3.76219 3.52511
# Velocity P-wave (km/s) = 6.86629 7.29651 7.08466
#
# Compressibility (1/GPa) = 0.01483979
#
# Stress axis : x y z
#
# Youngs Moduli (GPa) = 116.26960 91.51341 118.17611
#
# Poissons Ratio (x) = 0.08968 0.30182
# Poissons Ratio (y) = 0.11394 0.35939
# Poissons Ratio (z) = 0.29695 0.27831
#
# Static dielectric constant tensor:
#      x y z
#    x 3.773460 0.000000 0.000000 
#    y 0.000000 3.552840 0.000000 
#    z 0.000000 0.000000 4.097760 
# 
# 
# High freq. dielectric constant tensor:
#      x y z
#    x 1.793410 0.000000 0.000000 
#    y 0.000000 1.777160 0.000000 
#    z 0.000000 0.000000 1.825420 
# 
# From -- ./inp_files/2136.got.cif
#   From: 2010.06.25/outbox.cif.g09.slc.cpg/sg52_2_cif.got.tgz:2136.got - 2010.06.26 19:32:48.
