data_PCOD8215388
_publ_section_title
;
Structure prediction by ZEFSAII (Michael W. Deem and Ramdas Pophale) SiO2 
 PCOD8215388
Probable space group: P N N A
;
_chemical_formula_sum "Si O2"
_cell_formula_units_Z 32
_cell_length_a 9.386282
_cell_length_b 8.878246
_cell_length_c 20.054318
_cell_angle_alpha 90.000000
_cell_angle_beta 90.000000
_cell_angle_gamma 90.000000
_cell_volume 1671.200933
_symmetry_space_group_name_H-M "P N N A"
_symmetry_group_IT_number 52
_symmetry_cell_setting 'orthorhombic'
loop_
_space_group_symop_operation_xyz
x,y,z
1/2-x,-y,z
x,1/2-y,1/2-z
1/2-x,1/2+y,1/2-z
-x,-y,-z
1/2+x,y,-z
-x,1/2+y,1/2+z
1/2+x,1/2-y,1/2+z
loop_
_atom_site_type_symbol
_atom_site_label
_atom_site_fract_x
_atom_site_fract_y
_atom_site_fract_z
Si Si1 0.757938 0.823308 0.436081
Si Si2 0.250000 0.500000 0.161478
Si Si3 0.666436 0.653886 0.309683
Si Si4 0.939594 0.126828 0.548510
Si Si5 0.606696 0.250000 0.750000
O O1 0.672841 0.735587 0.380220
O O2 0.686224 0.787248 0.508377
O O3 0.923607 0.767796 0.435555
O O4 0.750000 0.000000 0.419044
O O5 0.118301 0.553401 0.116172
O O6 0.294547 0.642930 0.205616
O O7 0.750000 0.500000 0.314005
O O8 0.740096 0.750000 0.250000
O O9 0.496628 0.639885 0.293995
O O10 0.000000 0.000000 0.500000
#
# Coordination Sequence:
#
# PCOD8215388 Si02
#       5
#     8   4   8   8   4
#     4  10  19  35  63  91 118 163 214 264 316 381
#     4  12  22  40  62  94 134 168 222 262 332 388
#     4  10  23  40  62  89 127 165 216 261 322 386
#     4  10  19  34  64  91 120 165 216 262 314 389
#     4  10  26  38  64  94 130 170 218 266 324 392
#
# _framework density 19.147905999999999
#
# number of rings (size 3 to 8) (size 9 to 14) (size 15 to 20)
#    0.750    1.000    3.750    3.750    3.500    2.000 
#    0.000    1.250    2.750    0.000    0.000    0.000 
#    0.000    0.000    0.000    0.000    0.000    0.000 
#
# Total GULP energy -396514.293674 kJ/mol
# GULP energy per Si atom -12391.071677 kJ/mol
# Density = 1.910432 g / cm^3
# Si number density = 19.147906 Si / 1000 Ang^3
#
#
#
# Elastic Constant Matrix: (Units=GPa)
#
#
# Indices 1 2 3 4 5 6 
#
# 1 130.6201 28.0809 52.5939 0.0000 0.0000 0.0000
# 2 28.0809 69.9002 47.1520 0.0000 0.0000 0.0000
# 3 52.5939 47.1520 126.9451 0.0000 0.0000 0.0000
# 4 0.0000 0.0000 0.0000 27.6811 0.0000 0.0000
# 5 0.0000 0.0000 0.0000 0.0000 -6.9963 0.0000
# 6 0.0000 0.0000 0.0000 0.0000 0.0000 27.9305
#
#
#
# Elastic Compliance Matrix: (Units=1/GPa)
#
#
# Indices 1 2 3 4 5 6 
#
# 1 0.009308 -0.001518 -0.003292 0.000000 0.000000 0.000000
# 2 -0.001518 0.019337 -0.006553 0.000000 0.000000 0.000000
# 3 -0.003292 -0.006553 0.011676 0.000000 0.000000 0.000000
# 4 0.000000 0.000000 0.000000 0.036126 0.000000 0.000000
# 5 0.000000 0.000000 0.000000 0.000000 -0.142933 0.000000
# 6 0.000000 0.000000 0.000000 0.000000 0.000000 0.035803
#
#
# Mechanical properties :
#
#
# Convention : Reuss Voigt Hill
#
# Bulk Modulus (GPa) = 56.84341 64.79098 60.81720
# Shear Modulus (GPa) = -2390.01058 23.03232 -1183.48913
#
# Velocity S-wave (km/s) = -35.36797 3.47199 -24.88814
# Velocity P-wave (km/s) = 40.47353 7.06991 28.17910
#
# Compressibility (1/GPa) = 0.01759219
#
# Stress axis : x y z
#
# Youngs Moduli (GPa) = 107.43622 51.71523 85.64902
#
# Poissons Ratio (x) = 0.07852 0.28198
# Poissons Ratio (y) = 0.16313 0.56128
# Poissons Ratio (z) = 0.35371 0.33890
#
# Static dielectric constant tensor:
#      x y z
#    x 4.380460 0.000000 0.000000 
#    y 0.000000 3.707760 0.000000 
#    z 0.000000 0.000000 3.737430 
# 
# 
# High freq. dielectric constant tensor:
#      x y z
#    x 1.760740 0.000000 0.000000 
#    y 0.000000 1.691620 0.000000 
#    z 0.000000 0.000000 1.755420 
# 
# From -- ./inp_files/35489.got.cif
#   From: 2010.06.25/outbox.cif.g09.slc.cpg/sg52_18_cif.got.tgz:35489.got - 2010.06.26 19:32:48.
