data_PCOD8215924
_publ_section_title
;
Structure prediction by ZEFSAII (Michael W. Deem and Ramdas Pophale) SiO2 
 PCOD8215924
Probable space group: P N N A
;
_chemical_formula_sum "Si O2"
_cell_formula_units_Z 64
_cell_length_a 17.553889
_cell_length_b 20.275882
_cell_length_c 8.774703
_cell_angle_alpha 90.000000
_cell_angle_beta 90.000000
_cell_angle_gamma 90.000000
_cell_volume 3123.097399
_symmetry_space_group_name_H-M "P N N A"
_symmetry_group_IT_number 52
_symmetry_cell_setting 'orthorhombic'
loop_
_space_group_symop_operation_xyz
x,y,z
1/2-x,-y,z
x,1/2-y,1/2-z
1/2-x,1/2+y,1/2-z
-x,-y,-z
1/2+x,y,-z
-x,1/2+y,1/2+z
1/2+x,1/2-y,1/2+z
loop_
_atom_site_type_symbol
_atom_site_label
_atom_site_fract_x
_atom_site_fract_y
_atom_site_fract_z
Si Si1 0.590322 0.746168 0.573338
Si Si2 0.337535 0.995041 0.138475
Si Si3 0.668803 0.133972 0.044378
Si Si4 0.843238 0.377800 0.440430
Si Si5 0.165309 0.110255 0.606979
Si Si6 0.658522 0.633721 0.090760
Si Si7 0.913276 0.489663 0.952805
Si Si8 0.084785 0.238927 0.573696
O O1 0.612339 0.750000 0.750000
O O2 0.599856 0.670202 0.528503
O O3 0.643867 0.792266 0.469262
O O4 0.503999 0.766447 0.539743
O O5 0.398563 0.003009 0.272861
O O6 0.250000 0.000000 0.197768
O O7 0.351807 0.048867 0.006675
O O8 0.354424 0.923799 0.069308
O O9 0.758191 0.149692 0.037114
O O10 0.646506 0.111439 0.214230
O O11 0.623546 0.199064 0.988168
O O12 0.866842 0.376352 0.264427
O O13 0.253547 0.117209 0.569922
O O14 0.121797 0.169872 0.520900
O O15 0.139300 0.040145 0.544383
O O16 0.608500 0.585067 0.989516
O O17 0.000000 0.500000 0.000000
O O18 0.103312 0.250000 0.750000
#
# Coordination Sequence:
#
# PCOD8215924 Si02
#       8
#     8   8   8   8   8   8   8   8
#     4  11  22  36  57  87 122 156 190 238 298 352
#     4  10  21  39  61  87 118 150 192 244 293 345
#     4   9  19  38  63  87 112 150 199 243 286 340
#     4  10  21  38  62  88 113 151 200 245 289 344
#     4  10  20  39  63  84 111 152 198 240 285 345
#     4  11  22  39  62  85 113 153 200 243 286 347
#     4  12  25  39  57  86 121 154 189 235 296 356
#     4   9  19  36  58  84 115 150 188 234 290 347
#
# _framework density 20.492477999999998
#
# number of rings (size 3 to 8) (size 9 to 14) (size 15 to 20)
#    0.000    1.750    0.000    4.500    0.000    8.000 
#    0.000    3.750    0.000    0.000    0.000    0.000 
#    0.000    0.000    0.000    0.000    0.000    0.000 
#
# Total GULP energy -793867.922340 kJ/mol
# GULP energy per Si atom -12404.186287 kJ/mol
# Density = 2.044584 g / cm^3
# Si number density = 20.492478 Si / 1000 Ang^3
#
#
#
# Elastic Constant Matrix: (Units=GPa)
#
#
# Indices 1 2 3 4 5 6 
#
# 1 74.5771 25.1561 40.7584 0.0000 0.0000 0.0000
# 2 25.1561 94.0145 26.3250 0.0000 0.0000 0.0000
# 3 40.7584 26.3250 100.1706 0.0000 0.0000 0.0000
# 4 0.0000 0.0000 0.0000 31.6501 0.0000 0.0000
# 5 0.0000 0.0000 0.0000 0.0000 23.6115 0.0000
# 6 0.0000 0.0000 0.0000 0.0000 0.0000 31.7081
#
#
#
# Elastic Compliance Matrix: (Units=1/GPa)
#
#
# Indices 1 2 3 4 5 6 
#
# 1 0.017986 -0.002983 -0.006535 0.000000 0.000000 0.000000
# 2 -0.002983 0.011976 -0.001934 0.000000 0.000000 0.000000
# 3 -0.006535 -0.001934 0.013150 0.000000 0.000000 0.000000
# 4 0.000000 0.000000 0.000000 0.031595 0.000000 0.000000
# 5 0.000000 0.000000 0.000000 0.000000 0.042352 0.000000
# 6 0.000000 0.000000 0.000000 0.000000 0.000000 0.031538
#
#
# Mechanical properties :
#
#
# Convention : Reuss Voigt Hill
#
# Bulk Modulus (GPa) = 49.47968 50.36011 49.91990
# Shear Modulus (GPa) = 28.05248 29.16212 28.60730
#
# Velocity S-wave (km/s) = 3.70390 3.77645 3.74035
# Velocity P-wave (km/s) = 6.51840 6.60634 6.56252
#
# Compressibility (1/GPa) = 0.02021032
#
# Stress axis : x y z
#
# Youngs Moduli (GPa) = 55.59726 83.49837 76.04572
#
# Poissons Ratio (x) = 0.24908 0.49693
# Poissons Ratio (y) = 0.16585 0.14704
# Poissons Ratio (z) = 0.36330 0.16145
#
# Static dielectric constant tensor:
#      x y z
#    x 3.623810 0.000000 0.000000 
#    y 0.000000 3.851780 0.000000 
#    z 0.000000 0.000000 3.613100 
# 
# 
# High freq. dielectric constant tensor:
#      x y z
#    x 1.797700 0.000000 0.000000 
#    y 0.000000 1.818640 0.000000 
#    z 0.000000 0.000000 1.790640 
# 
# From -- ./inp_files/12572.got.cif
#   From: 2010.06.25/outbox.cif.g09.slc.cpg/sg52_7_cif.got.tgz:12572.got - 2010.06.26 19:32:48.
