data_PCOD8215638
_publ_section_title
;
Structure prediction by ZEFSAII (Michael W. Deem and Ramdas Pophale) SiO2 
 PCOD8215638
Probable space group: P N N A
;
_chemical_formula_sum "Si O2"
_cell_formula_units_Z 40
_cell_length_a 31.767080
_cell_length_b 4.902702
_cell_length_c 12.454919
_cell_angle_alpha 90.000000
_cell_angle_beta 90.000000
_cell_angle_gamma 90.000000
_cell_volume 1939.785464
_symmetry_space_group_name_H-M "P N N A"
_symmetry_group_IT_number 52
_symmetry_cell_setting 'orthorhombic'
loop_
_space_group_symop_operation_xyz
x,y,z
1/2-x,-y,z
x,1/2-y,1/2-z
1/2-x,1/2+y,1/2-z
-x,-y,-z
1/2+x,y,-z
-x,1/2+y,1/2+z
1/2+x,1/2-y,1/2+z
loop_
_atom_site_type_symbol
_atom_site_label
_atom_site_fract_x
_atom_site_fract_y
_atom_site_fract_z
Si Si1 0.220846 0.751094 0.626482
Si Si2 0.442993 0.221420 0.626396
Si Si3 0.609548 0.210611 0.624782
Si Si4 0.468351 0.742855 0.508696
Si Si5 0.863425 0.192833 0.999615
O O1 0.250000 0.500000 0.597400
O O2 0.205784 0.750000 0.750000
O O3 0.180381 0.772885 0.551766
O O4 0.250000 0.000000 0.598446
O O5 0.453516 0.250000 0.750000
O O6 0.478437 0.427607 0.561651
O O7 0.398334 0.349361 0.593235
O O8 0.440310 0.897532 0.600609
O O9 0.616139 0.250000 0.750000
O O10 0.561050 0.290110 0.596221
O O11 0.641708 0.407648 0.561841
O O12 0.620528 0.905106 0.589706
O O13 0.500000 0.000000 0.500000
#
# Coordination Sequence:
#
# PCOD8215638 Si02
#       5
#     8   8   8   8   8
#     4  10  20  34  56  87 118 147 177 218 282 344
#     4  10  20  35  55  80 108 141 178 220 278 335
#     4  10  21  37  58  80 105 148 195 232 274 324
#     4  10  21  36  54  80 110 140 181 230 279 333
#     4  10  20  36  58  81 111 144 184 232 270 330
#
# _framework density 20.620839
#
# number of rings (size 3 to 8) (size 9 to 14) (size 15 to 20)
#    0.000    2.000    0.000    3.600    0.000    0.800 
#    0.000   12.000    0.000   12.000    0.000    0.000 
#    0.000    0.000    0.000    0.000    0.000    0.000 
#
# Total GULP energy -495663.399011 kJ/mol
# GULP energy per Si atom -12391.584975 kJ/mol
# Density = 2.057390 g / cm^3
# Si number density = 20.620839 Si / 1000 Ang^3
#
#
#
# Elastic Constant Matrix: (Units=GPa)
#
#
# Indices 1 2 3 4 5 6 
#
# 1 107.6683 37.0563 49.7082 0.0000 0.0000 0.0000
# 2 37.0563 139.5407 35.0521 0.0000 0.0000 0.0000
# 3 49.7082 35.0521 111.1823 0.0000 0.0000 0.0000
# 4 0.0000 0.0000 0.0000 27.7238 0.0000 0.0000
# 5 0.0000 0.0000 0.0000 0.0000 20.7854 0.0000
# 6 0.0000 0.0000 0.0000 0.0000 0.0000 42.6121
#
#
#
# Elastic Compliance Matrix: (Units=1/GPa)
#
#
# Indices 1 2 3 4 5 6 
#
# 1 0.012212 -0.002033 -0.004819 0.000000 0.000000 0.000000
# 2 -0.002033 0.008121 -0.001652 0.000000 0.000000 0.000000
# 3 -0.004819 -0.001652 0.011670 0.000000 0.000000 0.000000
# 4 0.000000 0.000000 0.000000 0.036070 0.000000 0.000000
# 5 0.000000 0.000000 0.000000 0.000000 0.048111 0.000000
# 6 0.000000 0.000000 0.000000 0.000000 0.000000 0.023468
#
#
# Mechanical properties :
#
#
# Convention : Reuss Voigt Hill
#
# Bulk Modulus (GPa) = 66.68333 66.89162 66.78747
# Shear Modulus (GPa) = 30.92984 33.99590 32.46287
#
# Velocity S-wave (km/s) = 3.87710 4.06472 3.97202
# Velocity P-wave (km/s) = 7.24227 7.38502 7.31400
#
# Compressibility (1/GPa) = 0.01499625
#
# Stress axis : x y z
#
# Youngs Moduli (GPa) = 81.88523 123.13769 85.69340
#
# Poissons Ratio (x) = 0.25028 0.41297
# Poissons Ratio (y) = 0.16643 0.14153
# Poissons Ratio (z) = 0.39462 0.20337
#
# Static dielectric constant tensor:
#      x y z
#    x -0.808670 0.000000 0.000000 
#    y 0.000000 0.483670 0.000000 
#    z 0.000000 0.000000 3.535130 
# 
# 
# High freq. dielectric constant tensor:
#      x y z
#    x 1.798830 0.000000 0.000000 
#    y 0.000000 1.845990 0.000000 
#    z 0.000000 0.000000 1.791550 
# 
# From -- ./inp_files/22623.got.cif
#   From: 2010.06.25/outbox.cif.g09.slc.cpg/sg52_12_cif.got.tgz:22623.got - 2010.06.26 19:32:48.
