data_PCOD8215508
_publ_section_title
;
Structure prediction by ZEFSAII (Michael W. Deem and Ramdas Pophale) SiO2 
 PCOD8215508
Probable space group: P N N A
;
_chemical_formula_sum "Si O2"
_cell_formula_units_Z 64
_cell_length_a 15.562877
_cell_length_b 22.553891
_cell_length_c 9.573225
_cell_angle_alpha 90.000000
_cell_angle_beta 90.000000
_cell_angle_gamma 90.000000
_cell_volume 3360.234826
_symmetry_space_group_name_H-M "P N N A"
_symmetry_group_IT_number 52
_symmetry_cell_setting 'orthorhombic'
loop_
_space_group_symop_operation_xyz
x,y,z
1/2-x,-y,z
x,1/2-y,1/2-z
1/2-x,1/2+y,1/2-z
-x,-y,-z
1/2+x,y,-z
-x,1/2+y,1/2+z
1/2+x,1/2-y,1/2+z
loop_
_atom_site_type_symbol
_atom_site_label
_atom_site_fract_x
_atom_site_fract_y
_atom_site_fract_z
Si Si1 0.846288 0.494461 0.562744
Si Si2 0.989428 0.282274 0.101049
Si Si3 0.185023 0.594749 0.677907
Si Si4 0.381328 0.905480 0.869558
Si Si5 0.527241 0.534488 0.800726
Si Si6 0.448025 0.083867 0.594736
Si Si7 0.129247 0.227897 0.907857
Si Si8 0.819588 0.275254 0.402008
O O1 0.750000 0.500000 0.622204
O O2 0.848835 0.456463 0.421933
O O3 0.884672 0.557798 0.514915
O O4 0.902381 0.463463 0.679907
O O5 0.999017 0.250000 0.250000
O O6 0.992542 0.352821 0.119411
O O7 0.898964 0.260953 0.028057
O O8 0.068733 0.267650 0.002568
O O9 0.286910 0.592937 0.698797
O O10 0.144507 0.584618 0.830347
O O11 0.154276 0.655992 0.607920
O O12 0.443028 0.931470 0.751224
O O13 0.406512 0.838987 0.910801
O O14 0.509055 0.466364 0.839317
O O15 0.566077 0.570222 0.931644
O O16 0.126520 0.250000 0.750000
O O17 0.225989 0.231943 0.974983
O O18 0.805109 0.250000 0.250000
#
# Coordination Sequence:
#
# PCOD8215508 Si02
#       8
#     8   8   8   8   8   8   8   8
#     4  10  22  39  59  87 116 155 203 248 298 346
#     4  11  22  38  63  86 119 161 200 240 301 362
#     4  10  19  38  62  86 114 154 204 241 292 366
#     4  10  21  36  66  87 112 156 207 244 296 360
#     4  11  24  39  58  89 124 152 199 253 304 351
#     4  11  23  40  57  90 120 157 200 241 303 367
#     4  10  22  38  59  89 119 148 198 252 300 353
#     4   9  18  36  61  84 112 154 198 238 288 361
#
# _framework density 19.046289000000002
#
# number of rings (size 3 to 8) (size 9 to 14) (size 15 to 20)
#    0.000    1.750    3.750    1.125    3.500    0.000 
#    4.500    0.625    0.000    0.000    0.000    0.000 
#    0.000    0.000    0.000    0.000    0.000    0.000 
#
# Total GULP energy -793533.594140 kJ/mol
# GULP energy per Si atom -12398.962408 kJ/mol
# Density = 1.900294 g / cm^3
# Si number density = 19.046289 Si / 1000 Ang^3
#
#
#
# Elastic Constant Matrix: (Units=GPa)
#
#
# Indices 1 2 3 4 5 6 
#
# 1 98.0371 22.1990 44.0493 0.0000 0.0000 0.0000
# 2 22.1990 95.0399 9.7873 0.0000 0.0000 0.0000
# 3 44.0493 9.7873 72.6800 0.0000 0.0000 0.0000
# 4 0.0000 0.0000 0.0000 21.5296 0.0000 0.0000
# 5 0.0000 0.0000 0.0000 0.0000 22.2146 0.0000
# 6 0.0000 0.0000 0.0000 0.0000 0.0000 20.7346
#
#
#
# Elastic Compliance Matrix: (Units=1/GPa)
#
#
# Indices 1 2 3 4 5 6 
#
# 1 0.014595 -0.002533 -0.008504 0.000000 0.000000 0.000000
# 2 -0.002533 0.011110 0.000039 0.000000 0.000000 0.000000
# 3 -0.008504 0.000039 0.018908 0.000000 0.000000 0.000000
# 4 0.000000 0.000000 0.000000 0.046448 0.000000 0.000000
# 5 0.000000 0.000000 0.000000 0.000000 0.045016 0.000000
# 6 0.000000 0.000000 0.000000 0.000000 0.000000 0.048229
#
#
# Mechanical properties :
#
#
# Convention : Reuss Voigt Hill
#
# Bulk Modulus (GPa) = 44.21717 46.42537 45.32127
# Shear Modulus (GPa) = 23.38200 25.54384 24.46292
#
# Velocity S-wave (km/s) = 3.50757 3.66614 3.58773
# Velocity P-wave (km/s) = 6.29842 6.50759 6.40386
#
# Compressibility (1/GPa) = 0.02261565
#
# Stress axis : x y z
#
# Youngs Moduli (GPa) = 68.51660 90.01257 52.88767
#
# Poissons Ratio (x) = 0.22802 0.44978
# Poissons Ratio (y) = 0.17357 -0.00208
# Poissons Ratio (z) = 0.58270 -0.00353
#
# Static dielectric constant tensor:
#      x y z
#    x 3.713940 0.000000 0.000000 
#    y 0.000000 3.639340 0.000000 
#    z 0.000000 0.000000 3.210470 
# 
# 
# High freq. dielectric constant tensor:
#      x y z
#    x 1.744290 0.000000 0.000000 
#    y 0.000000 1.760790 0.000000 
#    z 0.000000 0.000000 1.710670 
# 
# From -- ./inp_files/12592.got.cif
#   From: 2010.06.25/outbox.cif.g09.slc.cpg/sg52_7_cif.got.tgz:12592.got - 2010.06.26 19:32:48.
