data_PCOD8215280
_publ_section_title
;
Structure prediction by ZEFSAII (Michael W. Deem and Ramdas Pophale) SiO2 
 PCOD8215280
Probable space group: P N N A
;
_chemical_formula_sum "Si O2"
_cell_formula_units_Z 64
_cell_length_a 29.074760
_cell_length_b 9.389763
_cell_length_c 11.222107
_cell_angle_alpha 90.000000
_cell_angle_beta 90.000000
_cell_angle_gamma 90.000000
_cell_volume 3063.692508
_symmetry_space_group_name_H-M "P N N A"
_symmetry_group_IT_number 52
_symmetry_cell_setting 'orthorhombic'
loop_
_space_group_symop_operation_xyz
x,y,z
1/2-x,-y,z
x,1/2-y,1/2-z
1/2-x,1/2+y,1/2-z
-x,-y,-z
1/2+x,y,-z
-x,1/2+y,1/2+z
1/2+x,1/2-y,1/2+z
loop_
_atom_site_type_symbol
_atom_site_label
_atom_site_fract_x
_atom_site_fract_y
_atom_site_fract_z
Si Si1 0.606494 0.855872 0.002600
Si Si2 0.399922 0.598509 0.188359
Si Si3 0.032962 0.594307 0.302725
Si Si4 0.292091 0.412090 0.966985
Si Si5 0.210514 0.898992 0.017585
Si Si6 0.449195 0.407171 0.727913
Si Si7 0.180827 0.595416 0.235293
Si Si8 0.889542 0.034670 0.449892
O O1 0.592888 0.883892 0.138583
O O2 0.610359 0.685801 0.978178
O O3 0.566307 0.913452 0.916861
O O4 0.655631 0.937190 0.988660
O O5 0.406780 0.750000 0.250000
O O6 0.445836 0.505554 0.201301
O O7 0.357302 0.525497 0.256315
O O8 0.394050 0.596663 0.044069
O O9 0.024162 0.750000 0.250000
O O10 0.984177 0.519492 0.331209
O O11 0.250000 0.500000 0.913941
O O12 0.282229 0.246285 0.945110
O O13 0.295560 0.433154 0.109427
O O14 0.337446 0.469423 0.897794
O O15 0.219705 0.899312 0.160699
O O16 0.250000 0.000000 0.960670
O O17 0.471730 0.250000 0.750000
O O18 0.428543 0.474613 0.849692
O O19 0.155144 0.750000 0.250000
#
# Coordination Sequence:
#
# PCOD8215280 Si02
#       8
#     8   8   8   8   8   8   8   8
#     4  10  20  41  65  84 120 161 199 242 306 364
#     4  11  21  34  57  89 118 154 193 243 296 354
#     4  12  22  40  63  88 120 155 193 244 311 361
#     4   9  18  32  53  80 115 158 197 234 294 355
#     4  10  19  31  55  85 115 153 195 244 292 350
#     4  10  23  43  64  88 114 157 209 251 292 359
#     4   9  17  32  51  76 117 154 191 238 300 353
#     4   9  20  40  61  84 121 161 197 246 303 358
#
# _framework density 20.889824999999998
#
# number of rings (size 3 to 8) (size 9 to 14) (size 15 to 20)
#    0.000    2.000    2.500    2.250    0.000    2.500 
#    4.500    1.250    0.000    0.000    0.000    0.000 
#    0.000    0.000    0.000    0.000    0.000    0.000 
#
# Total GULP energy -792845.624898 kJ/mol
# GULP energy per Si atom -12388.212889 kJ/mol
# Density = 2.084228 g / cm^3
# Si number density = 20.889825 Si / 1000 Ang^3
#
#
#
# Elastic Constant Matrix: (Units=GPa)
#
#
# Indices 1 2 3 4 5 6 
#
# 1 119.3627 57.6350 23.7440 0.0000 0.0000 0.0000
# 2 57.6350 111.9670 27.6942 0.0000 0.0000 0.0000
# 3 23.7440 27.6942 55.5373 0.0000 0.0000 0.0000
# 4 0.0000 0.0000 0.0000 21.5136 0.0000 0.0000
# 5 0.0000 0.0000 0.0000 0.0000 11.9344 0.0000
# 6 0.0000 0.0000 0.0000 0.0000 0.0000 37.1393
#
#
#
# Elastic Compliance Matrix: (Units=1/GPa)
#
#
# Indices 1 2 3 4 5 6 
#
# 1 0.011384 -0.005311 -0.002218 0.000000 0.000000 0.000000
# 2 -0.005311 0.012666 -0.004045 0.000000 0.000000 0.000000
# 3 -0.002218 -0.004045 0.020972 0.000000 0.000000 0.000000
# 4 0.000000 0.000000 0.000000 0.046482 0.000000 0.000000
# 5 0.000000 0.000000 0.000000 0.000000 0.083792 0.000000
# 6 0.000000 0.000000 0.000000 0.000000 0.000000 0.026926
#
#
# Mechanical properties :
#
#
# Convention : Reuss Voigt Hill
#
# Bulk Modulus (GPa) = 45.72176 56.11258 50.91717
# Shear Modulus (GPa) = 21.49060 25.97039 23.73050
#
# Velocity S-wave (km/s) = 3.21091 3.52974 3.37409
# Velocity P-wave (km/s) = 5.97337 6.59785 6.29336
#
# Compressibility (1/GPa) = 0.02187142
#
# Stress axis : x y z
#
# Youngs Moduli (GPa) = 87.84592 78.95419 47.68362
#
# Poissons Ratio (x) = 0.41932 0.10578
# Poissons Ratio (y) = 0.46655 0.19289
# Poissons Ratio (z) = 0.19488 0.31939
#
# Static dielectric constant tensor:
#      x y z
#    x 3.790480 0.000000 0.000000 
#    y 0.000000 3.671430 0.000000 
#    z 0.000000 0.000000 3.496440 
# 
# 
# High freq. dielectric constant tensor:
#      x y z
#    x 1.819500 0.000000 0.000000 
#    y 0.000000 1.796840 0.000000 
#    z 0.000000 0.000000 1.794270 
# 
# From -- ./inp_files/23209.got.cif
#   From: 2010.06.25/outbox.cif.g09.slc.cpg/sg52_12_cif.got.tgz:23209.got - 2010.06.26 19:32:48.
