data_PCOD8215640
_publ_section_title
;
Structure prediction by ZEFSAII (Michael W. Deem and Ramdas Pophale) SiO2 
 PCOD8215640
Probable space group: P N N A
;
_chemical_formula_sum "Si O2"
_cell_formula_units_Z 32
_cell_length_a 23.111365
_cell_length_b 4.932641
_cell_length_c 12.875674
_cell_angle_alpha 90.000000
_cell_angle_beta 90.000000
_cell_angle_gamma 90.000000
_cell_volume 1467.827693
_symmetry_space_group_name_H-M "P N N A"
_symmetry_group_IT_number 52
_symmetry_cell_setting 'orthorhombic'
loop_
_space_group_symop_operation_xyz
x,y,z
1/2-x,-y,z
x,1/2-y,1/2-z
1/2-x,1/2+y,1/2-z
-x,-y,-z
1/2+x,y,-z
-x,1/2+y,1/2+z
1/2+x,1/2-y,1/2+z
loop_
_atom_site_type_symbol
_atom_site_label
_atom_site_fract_x
_atom_site_fract_y
_atom_site_fract_z
Si Si1 0.036132 0.511351 0.820097
Si Si2 0.138712 0.909385 0.538524
Si Si3 0.312488 0.620967 0.642948
Si Si4 0.092865 0.492864 0.179838
O O1 0.062288 0.750000 0.750000
O O2 0.078289 0.471496 0.917926
O O3 0.971505 0.590040 0.860139
O O4 0.034020 0.250000 0.750000
O O5 0.149809 0.612993 0.587515
O O6 0.134489 0.917150 0.414287
O O7 0.190105 0.121176 0.566230
O O8 0.250000 0.500000 0.668806
O O9 0.339593 0.750000 0.750000
O O10 0.086209 0.750000 0.250000
O O11 0.119717 0.250000 0.250000
#
# Coordination Sequence:
#
# PCOD8215640 Si02
#       4
#     8   8   8   8
#     4  10  20  34  56  89 123 152 190 237 291 355
#     4  12  22  38  64  87 117 160 200 236 294 359
#     4  12  25  41  62  90 120 149 189 247 307 361
#     4  10  22  39  58  86 123 159 197 242 285 339
#
# _framework density 21.800923999999998
#
# number of rings (size 3 to 8) (size 9 to 14) (size 15 to 20)
#    0.000    1.000    0.000    9.000    0.000    0.000 
#    0.000   10.000    0.000   15.000    0.000    0.000 
#    0.000    0.000    0.000    0.000    0.000    0.000 
#
# Total GULP energy -396633.138237 kJ/mol
# GULP energy per Si atom -12394.785570 kJ/mol
# Density = 2.175130 g / cm^3
# Si number density = 21.800924 Si / 1000 Ang^3
#
#
#
# Elastic Constant Matrix: (Units=GPa)
#
#
# Indices 1 2 3 4 5 6 
#
# 1 42.2580 21.7434 42.3028 0.0000 0.0000 0.0000
# 2 21.7434 145.1980 50.9044 0.0000 0.0000 0.0000
# 3 42.3028 50.9044 130.4239 0.0000 0.0000 0.0000
# 4 0.0000 0.0000 0.0000 37.0140 0.0000 0.0000
# 5 0.0000 0.0000 0.0000 0.0000 26.5055 0.0000
# 6 0.0000 0.0000 0.0000 0.0000 0.0000 40.0815
#
#
#
# Elastic Compliance Matrix: (Units=1/GPa)
#
#
# Indices 1 2 3 4 5 6 
#
# 1 0.035312 -0.001474 -0.010878 0.000000 0.000000 0.000000
# 2 -0.001474 0.008040 -0.002660 0.000000 0.000000 0.000000
# 3 -0.010878 -0.002660 0.012234 0.000000 0.000000 0.000000
# 4 0.000000 0.000000 0.000000 0.027017 0.000000 0.000000
# 5 0.000000 0.000000 0.000000 0.000000 0.037728 0.000000
# 6 0.000000 0.000000 0.000000 0.000000 0.000000 0.024949
#
#
# Mechanical properties :
#
#
# Convention : Reuss Voigt Hill
#
# Bulk Modulus (GPa) = 39.12081 60.86457 49.99269
# Shear Modulus (GPa) = 27.19961 34.24881 30.72421
#
# Velocity S-wave (km/s) = 3.53602 3.96786 3.75815
# Velocity P-wave (km/s) = 5.88683 6.99792 6.46628
#
# Compressibility (1/GPa) = 0.02556184
#
# Stress axis : x y z
#
# Youngs Moduli (GPa) = 28.31865 124.37052 81.74074
#
# Poissons Ratio (x) = 0.18336 0.88918
# Poissons Ratio (y) = 0.04175 0.21743
# Poissons Ratio (z) = 0.30805 0.33083
#
# Static dielectric constant tensor:
#      x y z
#    x 3.781100 0.000000 0.000000 
#    y 0.000000 4.033990 0.000000 
#    z 0.000000 0.000000 3.674330 
# 
# 
# High freq. dielectric constant tensor:
#      x y z
#    x 1.833220 0.000000 0.000000 
#    y 0.000000 1.879000 0.000000 
#    z 0.000000 0.000000 1.841580 
# 
# From -- ./inp_files/21202.got.cif
#   From: 2010.06.25/outbox.cif.g09.slc.cpg/sg52_11_cif.got.tgz:21202.got - 2010.06.26 19:32:48.
