data_PCOD8215152
_publ_section_title
;
Structure prediction by ZEFSAII (Michael W. Deem and Ramdas Pophale) SiO2 
 PCOD8215152
Probable space group: P N N A
;
_chemical_formula_sum "Si O2"
_cell_formula_units_Z 44
_cell_length_a 9.146932
_cell_length_b 8.043795
_cell_length_c 31.330000
_cell_angle_alpha 90.000000
_cell_angle_beta 90.000000
_cell_angle_gamma 90.000000
_cell_volume 2305.137518
_symmetry_space_group_name_H-M "P N N A"
_symmetry_group_IT_number 52
_symmetry_cell_setting 'orthorhombic'
loop_
_space_group_symop_operation_xyz
x,y,z
1/2-x,-y,z
x,1/2-y,1/2-z
1/2-x,1/2+y,1/2-z
-x,-y,-z
1/2+x,y,-z
-x,1/2+y,1/2+z
1/2+x,1/2-y,1/2+z
loop_
_atom_site_type_symbol
_atom_site_label
_atom_site_fract_x
_atom_site_fract_y
_atom_site_fract_z
Si Si1 0.133053 0.633612 0.286364
Si Si2 0.581650 0.950132 0.559905
Si Si3 0.250000 0.000000 0.995962
Si Si4 0.995625 0.229688 0.016873
Si Si5 0.411314 0.434305 0.767887
Si Si6 0.088211 0.568706 0.157300
O O1 0.250000 0.500000 0.302475
O O2 0.208854 0.750000 0.250000
O O3 0.081135 0.742229 0.326214
O O4 0.990476 0.550698 0.266346
O O5 0.533879 0.788757 0.532297
O O6 0.537157 0.919411 0.608604
O O7 0.750000 0.000000 0.552883
O O8 0.486941 0.109332 0.546217
O O9 0.148343 0.128991 0.023008
O O10 0.363161 0.109197 0.968103
O O11 0.250000 0.500000 0.773857
O O12 0.413791 0.250000 0.750000
O O13 0.487824 0.446334 0.814391
O O14 0.250000 0.500000 0.160871
#
# Coordination Sequence:
#
# PCOD8215152 Si02
#       6
#     8   8   4   8   8   8
#     4  10  18  33  57  84 110 145 190 231 278 334
#     4  10  20  38  60  85 117 158 194 235 289 349
#     4  10  20  36  60  88 112 144 194 246 280 334
#     4  10  20  38  62  85 116 155 196 230 289 355
#     4  11  21  37  59  80 114 152 189 231 284 341
#     4  10  21  37  57  84 114 148 192 237 278 330
#
# _framework density 19.087797999999999
#
# number of rings (size 3 to 8) (size 9 to 14) (size 15 to 20)
#    0.000    1.818    1.818    5.455    0.000    0.000 
#    4.909    3.636    4.000    0.000    0.000    0.000 
#    0.000    0.000    0.000    0.000    0.000    0.000 
#
# Total GULP energy -545433.840598 kJ/mol
# GULP energy per Si atom -12396.223650 kJ/mol
# Density = 1.904435 g / cm^3
# Si number density = 19.087798 Si / 1000 Ang^3
#
#
#
# Elastic Constant Matrix: (Units=GPa)
#
#
# Indices 1 2 3 4 5 6 
#
# 1 101.2654 36.2992 42.1999 0.0000 0.0000 0.0000
# 2 36.2992 120.4258 58.4108 0.0000 0.0000 0.0000
# 3 42.1999 58.4108 142.1553 0.0000 0.0000 0.0000
# 4 0.0000 0.0000 0.0000 18.3403 0.0000 0.0000
# 5 0.0000 0.0000 0.0000 0.0000 18.6433 0.0000
# 6 0.0000 0.0000 0.0000 0.0000 0.0000 36.5521
#
#
#
# Elastic Compliance Matrix: (Units=1/GPa)
#
#
# Indices 1 2 3 4 5 6 
#
# 1 0.011763 -0.002313 -0.002542 0.000000 0.000000 0.000000
# 2 -0.002313 0.010826 -0.003762 0.000000 0.000000 0.000000
# 3 -0.002542 -0.003762 0.009335 0.000000 0.000000 0.000000
# 4 0.000000 0.000000 0.000000 0.054525 0.000000 0.000000
# 5 0.000000 0.000000 0.000000 0.000000 0.053639 0.000000
# 6 0.000000 0.000000 0.000000 0.000000 0.000000 0.027358
#
#
# Mechanical properties :
#
#
# Convention : Reuss Voigt Hill
#
# Bulk Modulus (GPa) = 68.06782 70.85181 69.45981
# Shear Modulus (GPa) = 26.37491 29.83627 28.10559
#
# Velocity S-wave (km/s) = 3.72125 3.95790 3.84140
# Velocity P-wave (km/s) = 7.36216 7.62143 7.49291
#
# Compressibility (1/GPa) = 0.01469123
#
# Stress axis : x y z
#
# Youngs Moduli (GPa) = 85.01015 92.37429 107.12767
#
# Poissons Ratio (x) = 0.21366 0.27228
# Poissons Ratio (y) = 0.19662 0.40296
# Poissons Ratio (z) = 0.21607 0.34747
#
# Static dielectric constant tensor:
#      x y z
#    x 3.543680 0.000000 0.000000 
#    y 0.000000 3.858810 0.000000 
#    z 0.000000 0.000000 3.344120 
# 
# 
# High freq. dielectric constant tensor:
#      x y z
#    x 1.747080 0.000000 0.000000 
#    y 0.000000 1.763250 0.000000 
#    z 0.000000 0.000000 1.706850 
# 
# From -- ./inp_files/44249.got.cif
#   From: 2010.06.25/outbox.cif.g09.slc.cpg/sg52_23_cif.got.tgz:44249.got - 2010.06.26 19:32:48.
