data_PCOD8215278
_publ_section_title
;
Structure prediction by ZEFSAII (Michael W. Deem and Ramdas Pophale) SiO2 
 PCOD8215278
Probable space group: P N N A
;
_chemical_formula_sum "Si O2"
_cell_formula_units_Z 40
_cell_length_a 19.572546
_cell_length_b 7.975765
_cell_length_c 11.493872
_cell_angle_alpha 90.000000
_cell_angle_beta 90.000000
_cell_angle_gamma 90.000000
_cell_volume 1794.262697
_symmetry_space_group_name_H-M "P N N A"
_symmetry_group_IT_number 52
_symmetry_cell_setting 'orthorhombic'
loop_
_space_group_symop_operation_xyz
x,y,z
1/2-x,-y,z
x,1/2-y,1/2-z
1/2-x,1/2+y,1/2-z
-x,-y,-z
1/2+x,y,-z
-x,1/2+y,1/2+z
1/2+x,1/2-y,1/2+z
loop_
_atom_site_type_symbol
_atom_site_label
_atom_site_fract_x
_atom_site_fract_y
_atom_site_fract_z
Si Si1 0.992345 0.902692 0.318306
Si Si2 0.793509 0.659221 0.509351
Si Si3 0.141086 0.982186 0.806869
Si Si4 0.673111 0.649893 0.073033
Si Si5 0.413259 0.880517 0.451754
O O1 0.030213 0.750000 0.250000
O O2 0.962148 0.831315 0.440246
O O3 0.934022 0.962947 0.230139
O O4 0.042106 0.062648 0.339986
O O5 0.750000 0.500000 0.563064
O O6 0.819297 0.623831 0.378684
O O7 0.743808 0.817586 0.494575
O O8 0.860195 0.727506 0.580772
O O9 0.134821 0.822515 0.892518
O O10 0.186343 0.950906 0.692136
O O11 0.625760 0.550229 0.985169
#
# Coordination Sequence:
#
# PCOD8215278 Si02
#       5
#     8   8   8   8   8
#     4  10  19  34  55  75 118 162 207 247 298 392
#     4  10  19  31  53  82 116 153 198 259 309 373
#     4   9  18  31  50  79 114 151 190 240 323 369
#     4   9  19  30  50  83 116 146 189 257 310 376
#     4  10  20  33  53  81 114 160 203 247 318 362
#
# _framework density 22.293278999999998
#
# number of rings (size 3 to 8) (size 9 to 14) (size 15 to 20)
#    0.000    2.400    2.000    0.600    0.000   17.600 
#    0.000    1.000   22.000    0.000    0.000    8.400 
#   30.000    0.000    0.000    0.000    0.000    0.000 
#
# Total GULP energy -495562.857598 kJ/mol
# GULP energy per Si atom -12389.071440 kJ/mol
# Density = 2.224254 g / cm^3
# Si number density = 22.293279 Si / 1000 Ang^3
#
#
#
# Elastic Constant Matrix: (Units=GPa)
#
#
# Indices 1 2 3 4 5 6 
#
# 1 86.1973 42.5902 22.7454 0.0000 0.0000 0.0000
# 2 42.5902 79.6022 22.3032 0.0000 0.0000 0.0000
# 3 22.7454 22.3032 30.8808 0.0000 0.0000 0.0000
# 4 0.0000 0.0000 0.0000 25.3700 0.0000 0.0000
# 5 0.0000 0.0000 0.0000 0.0000 17.1040 0.0000
# 6 0.0000 0.0000 0.0000 0.0000 0.0000 52.5731
#
#
#
# Elastic Compliance Matrix: (Units=1/GPa)
#
#
# Indices 1 2 3 4 5 6 
#
# 1 0.017046 -0.007024 -0.007483 0.000000 0.000000 0.000000
# 2 -0.007024 0.018644 -0.008292 0.000000 0.000000 0.000000
# 3 -0.007483 -0.008292 0.043883 0.000000 0.000000 0.000000
# 4 0.000000 0.000000 0.000000 0.039417 0.000000 0.000000
# 5 0.000000 0.000000 0.000000 0.000000 0.058466 0.000000
# 6 0.000000 0.000000 0.000000 0.000000 0.000000 0.019021
#
#
# Mechanical properties :
#
#
# Convention : Reuss Voigt Hill
#
# Bulk Modulus (GPa) = 29.43241 41.32865 35.38053
# Shear Modulus (GPa) = 19.73181 26.27885 23.00533
#
# Velocity S-wave (km/s) = 2.97829 3.43706 3.21587
# Velocity P-wave (km/s) = 5.00580 5.85918 5.44922
#
# Compressibility (1/GPa) = 0.03397615
#
# Stress axis : x y z
#
# Youngs Moduli (GPa) = 58.66376 53.63736 22.78811
#
# Poissons Ratio (x) = 0.37674 0.17052
# Poissons Ratio (y) = 0.41205 0.18895
# Poissons Ratio (z) = 0.43896 0.44474
#
# Static dielectric constant tensor:
#      x y z
#    x 4.147450 0.000000 0.000000 
#    y 0.000000 4.289070 0.000000 
#    z 0.000000 0.000000 3.424550 
# 
# 
# High freq. dielectric constant tensor:
#      x y z
#    x 1.876310 0.000000 0.000000 
#    y 0.000000 1.885700 0.000000 
#    z 0.000000 0.000000 1.812880 
# 
# From -- ./inp_files/21434.got.cif
#   From: 2010.06.25/outbox.cif.g09.slc.cpg/sg52_11_cif.got.tgz:21434.got - 2010.06.26 19:32:48.
