data_PCOD8215013
_publ_section_title
;
Structure prediction by ZEFSAII (Michael W. Deem and Ramdas Pophale) SiO2 
 PCOD8215013
Probable space group: P N N A
;
_chemical_formula_sum "Si O2"
_cell_formula_units_Z 48
_cell_length_a 14.814256
_cell_length_b 10.186709
_cell_length_c 15.808351
_cell_angle_alpha 90.000000
_cell_angle_beta 90.000000
_cell_angle_gamma 90.000000
_cell_volume 2385.614773
_symmetry_space_group_name_H-M "P N N A"
_symmetry_group_IT_number 52
_symmetry_cell_setting 'orthorhombic'
loop_
_space_group_symop_operation_xyz
x,y,z
1/2-x,-y,z
x,1/2-y,1/2-z
1/2-x,1/2+y,1/2-z
-x,-y,-z
1/2+x,y,-z
-x,1/2+y,1/2+z
1/2+x,1/2-y,1/2+z
loop_
_atom_site_type_symbol
_atom_site_label
_atom_site_fract_x
_atom_site_fract_y
_atom_site_fract_z
Si Si1 0.995388 0.567512 0.859211
Si Si2 0.038650 0.686439 0.026343
Si Si3 0.622138 0.212911 0.114734
Si Si4 0.349699 0.546709 0.764761
Si Si5 0.254572 0.349134 0.010241
Si Si6 0.307743 0.876853 0.302570
O O1 0.981860 0.440145 0.917097
O O2 0.913458 0.590999 0.794180
O O3 0.082068 0.565284 0.797419
O O4 0.007826 0.681374 0.928503
O O5 0.145770 0.709326 0.025301
O O6 0.976472 0.799269 0.069411
O O7 0.622843 0.324876 0.184668
O O8 0.640601 0.075883 0.163849
O O9 0.701283 0.247259 0.048490
O O10 0.250000 0.500000 0.786366
O O11 0.250000 0.500000 0.973219
O O12 0.205475 0.351220 0.099127
O O13 0.278599 0.750000 0.250000
O O14 0.250000 0.000000 0.268838
#
# Coordination Sequence:
#
# PCOD8215013 Si02
#       6
#     8   8   8   8   8   8
#     4  10  18  35  58  85 116 146 199 256 298 360
#     4  10  17  31  61  86 108 147 202 254 300 339
#     4  10  20  34  57  88 118 148 202 258 299 364
#     4  10  21  36  54  86 122 156 192 246 319 369
#     4  11  18  35  60  85 111 151 201 250 295 355
#     4  11  23  40  61  90 122 157 205 255 304 361
#
# _framework density 20.120601000000001
#
# number of rings (size 3 to 8) (size 9 to 14) (size 15 to 20)
#    0.000    1.667    5.000    3.500    0.000    1.333 
#    6.000    0.833    0.000    2.000    0.000    0.000 
#    0.000    0.000    0.000    0.000    0.000    0.000 
#
# Total GULP energy -594787.881256 kJ/mol
# GULP energy per Si atom -12391.414193 kJ/mol
# Density = 2.007481 g / cm^3
# Si number density = 20.120601 Si / 1000 Ang^3
#
#
#
# Elastic Constant Matrix: (Units=GPa)
#
#
# Indices 1 2 3 4 5 6 
#
# 1 181.7240 27.7511 44.4941 0.0000 0.0000 0.0000
# 2 27.7511 45.5495 43.4375 0.0000 0.0000 0.0000
# 3 44.4941 43.4375 81.8175 0.0000 0.0000 0.0000
# 4 0.0000 0.0000 0.0000 20.8275 0.0000 0.0000
# 5 0.0000 0.0000 0.0000 0.0000 30.5175 0.0000
# 6 0.0000 0.0000 0.0000 0.0000 0.0000 10.4421
#
#
#
# Elastic Compliance Matrix: (Units=1/GPa)
#
#
# Indices 1 2 3 4 5 6 
#
# 1 0.006379 -0.001171 -0.002847 0.000000 0.000000 0.000000
# 2 -0.001171 0.044683 -0.023086 0.000000 0.000000 0.000000
# 3 -0.002847 -0.023086 0.026027 0.000000 0.000000 0.000000
# 4 0.000000 0.000000 0.000000 0.048014 0.000000 0.000000
# 5 0.000000 0.000000 0.000000 0.000000 0.032768 0.000000
# 6 0.000000 0.000000 0.000000 0.000000 0.000000 0.095766
#
#
# Mechanical properties :
#
#
# Convention : Reuss Voigt Hill
#
# Bulk Modulus (GPa) = 43.70462 60.05072 51.87767
# Shear Modulus (GPa) = 15.84932 25.25131 20.55031
#
# Velocity S-wave (km/s) = 2.80967 3.54644 3.19933
# Velocity P-wave (km/s) = 5.68280 6.83226 6.28387
#
# Compressibility (1/GPa) = 0.02288088
#
# Stress axis : x y z
#
# Youngs Moduli (GPa) = 156.76916 22.37995 38.42171
#
# Poissons Ratio (x) = 0.02621 0.10939
# Poissons Ratio (y) = 0.18360 0.88699
# Poissons Ratio (z) = 0.44634 0.51665
#
# Static dielectric constant tensor:
#      x y z
#    x 3.891170 0.000000 0.000000 
#    y 0.000000 3.417960 0.000000 
#    z 0.000000 0.000000 3.891050 
# 
# 
# High freq. dielectric constant tensor:
#      x y z
#    x 1.805410 0.000000 0.000000 
#    y 0.000000 1.720400 0.000000 
#    z 0.000000 0.000000 1.787080 
# 
# From -- ./inp_files/27193.got.cif
#   From: 2010.06.25/outbox.cif.g09.slc.cpg/sg52_14_cif.got.tgz:27193.got - 2010.06.26 19:32:48.
