data_PCOD8215761
_publ_section_title
;
Structure prediction by ZEFSAII (Michael W. Deem and Ramdas Pophale) SiO2 
 PCOD8215761
Probable space group: P N N A
;
_chemical_formula_sum "Si O2"
_cell_formula_units_Z 52
_cell_length_a 25.355106
_cell_length_b 8.978725
_cell_length_c 11.630067
_cell_angle_alpha 90.000000
_cell_angle_beta 90.000000
_cell_angle_gamma 90.000000
_cell_volume 2647.660629
_symmetry_space_group_name_H-M "P N N A"
_symmetry_group_IT_number 52
_symmetry_cell_setting 'orthorhombic'
loop_
_space_group_symop_operation_xyz
x,y,z
1/2-x,-y,z
x,1/2-y,1/2-z
1/2-x,1/2+y,1/2-z
-x,-y,-z
1/2+x,y,-z
-x,1/2+y,1/2+z
1/2+x,1/2-y,1/2+z
loop_
_atom_site_type_symbol
_atom_site_label
_atom_site_fract_x
_atom_site_fract_y
_atom_site_fract_z
Si Si1 0.439858 0.250000 0.750000
Si Si2 0.243217 0.674906 0.634526
Si Si3 0.496119 0.829832 0.031640
Si Si4 0.144175 0.655311 0.913481
Si Si5 0.297575 0.901691 0.482104
Si Si6 0.925187 0.330105 0.870967
Si Si7 0.595034 0.163861 0.633592
O O1 0.476292 0.172088 0.843775
O O2 0.402913 0.365610 0.821246
O O3 0.250000 0.500000 0.635218
O O4 0.265491 0.750000 0.750000
O O5 0.180817 0.706956 0.623475
O O6 0.275032 0.746608 0.528919
O O7 0.436649 0.763703 0.039893
O O8 0.522941 0.735274 0.930579
O O9 0.500000 0.000000 0.000000
O O10 0.177916 0.502645 0.914810
O O11 0.123695 0.692472 0.042009
O O12 0.343523 0.859950 0.394039
O O13 0.250000 0.000000 0.424620
O O14 0.912840 0.250000 0.750000
O O15 0.934445 0.505877 0.851329
O O16 0.592170 0.250000 0.750000
#
# Coordination Sequence:
#
# PCOD8215761 Si02
#       7
#     4   8   8   8   8   8   8
#     4  10  20  36  64  90 124 164 204 256 318 368
#     4  11  21  35  59  87 122 157 204 264 318 378
#     4  11  23  40  62  93 131 167 217 263 316 386
#     4   9  19  38  62  86 124 164 206 257 315 378
#     4   9  21  41  59  88 121 158 208 263 321 378
#     4  10  22  39  63  91 125 170 212 261 316 377
#     4  11  22  42  65  88 128 169 215 267 318 379
#
# _framework density 19.639979
#
# number of rings (size 3 to 8) (size 9 to 14) (size 15 to 20)
#    0.000    1.846    1.538    2.769    0.000    3.692 
#    0.000    7.692    0.000    0.000    0.000    0.000 
#    0.000    0.000    0.000    0.000    0.000    0.000 
#
# Total GULP energy -644542.222666 kJ/mol
# GULP energy per Si atom -12395.042744 kJ/mol
# Density = 1.959528 g / cm^3
# Si number density = 19.639979 Si / 1000 Ang^3
#
#
#
# Elastic Constant Matrix: (Units=GPa)
#
#
# Indices 1 2 3 4 5 6 
#
# 1 113.0246 50.2708 36.8437 0.0000 0.0000 0.0000
# 2 50.2708 162.1809 50.3416 0.0000 0.0000 0.0000
# 3 36.8437 50.3416 102.4205 0.0000 0.0000 0.0000
# 4 0.0000 0.0000 0.0000 29.4232 0.0000 0.0000
# 5 0.0000 0.0000 0.0000 0.0000 17.9645 0.0000
# 6 0.0000 0.0000 0.0000 0.0000 0.0000 26.8566
#
#
#
# Elastic Compliance Matrix: (Units=1/GPa)
#
#
# Indices 1 2 3 4 5 6 
#
# 1 0.010841 -0.002537 -0.002653 0.000000 0.000000 0.000000
# 2 -0.002537 0.007870 -0.002956 0.000000 0.000000 0.000000
# 3 -0.002653 -0.002956 0.012171 0.000000 0.000000 0.000000
# 4 0.000000 0.000000 0.000000 0.033987 0.000000 0.000000
# 5 0.000000 0.000000 0.000000 0.000000 0.055665 0.000000
# 6 0.000000 0.000000 0.000000 0.000000 0.000000 0.037235
#
#
# Mechanical properties :
#
#
# Convention : Reuss Voigt Hill
#
# Bulk Modulus (GPa) = 68.53676 72.50426 70.52051
# Shear Modulus (GPa) = 27.94515 30.86019 29.40267
#
# Velocity S-wave (km/s) = 3.77619 3.96826 3.87341
# Velocity P-wave (km/s) = 7.34746 7.61531 7.48258
#
# Compressibility (1/GPa) = 0.01459071
#
# Stress axis : x y z
#
# Youngs Moduli (GPa) = 92.24478 127.06970 82.16476
#
# Poissons Ratio (x) = 0.32235 0.21797
# Poissons Ratio (y) = 0.23401 0.24284
# Poissons Ratio (z) = 0.24471 0.37556
#
# Static dielectric constant tensor:
#      x y z
#    x 3.996760 0.000000 0.000000 
#    y 0.000000 4.526650 0.000000 
#    z 0.000000 0.000000 4.048320 
# 
# 
# High freq. dielectric constant tensor:
#      x y z
#    x 1.774580 0.000000 0.000000 
#    y 0.000000 1.762050 0.000000 
#    z 0.000000 0.000000 1.758890 
# 
# From -- ./inp_files/22835.got.cif
#   From: 2010.06.25/outbox.cif.g09.slc.cpg/sg52_12_cif.got.tgz:22835.got - 2010.06.26 19:32:48.
