data_PCOD8215026
_publ_section_title
;
Structure prediction by ZEFSAII (Michael W. Deem and Ramdas Pophale) SiO2 
 PCOD8215026
Probable space group: P N N A
;
_chemical_formula_sum "Si O2"
_cell_formula_units_Z 64
_cell_length_a 11.837367
_cell_length_b 19.712022
_cell_length_c 14.736127
_cell_angle_alpha 90.000000
_cell_angle_beta 90.000000
_cell_angle_gamma 90.000000
_cell_volume 3438.504867
_symmetry_space_group_name_H-M "P N N A"
_symmetry_group_IT_number 52
_symmetry_cell_setting 'orthorhombic'
loop_
_space_group_symop_operation_xyz
x,y,z
1/2-x,-y,z
x,1/2-y,1/2-z
1/2-x,1/2+y,1/2-z
-x,-y,-z
1/2+x,y,-z
-x,1/2+y,1/2+z
1/2+x,1/2-y,1/2+z
loop_
_atom_site_type_symbol
_atom_site_label
_atom_site_fract_x
_atom_site_fract_y
_atom_site_fract_z
Si Si1 0.782320 0.724960 0.996281
Si Si2 0.642955 0.784879 0.154300
Si Si3 0.183701 0.811134 0.314602
Si Si4 0.732467 0.924642 0.822393
Si Si5 0.428092 0.699367 0.855494
Si Si6 0.482046 0.069772 0.053568
Si Si7 0.853036 0.646028 0.320543
Si Si8 0.922289 0.839839 0.909226
O O1 0.753646 0.681935 0.906866
O O2 0.828698 0.796973 0.961555
O O3 0.678691 0.738256 0.067092
O O4 0.880479 0.680189 0.044977
O O5 0.672830 0.750000 0.250000
O O6 0.718647 0.855075 0.155418
O O7 0.507925 0.797968 0.154890
O O8 0.228811 0.750000 0.250000
O O9 0.185578 0.880975 0.260618
O O10 0.060474 0.794941 0.349594
O O11 0.642106 0.926119 0.903769
O O12 0.854124 0.897008 0.854190
O O13 0.750000 0.000000 0.784850
O O14 0.379379 0.642334 0.786850
O O15 0.388428 0.777067 0.844915
O O16 0.580011 0.085470 0.128521
O O17 0.489700 0.128943 0.980424
O O18 0.500000 0.000000 0.000000
#
# Coordination Sequence:
#
# PCOD8215026 Si02
#       8
#     8   8   8   8   8   8   8   8
#     4  11  22  36  60  95 126 162 207 267 323 376
#     4  11  22  37  60  92 128 158 197 266 327 379
#     4  12  22  37  62  92 126 164 217 267 319 383
#     4  12  26  43  59  89 130 171 211 259 327 390
#     4  10  17  34  60  85 120 162 209 252 320 379
#     4  12  23  39  62  87 123 171 215 252 312 394
#     4  10  18  36  57  88 124 161 203 257 310 377
#     4  12  24  35  56  90 133 162 202 258 315 381
#
# _framework density 18.612739999999999
#
# number of rings (size 3 to 8) (size 9 to 14) (size 15 to 20)
#    0.000    0.750   10.000    1.500    1.750    0.000 
#    0.000    0.000    0.000    0.750    3.250    0.000 
#    0.000    0.000    0.000    0.000    0.000    0.000 
#
# Total GULP energy -793008.665520 kJ/mol
# GULP energy per Si atom -12390.760399 kJ/mol
# Density = 1.857038 g / cm^3
# Si number density = 18.612740 Si / 1000 Ang^3
#
#
#
# Elastic Constant Matrix: (Units=GPa)
#
#
# Indices 1 2 3 4 5 6 
#
# 1 78.1678 23.3629 25.9246 0.0000 0.0000 0.0000
# 2 23.3629 72.5691 37.4254 0.0000 0.0000 0.0000
# 3 25.9246 37.4254 114.4104 0.0000 0.0000 0.0000
# 4 0.0000 0.0000 0.0000 32.2355 0.0000 0.0000
# 5 0.0000 0.0000 0.0000 0.0000 37.8766 0.0000
# 6 0.0000 0.0000 0.0000 0.0000 0.0000 19.9481
#
#
#
# Elastic Compliance Matrix: (Units=1/GPa)
#
#
# Indices 1 2 3 4 5 6 
#
# 1 0.014573 -0.003595 -0.002126 0.000000 0.000000 0.000000
# 2 -0.003595 0.017463 -0.004898 0.000000 0.000000 0.000000
# 3 -0.002126 -0.004898 0.010824 0.000000 0.000000 0.000000
# 4 0.000000 0.000000 0.000000 0.031022 0.000000 0.000000
# 5 0.000000 0.000000 0.000000 0.000000 0.026402 0.000000
# 6 0.000000 0.000000 0.000000 0.000000 0.000000 0.050130
#
#
# Mechanical properties :
#
#
# Convention : Reuss Voigt Hill
#
# Bulk Modulus (GPa) = 46.24857 48.73034 47.48946
# Shear Modulus (GPa) = 27.95497 29.90767 28.93132
#
# Velocity S-wave (km/s) = 3.87967 4.01289 3.94684
# Velocity P-wave (km/s) = 6.70604 6.90717 6.80735
#
# Compressibility (1/GPa) = 0.02162229
#
# Stress axis : x y z
#
# Youngs Moduli (GPa) = 68.62200 57.26290 92.38389
#
# Poissons Ratio (x) = 0.20586 0.19641
# Poissons Ratio (y) = 0.24670 0.45249
# Poissons Ratio (z) = 0.14589 0.28047
#
# Static dielectric constant tensor:
#      x y z
#    x 3.827650 0.000000 0.000000 
#    y 0.000000 3.056510 0.000000 
#    z 0.000000 0.000000 3.966040 
# 
# 
# High freq. dielectric constant tensor:
#      x y z
#    x 1.736780 0.000000 0.000000 
#    y 0.000000 1.667580 0.000000 
#    z 0.000000 0.000000 1.732320 
# 
# From -- ./inp_files/26359.got.cif
#   From: 2010.06.25/outbox.cif.g09.slc.cpg/sg52_14_cif.got.tgz:26359.got - 2010.06.26 19:32:48.
