data_PCOD8215676
_publ_section_title
;
Structure prediction by ZEFSAII (Michael W. Deem and Ramdas Pophale) SiO2 
 PCOD8215676
Probable space group: P N N A
;
_chemical_formula_sum "Si O2"
_cell_formula_units_Z 64
_cell_length_a 8.960642
_cell_length_b 26.353810
_cell_length_c 14.331386
_cell_angle_alpha 90.000000
_cell_angle_beta 90.000000
_cell_angle_gamma 90.000000
_cell_volume 3384.314623
_symmetry_space_group_name_H-M "P N N A"
_symmetry_group_IT_number 52
_symmetry_cell_setting 'orthorhombic'
loop_
_space_group_symop_operation_xyz
x,y,z
1/2-x,-y,z
x,1/2-y,1/2-z
1/2-x,1/2+y,1/2-z
-x,-y,-z
1/2+x,y,-z
-x,1/2+y,1/2+z
1/2+x,1/2-y,1/2+z
loop_
_atom_site_type_symbol
_atom_site_label
_atom_site_fract_x
_atom_site_fract_y
_atom_site_fract_z
Si Si1 0.276299 0.276681 0.095049
Si Si2 0.876652 0.038913 0.597376
Si Si3 0.888619 0.035482 0.391470
Si Si4 0.275116 0.130110 0.272575
Si Si5 0.779573 0.171258 0.095675
Si Si6 0.923072 0.170194 0.901206
Si Si7 0.570732 0.630233 0.230718
Si Si8 0.072442 0.722223 0.907436
O O1 0.297312 0.316332 0.177277
O O2 0.358341 0.225269 0.125630
O O3 0.101902 0.265471 0.075652
O O4 0.353805 0.299085 0.002214
O O5 0.937442 0.056682 0.494847
O O6 0.830422 0.086162 0.659532
O O7 0.750000 0.000000 0.572198
O O8 0.992015 0.003381 0.652865
O O9 0.862047 0.083445 0.326035
O O10 0.750000 0.000000 0.398288
O O11 0.373523 0.130476 0.178660
O O12 0.102890 0.121291 0.247034
O O13 0.601081 0.171927 0.090106
O O14 0.835024 0.132503 0.174495
O O15 0.842176 0.226718 0.121813
O O16 0.849277 0.152415 0.998170
O O17 0.595148 0.681684 0.173422
#
# Coordination Sequence:
#
# PCOD8215676 Si02
#       8
#     8   8   8   8   8   8   8   8
#     4  10  20  35  55  84 119 153 187 229 277 335
#     4  10  20  40  60  85 118 155 183 225 284 332
#     4  10  22  38  60  87 120 149 187 231 277 338
#     4  11  22  36  59  84 114 152 193 229 280 338
#     4  11  23  39  58  81 113 149 190 236 283 334
#     4  11  23  39  58  82 112 150 189 236 283 334
#     4  11  22  37  57  85 115 152 190 233 280 333
#     4  10  20  35  56  83 119 154 186 229 279 332
#
# _framework density 18.910769999999999
#
# number of rings (size 3 to 8) (size 9 to 14) (size 15 to 20)
#    0.000    1.500    1.250    6.000    1.750    5.000 
#    0.000    0.000    0.000    1.500    0.000    0.000 
#    0.000    0.000    0.000    0.000    0.000    0.000 
#
# Total GULP energy -793367.411893 kJ/mol
# GULP energy per Si atom -12396.365811 kJ/mol
# Density = 1.886773 g / cm^3
# Si number density = 18.910770 Si / 1000 Ang^3
#
#
#
# Elastic Constant Matrix: (Units=GPa)
#
#
# Indices 1 2 3 4 5 6 
#
# 1 132.4194 40.3337 56.8540 0.0000 0.0000 0.0000
# 2 40.3337 74.5360 61.1648 0.0000 0.0000 0.0000
# 3 56.8540 61.1648 124.2185 0.0000 0.0000 0.0000
# 4 0.0000 0.0000 0.0000 33.5043 0.0000 0.0000
# 5 0.0000 0.0000 0.0000 0.0000 11.0200 0.0000
# 6 0.0000 0.0000 0.0000 0.0000 0.0000 28.1213
#
#
#
# Elastic Compliance Matrix: (Units=1/GPa)
#
#
# Indices 1 2 3 4 5 6 
#
# 1 0.009712 -0.002698 -0.003117 0.000000 0.000000 0.000000
# 2 -0.002698 0.023262 -0.010220 0.000000 0.000000 0.000000
# 3 -0.003117 -0.010220 0.014509 0.000000 0.000000 0.000000
# 4 0.000000 0.000000 0.000000 0.029847 0.000000 0.000000
# 5 0.000000 0.000000 0.000000 0.000000 0.090744 0.000000
# 6 0.000000 0.000000 0.000000 0.000000 0.000000 0.035560
#
#
# Mechanical properties :
#
#
# Convention : Reuss Voigt Hill
#
# Bulk Modulus (GPa) = 64.87173 71.98654 68.42914
# Shear Modulus (GPa) = 20.76066 26.05056 23.40561
#
# Velocity S-wave (km/s) = 3.31693 3.71556 3.52189
# Velocity P-wave (km/s) = 7.00343 7.52039 7.26651
#
# Compressibility (1/GPa) = 0.01541504
#
# Stress axis : x y z
#
# Youngs Moduli (GPa) = 102.97011 42.98772 68.92345
#
# Poissons Ratio (x) = 0.11597 0.21480
# Poissons Ratio (y) = 0.27779 0.70437
# Poissons Ratio (z) = 0.32091 0.43932
#
# Static dielectric constant tensor:
#      x y z
#    x 3.447670 0.000000 0.000000 
#    y 0.000000 2.976820 0.000000 
#    z 0.000000 0.000000 3.545910 
# 
# 
# High freq. dielectric constant tensor:
#      x y z
#    x 1.751140 0.000000 0.000000 
#    y 0.000000 1.713390 0.000000 
#    z 0.000000 0.000000 1.734380 
# 
# From -- ./inp_files/25116.got.cif
#   From: 2010.06.25/outbox.cif.g09.slc.cpg/sg52_13_cif.got.tgz:25116.got - 2010.06.26 19:32:48.
