data_PCOD8215853
_publ_section_title
;
Structure prediction by ZEFSAII (Michael W. Deem and Ramdas Pophale) SiO2 
 PCOD8215853
Probable space group: P N N A
;
_chemical_formula_sum "Si O2"
_cell_formula_units_Z 36
_cell_length_a 16.205006
_cell_length_b 20.951955
_cell_length_c 4.901345
_cell_angle_alpha 90.000000
_cell_angle_beta 90.000000
_cell_angle_gamma 90.000000
_cell_volume 1664.136790
_symmetry_space_group_name_H-M "P N N A"
_symmetry_group_IT_number 52
_symmetry_cell_setting 'orthorhombic'
loop_
_space_group_symop_operation_xyz
x,y,z
1/2-x,-y,z
x,1/2-y,1/2-z
1/2-x,1/2+y,1/2-z
-x,-y,-z
1/2+x,y,-z
-x,1/2+y,1/2+z
1/2+x,1/2-y,1/2+z
loop_
_atom_site_type_symbol
_atom_site_label
_atom_site_fract_x
_atom_site_fract_y
_atom_site_fract_z
Si Si1 0.017656 0.322555 0.148637
Si Si2 0.763306 0.428051 0.532101
Si Si3 0.918553 0.355124 0.626314
Si Si4 0.697988 0.142748 0.483117
Si Si5 0.804367 0.250000 0.750000
O O1 0.019219 0.250000 0.250000
O O2 0.996377 0.362138 0.423020
O O3 0.101659 0.341551 0.001597
O O4 0.946147 0.341766 0.936225
O O5 0.750000 0.500000 0.432431
O O6 0.861169 0.417456 0.587417
O O7 0.723226 0.378515 0.319050
O O8 0.716748 0.416026 0.816083
O O9 0.860681 0.294189 0.552758
O O10 0.748090 0.206132 0.557759
#
# Coordination Sequence:
#
# PCOD8215853 Si02
#       5
#     8   8   8   8   4
#     4  12  22  41  61 103 136 164 201 270 346 399
#     4  11  25  46  66  92 129 182 232 269 308 382
#     4  11  23  38  66  91 133 169 215 262 329 391
#     4  11  24  40  68  94 134 168 219 271 333 385
#     4  10  20  38  60  98 122 172 206 266 328 394
#
# _framework density 21.632838
#
# number of rings (size 3 to 8) (size 9 to 14) (size 15 to 20)
#    0.000    0.889    3.333    4.667    0.000    2.667 
#    0.000    6.667    0.000    0.000    0.000    0.000 
#    0.000    0.000    0.000    0.000    0.000    0.000 
#
# Total GULP energy -446267.539082 kJ/mol
# GULP energy per Si atom -12396.320530 kJ/mol
# Density = 2.158360 g / cm^3
# Si number density = 21.632838 Si / 1000 Ang^3
#
#
#
# Elastic Constant Matrix: (Units=GPa)
#
#
# Indices 1 2 3 4 5 6 
#
# 1 101.3760 12.7488 21.7300 0.0000 0.0000 0.0000
# 2 12.7488 69.1387 2.0624 0.0000 0.0000 0.0000
# 3 21.7300 2.0624 88.4149 0.0000 0.0000 0.0000
# 4 0.0000 0.0000 0.0000 27.7729 0.0000 0.0000
# 5 0.0000 0.0000 0.0000 0.0000 35.9578 0.0000
# 6 0.0000 0.0000 0.0000 0.0000 0.0000 16.2508
#
#
#
# Elastic Compliance Matrix: (Units=1/GPa)
#
#
# Indices 1 2 3 4 5 6 
#
# 1 0.010653 -0.001888 -0.002574 0.000000 0.000000 0.000000
# 2 -0.001888 0.014808 0.000119 0.000000 0.000000 0.000000
# 3 -0.002574 0.000119 0.011940 0.000000 0.000000 0.000000
# 4 0.000000 0.000000 0.000000 0.036006 0.000000 0.000000
# 5 0.000000 0.000000 0.000000 0.000000 0.027810 0.000000
# 6 0.000000 0.000000 0.000000 0.000000 0.000000 0.061535
#
#
# Mechanical properties :
#
#
# Convention : Reuss Voigt Hill
#
# Bulk Modulus (GPa) = 34.82498 36.89025 35.85762
# Shear Modulus (GPa) = 27.62240 30.82220 29.22230
#
# Velocity S-wave (km/s) = 3.57721 3.77873 3.67935
# Velocity P-wave (km/s) = 5.76152 6.01068 5.88742
#
# Compressibility (1/GPa) = 0.02871502
#
# Stress axis : x y z
#
# Youngs Moduli (GPa) = 93.86622 67.53011 83.75042
#
# Poissons Ratio (x) = 0.12747 0.21560
# Poissons Ratio (y) = 0.17719 -0.00993
# Poissons Ratio (z) = 0.24164 -0.00800
#
# Static dielectric constant tensor:
#      x y z
#    x 4.066570 0.000000 0.000000 
#    y 0.000000 3.598380 0.000000 
#    z 0.000000 0.000000 3.850760 
# 
# 
# High freq. dielectric constant tensor:
#      x y z
#    x 1.860430 0.000000 0.000000 
#    y 0.000000 1.820030 0.000000 
#    z 0.000000 0.000000 1.860650 
# 
# From -- ./inp_files/2145.got.cif
#   From: 2010.06.25/outbox.cif.g09.slc.cpg/sg52_2_cif.got.tgz:2145.got - 2010.06.26 19:32:48.
