data_PCOD8215840
_publ_section_title
;
Structure prediction by ZEFSAII (Michael W. Deem and Ramdas Pophale) SiO2 
 PCOD8215840
Probable space group: P N N A
;
_chemical_formula_sum "Si O2"
_cell_formula_units_Z 52
_cell_length_a 19.470089
_cell_length_b 5.778271
_cell_length_c 22.140408
_cell_angle_alpha 90.000000
_cell_angle_beta 90.000000
_cell_angle_gamma 90.000000
_cell_volume 2490.872298
_symmetry_space_group_name_H-M "P N N A"
_symmetry_group_IT_number 52
_symmetry_cell_setting 'orthorhombic'
loop_
_space_group_symop_operation_xyz
x,y,z
1/2-x,-y,z
x,1/2-y,1/2-z
1/2-x,1/2+y,1/2-z
-x,-y,-z
1/2+x,y,-z
-x,1/2+y,1/2+z
1/2+x,1/2-y,1/2+z
loop_
_atom_site_type_symbol
_atom_site_label
_atom_site_fract_x
_atom_site_fract_y
_atom_site_fract_z
Si Si1 0.547802 0.750000 0.250000
Si Si2 0.536365 0.860752 0.810235
Si Si3 0.588270 0.049284 0.351922
Si Si4 0.069820 0.809346 0.948347
Si Si5 0.916232 0.519356 0.570386
Si Si6 0.715752 0.249812 0.535557
Si Si7 0.186853 0.363777 0.597158
O O1 0.498927 0.598130 0.291865
O O2 0.598246 0.623864 0.203588
O O3 0.571218 0.750000 0.750000
O O4 0.479427 0.693955 0.837948
O O5 0.592472 0.909343 0.862610
O O6 0.660482 0.182595 0.353338
O O7 0.579573 0.942617 0.419315
O O8 0.991490 0.877006 0.937734
O O9 0.119453 0.984097 0.913969
O O10 0.092266 0.817874 0.019145
O O11 0.861475 0.728130 0.562136
O O12 0.750000 0.500000 0.555804
O O13 0.715245 0.240720 0.463180
O O14 0.750000 0.000000 0.557239
O O15 0.250000 0.500000 0.627077
#
# Coordination Sequence:
#
# PCOD8215840 Si02
#       7
#     4   8   8   8   8   8   8
#     4  10  20  38  58  90 134 162 220 272 324 394
#     4  10  21  38  60  98 128 170 215 270 329 393
#     4  11  20  35  63  93 127 171 217 275 328 391
#     4  10  21  37  57 102 127 159 212 275 336 388
#     4  10  20  40  62  96 139 160 218 273 332 408
#     4  10  24  42  61  96 141 179 214 268 350 420
#     4  10  22  37  58  90 130 175 218 263 338 403
#
# _framework density 20.87622
#
# number of rings (size 3 to 8) (size 9 to 14) (size 15 to 20)
#    0.000    1.846    3.077    0.000    6.462    1.846 
#    0.000    0.000    0.000    0.000   92.000    0.000 
#    0.000    0.000    0.000    0.000    0.000    0.000 
#
# Total GULP energy -644199.018208 kJ/mol
# GULP energy per Si atom -12388.442658 kJ/mol
# Density = 2.082870 g / cm^3
# Si number density = 20.876220 Si / 1000 Ang^3
#
#
#
# Elastic Constant Matrix: (Units=GPa)
#
#
# Indices 1 2 3 4 5 6 
#
# 1 95.7901 43.1561 24.8353 0.0000 0.0000 0.0000
# 2 43.1561 115.7699 53.0526 0.0000 0.0000 0.0000
# 3 24.8353 53.0526 125.0770 0.0000 0.0000 0.0000
# 4 0.0000 0.0000 0.0000 34.2141 0.0000 0.0000
# 5 0.0000 0.0000 0.0000 0.0000 32.5886 0.0000
# 6 0.0000 0.0000 0.0000 0.0000 0.0000 16.2132
#
#
#
# Elastic Compliance Matrix: (Units=1/GPa)
#
#
# Indices 1 2 3 4 5 6 
#
# 1 0.012587 -0.004402 -0.000632 0.000000 0.000000 0.000000
# 2 -0.004402 0.012262 -0.004327 0.000000 0.000000 0.000000
# 3 -0.000632 -0.004327 0.009956 0.000000 0.000000 0.000000
# 4 0.000000 0.000000 0.000000 0.029228 0.000000 0.000000
# 5 0.000000 0.000000 0.000000 0.000000 0.030686 0.000000
# 6 0.000000 0.000000 0.000000 0.000000 0.000000 0.061678
#
#
# Mechanical properties :
#
#
# Convention : Reuss Voigt Hill
#
# Bulk Modulus (GPa) = 62.18121 64.30279 63.24200
# Shear Modulus (GPa) = 27.70409 30.97603 29.34006
#
# Velocity S-wave (km/s) = 3.64684 3.85618 3.75297
# Velocity P-wave (km/s) = 6.89804 7.12009 7.00994
#
# Compressibility (1/GPa) = 0.01608203
#
# Stress axis : x y z
#
# Youngs Moduli (GPa) = 79.44870 81.55455 100.44409
#
# Poissons Ratio (x) = 0.35904 0.06347
# Poissons Ratio (y) = 0.34977 0.43460
# Poissons Ratio (z) = 0.05020 0.35287
#
# Static dielectric constant tensor:
#      x y z
#    x 3.706030 0.000000 0.000000 
#    y 0.000000 4.087460 0.000000 
#    z 0.000000 0.000000 4.191890 
# 
# 
# High freq. dielectric constant tensor:
#      x y z
#    x 1.795410 0.000000 0.000000 
#    y 0.000000 1.820860 0.000000 
#    z 0.000000 0.000000 1.804060 
# 
# From -- ./inp_files/37887.got.cif
#   From: 2010.06.25/outbox.cif.g09.slc.cpg/sg52_19_cif.got.tgz:37887.got - 2010.06.26 19:32:48.
