data_PCOD8215741
_publ_section_title
;
Structure prediction by ZEFSAII (Michael W. Deem and Ramdas Pophale) SiO2 
 PCOD8215741
Probable space group: P N N A
;
_chemical_formula_sum "Si O2"
_cell_formula_units_Z 64
_cell_length_a 16.043211
_cell_length_b 22.525144
_cell_length_c 9.354479
_cell_angle_alpha 90.000000
_cell_angle_beta 90.000000
_cell_angle_gamma 90.000000
_cell_volume 3380.480817
_symmetry_space_group_name_H-M "P N N A"
_symmetry_group_IT_number 52
_symmetry_cell_setting 'orthorhombic'
loop_
_space_group_symop_operation_xyz
x,y,z
1/2-x,-y,z
x,1/2-y,1/2-z
1/2-x,1/2+y,1/2-z
-x,-y,-z
1/2+x,y,-z
-x,1/2+y,1/2+z
1/2+x,1/2-y,1/2+z
loop_
_atom_site_type_symbol
_atom_site_label
_atom_site_fract_x
_atom_site_fract_y
_atom_site_fract_z
Si Si1 0.063451 0.902185 0.065841
Si Si2 0.363687 0.223876 0.093060
Si Si3 0.027424 0.411346 0.105568
Si Si4 0.036816 0.036832 0.695402
Si Si5 0.342421 0.992686 0.926711
Si Si6 0.105277 0.391795 0.391624
Si Si7 0.993510 0.719998 0.905594
Si Si8 0.320636 0.733237 0.412015
O O1 0.122849 0.847020 0.102371
O O2 0.040567 0.934802 0.216280
O O3 0.114005 0.945741 0.962954
O O4 0.983144 0.884443 0.971949
O O5 0.374551 0.250000 0.250000
O O6 0.273114 0.241215 0.022246
O O7 0.436996 0.247891 0.995623
O O8 0.099960 0.397866 0.219686
O O9 0.974146 0.467155 0.160121
O O10 0.977892 0.348809 0.099318
O O11 0.059098 0.426183 0.946458
O O12 0.115793 0.042081 0.796390
O O13 0.250000 0.000000 0.873815
O O14 0.346013 0.950763 0.064589
O O15 0.159581 0.335575 0.432137
O O16 0.988937 0.750000 0.750000
O O17 0.899185 0.728040 0.974487
O O18 0.307408 0.750000 0.250000
#
# Coordination Sequence:
#
# PCOD8215741 Si02
#       8
#     8   8   8   8   8   8   8   8
#     4  11  19  37  60  85 113 151 201 242 293 351
#     4  11  23  37  58  88 120 150 195 251 301 347
#     4  11  19  37  63  85 114 153 201 240 302 363
#     4  10  22  36  60  87 115 152 196 248 300 354
#     4  11  22  36  56  85 118 153 198 246 294 344
#     4  11  18  37  63  84 108 155 202 239 289 359
#     4  11  21  39  64  85 118 164 198 239 301 363
#     4  10  20  36  60  85 115 153 197 242 287 356
#
# _framework density 18.932217000000001
#
# number of rings (size 3 to 8) (size 9 to 14) (size 15 to 20)
#    0.000    1.250    6.250    2.250    0.000    0.000 
#    0.000    2.500    2.750    0.000    0.000    0.000 
#    0.000    0.000    0.000    0.000    0.000    0.000 
#
# Total GULP energy -792981.478510 kJ/mol
# GULP energy per Si atom -12390.335602 kJ/mol
# Density = 1.888913 g / cm^3
# Si number density = 18.932217 Si / 1000 Ang^3
#
#
#
# Elastic Constant Matrix: (Units=GPa)
#
#
# Indices 1 2 3 4 5 6 
#
# 1 122.8530 29.0184 30.1620 0.0000 0.0000 0.0000
# 2 29.0184 114.7927 27.2106 0.0000 0.0000 0.0000
# 3 30.1620 27.2106 92.5726 0.0000 0.0000 0.0000
# 4 0.0000 0.0000 0.0000 24.8993 0.0000 0.0000
# 5 0.0000 0.0000 0.0000 0.0000 18.4959 0.0000
# 6 0.0000 0.0000 0.0000 0.0000 0.0000 280.9494
#
#
#
# Elastic Compliance Matrix: (Units=1/GPa)
#
#
# Indices 1 2 3 4 5 6 
#
# 1 0.009156 -0.001728 -0.002475 0.000000 0.000000 0.000000
# 2 -0.001728 0.009690 -0.002285 0.000000 0.000000 0.000000
# 3 -0.002475 -0.002285 0.012281 0.000000 0.000000 0.000000
# 4 0.000000 0.000000 0.000000 0.040162 0.000000 0.000000
# 5 0.000000 0.000000 0.000000 0.000000 0.054066 0.000000
# 6 0.000000 0.000000 0.000000 0.000000 0.000000 0.003559
#
#
# Mechanical properties :
#
#
# Convention : Reuss Voigt Hill
#
# Bulk Modulus (GPa) = 55.09794 55.88892 55.49343
# Shear Modulus (GPa) = 33.79764 81.12407 57.46086
#
# Velocity S-wave (km/s) = 4.22974 6.55307 5.51514
# Velocity P-wave (km/s) = 7.28149 9.31889 8.36247
#
# Compressibility (1/GPa) = 0.01814950
#
# Stress axis : x y z
#
# Youngs Moduli (GPa) = 109.22267 103.20118 81.42963
#
# Poissons Ratio (x) = 0.17830 0.20156
# Poissons Ratio (y) = 0.18870 0.18609
# Poissons Ratio (z) = 0.27035 0.23584
#
# Static dielectric constant tensor:
#      x y z
#    x 3.660350 0.000000 0.000000 
#    y 0.000000 3.792750 0.000000 
#    z 0.000000 0.000000 3.526250 
# 
# 
# High freq. dielectric constant tensor:
#      x y z
#    x 1.718930 0.000000 0.000000 
#    y 0.000000 1.755450 0.000000 
#    z 0.000000 0.000000 1.724300 
# 
# From -- ./inp_files/12566.got.cif
#   From: 2010.06.25/outbox.cif.g09.slc.cpg/sg52_7_cif.got.tgz:12566.got - 2010.06.26 19:32:48.
