data_PCOD8215819
_publ_section_title
;
Structure prediction by ZEFSAII (Michael W. Deem and Ramdas Pophale) SiO2 
 PCOD8215819
Probable space group: P N N A
;
_chemical_formula_sum "Si O2"
_cell_formula_units_Z 40
_cell_length_a 22.284896
_cell_length_b 8.780025
_cell_length_c 9.839216
_cell_angle_alpha 90.000000
_cell_angle_beta 90.000000
_cell_angle_gamma 90.000000
_cell_volume 1925.160130
_symmetry_space_group_name_H-M "P N N A"
_symmetry_group_IT_number 52
_symmetry_cell_setting 'orthorhombic'
loop_
_space_group_symop_operation_xyz
x,y,z
1/2-x,-y,z
x,1/2-y,1/2-z
1/2-x,1/2+y,1/2-z
-x,-y,-z
1/2+x,y,-z
-x,1/2+y,1/2+z
1/2+x,1/2-y,1/2+z
loop_
_atom_site_type_symbol
_atom_site_label
_atom_site_fract_x
_atom_site_fract_y
_atom_site_fract_z
Si Si1 0.438733 0.673518 0.601292
Si Si2 0.835805 0.746929 0.894894
Si Si3 0.044182 0.814019 0.898622
Si Si4 0.829262 0.256843 0.403420
Si Si5 0.750000 0.000000 0.973466
Si Si6 0.250000 0.500000 0.019470
O O1 0.441065 0.750000 0.750000
O O2 0.377575 0.725480 0.525315
O O3 0.443843 0.493654 0.618621
O O4 0.492588 0.730146 0.505099
O O5 0.871359 0.750000 0.750000
O O6 0.802225 0.583802 0.897084
O O7 0.784018 0.875550 0.882527
O O8 0.026842 0.750000 0.750000
O O9 0.104423 0.743514 0.970593
O O10 0.848873 0.250000 0.250000
O O11 0.799421 0.418605 0.433795
O O12 0.782999 0.122966 0.427830
#
# Coordination Sequence:
#
# PCOD8215819 Si02
#       6
#     8   8   8   8   4   4
#     4  11  25  44  68  97 125 168 215 266 322 378
#     4  11  23  42  64  94 129 171 209 265 310 384
#     4  10  23  45  66  95 130 167 212 265 319 378
#     4  10  20  37  62  95 129 166 203 264 313 383
#     4  10  20  38  62  90 129 168 207 260 313 378
#     4  10  24  38  62  96 127 168 219 244 325 374
#
# _framework density 20.777491999999999
#
# number of rings (size 3 to 8) (size 9 to 14) (size 15 to 20)
#    0.000    1.600    2.000    1.800    5.600    4.000 
#    7.200    1.000    0.000    0.000    0.000    0.000 
#    0.000    0.000    0.000    0.000    0.000    0.000 
#
# Total GULP energy -495615.680479 kJ/mol
# GULP energy per Si atom -12390.392012 kJ/mol
# Density = 2.073020 g / cm^3
# Si number density = 20.777492 Si / 1000 Ang^3
#
#
#
# Elastic Constant Matrix: (Units=GPa)
#
#
# Indices 1 2 3 4 5 6 
#
# 1 117.1934 22.9723 52.7316 0.0000 0.0000 0.0000
# 2 22.9723 79.3170 30.4859 0.0000 0.0000 0.0000
# 3 52.7316 30.4859 132.7892 0.0000 0.0000 0.0000
# 4 0.0000 0.0000 0.0000 19.2050 0.0000 0.0000
# 5 0.0000 0.0000 0.0000 0.0000 28.3589 0.0000
# 6 0.0000 0.0000 0.0000 0.0000 0.0000 10.4062
#
#
#
# Elastic Compliance Matrix: (Units=1/GPa)
#
#
# Indices 1 2 3 4 5 6 
#
# 1 0.010569 -0.001588 -0.003832 0.000000 0.000000 0.000000
# 2 -0.001588 0.014066 -0.002599 0.000000 0.000000 0.000000
# 3 -0.003832 -0.002599 0.009649 0.000000 0.000000 0.000000
# 4 0.000000 0.000000 0.000000 0.052070 0.000000 0.000000
# 5 0.000000 0.000000 0.000000 0.000000 0.035262 0.000000
# 6 0.000000 0.000000 0.000000 0.000000 0.000000 0.096096
#
#
# Mechanical properties :
#
#
# Convention : Reuss Voigt Hill
#
# Bulk Modulus (GPa) = 54.80635 60.18659 57.49647
# Shear Modulus (GPa) = 20.84787 26.46801 23.65794
#
# Velocity S-wave (km/s) = 3.17107 3.57302 3.37802
# Velocity P-wave (km/s) = 6.31210 6.78616 6.55342
#
# Compressibility (1/GPa) = 0.01824606
#
# Stress axis : x y z
#
# Youngs Moduli (GPa) = 94.62063 71.09131 103.63569
#
# Poissons Ratio (x) = 0.11289 0.39716
# Poissons Ratio (y) = 0.15026 0.26933
# Poissons Ratio (z) = 0.36261 0.18475
#
# Static dielectric constant tensor:
#      x y z
#    x 3.943730 0.000000 0.000000 
#    y 0.000000 4.499600 0.000000 
#    z 0.000000 0.000000 3.568580 
# 
# 
# High freq. dielectric constant tensor:
#      x y z
#    x 1.829100 0.000000 0.000000 
#    y 0.000000 1.818720 0.000000 
#    z 0.000000 0.000000 1.802740 
# 
# From -- ./inp_files/14017.got.cif
#   From: 2010.06.25/outbox.cif.g09.slc.cpg/sg52_8_cif.got.tgz:14017.got - 2010.06.26 19:32:48.
