data_PCOD8215499
_publ_section_title
;
Structure prediction by ZEFSAII (Michael W. Deem and Ramdas Pophale) SiO2 
 PCOD8215499
Probable space group: P N N A
;
_chemical_formula_sum "Si O2"
_cell_formula_units_Z 32
_cell_length_a 8.495648
_cell_length_b 11.961272
_cell_length_c 14.361377
_cell_angle_alpha 90.000000
_cell_angle_beta 90.000000
_cell_angle_gamma 90.000000
_cell_volume 1459.385273
_symmetry_space_group_name_H-M "P N N A"
_symmetry_group_IT_number 52
_symmetry_cell_setting 'orthorhombic'
loop_
_space_group_symop_operation_xyz
x,y,z
1/2-x,-y,z
x,1/2-y,1/2-z
1/2-x,1/2+y,1/2-z
-x,-y,-z
1/2+x,y,-z
-x,1/2+y,1/2+z
1/2+x,1/2-y,1/2+z
loop_
_atom_site_type_symbol
_atom_site_label
_atom_site_fract_x
_atom_site_fract_y
_atom_site_fract_z
Si Si1 0.582855 0.947340 0.909613
Si Si2 0.929219 0.969679 0.283315
Si Si3 0.906749 0.587953 0.932531
Si Si4 0.927107 0.308302 0.922658
O O1 0.461753 0.966502 0.825896
O O2 0.629274 0.816941 0.910285
O O3 0.750000 0.000000 0.889042
O O4 0.500000 0.000000 0.000000
O O5 0.969593 0.851832 0.334664
O O6 0.750000 0.000000 0.301540
O O7 0.033859 0.070289 0.327422
O O8 0.716130 0.598885 0.931529
O O9 0.000000 0.500000 0.000000
O O10 0.970228 0.700978 0.981730
#
# Coordination Sequence:
#
# PCOD8215499 Si02
#       4
#     8   8   8   8
#     4  12  26  45  64  90 129 173 214 257 312 380
#     4  11  23  41  66  94 126 164 212 265 317 374
#     4  10  19  37  67  98 127 159 206 264 319 374
#     4  11  22  41  66  96 130 168 207 260 320 378
#
# _framework density 21.927040999999999
#
# number of rings (size 3 to 8) (size 9 to 14) (size 15 to 20)
#    0.000    1.000    0.000   10.500    0.000    0.000 
#    0.000   11.250    0.000    0.000    0.000    0.000 
#    0.000    0.000    0.000    0.000    0.000    0.000 
#
# Total GULP energy -396437.554520 kJ/mol
# GULP energy per Si atom -12388.673579 kJ/mol
# Density = 2.187713 g / cm^3
# Si number density = 21.927041 Si / 1000 Ang^3
#
#
#
# Elastic Constant Matrix: (Units=GPa)
#
#
# Indices 1 2 3 4 5 6 
#
# 1 155.7532 52.6723 31.7702 0.0000 0.0000 0.0000
# 2 52.6723 116.8517 46.6281 0.0000 0.0000 0.0000
# 3 31.7702 46.6281 130.8278 0.0000 0.0000 0.0000
# 4 0.0000 0.0000 0.0000 23.3327 0.0000 0.0000
# 5 0.0000 0.0000 0.0000 0.0000 40.2258 0.0000
# 6 0.0000 0.0000 0.0000 0.0000 0.0000 34.6537
#
#
#
# Elastic Compliance Matrix: (Units=1/GPa)
#
#
# Indices 1 2 3 4 5 6 
#
# 1 0.007635 -0.003150 -0.000731 0.000000 0.000000 0.000000
# 2 -0.003150 0.011276 -0.003254 0.000000 0.000000 0.000000
# 3 -0.000731 -0.003254 0.008981 0.000000 0.000000 0.000000
# 4 0.000000 0.000000 0.000000 0.042858 0.000000 0.000000
# 5 0.000000 0.000000 0.000000 0.000000 0.024860 0.000000
# 6 0.000000 0.000000 0.000000 0.000000 0.000000 0.028857
#
#
# Mechanical properties :
#
#
# Convention : Reuss Voigt Hill
#
# Bulk Modulus (GPa) = 73.41261 73.95268 73.68265
# Shear Modulus (GPa) = 34.89733 37.79991 36.34862
#
# Velocity S-wave (km/s) = 3.99371 4.15649 4.07591
# Velocity P-wave (km/s) = 7.40401 7.53890 7.47176
#
# Compressibility (1/GPa) = 0.01362164
#
# Stress axis : x y z
#
# Youngs Moduli (GPa) = 130.98031 88.68361 111.34575
#
# Poissons Ratio (x) = 0.27931 0.08145
# Poissons Ratio (y) = 0.41253 0.36232
# Poissons Ratio (z) = 0.09581 0.28858
#
# Static dielectric constant tensor:
#      x y z
#    x 4.157680 0.000000 0.000000 
#    y 0.000000 4.466300 0.000000 
#    z 0.000000 0.000000 4.311030 
# 
# 
# High freq. dielectric constant tensor:
#      x y z
#    x 1.882310 0.000000 0.000000 
#    y 0.000000 1.857880 0.000000 
#    z 0.000000 0.000000 1.863420 
# 
# From -- ./inp_files/24056.got.cif
#   From: 2010.06.25/outbox.cif.g09.slc.cpg/sg52_13_cif.got.tgz:24056.got - 2010.06.26 19:32:48.
