data_PCOD8215578
_publ_section_title
;
Structure prediction by ZEFSAII (Michael W. Deem and Ramdas Pophale) SiO2 
 PCOD8215578
Probable space group: P N N A
;
_chemical_formula_sum "Si O2"
_cell_formula_units_Z 44
_cell_length_a 12.945556
_cell_length_b 11.436822
_cell_length_c 15.349229
_cell_angle_alpha 90.000000
_cell_angle_beta 90.000000
_cell_angle_gamma 90.000000
_cell_volume 2272.545751
_symmetry_space_group_name_H-M "P N N A"
_symmetry_group_IT_number 52
_symmetry_cell_setting 'orthorhombic'
loop_
_space_group_symop_operation_xyz
x,y,z
1/2-x,-y,z
x,1/2-y,1/2-z
1/2-x,1/2+y,1/2-z
-x,-y,-z
1/2+x,y,-z
-x,1/2+y,1/2+z
1/2+x,1/2-y,1/2+z
loop_
_atom_site_type_symbol
_atom_site_label
_atom_site_fract_x
_atom_site_fract_y
_atom_site_fract_z
Si Si1 0.963070 0.368675 0.491296
Si Si2 0.972758 0.656882 0.089586
Si Si3 0.922594 0.742364 0.852806
Si Si4 0.561662 0.750000 0.750000
Si Si5 0.713616 0.629612 0.615919
Si Si6 0.633327 0.024234 0.544242
O O1 0.034782 0.289066 0.553960
O O2 0.843129 0.363370 0.521592
O O3 0.000000 0.500000 0.500000
O O4 0.983037 0.318732 0.393717
O O5 0.986338 0.664305 0.193939
O O6 0.075913 0.599685 0.047297
O O7 0.875651 0.581211 0.053548
O O8 0.934403 0.750000 0.750000
O O9 0.812570 0.788517 0.886438
O O10 0.924042 0.608324 0.885469
O O11 0.632966 0.669503 0.689631
O O12 0.750000 0.500000 0.639524
O O13 0.750000 0.000000 0.570336
#
# Coordination Sequence:
#
# PCOD8215578 Si02
#       6
#     8   8   8   4   8   8
#     4  10  20  37  52  82 122 154 185 236 300 357
#     4   9  21  34  54  86 107 155 188 236 295 352
#     4  11  23  35  58  93 115 149 198 252 296 343
#     4  10  20  32  52  86 118 144 198 250 290 336
#     4  11  21  33  57  88 116 153 194 240 291 353
#     4  10  20  37  56  81 117 149 191 239 297 359
#
# _framework density 19.361547000000002
#
# number of rings (size 3 to 8) (size 9 to 14) (size 15 to 20)
#    0.000    1.818    2.727    2.182    2.545    0.000 
#    0.000    0.000    0.000    0.000  122.909    0.000 
#    0.000    0.000    0.000    0.000    0.000    0.000 
#
# Total GULP energy -545282.038306 kJ/mol
# GULP energy per Si atom -12392.773598 kJ/mol
# Density = 1.931748 g / cm^3
# Si number density = 19.361547 Si / 1000 Ang^3
#
#
#
# Elastic Constant Matrix: (Units=GPa)
#
#
# Indices 1 2 3 4 5 6 
#
# 1 43.9136 25.0004 61.0921 0.0000 0.0000 0.0000
# 2 25.0004 103.5242 42.4428 0.0000 0.0000 0.0000
# 3 61.0921 42.4428 137.1105 0.0000 0.0000 0.0000
# 4 0.0000 0.0000 0.0000 24.8735 0.0000 0.0000
# 5 0.0000 0.0000 0.0000 0.0000 35.7726 0.0000
# 6 0.0000 0.0000 0.0000 0.0000 0.0000 21.3565
#
#
#
# Elastic Compliance Matrix: (Units=1/GPa)
#
#
# Indices 1 2 3 4 5 6 
#
# 1 0.061415 -0.004137 -0.026084 0.000000 0.000000 0.000000
# 2 -0.004137 0.011342 -0.001668 0.000000 0.000000 0.000000
# 3 -0.026084 -0.001668 0.019432 0.000000 0.000000 0.000000
# 4 0.000000 0.000000 0.000000 0.040203 0.000000 0.000000
# 5 0.000000 0.000000 0.000000 0.000000 0.027954 0.000000
# 6 0.000000 0.000000 0.000000 0.000000 0.000000 0.046824
#
#
# Mechanical properties :
#
#
# Convention : Reuss Voigt Hill
#
# Bulk Modulus (GPa) = 35.19707 60.17988 47.68847
# Shear Modulus (GPa) = 17.83046 26.80141 22.31593
#
# Velocity S-wave (km/s) = 3.03796 3.72460 3.39867
# Velocity P-wave (km/s) = 5.52485 7.04603 6.33129
#
# Compressibility (1/GPa) = 0.02841145
#
# Stress axis : x y z
#
# Youngs Moduli (GPa) = 16.28267 88.16473 51.46232
#
# Poissons Ratio (x) = 0.36478 1.34233
# Poissons Ratio (y) = 0.06737 0.08582
# Poissons Ratio (z) = 0.42471 0.14702
#
# Static dielectric constant tensor:
#      x y z
#    x 3.500170 0.000000 0.000000 
#    y 0.000000 3.805640 0.000000 
#    z 0.000000 0.000000 3.703360 
# 
# 
# High freq. dielectric constant tensor:
#      x y z
#    x 1.723810 0.000000 0.000000 
#    y 0.000000 1.777530 0.000000 
#    z 0.000000 0.000000 1.739190 
# 
# From -- ./inp_files/27095.got.cif
#   From: 2010.06.25/outbox.cif.g09.slc.cpg/sg52_14_cif.got.tgz:27095.got - 2010.06.26 19:32:48.
