data_PCOD8215451
_publ_section_title
;
Structure prediction by ZEFSAII (Michael W. Deem and Ramdas Pophale) SiO2 
 PCOD8215451
Probable space group: P N N A
;
_chemical_formula_sum "Si O2"
_cell_formula_units_Z 48
_cell_length_a 8.986171
_cell_length_b 16.850638
_cell_length_c 15.428555
_cell_angle_alpha 90.000000
_cell_angle_beta 90.000000
_cell_angle_gamma 90.000000
_cell_volume 2336.233679
_symmetry_space_group_name_H-M "P N N A"
_symmetry_group_IT_number 52
_symmetry_cell_setting 'orthorhombic'
loop_
_space_group_symop_operation_xyz
x,y,z
1/2-x,-y,z
x,1/2-y,1/2-z
1/2-x,1/2+y,1/2-z
-x,-y,-z
1/2+x,y,-z
-x,1/2+y,1/2+z
1/2+x,1/2-y,1/2+z
loop_
_atom_site_type_symbol
_atom_site_label
_atom_site_fract_x
_atom_site_fract_y
_atom_site_fract_z
Si Si1 0.610556 0.672998 0.406796
Si Si2 0.394177 0.361776 0.917346
Si Si3 0.730145 0.144677 0.588350
Si Si4 0.594535 0.655862 0.743252
Si Si5 0.776126 0.667374 0.576721
Si Si6 0.233032 0.089599 0.752800
O O1 0.612557 0.767539 0.407305
O O2 0.708324 0.638150 0.485662
O O3 0.445051 0.637242 0.415732
O O4 0.676812 0.647225 0.315631
O O5 0.564416 0.391600 0.912991
O O6 0.298280 0.403029 0.843193
O O7 0.325484 0.389934 0.008748
O O8 0.807636 0.121370 0.678259
O O9 0.723456 0.238530 0.580294
O O10 0.570131 0.750000 0.750000
O O11 0.677784 0.632422 0.654684
O O12 0.438176 0.612841 0.746134
O O13 0.250000 0.000000 0.785822
#
# Coordination Sequence:
#
# PCOD8215451 Si02
#       6
#     8   8   8   8   8   8
#     4  10  19  36  59  84 111 142 179 226 276 328
#     4  10  19  36  59  84 111 142 179 226 276 328
#     4   9  18  33  61  92 112 135 178 227 277 330
#     4  10  19  36  59  84 111 142 179 226 276 328
#     4   9  18  33  61  92 112 135 178 227 277 330
#     4  12  25  38  52  78 112 152 193 228 268 320
#
# _framework density 20.54589
#
# number of rings (size 3 to 8) (size 9 to 14) (size 15 to 20)
#    0.000    2.000    0.000    4.500    0.000    8.000 
#    0.000   10.000    0.000    0.000    0.000    0.000 
#    0.000    0.000    0.000    0.000    0.000    0.000 
#
# Total GULP energy -595362.916143 kJ/mol
# GULP energy per Si atom -12403.394086 kJ/mol
# Density = 2.049913 g / cm^3
# Si number density = 20.545890 Si / 1000 Ang^3
#
#
#
# Elastic Constant Matrix: (Units=GPa)
#
#
# Indices 1 2 3 4 5 6 
#
# 1 159.9395 6.8549 41.9027 0.0000 0.0000 0.0000
# 2 6.8549 22.1203 1.6093 0.0000 0.0000 0.0000
# 3 41.9027 1.6093 116.1313 0.0000 0.0000 0.0000
# 4 0.0000 0.0000 0.0000 4.8651 0.0000 0.0000
# 5 0.0000 0.0000 0.0000 0.0000 47.3004 0.0000
# 6 0.0000 0.0000 0.0000 0.0000 0.0000 5.6897
#
#
#
# Elastic Compliance Matrix: (Units=1/GPa)
#
#
# Indices 1 2 3 4 5 6 
#
# 1 0.006991 -0.001985 -0.002495 0.000000 0.000000 0.000000
# 2 -0.001985 0.045817 0.000081 0.000000 0.000000 0.000000
# 3 -0.002495 0.000081 0.009510 0.000000 0.000000 0.000000
# 4 0.000000 0.000000 0.000000 0.205547 0.000000 0.000000
# 5 0.000000 0.000000 0.000000 0.000000 0.021141 0.000000
# 6 0.000000 0.000000 0.000000 0.000000 0.000000 0.175758
#
#
# Mechanical properties :
#
#
# Convention : Reuss Voigt Hill
#
# Bulk Modulus (GPa) = 18.68449 44.32497 31.50473
# Shear Modulus (GPa) = 10.17499 28.09264 19.13381
#
# Velocity S-wave (km/s) = 2.22780 3.70173 3.05499
# Velocity P-wave (km/s) = 3.96626 6.31592 5.27362
#
# Compressibility (1/GPa) = 0.05352034
#
# Stress axis : x y z
#
# Youngs Moduli (GPa) = 143.03875 21.82619 105.15159
#
# Poissons Ratio (x) = 0.04332 0.26236
# Poissons Ratio (y) = 0.28392 -0.00855
# Poissons Ratio (z) = 0.35689 -0.00177
#
# Static dielectric constant tensor:
#      x y z
#    x 4.006080 0.000000 0.000000 
#    y 0.000000 3.213020 0.000000 
#    z 0.000000 0.000000 3.950710 
# 
# 
# High freq. dielectric constant tensor:
#      x y z
#    x 1.824040 0.000000 0.000000 
#    y 0.000000 1.752080 0.000000 
#    z 0.000000 0.000000 1.820560 
# 
# From -- ./inp_files/24693.got.cif
#   From: 2010.06.25/outbox.cif.g09.slc.cpg/sg52_13_cif.got.tgz:24693.got - 2010.06.26 19:32:48.
