data_PCOD8215265
_publ_section_title
;
Structure prediction by ZEFSAII (Michael W. Deem and Ramdas Pophale) SiO2 
 PCOD8215265
Probable space group: P N N A
;
_chemical_formula_sum "Si O2"
_cell_formula_units_Z 52
_cell_length_a 24.623574
_cell_length_b 8.457854
_cell_length_c 13.580912
_cell_angle_alpha 90.000000
_cell_angle_beta 90.000000
_cell_angle_gamma 90.000000
_cell_volume 2828.395960
_symmetry_space_group_name_H-M "P N N A"
_symmetry_group_IT_number 52
_symmetry_cell_setting 'orthorhombic'
loop_
_space_group_symop_operation_xyz
x,y,z
1/2-x,-y,z
x,1/2-y,1/2-z
1/2-x,1/2+y,1/2-z
-x,-y,-z
1/2+x,y,-z
-x,1/2+y,1/2+z
1/2+x,1/2-y,1/2+z
loop_
_atom_site_type_symbol
_atom_site_label
_atom_site_fract_x
_atom_site_fract_y
_atom_site_fract_z
Si Si1 0.431314 0.119214 0.054326
Si Si2 0.483202 0.460759 0.786272
Si Si3 0.470720 0.724301 0.430816
Si Si4 0.893184 0.489686 0.356447
Si Si5 0.560835 0.750000 0.750000
Si Si6 0.693677 0.078060 0.290566
Si Si7 0.402741 0.843434 0.589780
O O1 0.405387 0.217351 0.147503
O O2 0.454157 0.953715 0.096378
O O3 0.481374 0.223082 0.012642
O O4 0.387368 0.084796 0.966579
O O5 0.514022 0.308377 0.829363
O O6 0.445890 0.405716 0.692794
O O7 0.525134 0.594972 0.758434
O O8 0.442816 0.526192 0.868337
O O9 0.418387 0.817528 0.475808
O O10 0.838108 0.471858 0.292406
O O11 0.908575 0.675040 0.355129
O O12 0.707015 0.250000 0.250000
O O13 0.658191 0.091639 0.391051
O O14 0.750000 0.000000 0.320025
#
# Coordination Sequence:
#
# PCOD8215265 Si02
#       7
#     8   8   8   8   4   8   8
#     4  10  21  33  43  67  97 137 178 211 238 304
#     4  11  17  29  48  69  94 137 171 202 240 299
#     4  10  19  31  47  68  99 137 184 196 244 305
#     4   9  18  34  50  66 103 140 172 203 262 306
#     4  12  20  30  46  62 100 128 174 210 244 284
#     4   9  18  34  53  72  98 135 170 215 265 309
#     4   9  16  31  50  68 100 140 168 202 254 309
#
# _framework density 18.384979000000001
#
# number of rings (size 3 to 8) (size 9 to 14) (size 15 to 20)
#    0.000    2.154    3.077    3.231    0.000    2.462 
#    5.538    0.000    0.000    0.000    0.000    0.000 
#    0.000    8.615    0.000    3.385    1.846    0.000 
#
# Total GULP energy -644255.508460 kJ/mol
# GULP energy per Si atom -12389.529009 kJ/mol
# Density = 1.834313 g / cm^3
# Si number density = 18.384979 Si / 1000 Ang^3
#
#
#
# Elastic Constant Matrix: (Units=GPa)
#
#
# Indices 1 2 3 4 5 6 
#
# 1 80.8761 28.6644 43.6385 0.0000 0.0000 0.0000
# 2 28.6644 44.3962 47.1482 0.0000 0.0000 0.0000
# 3 43.6385 47.1482 128.7816 0.0000 0.0000 0.0000
# 4 0.0000 0.0000 0.0000 37.8467 0.0000 0.0000
# 5 0.0000 0.0000 0.0000 0.0000 17.1394 0.0000
# 6 0.0000 0.0000 0.0000 0.0000 0.0000 22.0900
#
#
#
# Elastic Compliance Matrix: (Units=1/GPa)
#
#
# Indices 1 2 3 4 5 6 
#
# 1 0.016623 -0.007773 -0.002787 0.000000 0.000000 0.000000
# 2 -0.007773 0.040488 -0.012189 0.000000 0.000000 0.000000
# 3 -0.002787 -0.012189 0.013172 0.000000 0.000000 0.000000
# 4 0.000000 0.000000 0.000000 0.026422 0.000000 0.000000
# 5 0.000000 0.000000 0.000000 0.000000 0.058345 0.000000
# 6 0.000000 0.000000 0.000000 0.000000 0.000000 0.045269
#
#
# Mechanical properties :
#
#
# Convention : Reuss Voigt Hill
#
# Bulk Modulus (GPa) = 40.34725 54.77289 47.56007
# Shear Modulus (GPa) = 19.67885 24.38873 22.03379
#
# Velocity S-wave (km/s) = 3.27521 3.64614 3.46564
# Velocity P-wave (km/s) = 6.02462 6.89802 6.47606
#
# Compressibility (1/GPa) = 0.02478484
#
# Stress axis : x y z
#
# Youngs Moduli (GPa) = 60.15621 24.69886 75.91812
#
# Poissons Ratio (x) = 0.19198 0.21160
# Poissons Ratio (y) = 0.46759 0.92537
# Poissons Ratio (z) = 0.16767 0.30106
#
# Static dielectric constant tensor:
#      x y z
#    x 2.986920 0.000000 0.000000 
#    y 0.000000 3.518970 0.000000 
#    z 0.000000 0.000000 3.634700 
# 
# 
# High freq. dielectric constant tensor:
#      x y z
#    x 1.639310 0.000000 0.000000 
#    y 0.000000 1.726310 0.000000 
#    z 0.000000 0.000000 1.715240 
# 
# From -- ./inp_files/29523.got.cif
#   From: 2010.06.25/outbox.cif.g09.slc.cpg/sg52_15_cif.got.tgz:29523.got - 2010.06.26 19:32:48.
