data_PCOD8215169
_publ_section_title
;
Structure prediction by ZEFSAII (Michael W. Deem and Ramdas Pophale) SiO2 
 PCOD8215169
Probable space group: P N N A
;
_chemical_formula_sum "Si O2"
_cell_formula_units_Z 40
_cell_length_a 9.063410
_cell_length_b 26.437574
_cell_length_c 9.304768
_cell_angle_alpha 90.000000
_cell_angle_beta 90.000000
_cell_angle_gamma 90.000000
_cell_volume 2229.558007
_symmetry_space_group_name_H-M "P N N A"
_symmetry_group_IT_number 52
_symmetry_cell_setting 'orthorhombic'
loop_
_space_group_symop_operation_xyz
x,y,z
1/2-x,-y,z
x,1/2-y,1/2-z
1/2-x,1/2+y,1/2-z
-x,-y,-z
1/2+x,y,-z
-x,1/2+y,1/2+z
1/2+x,1/2-y,1/2+z
loop_
_atom_site_type_symbol
_atom_site_label
_atom_site_fract_x
_atom_site_fract_y
_atom_site_fract_z
Si Si1 0.627182 0.537287 0.462753
Si Si2 0.957571 0.363927 0.347416
Si Si3 0.547286 0.799049 0.653626
Si Si4 0.793343 0.296118 0.141090
Si Si5 0.800540 0.132150 0.872937
O O1 0.750000 0.500000 0.400132
O O2 0.500000 0.500000 0.500000
O O3 0.571020 0.575630 0.339674
O O4 0.680830 0.571170 0.601693
O O5 0.887447 0.342553 0.203109
O O6 0.873764 0.340446 0.487429
O O7 0.130370 0.351691 0.361009
O O8 0.564106 0.750000 0.750000
O O9 0.637292 0.784357 0.512257
O O10 0.376965 0.811212 0.620516
O O11 0.615181 0.848757 0.730775
O O12 0.813698 0.250000 0.250000
#
# Coordination Sequence:
#
# PCOD8215169 Si02
#       5
#     8   8   8   8   8
#     4  10  18  34  58  92 118 154 194 247 289 344
#     4  10  20  34  58  88 118 151 196 238 292 343
#     4  11  24  40  59  84 118 156 196 242 296 353
#     4  11  24  40  59  84 118 156 196 243 296 352
#     4  10  20  34  58  88 118 151 196 239 290 345
#
# _framework density 17.940776
#
# number of rings (size 3 to 8) (size 9 to 14) (size 15 to 20)
#    1.200    0.400    2.000    3.600    2.800    6.400 
#    0.000    0.000    0.000    2.400    0.000    0.000 
#    0.000    0.000    0.000    0.000    0.000    0.000 
#
# Total GULP energy -495675.276539 kJ/mol
# GULP energy per Si atom -12391.881913 kJ/mol
# Density = 1.789994 g / cm^3
# Si number density = 17.940776 Si / 1000 Ang^3
#
#
#
# Elastic Constant Matrix: (Units=GPa)
#
#
# Indices 1 2 3 4 5 6 
#
# 1 177.1362 41.2684 56.8677 0.0000 0.0000 0.0000
# 2 41.2684 74.9541 26.0137 0.0000 0.0000 0.0000
# 3 56.8677 26.0137 89.9075 0.0000 0.0000 0.0000
# 4 0.0000 0.0000 0.0000 28.4801 0.0000 0.0000
# 5 0.0000 0.0000 0.0000 0.0000 34.0839 0.0000
# 6 0.0000 0.0000 0.0000 0.0000 0.0000 24.6913
#
#
#
# Elastic Compliance Matrix: (Units=1/GPa)
#
#
# Indices 1 2 3 4 5 6 
#
# 1 0.007574 -0.002787 -0.003984 0.000000 0.000000 0.000000
# 2 -0.002787 0.015857 -0.002825 0.000000 0.000000 0.000000
# 3 -0.003984 -0.002825 0.014460 0.000000 0.000000 0.000000
# 4 0.000000 0.000000 0.000000 0.035112 0.000000 0.000000
# 5 0.000000 0.000000 0.000000 0.000000 0.029339 0.000000
# 6 0.000000 0.000000 0.000000 0.000000 0.000000 0.040500
#
#
# Mechanical properties :
#
#
# Convention : Reuss Voigt Hill
#
# Bulk Modulus (GPa) = 53.48251 65.58859 59.53555
# Shear Modulus (GPa) = 29.71469 31.97426 30.84447
#
# Velocity S-wave (km/s) = 4.07414 4.22620 4.15087
# Velocity P-wave (km/s) = 7.21157 7.77510 7.49863
#
# Compressibility (1/GPa) = 0.01869770
#
# Stress axis : x y z
#
# Youngs Moduli (GPa) = 132.03448 63.06546 69.15695
#
# Poissons Ratio (x) = 0.17578 0.27552
# Poissons Ratio (y) = 0.36802 0.19536
# Poissons Ratio (z) = 0.52603 0.17815
#
# Static dielectric constant tensor:
#      x y z
#    x 3.452690 0.000000 0.000000 
#    y 0.000000 3.246160 0.000000 
#    z 0.000000 0.000000 3.185090 
# 
# 
# High freq. dielectric constant tensor:
#      x y z
#    x 1.719030 0.000000 0.000000 
#    y 0.000000 1.689520 0.000000 
#    z 0.000000 0.000000 1.665680 
# 
# From -- ./inp_files/7608.got.cif
#   From: 2010.06.25/outbox.cif.g09.slc.cpg/sg52_4_cif.got.tgz:7608.got - 2010.06.26 19:32:48.
