data_PCOD8215148
_publ_section_title
;
Structure prediction by ZEFSAII (Michael W. Deem and Ramdas Pophale) SiO2 
 PCOD8215148
Probable space group: P N N A
;
_chemical_formula_sum "Si O2"
_cell_formula_units_Z 60
_cell_length_a 19.510610
_cell_length_b 15.264437
_cell_length_c 10.957200
_cell_angle_alpha 90.000000
_cell_angle_beta 90.000000
_cell_angle_gamma 90.000000
_cell_volume 3263.256618
_symmetry_space_group_name_H-M "P N N A"
_symmetry_group_IT_number 52
_symmetry_cell_setting 'orthorhombic'
loop_
_space_group_symop_operation_xyz
x,y,z
1/2-x,-y,z
x,1/2-y,1/2-z
1/2-x,1/2+y,1/2-z
-x,-y,-z
1/2+x,y,-z
-x,1/2+y,1/2+z
1/2+x,1/2-y,1/2+z
loop_
_atom_site_type_symbol
_atom_site_label
_atom_site_fract_x
_atom_site_fract_y
_atom_site_fract_z
Si Si1 0.475800 0.567257 0.162059
Si Si2 0.071509 0.670836 0.463653
Si Si3 0.824145 0.019172 0.312329
Si Si4 0.896056 0.313942 0.142491
Si Si5 0.952747 0.927236 0.935464
Si Si6 0.501603 0.750000 0.750000
Si Si7 0.439324 0.598671 0.901657
Si Si8 0.828797 0.014825 0.026630
O O1 0.535609 0.636898 0.184587
O O2 0.437155 0.560204 0.291518
O O3 0.500415 0.469616 0.129227
O O4 0.430400 0.603973 0.049273
O O5 0.100192 0.761960 0.515920
O O6 0.130773 0.596653 0.465280
O O7 0.000078 0.657140 0.539968
O O8 0.050449 0.683551 0.323487
O O9 0.842450 0.108672 0.381126
O O10 0.826990 0.035630 0.168489
O O11 0.750000 0.000000 0.362160
O O12 0.869328 0.935294 0.344346
O O13 0.871530 0.250000 0.250000
O O14 0.876873 0.929359 0.998334
O O15 0.000000 0.000000 0.000000
O O16 0.455210 0.693396 0.843426
O O17 0.750000 0.000000 0.978772
#
# Coordination Sequence:
#
# PCOD8215148 Si02
#       8
#     8   8   8   8   8   4   8   8
#     4  10  19  33  56  81 112 143 178 231 286 336
#     4  11  20  33  58  85 110 140 192 239 287 332
#     4  10  21  38  55  78 115 153 190 227 279 348
#     4  11  17  34  58  82 106 142 186 235 284 337
#     4  10  18  33  56  82 109 141 188 236 276 328
#     4  12  22  34  56  90 114 138 184 256 292 324
#     4  10  20  34  53  83 113 143 180 231 289 330
#     4  10  20  36  57  81 111 154 192 232 282 344
#
# _framework density 18.386541000000001
#
# number of rings (size 3 to 8) (size 9 to 14) (size 15 to 20)
#    0.000    1.600    4.000    4.800    0.000    0.000 
#    1.200    2.000    0.000    0.000    0.000    0.000 
#    0.000    0.000    0.000    0.000    0.000    0.000 
#
# Total GULP energy -743433.666056 kJ/mol
# GULP energy per Si atom -12390.561101 kJ/mol
# Density = 1.834469 g / cm^3
# Si number density = 18.386541 Si / 1000 Ang^3
#
#
#
# Elastic Constant Matrix: (Units=GPa)
#
#
# Indices 1 2 3 4 5 6 
#
# 1 115.8645 42.3555 22.3528 0.0000 0.0000 0.0000
# 2 42.3555 85.6798 28.1486 0.0000 0.0000 0.0000
# 3 22.3528 28.1486 94.6253 0.0000 0.0000 0.0000
# 4 0.0000 0.0000 0.0000 29.4875 0.0000 0.0000
# 5 0.0000 0.0000 0.0000 0.0000 20.8725 0.0000
# 6 0.0000 0.0000 0.0000 0.0000 0.0000 3.1149
#
#
#
# Elastic Compliance Matrix: (Units=1/GPa)
#
#
# Indices 1 2 3 4 5 6 
#
# 1 0.010628 -0.004909 -0.001050 0.000000 0.000000 0.000000
# 2 -0.004909 0.015203 -0.003363 0.000000 0.000000 0.000000
# 3 -0.001050 -0.003363 0.011816 0.000000 0.000000 0.000000
# 4 0.000000 0.000000 0.000000 0.033913 0.000000 0.000000
# 5 0.000000 0.000000 0.000000 0.000000 0.047910 0.000000
# 6 0.000000 0.000000 0.000000 0.000000 0.000000 0.321041
#
#
# Mechanical properties :
#
#
# Convention : Reuss Voigt Hill
#
# Bulk Modulus (GPa) = 52.62273 53.54260 53.08267
# Shear Modulus (GPa) = 10.74140 24.24917 17.49529
#
# Velocity S-wave (km/s) = 2.41964 3.63554 3.08803
# Velocity P-wave (km/s) = 6.04058 6.84154 6.45350
#
# Compressibility (1/GPa) = 0.01900320
#
# Stress axis : x y z
#
# Youngs Moduli (GPa) = 94.09242 65.77735 84.62762
#
# Poissons Ratio (x) = 0.32289 0.08889
# Poissons Ratio (y) = 0.46188 0.28459
# Poissons Ratio (z) = 0.09883 0.22120
#
# Static dielectric constant tensor:
#      x y z
#    x 3.592410 0.000000 0.000000 
#    y 0.000000 3.109310 0.000000 
#    z 0.000000 0.000000 3.343370 
# 
# 
# High freq. dielectric constant tensor:
#      x y z
#    x 1.676720 0.000000 0.000000 
#    y 0.000000 1.715450 0.000000 
#    z 0.000000 0.000000 1.714320 
# 
# From -- ./inp_files/21842.got.cif
#   From: 2010.06.25/outbox.cif.g09.slc.cpg/sg52_11_cif.got.tgz:21842.got - 2010.06.26 19:32:48.
