data_PCOD8215460
_publ_section_title
;
Structure prediction by ZEFSAII (Michael W. Deem and Ramdas Pophale) SiO2 
 PCOD8215460
Probable space group: P N N A
;
_chemical_formula_sum "Si O2"
_cell_formula_units_Z 64
_cell_length_a 9.077887
_cell_length_b 21.176478
_cell_length_c 15.727374
_cell_angle_alpha 90.000000
_cell_angle_beta 90.000000
_cell_angle_gamma 90.000000
_cell_volume 3023.393801
_symmetry_space_group_name_H-M "P N N A"
_symmetry_group_IT_number 52
_symmetry_cell_setting 'orthorhombic'
loop_
_space_group_symop_operation_xyz
x,y,z
1/2-x,-y,z
x,1/2-y,1/2-z
1/2-x,1/2+y,1/2-z
-x,-y,-z
1/2+x,y,-z
-x,1/2+y,1/2+z
1/2+x,1/2-y,1/2+z
loop_
_atom_site_type_symbol
_atom_site_label
_atom_site_fract_x
_atom_site_fract_y
_atom_site_fract_z
Si Si1 0.856809 0.776072 0.077688
Si Si2 0.890051 0.430554 0.617871
Si Si3 0.846895 0.439235 0.200231
Si Si4 0.100359 0.355363 0.731685
Si Si5 0.922616 0.932140 0.835544
Si Si6 0.509633 0.142459 0.415641
Si Si7 0.777647 0.069410 0.484100
Si Si8 0.076843 0.847458 0.965417
O O1 0.883834 0.789658 0.178626
O O2 0.684905 0.788684 0.056443
O O3 0.918210 0.707682 0.051822
O O4 0.937616 0.824236 0.016874
O O5 0.918289 0.504958 0.606320
O O6 0.748038 0.412784 0.676667
O O7 0.851797 0.401151 0.525598
O O8 0.034563 0.404123 0.663901
O O9 0.750000 0.500000 0.222974
O O10 0.760341 0.377647 0.235089
O O11 0.881241 0.435078 0.099699
O O12 0.006606 0.445333 0.243514
O O13 0.993865 0.351100 0.813657
O O14 0.022355 0.878492 0.878373
O O15 0.618606 0.088486 0.447778
O O16 0.349365 0.121625 0.452464
O O17 0.750000 0.000000 0.526174
#
# Coordination Sequence:
#
# PCOD8215460 Si02
#       8
#     8   8   8   8   8   8   8   8
#     4  11  22  38  62  85 124 166 206 250 295 359
#     4  10  22  35  53  90 122 165 203 249 301 355
#     4  10  19  36  61  88 122 160 201 251 307 367
#     4  10  21  38  59  87 122 161 209 247 302 364
#     4  11  20  35  56  86 126 161 204 250 304 356
#     4  11  23  42  64  93 116 160 205 252 313 377
#     4  10  23  42  66  93 120 148 200 261 324 375
#     4  11  21  37  56  86 125 165 205 248 292 353
#
# _framework density 21.168263
#
# number of rings (size 3 to 8) (size 9 to 14) (size 15 to 20)
#    0.000    1.500    3.750    1.875    0.000    1.000 
#    4.500    0.000    0.000    0.000    0.000    0.000 
#    0.000    0.000    0.000    0.000    0.000    0.000 
#
# Total GULP energy -793156.188490 kJ/mol
# GULP energy per Si atom -12393.065445 kJ/mol
# Density = 2.112008 g / cm^3
# Si number density = 21.168263 Si / 1000 Ang^3
#
#
#
# Elastic Constant Matrix: (Units=GPa)
#
#
# Indices 1 2 3 4 5 6 
#
# 1 62.5961 12.0954 19.3261 0.0000 0.0000 0.0000
# 2 12.0954 80.7995 13.3866 0.0000 0.0000 0.0000
# 3 19.3261 13.3866 85.5532 0.0000 0.0000 0.0000
# 4 0.0000 0.0000 0.0000 26.3383 0.0000 0.0000
# 5 0.0000 0.0000 0.0000 0.0000 30.0063 0.0000
# 6 0.0000 0.0000 0.0000 0.0000 0.0000 33.8226
#
#
#
# Elastic Compliance Matrix: (Units=1/GPa)
#
#
# Indices 1 2 3 4 5 6 
#
# 1 0.017487 -0.002016 -0.003635 0.000000 0.000000 0.000000
# 2 -0.002016 0.012938 -0.001569 0.000000 0.000000 0.000000
# 3 -0.003635 -0.001569 0.012755 0.000000 0.000000 0.000000
# 4 0.000000 0.000000 0.000000 0.037968 0.000000 0.000000
# 5 0.000000 0.000000 0.000000 0.000000 0.033326 0.000000
# 6 0.000000 0.000000 0.000000 0.000000 0.000000 0.029566
#
#
# Mechanical properties :
#
#
# Convention : Reuss Voigt Hill
#
# Bulk Modulus (GPa) = 34.79314 35.39610 35.09462
# Shear Modulus (GPa) = 29.75130 30.30948 30.03039
#
# Velocity S-wave (km/s) = 3.75302 3.78807 3.77059
# Velocity P-wave (km/s) = 5.93737 5.99084 5.96417
#
# Compressibility (1/GPa) = 0.02874129
#
# Stress axis : x y z
#
# Youngs Moduli (GPa) = 57.18485 77.29164 78.39898
#
# Poissons Ratio (x) = 0.15579 0.28497
# Poissons Ratio (y) = 0.11526 0.12302
# Poissons Ratio (z) = 0.20786 0.12128
#
# Static dielectric constant tensor:
#      x y z
#    x 3.669760 0.000000 0.000000 
#    y 0.000000 3.718540 0.000000 
#    z 0.000000 0.000000 3.827160 
# 
# 
# High freq. dielectric constant tensor:
#      x y z
#    x 1.820630 0.000000 0.000000 
#    y 0.000000 1.822120 0.000000 
#    z 0.000000 0.000000 1.823630 
# 
# From -- ./inp_files/31606.got.cif
#   From: 2010.06.25/outbox.cif.g09.slc.cpg/sg52_16_cif.got.tgz:31606.got - 2010.06.26 19:32:48.
