data_PCOD8215014
_publ_section_title
;
Structure prediction by ZEFSAII (Michael W. Deem and Ramdas Pophale) SiO2 
 PCOD8215014
Probable space group: P N N A
;
_chemical_formula_sum "Si O2"
_cell_formula_units_Z 52
_cell_length_a 13.765579
_cell_length_b 9.512663
_cell_length_c 18.681054
_cell_angle_alpha 90.000000
_cell_angle_beta 90.000000
_cell_angle_gamma 90.000000
_cell_volume 2446.233844
_symmetry_space_group_name_H-M "P N N A"
_symmetry_group_IT_number 52
_symmetry_cell_setting 'orthorhombic'
loop_
_space_group_symop_operation_xyz
x,y,z
1/2-x,-y,z
x,1/2-y,1/2-z
1/2-x,1/2+y,1/2-z
-x,-y,-z
1/2+x,y,-z
-x,1/2+y,1/2+z
1/2+x,1/2-y,1/2+z
loop_
_atom_site_type_symbol
_atom_site_label
_atom_site_fract_x
_atom_site_fract_y
_atom_site_fract_z
Si Si1 0.250000 0.000000 0.512909
Si Si2 0.915589 0.297601 0.044663
Si Si3 0.629717 0.750000 0.750000
Si Si4 0.645022 0.483927 0.422389
Si Si5 0.024060 0.695288 0.390845
Si Si6 0.652576 0.439614 0.585646
Si Si7 0.115802 0.132520 0.398086
Si Si8 0.750000 0.500000 0.785349
O O1 0.183189 0.888174 0.557112
O O2 0.324164 0.906169 0.468367
O O3 0.906280 0.138347 0.074629
O O4 0.000324 0.382377 0.086683
O O5 0.944589 0.289450 0.959630
O O6 0.561893 0.773158 0.680252
O O7 0.702834 0.620277 0.736567
O O8 0.750000 0.500000 0.384043
O O9 0.588416 0.353245 0.384478
O O10 0.662098 0.421280 0.500924
O O11 0.065254 0.539885 0.396361
O O12 0.750000 0.500000 0.619683
O O13 0.635082 0.292405 0.623293
O O14 0.156174 0.043390 0.332338
#
# Coordination Sequence:
#
# PCOD8215014 Si02
#       8
#     4   8   4   8   8   8   8   4
#     4  11  22  30  48  88 132 160 192 253 318 401
#     4  11  21  37  61  93 129 169 208 267 342 375
#     4  12  28  44  64  92 134 184 212 256 312 400
#     4  10  19  35  61  97 121 157 211 272 326 380
#     4  11  21  38  61  92 125 169 218 255 315 394
#     4  10  17  31  61  91 124 157 198 265 325 373
#     4  11  20  39  58  88 130 161 209 268 327 379
#     4  11  28  44  62  96 130 172 220 257 326 393
#
# _framework density 21.257165000000001
#
# number of rings (size 3 to 8) (size 9 to 14) (size 15 to 20)
#    0.000    1.231    3.077    6.923    3.231    0.000 
#    0.000    0.000    0.000    1.846    4.000    0.000 
#    0.000    0.000    0.000    0.000    0.000    0.000 
#
# Total GULP energy -644241.964128 kJ/mol
# GULP energy per Si atom -12389.268541 kJ/mol
# Density = 2.120878 g / cm^3
# Si number density = 21.257165 Si / 1000 Ang^3
#
#
#
# Elastic Constant Matrix: (Units=GPa)
#
#
# Indices 1 2 3 4 5 6 
#
# 1 138.3044 30.0378 25.2259 0.0000 0.0000 0.0000
# 2 30.0378 66.8295 7.2310 0.0000 0.0000 0.0000
# 3 25.2259 7.2310 49.7137 0.0000 0.0000 0.0000
# 4 0.0000 0.0000 0.0000 122.6875 0.0000 0.0000
# 5 0.0000 0.0000 0.0000 0.0000 23.1160 0.0000
# 6 0.0000 0.0000 0.0000 0.0000 0.0000 51.9514
#
#
#
# Elastic Compliance Matrix: (Units=1/GPa)
#
#
# Indices 1 2 3 4 5 6 
#
# 1 0.008701 -0.003488 -0.003908 0.000000 0.000000 0.000000
# 2 -0.003488 0.016601 -0.000645 0.000000 0.000000 0.000000
# 3 -0.003908 -0.000645 0.022192 0.000000 0.000000 0.000000
# 4 0.000000 0.000000 0.000000 0.008151 0.000000 0.000000
# 5 0.000000 0.000000 0.000000 0.000000 0.043260 0.000000
# 6 0.000000 0.000000 0.000000 0.000000 0.000000 0.019249
#
#
# Mechanical properties :
#
#
# Convention : Reuss Voigt Hill
#
# Bulk Modulus (GPa) = 31.83419 42.20412 37.01915
# Shear Modulus (GPa) = 34.55317 52.37450 43.46383
#
# Velocity S-wave (km/s) = 4.03610 4.96910 4.52671
# Velocity P-wave (km/s) = 6.06040 7.26773 6.69135
#
# Compressibility (1/GPa) = 0.03141277
#
# Stress axis : x y z
#
# Youngs Moduli (GPa) = 114.93370 60.23769 45.06169
#
# Poissons Ratio (x) = 0.21010 0.17608
# Poissons Ratio (y) = 0.40087 0.02906
# Poissons Ratio (z) = 0.44912 0.03884
#
# Static dielectric constant tensor:
#      x y z
#    x 4.153870 0.000000 0.000000 
#    y 0.000000 4.105040 0.000000 
#    z 0.000000 0.000000 3.362170 
# 
# 
# High freq. dielectric constant tensor:
#      x y z
#    x 1.845320 0.000000 0.000000 
#    y 0.000000 1.850600 0.000000 
#    z 0.000000 0.000000 1.768050 
# 
# From -- ./inp_files/37292.got.cif
#   From: 2010.06.25/outbox.cif.g09.slc.cpg/sg52_19_cif.got.tgz:37292.got - 2010.06.26 19:32:48.
