data_PCOD8215097
_publ_section_title
;
Structure prediction by ZEFSAII (Michael W. Deem and Ramdas Pophale) SiO2 
 PCOD8215097
Probable space group: P N N A
;
_chemical_formula_sum "Si O2"
_cell_formula_units_Z 52
_cell_length_a 9.409329
_cell_length_b 12.080531
_cell_length_c 23.766492
_cell_angle_alpha 90.000000
_cell_angle_beta 90.000000
_cell_angle_gamma 90.000000
_cell_volume 2701.529794
_symmetry_space_group_name_H-M "P N N A"
_symmetry_group_IT_number 52
_symmetry_cell_setting 'orthorhombic'
loop_
_space_group_symop_operation_xyz
x,y,z
1/2-x,-y,z
x,1/2-y,1/2-z
1/2-x,1/2+y,1/2-z
-x,-y,-z
1/2+x,y,-z
-x,1/2+y,1/2+z
1/2+x,1/2-y,1/2+z
loop_
_atom_site_type_symbol
_atom_site_label
_atom_site_fract_x
_atom_site_fract_y
_atom_site_fract_z
Si Si1 0.294040 0.754381 0.648758
Si Si2 0.783227 0.120668 0.819897
Si Si3 0.501019 0.835599 0.128298
Si Si4 0.494761 0.750000 0.750000
Si Si5 0.528968 0.744160 0.491486
Si Si6 0.210604 0.124725 0.540533
Si Si7 0.001541 0.411987 0.590364
O O1 0.137039 0.707908 0.663884
O O2 0.388133 0.794474 0.701817
O O3 0.280315 0.860482 0.608107
O O4 0.366482 0.652333 0.616766
O O5 0.631599 0.181604 0.828829
O O6 0.895524 0.160459 0.773561
O O7 0.854064 0.124595 0.881217
O O8 0.750000 0.000000 0.797433
O O9 0.474658 0.763905 0.072503
O O10 0.524908 0.959069 0.103350
O O11 0.447481 0.845776 0.520893
O O12 0.691708 0.784169 0.490714
O O13 0.513108 0.626619 0.524987
O O14 0.250000 0.000000 0.524150
#
# Coordination Sequence:
#
# PCOD8215097 Si02
#       7
#     8   8   8   4   8   8   8
#     4   9  20  34  53  75 102 141 179 219 268 311
#     4   9  19  34  54  77 103 135 172 218 270 318
#     4  10  18  31  52  84 110 131 170 216 263 328
#     4  10  20  40  56  70 102 140 178 230 278 316
#     4  10  19  31  53  79 107 143 172 202 261 317
#     4  10  20  35  50  73 105 141 181 216 245 300
#     4   9  17  32  52  79 113 138 161 208 270 331
#
# _framework density 19.248355
#
# number of rings (size 3 to 8) (size 9 to 14) (size 15 to 20)
#    0.000    2.462    0.000    2.308    0.000    0.615 
#    0.000   12.308    0.000    6.462    0.000    0.000 
#    0.000    0.000    0.000    0.000    0.000    0.000 
#
# Total GULP energy -644220.351531 kJ/mol
# GULP energy per Si atom -12388.852914 kJ/mol
# Density = 1.920454 g / cm^3
# Si number density = 19.248355 Si / 1000 Ang^3
#
#
#
# Elastic Constant Matrix: (Units=GPa)
#
#
# Indices 1 2 3 4 5 6 
#
# 1 127.0494 23.4026 55.0232 0.0000 0.0000 0.0000
# 2 23.4026 60.5525 24.1656 0.0000 0.0000 0.0000
# 3 55.0232 24.1656 90.1869 0.0000 0.0000 0.0000
# 4 0.0000 0.0000 0.0000 12.7015 0.0000 0.0000
# 5 0.0000 0.0000 0.0000 0.0000 34.0462 0.0000
# 6 0.0000 0.0000 0.0000 0.0000 0.0000 27.0254
#
#
#
# Elastic Compliance Matrix: (Units=1/GPa)
#
#
# Indices 1 2 3 4 5 6 
#
# 1 0.010859 -0.001739 -0.006159 0.000000 0.000000 0.000000
# 2 -0.001739 0.018770 -0.003969 0.000000 0.000000 0.000000
# 3 -0.006159 -0.003969 0.015909 0.000000 0.000000 0.000000
# 4 0.000000 0.000000 0.000000 0.078731 0.000000 0.000000
# 5 0.000000 0.000000 0.000000 0.000000 0.029372 0.000000
# 6 0.000000 0.000000 0.000000 0.000000 0.000000 0.037002
#
#
# Mechanical properties :
#
#
# Convention : Reuss Voigt Hill
#
# Bulk Modulus (GPa) = 45.86046 53.66351 49.76199
# Shear Modulus (GPa) = 22.55866 26.43445 24.49655
#
# Velocity S-wave (km/s) = 3.42713 3.70987 3.57130
# Velocity P-wave (km/s) = 6.28790 6.80375 6.55090
#
# Compressibility (1/GPa) = 0.02180528
#
# Stress axis : x y z
#
# Youngs Moduli (GPa) = 92.09315 53.27526 62.85713
#
# Poissons Ratio (x) = 0.09263 0.38713
# Poissons Ratio (y) = 0.16012 0.24946
# Poissons Ratio (z) = 0.56720 0.21144
#
# Static dielectric constant tensor:
#      x y z
#    x 3.742500 0.000000 0.000000 
#    y 0.000000 3.330700 0.000000 
#    z 0.000000 0.000000 3.404330 
# 
# 
# High freq. dielectric constant tensor:
#      x y z
#    x 1.770660 0.000000 0.000000 
#    y 0.000000 1.722180 0.000000 
#    z 0.000000 0.000000 1.731250 
# 
# From -- ./inp_files/39583.got.cif
#   From: 2010.06.25/outbox.cif.g09.slc.cpg/sg52_20_cif.got.tgz:39583.got - 2010.06.26 19:32:48.
