data_PCOD8215317
_publ_section_title
;
Structure prediction by ZEFSAII (Michael W. Deem and Ramdas Pophale) SiO2 
 PCOD8215317
Probable space group: P N N A
;
_chemical_formula_sum "Si O2"
_cell_formula_units_Z 52
_cell_length_a 18.186540
_cell_length_b 10.353182
_cell_length_c 16.053306
_cell_angle_alpha 90.000000
_cell_angle_beta 90.000000
_cell_angle_gamma 90.000000
_cell_volume 3022.653847
_symmetry_space_group_name_H-M "P N N A"
_symmetry_group_IT_number 52
_symmetry_cell_setting 'orthorhombic'
loop_
_space_group_symop_operation_xyz
x,y,z
1/2-x,-y,z
x,1/2-y,1/2-z
1/2-x,1/2+y,1/2-z
-x,-y,-z
1/2+x,y,-z
-x,1/2+y,1/2+z
1/2+x,1/2-y,1/2+z
loop_
_atom_site_type_symbol
_atom_site_label
_atom_site_fract_x
_atom_site_fract_y
_atom_site_fract_z
Si Si1 0.844734 0.250000 0.750000
Si Si2 0.991615 0.632583 0.455308
Si Si3 0.053648 0.521973 0.302659
Si Si4 0.735925 0.647978 0.906053
Si Si5 0.486489 0.558893 0.129101
Si Si6 0.409442 0.136757 0.492699
Si Si7 0.612041 0.290544 0.584523
O O1 0.890024 0.379828 0.738076
O O2 0.795353 0.271502 0.830009
O O3 0.914880 0.691678 0.488369
O O4 0.000000 0.500000 0.500000
O O5 0.994952 0.604067 0.357078
O O6 0.060256 0.719564 0.482954
O O7 0.101487 0.418501 0.357494
O O8 0.003822 0.465938 0.227564
O O9 0.750000 0.500000 0.879494
O O10 0.679074 0.643629 0.984430
O O11 0.807434 0.731768 0.928268
O O12 0.441943 0.445229 0.083957
O O13 0.439895 0.688277 0.128280
O O14 0.565229 0.576931 0.081907
#
# Coordination Sequence:
#
# PCOD8215317 Si02
#       7
#     4   8   8   8   8   8   8
#     4  12  24  32  50  82 118 144 174 222 280 338
#     4   9  19  36  52  76 107 139 186 224 268 329
#     4  11  19  36  54  80 108 143 188 231 275 328
#     4  12  23  35  50  80 115 148 179 223 278 350
#     4  10  19  33  54  78 104 144 186 227 272 316
#     4  10  19  35  52  73 111 144 182 224 268 331
#     4  10  22  34  54  78 114 144 178 225 282 340
#
# _framework density 17.203424999999999
#
# number of rings (size 3 to 8) (size 9 to 14) (size 15 to 20)
#    0.000    1.538    4.615    0.462    4.308    0.000 
#    0.000    0.000    0.000    0.000    0.000   12.923 
#    0.000    0.000    0.000    0.000    0.000    0.000 
#
# Total GULP energy -644205.951439 kJ/mol
# GULP energy per Si atom -12388.575989 kJ/mol
# Density = 1.716427 g / cm^3
# Si number density = 17.203425 Si / 1000 Ang^3
#
#
#
# Elastic Constant Matrix: (Units=GPa)
#
#
# Indices 1 2 3 4 5 6 
#
# 1 90.9829 18.0474 63.6425 0.0000 0.0000 0.0000
# 2 18.0474 76.4567 17.6409 0.0000 0.0000 0.0000
# 3 63.6425 17.6409 103.5548 0.0000 0.0000 0.0000
# 4 0.0000 0.0000 0.0000 31.6667 0.0000 0.0000
# 5 0.0000 0.0000 0.0000 0.0000 -17.5920 0.0000
# 6 0.0000 0.0000 0.0000 0.0000 0.0000 25.7554
#
#
#
# Elastic Compliance Matrix: (Units=1/GPa)
#
#
# Indices 1 2 3 4 5 6 
#
# 1 0.019545 -0.001917 -0.011686 0.000000 0.000000 0.000000
# 2 -0.001917 0.013803 -0.001173 0.000000 0.000000 0.000000
# 3 -0.011686 -0.001173 0.017038 0.000000 0.000000 0.000000
# 4 0.000000 0.000000 0.000000 0.031579 0.000000 0.000000
# 5 0.000000 0.000000 0.000000 0.000000 -0.056844 0.000000
# 6 0.000000 0.000000 0.000000 0.000000 0.000000 0.038827
#
#
# Mechanical properties :
#
#
# Convention : Reuss Voigt Hill
#
# Bulk Modulus (GPa) = 47.99749 52.18400 50.09074
# Shear Modulus (GPa) = 49.77881 19.41028 34.59454
#
# Velocity S-wave (km/s) = 5.38500 3.36263 4.48918
# Velocity P-wave (km/s) = 8.16240 6.74357 7.48667
#
# Compressibility (1/GPa) = 0.02083442
#
# Stress axis : x y z
#
# Youngs Moduli (GPa) = 51.16281 72.45048 58.69162
#
# Poissons Ratio (x) = 0.13892 0.68584
# Poissons Ratio (y) = 0.09810 0.06884
# Poissons Ratio (z) = 0.59787 0.08498
#
# Static dielectric constant tensor:
#      x y z
#    x 3.495460 0.000000 0.000000 
#    y 0.000000 3.715170 0.000000 
#    z 0.000000 0.000000 4.238700 
# 
# 
# High freq. dielectric constant tensor:
#      x y z
#    x 1.634630 0.000000 0.000000 
#    y 0.000000 1.691940 0.000000 
#    z 0.000000 0.000000 1.655440 
# 
# From -- ./inp_files/33214.got.cif
#   From: 2010.06.25/outbox.cif.g09.slc.cpg/sg52_17_cif.got.tgz:33214.got - 2010.06.26 19:32:48.
