data_PCOD8215489
_publ_section_title
;
Structure prediction by ZEFSAII (Michael W. Deem and Ramdas Pophale) SiO2 
 PCOD8215489
Probable space group: P N N A
;
_chemical_formula_sum "Si O2"
_cell_formula_units_Z 56
_cell_length_a 9.384533
_cell_length_b 14.638633
_cell_length_c 19.759092
_cell_angle_alpha 90.000000
_cell_angle_beta 90.000000
_cell_angle_gamma 90.000000
_cell_volume 2714.439535
_symmetry_space_group_name_H-M "P N N A"
_symmetry_group_IT_number 52
_symmetry_cell_setting 'orthorhombic'
loop_
_space_group_symop_operation_xyz
x,y,z
1/2-x,-y,z
x,1/2-y,1/2-z
1/2-x,1/2+y,1/2-z
-x,-y,-z
1/2+x,y,-z
-x,1/2+y,1/2+z
1/2+x,1/2-y,1/2+z
loop_
_atom_site_type_symbol
_atom_site_label
_atom_site_fract_x
_atom_site_fract_y
_atom_site_fract_z
Si Si1 0.157369 0.417800 0.171673
Si Si2 0.466994 0.818683 0.811599
Si Si3 0.757622 0.605960 0.683480
Si Si4 0.894495 0.735435 0.589625
Si Si5 0.097283 0.463022 0.791116
Si Si6 0.346886 0.219545 0.506302
Si Si7 0.095072 0.172317 0.589834
O O1 0.250000 0.500000 0.137526
O O2 0.246334 0.378784 0.235371
O O3 0.123166 0.338948 0.118109
O O4 0.014438 0.454291 0.208411
O O5 0.480594 0.750000 0.750000
O O6 0.619162 0.842172 0.844052
O O7 0.398671 0.911916 0.781689
O O8 0.383047 0.772180 0.874233
O O9 0.750000 0.500000 0.663382
O O10 0.889336 0.658024 0.647676
O O11 0.766236 0.718491 0.535646
O O12 0.050168 0.722348 0.556104
O O13 0.250000 0.500000 0.807335
O O14 0.055016 0.399137 0.853190
O O15 0.243586 0.151983 0.550413
O O16 0.456681 0.164824 0.458603
#
# Coordination Sequence:
#
# PCOD8215489 Si02
#       7
#     8   8   8   8   8   8   8
#     4  11  21  36  61  93 116 151 195 239 297 361
#     4  10  19  37  63  85 119 159 187 241 312 354
#     4  11  21  37  64  92 113 148 201 249 305 353
#     4  11  22  40  61  83 121 153 197 248 287 350
#     4  11  22  37  58  94 128 148 191 250 302 361
#     4  10  22  39  61  84 114 166 206 238 285 349
#     4  10  21  40  62  84 119 165 200 240 298 346
#
# _framework density 20.630410000000001
#
# number of rings (size 3 to 8) (size 9 to 14) (size 15 to 20)
#    0.000    1.429    4.286    3.000    0.000    1.143 
#    0.000   17.857    0.000    0.000    0.000    0.000 
#    0.000    0.000    0.000    0.000    0.000    0.000 
#
# Total GULP energy -693960.778877 kJ/mol
# GULP energy per Si atom -12392.156766 kJ/mol
# Density = 2.058345 g / cm^3
# Si number density = 20.630410 Si / 1000 Ang^3
#
#
#
# Elastic Constant Matrix: (Units=GPa)
#
#
# Indices 1 2 3 4 5 6 
#
# 1 110.7082 20.1676 25.2467 0.0000 0.0000 0.0000
# 2 20.1676 60.1905 39.8995 0.0000 0.0000 0.0000
# 3 25.2467 39.8995 85.2573 0.0000 0.0000 0.0000
# 4 0.0000 0.0000 0.0000 14.4670 0.0000 0.0000
# 5 0.0000 0.0000 0.0000 0.0000 11.2972 0.0000
# 6 0.0000 0.0000 0.0000 0.0000 0.0000 23.3139
#
#
#
# Elastic Compliance Matrix: (Units=1/GPa)
#
#
# Indices 1 2 3 4 5 6 
#
# 1 0.009847 -0.001981 -0.001989 0.000000 0.000000 0.000000
# 2 -0.001981 0.024485 -0.010872 0.000000 0.000000 0.000000
# 3 -0.001989 -0.010872 0.017406 0.000000 0.000000 0.000000
# 4 0.000000 0.000000 0.000000 0.069123 0.000000 0.000000
# 5 0.000000 0.000000 0.000000 0.000000 0.088518 0.000000
# 6 0.000000 0.000000 0.000000 0.000000 0.000000 0.042893
#
#
# Mechanical properties :
#
#
# Convention : Reuss Voigt Hill
#
# Bulk Modulus (GPa) = 45.34280 47.42042 46.38161
# Shear Modulus (GPa) = 17.28270 21.20507 19.24389
#
# Velocity S-wave (km/s) = 2.89750 3.20950 3.05748
# Velocity P-wave (km/s) = 5.76371 6.06383 5.91567
#
# Compressibility (1/GPa) = 0.02205422
#
# Stress axis : x y z
#
# Youngs Moduli (GPa) = 101.55174 40.84215 57.45115
#
# Poissons Ratio (x) = 0.08091 0.11426
# Poissons Ratio (y) = 0.20118 0.62460
# Poissons Ratio (z) = 0.20198 0.44403
#
# Static dielectric constant tensor:
#      x y z
#    x 3.788650 0.000000 0.000000 
#    y 0.000000 4.358950 0.000000 
#    z 0.000000 0.000000 3.899170 
# 
# 
# High freq. dielectric constant tensor:
#      x y z
#    x 1.812930 0.000000 0.000000 
#    y 0.000000 1.777320 0.000000 
#    z 0.000000 0.000000 1.809670 
# 
# From -- ./inp_files/36055.got.cif
#   From: 2010.06.25/outbox.cif.g09.slc.cpg/sg52_19_cif.got.tgz:36055.got - 2010.06.26 19:32:48.
