data_PCOD8215593
_publ_section_title
;
Structure prediction by ZEFSAII (Michael W. Deem and Ramdas Pophale) SiO2 
 PCOD8215593
Probable space group: P N N A
;
_chemical_formula_sum "Si O2"
_cell_formula_units_Z 60
_cell_length_a 13.346234
_cell_length_b 8.912322
_cell_length_c 27.821892
_cell_angle_alpha 90.000000
_cell_angle_beta 90.000000
_cell_angle_gamma 90.000000
_cell_volume 3309.300954
_symmetry_space_group_name_H-M "P N N A"
_symmetry_group_IT_number 52
_symmetry_cell_setting 'orthorhombic'
loop_
_space_group_symop_operation_xyz
x,y,z
1/2-x,-y,z
x,1/2-y,1/2-z
1/2-x,1/2+y,1/2-z
-x,-y,-z
1/2+x,y,-z
-x,1/2+y,1/2+z
1/2+x,1/2-y,1/2+z
loop_
_atom_site_type_symbol
_atom_site_label
_atom_site_fract_x
_atom_site_fract_y
_atom_site_fract_z
Si Si1 0.891141 0.258187 0.575095
Si Si2 0.288418 0.340244 0.519996
Si Si3 0.088290 0.338092 0.976300
Si Si4 0.846223 0.582052 0.760904
Si Si5 0.133846 0.507476 0.343693
Si Si6 0.250000 0.000000 0.394428
Si Si7 0.923745 0.676939 0.852668
Si Si8 0.452278 0.152299 0.560412
O O1 0.831299 0.351461 0.534424
O O2 0.903063 0.348296 0.625716
O O3 0.005566 0.231693 0.559323
O O4 0.833952 0.097359 0.577073
O O5 0.250000 0.500000 0.536825
O O6 0.197114 0.228976 0.527983
O O7 0.376263 0.291385 0.556598
O O8 0.102451 0.513062 0.964671
O O9 0.054213 0.311692 0.031306
O O10 0.750000 0.500000 0.784347
O O11 0.807998 0.750000 0.750000
O O12 0.882052 0.484756 0.714427
O O13 0.937927 0.606576 0.799012
O O14 0.250000 0.500000 0.355532
O O15 0.075526 0.356798 0.359009
O O16 0.188165 0.123385 0.365276
O O17 0.015427 0.617254 0.884891
#
# Coordination Sequence:
#
# PCOD8215593 Si02
#       8
#     8   8   8   8   8   4   8   8
#     4  11  23  35  56  80 111 154 188 235 277 343
#     4  11  25  37  54  78 112 147 192 240 285 328
#     4  10  22  38  54  77 109 148 195 227 282 322
#     4   9  19  33  50  78 114 149 179 222 277 338
#     4  10  20  33  51  79 117 149 177 226 284 331
#     4  12  20  32  54  82 108 148 196 220 270 340
#     4  11  20  33  55  79 111 146 192 219 276 338
#     4  10  22  37  56  77 107 150 187 238 269 337
#
# _framework density 18.130718000000002
#
# number of rings (size 3 to 8) (size 9 to 14) (size 15 to 20)
#    0.000    1.600    3.333    1.600    7.467    1.067 
#    0.000    0.000    0.000    0.000    0.000    0.000 
#   24.000    0.000    0.000    0.000    0.000    0.000 
#
# Total GULP energy -743379.064627 kJ/mol
# GULP energy per Si atom -12389.651077 kJ/mol
# Density = 1.808945 g / cm^3
# Si number density = 18.130718 Si / 1000 Ang^3
#
#
#
# Elastic Constant Matrix: (Units=GPa)
#
#
# Indices 1 2 3 4 5 6 
#
# 1 56.7385 22.3299 38.6931 0.0000 0.0000 0.0000
# 2 22.3299 62.6821 38.6231 0.0000 0.0000 0.0000
# 3 38.6931 38.6231 105.0115 0.0000 0.0000 0.0000
# 4 0.0000 0.0000 0.0000 25.6984 0.0000 0.0000
# 5 0.0000 0.0000 0.0000 0.0000 24.7702 0.0000
# 6 0.0000 0.0000 0.0000 0.0000 0.0000 23.7258
#
#
#
# Elastic Compliance Matrix: (Units=1/GPa)
#
#
# Indices 1 2 3 4 5 6 
#
# 1 0.024314 -0.004062 -0.007465 0.000000 0.000000 0.000000
# 2 -0.004062 0.021307 -0.006340 0.000000 0.000000 0.000000
# 3 -0.007465 -0.006340 0.014605 0.000000 0.000000 0.000000
# 4 0.000000 0.000000 0.000000 0.038913 0.000000 0.000000
# 5 0.000000 0.000000 0.000000 0.000000 0.040371 0.000000
# 6 0.000000 0.000000 0.000000 0.000000 0.000000 0.042148
#
#
# Mechanical properties :
#
#
# Convention : Reuss Voigt Hill
#
# Bulk Modulus (GPa) = 40.82873 47.08048 43.95461
# Shear Modulus (GPa) = 22.16738 23.15794 22.66266
#
# Velocity S-wave (km/s) = 3.50042 3.57778 3.53931
# Velocity P-wave (km/s) = 6.23741 6.56437 6.40298
#
# Compressibility (1/GPa) = 0.02449255
#
# Stress axis : x y z
#
# Youngs Moduli (GPa) = 41.12849 46.93266 68.46882
#
# Poissons Ratio (x) = 0.19064 0.51111
# Poissons Ratio (y) = 0.16706 0.43410
# Poissons Ratio (z) = 0.30702 0.29756
#
# Static dielectric constant tensor:
#      x y z
#    x 3.048750 0.000000 0.000000 
#    y 0.000000 5.448720 0.000000 
#    z 0.000000 0.000000 3.450620 
# 
# 
# High freq. dielectric constant tensor:
#      x y z
#    x 1.667070 0.000000 0.000000 
#    y 0.000000 1.712210 0.000000 
#    z 0.000000 0.000000 1.694050 
# 
# From -- ./inp_files/44829.got.cif
#   From: 2010.06.25/outbox.cif.g09.slc.cpg/sg52_23_cif.got.tgz:44829.got - 2010.06.26 19:32:48.
