data_PCOD8215186
_publ_section_title
;
Structure prediction by ZEFSAII (Michael W. Deem and Ramdas Pophale) SiO2 
 PCOD8215186
Probable space group: P N N A
;
_chemical_formula_sum "Si O2"
_cell_formula_units_Z 40
_cell_length_a 9.267978
_cell_length_b 19.697908
_cell_length_c 10.253546
_cell_angle_alpha 90.000000
_cell_angle_beta 90.000000
_cell_angle_gamma 90.000000
_cell_volume 1871.885081
_symmetry_space_group_name_H-M "P N N A"
_symmetry_group_IT_number 52
_symmetry_cell_setting 'orthorhombic'
loop_
_space_group_symop_operation_xyz
x,y,z
1/2-x,-y,z
x,1/2-y,1/2-z
1/2-x,1/2+y,1/2-z
-x,-y,-z
1/2+x,y,-z
-x,1/2+y,1/2+z
1/2+x,1/2-y,1/2+z
loop_
_atom_site_type_symbol
_atom_site_label
_atom_site_fract_x
_atom_site_fract_y
_atom_site_fract_z
Si Si1 0.040865 0.237450 0.392439
Si Si2 0.240704 0.287591 0.614031
Si Si3 0.821511 0.932064 0.196685
Si Si4 0.900172 0.091585 0.420301
Si Si5 0.899562 0.476247 0.816695
O O1 0.112050 0.250000 0.250000
O O2 0.911733 0.291379 0.411971
O O3 0.960858 0.166022 0.400991
O O4 0.162883 0.245256 0.500559
O O5 0.203530 0.250000 0.750000
O O6 0.192514 0.365992 0.606817
O O7 0.745617 0.918688 0.336597
O O8 0.993300 0.941990 0.213075
O O9 0.750000 0.000000 0.132769
O O10 0.858532 0.077650 0.570150
O O11 0.025172 0.041668 0.376526
O O12 0.750000 0.500000 0.748278
#
# Coordination Sequence:
#
# PCOD8215186 Si02
#       5
#     8   8   8   8   8
#     4  11  24  42  67  92 132 173 220 270 327 392
#     4  11  23  44  66  98 129 174 222 275 330 386
#     4  10  20  39  62  87 130 174 209 265 332 390
#     4  10  18  35  58  88 125 170 206 262 326 380
#     4  10  20  31  59  97 127 161 215 267 318 378
#
# _framework density 21.368832999999999
#
# number of rings (size 3 to 8) (size 9 to 14) (size 15 to 20)
#    0.000    1.600    4.000    4.200    2.800    0.800 
#    3.600    1.000    0.000    0.000    0.000    0.000 
#    0.000    0.000    0.000    0.000    0.000    0.000 
#
# Total GULP energy -495954.358227 kJ/mol
# GULP energy per Si atom -12398.858956 kJ/mol
# Density = 2.132020 g / cm^3
# Si number density = 21.368833 Si / 1000 Ang^3
#
#
#
# Elastic Constant Matrix: (Units=GPa)
#
#
# Indices 1 2 3 4 5 6 
#
# 1 77.3093 -11.7568 30.0780 0.0000 0.0000 0.0000
# 2 -11.7568 89.6418 4.5722 0.0000 0.0000 0.0000
# 3 30.0780 4.5722 73.0569 0.0000 0.0000 0.0000
# 4 0.0000 0.0000 0.0000 25.9326 0.0000 0.0000
# 5 0.0000 0.0000 0.0000 0.0000 13.6800 0.0000
# 6 0.0000 0.0000 0.0000 0.0000 0.0000 26.6147
#
#
#
# Elastic Compliance Matrix: (Units=1/GPa)
#
#
# Indices 1 2 3 4 5 6 
#
# 1 0.015912 0.002429 -0.006703 0.000000 0.000000 0.000000
# 2 0.002429 0.011562 -0.001724 0.000000 0.000000 0.000000
# 3 -0.006703 -0.001724 0.016556 0.000000 0.000000 0.000000
# 4 0.000000 0.000000 0.000000 0.038562 0.000000 0.000000
# 5 0.000000 0.000000 0.000000 0.000000 0.073100 0.000000
# 6 0.000000 0.000000 0.000000 0.000000 0.000000 0.037573
#
#
# Mechanical properties :
#
#
# Convention : Reuss Voigt Hill
#
# Bulk Modulus (GPa) = 31.21677 31.75497 31.48587
# Shear Modulus (GPa) = 23.15478 27.71977 25.43727
#
# Velocity S-wave (km/s) = 3.29534 3.60558 3.45395
# Velocity P-wave (km/s) = 5.39623 5.67682 5.53830
#
# Compressibility (1/GPa) = 0.03203406
#
# Stress axis : x y z
#
# Youngs Moduli (GPa) = 62.84408 86.49046 60.40255
#
# Poissons Ratio (x) = -0.21007 0.40489
# Poissons Ratio (y) = -0.15264 0.10411
# Poissons Ratio (z) = 0.42126 0.14907
#
# Static dielectric constant tensor:
#      x y z
#    x 3.951570 0.000000 0.000000 
#    y 0.000000 4.127100 0.000000 
#    z 0.000000 0.000000 3.568660 
# 
# 
# High freq. dielectric constant tensor:
#      x y z
#    x 1.841930 0.000000 0.000000 
#    y 0.000000 1.852590 0.000000 
#    z 0.000000 0.000000 1.795350 
# 
# From -- ./inp_files/16625.got.cif
#   From: 2010.06.25/outbox.cif.g09.slc.cpg/sg52_9_cif.got.tgz:16625.got - 2010.06.26 19:32:48.
