data_PCOD8215559
_publ_section_title
;
Structure prediction by ZEFSAII (Michael W. Deem and Ramdas Pophale) SiO2 
 PCOD8215559
Probable space group: P N N A
;
_chemical_formula_sum "Si O2"
_cell_formula_units_Z 48
_cell_length_a 10.029252
_cell_length_b 21.016431
_cell_length_c 9.479623
_cell_angle_alpha 90.000000
_cell_angle_beta 90.000000
_cell_angle_gamma 90.000000
_cell_volume 1998.106240
_symmetry_space_group_name_H-M "P N N A"
_symmetry_group_IT_number 52
_symmetry_cell_setting 'orthorhombic'
loop_
_space_group_symop_operation_xyz
x,y,z
1/2-x,-y,z
x,1/2-y,1/2-z
1/2-x,1/2+y,1/2-z
-x,-y,-z
1/2+x,y,-z
-x,1/2+y,1/2+z
1/2+x,1/2-y,1/2+z
loop_
_atom_site_type_symbol
_atom_site_label
_atom_site_fract_x
_atom_site_fract_y
_atom_site_fract_z
Si Si1 0.347119 0.118417 0.076706
Si Si2 0.881904 0.239520 0.544699
Si Si3 0.353345 0.887663 0.837288
Si Si4 0.608439 0.250000 0.250000
Si Si5 0.687214 0.357710 0.823885
Si Si6 0.502034 0.750000 0.250000
Si Si7 0.376452 0.542249 0.958945
O O1 0.323574 0.193978 0.099388
O O2 0.506045 0.104815 0.076338
O O3 0.271166 0.095385 0.218934
O O4 0.270546 0.090530 0.938506
O O5 0.780704 0.184223 0.577159
O O6 0.897612 0.243556 0.378623
O O7 0.021802 0.224584 0.618792
O O8 0.315210 0.814108 0.799267
O O9 0.366296 0.933171 0.702460
O O10 0.585366 0.313860 0.734958
O O11 0.606403 0.399470 0.934355
O O12 0.250000 0.500000 0.993461
O O13 0.500000 0.500000 0.000000
#
# Coordination Sequence:
#
# PCOD8215559 Si02
#       7
#     8   8   8   4   8   4   8
#     4  11  23  43  70 112 147 190 232 322 394 455
#     4  11  22  38  64 110 154 186 231 295 397 463
#     4  11  25  46  74 109 155 191 261 313 391 459
#     4  10  19  41  72 104 156 194 230 318 396 452
#     4  12  23  46  72 106 157 196 251 317 389 460
#     4  12  25  37  70 112 152 194 238 312 398 452
#     4  12  31  53  79 107 150 216 273 309 374 466
#
# _framework density 24.022746999999999
#
# number of rings (size 3 to 8) (size 9 to 14) (size 15 to 20)
#    0.000    0.667    5.000    4.000    7.000    1.333 
#    0.000    4.167    0.000    0.000    0.000    0.000 
#    0.000    0.000    0.000    0.000    0.000    0.000 
#
# Total GULP energy -595005.713360 kJ/mol
# GULP energy per Si atom -12395.952362 kJ/mol
# Density = 2.396807 g / cm^3
# Si number density = 24.022747 Si / 1000 Ang^3
#
#
#
# Elastic Constant Matrix: (Units=GPa)
#
#
# Indices 1 2 3 4 5 6 
#
# 1 61.4444 8.4723 24.8494 0.0000 0.0000 0.0000
# 2 8.4723 51.6505 6.0209 0.0000 0.0000 0.0000
# 3 24.8494 6.0209 121.6810 0.0000 0.0000 0.0000
# 4 0.0000 0.0000 0.0000 39.2833 0.0000 0.0000
# 5 0.0000 0.0000 0.0000 0.0000 48.6067 0.0000
# 6 0.0000 0.0000 0.0000 0.0000 0.0000 27.2150
#
#
#
# Elastic Compliance Matrix: (Units=1/GPa)
#
#
# Indices 1 2 3 4 5 6 
#
# 1 0.018067 -0.002548 -0.003564 0.000000 0.000000 0.000000
# 2 -0.002548 0.019833 -0.000461 0.000000 0.000000 0.000000
# 3 -0.003564 -0.000461 0.008969 0.000000 0.000000 0.000000
# 4 0.000000 0.000000 0.000000 0.025456 0.000000 0.000000
# 5 0.000000 0.000000 0.000000 0.000000 0.020573 0.000000
# 6 0.000000 0.000000 0.000000 0.000000 0.000000 0.036744
#
#
# Mechanical properties :
#
#
# Convention : Reuss Voigt Hill
#
# Bulk Modulus (GPa) = 29.65311 34.82902 32.24106
# Shear Modulus (GPa) = 32.46135 36.04989 34.25562
#
# Velocity S-wave (km/s) = 3.67996 3.87803 3.78029
# Velocity P-wave (km/s) = 5.51604 5.88065 5.70126
#
# Compressibility (1/GPa) = 0.03372328
#
# Stress axis : x y z
#
# Youngs Moduli (GPa) = 55.34817 50.42198 111.49804
#
# Poissons Ratio (x) = 0.12849 0.39733
# Poissons Ratio (y) = 0.14104 0.05139
# Poissons Ratio (z) = 0.19724 0.02324
#
# Static dielectric constant tensor:
#      x y z
#    x 4.344650 0.000000 0.000000 
#    y 0.000000 4.105590 0.000000 
#    z 0.000000 0.000000 4.607190 
# 
# 
# High freq. dielectric constant tensor:
#      x y z
#    x 1.961790 0.000000 0.000000 
#    y 0.000000 1.917810 0.000000 
#    z 0.000000 0.000000 1.973630 
# 
# From -- ./inp_files/8890.got.cif
#   From: 2010.06.25/outbox.cif.g09.slc.cpg/sg52_5_cif.got.tgz:8890.got - 2010.06.26 19:32:48.
