data_PCOD8215130
_publ_section_title
;
Structure prediction by ZEFSAII (Michael W. Deem and Ramdas Pophale) SiO2 
 PCOD8215130
Probable space group: P N N A
;
_chemical_formula_sum "Si O2"
_cell_formula_units_Z 32
_cell_length_a 12.427222
_cell_length_b 8.243201
_cell_length_c 14.448048
_cell_angle_alpha 90.000000
_cell_angle_beta 90.000000
_cell_angle_gamma 90.000000
_cell_volume 1480.059320
_symmetry_space_group_name_H-M "P N N A"
_symmetry_group_IT_number 52
_symmetry_cell_setting 'orthorhombic'
loop_
_space_group_symop_operation_xyz
x,y,z
1/2-x,-y,z
x,1/2-y,1/2-z
1/2-x,1/2+y,1/2-z
-x,-y,-z
1/2+x,y,-z
-x,1/2+y,1/2+z
1/2+x,1/2-y,1/2+z
loop_
_atom_site_type_symbol
_atom_site_label
_atom_site_fract_x
_atom_site_fract_y
_atom_site_fract_z
Si Si1 0.778140 0.313667 0.850095
Si Si2 0.285684 0.680461 0.535741
Si Si3 0.343466 0.383916 0.824771
Si Si4 0.971904 0.685407 0.150255
O O1 0.750000 0.500000 0.860061
O O2 0.742119 0.250000 0.750000
O O3 0.903789 0.283480 0.868443
O O4 0.712785 0.210511 0.925725
O O5 0.250000 0.500000 0.559610
O O6 0.200582 0.802889 0.581849
O O7 0.405307 0.714363 0.573843
O O8 0.250000 0.500000 0.782279
O O9 0.378155 0.250000 0.750000
O O10 0.446440 0.492446 0.852886
O O11 0.935314 0.750000 0.250000
#
# Coordination Sequence:
#
# PCOD8215130 Si02
#       4
#     8   8   8   8
#     4  11  25  44  63  87 123 164 205 252 307 365
#     4  11  22  38  63  91 123 159 203 254 305 361
#     4  10  18  32  58  91 124 154 193 251 307 360
#     4  10  22  40  63  92 123 158 203 251 304 367
#
# _framework density 21.620754999999999
#
# number of rings (size 3 to 8) (size 9 to 14) (size 15 to 20)
#    0.000    1.500    0.000    8.250    0.000    6.000 
#    0.000    0.000    0.000    1.500    0.000    0.000 
#    0.000    0.000    0.000    0.000    0.000    0.000 
#
# Total GULP energy -396973.036766 kJ/mol
# GULP energy per Si atom -12405.407399 kJ/mol
# Density = 2.157155 g / cm^3
# Si number density = 21.620755 Si / 1000 Ang^3
#
#
#
# Elastic Constant Matrix: (Units=GPa)
#
#
# Indices 1 2 3 4 5 6 
#
# 1 68.7036 25.4360 58.2746 0.0000 0.0000 0.0000
# 2 25.4360 126.6988 34.8162 0.0000 0.0000 0.0000
# 3 58.2746 34.8162 142.8985 0.0000 0.0000 0.0000
# 4 0.0000 0.0000 0.0000 36.6546 0.0000 0.0000
# 5 0.0000 0.0000 0.0000 0.0000 27.7758 0.0000
# 6 0.0000 0.0000 0.0000 0.0000 0.0000 22.5495
#
#
#
# Elastic Compliance Matrix: (Units=1/GPa)
#
#
# Indices 1 2 3 4 5 6 
#
# 1 0.022794 -0.002167 -0.008768 0.000000 0.000000 0.000000
# 2 -0.002167 0.008665 -0.001228 0.000000 0.000000 0.000000
# 3 -0.008768 -0.001228 0.010873 0.000000 0.000000 0.000000
# 4 0.000000 0.000000 0.000000 0.027282 0.000000 0.000000
# 5 0.000000 0.000000 0.000000 0.000000 0.036003 0.000000
# 6 0.000000 0.000000 0.000000 0.000000 0.000000 0.044347
#
#
# Mechanical properties :
#
#
# Convention : Reuss Voigt Hill
#
# Bulk Modulus (GPa) = 55.53156 63.92830 59.72993
# Shear Modulus (GPa) = 27.73316 32.04760 29.89038
#
# Velocity S-wave (km/s) = 3.58538 3.85419 3.72221
# Velocity P-wave (km/s) = 6.54829 7.03126 6.79407
#
# Compressibility (1/GPa) = 0.01800778
#
# Stress axis : x y z
#
# Youngs Moduli (GPa) = 43.87072 115.40588 91.97480
#
# Poissons Ratio (x) = 0.25007 0.80640
# Poissons Ratio (y) = 0.09506 0.11290
# Poissons Ratio (z) = 0.38464 0.14166
#
# Static dielectric constant tensor:
#      x y z
#    x 3.692740 0.000000 0.000000 
#    y 0.000000 4.116350 0.000000 
#    z 0.000000 0.000000 4.033340 
# 
# 
# High freq. dielectric constant tensor:
#      x y z
#    x 1.830230 0.000000 0.000000 
#    y 0.000000 1.861130 0.000000 
#    z 0.000000 0.000000 1.854890 
# 
# From -- ./inp_files/18870.got.cif
#   From: 2010.06.25/outbox.cif.g09.slc.cpg/sg52_10_cif.got.tgz:18870.got - 2010.06.26 19:32:48.
