data_PCOD8215975
_publ_section_title
;
Structure prediction by ZEFSAII (Michael W. Deem and Ramdas Pophale) SiO2 
 PCOD8215975
Probable space group: P N N A
;
_chemical_formula_sum "Si O2"
_cell_formula_units_Z 44
_cell_length_a 10.088767
_cell_length_b 16.038596
_cell_length_c 13.161839
_cell_angle_alpha 90.000000
_cell_angle_beta 90.000000
_cell_angle_gamma 90.000000
_cell_volume 2129.712668
_symmetry_space_group_name_H-M "P N N A"
_symmetry_group_IT_number 52
_symmetry_cell_setting 'orthorhombic'
loop_
_space_group_symop_operation_xyz
x,y,z
1/2-x,-y,z
x,1/2-y,1/2-z
1/2-x,1/2+y,1/2-z
-x,-y,-z
1/2+x,y,-z
-x,1/2+y,1/2+z
1/2+x,1/2-y,1/2+z
loop_
_atom_site_type_symbol
_atom_site_label
_atom_site_fract_x
_atom_site_fract_y
_atom_site_fract_z
Si Si1 0.599023 0.525235 0.911304
Si Si2 0.683423 0.698428 0.845300
Si Si3 0.547199 0.410062 0.532041
Si Si4 0.650199 0.750000 0.250000
Si Si5 0.935318 0.610919 0.756641
Si Si6 0.780698 0.308795 0.459711
O O1 0.750000 0.500000 0.940046
O O2 0.587879 0.623631 0.883568
O O3 0.545563 0.476060 0.813882
O O4 0.500000 0.500000 0.000000
O O5 0.617858 0.750000 0.750000
O O6 0.820062 0.663694 0.805006
O O7 0.730097 0.751140 0.941933
O O8 0.500000 0.500000 0.500000
O O9 0.608052 0.414288 0.643990
O O10 0.663277 0.377037 0.458420
O O11 0.424830 0.347977 0.531913
O O12 0.567664 0.665203 0.237895
O O13 0.736187 0.741799 0.353533
#
# Coordination Sequence:
#
# PCOD8215975 Si02
#       6
#     8   8   8   4   8   8
#     4  10  23  39  65  98 131 173 219 277 330 400
#     4  11  20  38  68  97 124 170 236 267 312 398
#     4  11  24  41  64  91 131 167 219 268 328 384
#     4  10  20  40  64  94 134 176 216 268 346 380
#     4  10  20  41  65  90 130 178 216 263 327 401
#     4  11  23  41  65  93 127 172 211 273 322 396
#
# _framework density 20.660063000000001
#
# number of rings (size 3 to 8) (size 9 to 14) (size 15 to 20)
#    0.000    1.455    2.727    2.727    2.545    2.909 
#    1.636    7.273    0.000    0.000    0.000    0.000 
#    0.000    0.000    0.000    0.000    0.000    0.000 
#
# Total GULP energy -545510.895736 kJ/mol
# GULP energy per Si atom -12397.974903 kJ/mol
# Density = 2.061304 g / cm^3
# Si number density = 20.660063 Si / 1000 Ang^3
#
#
#
# Elastic Constant Matrix: (Units=GPa)
#
#
# Indices 1 2 3 4 5 6 
#
# 1 74.4290 22.6687 47.2503 0.0000 0.0000 0.0000
# 2 22.6687 117.1866 62.2365 0.0000 0.0000 0.0000
# 3 47.2503 62.2365 170.8287 0.0000 0.0000 0.0000
# 4 0.0000 0.0000 0.0000 43.7161 0.0000 0.0000
# 5 0.0000 0.0000 0.0000 0.0000 33.0777 0.0000
# 6 0.0000 0.0000 0.0000 0.0000 0.0000 30.5310
#
#
#
# Elastic Compliance Matrix: (Units=1/GPa)
#
#
# Indices 1 2 3 4 5 6 
#
# 1 0.016381 -0.000945 -0.004187 0.000000 0.000000 0.000000
# 2 -0.000945 0.010635 -0.003613 0.000000 0.000000 0.000000
# 3 -0.004187 -0.003613 0.008328 0.000000 0.000000 0.000000
# 4 0.000000 0.000000 0.000000 0.022875 0.000000 0.000000
# 5 0.000000 0.000000 0.000000 0.000000 0.030232 0.000000
# 6 0.000000 0.000000 0.000000 0.000000 0.000000 0.032754
#
#
# Mechanical properties :
#
#
# Convention : Reuss Voigt Hill
#
# Bulk Modulus (GPa) = 56.00832 69.63948 62.82390
# Shear Modulus (GPa) = 34.56700 36.81755 35.69227
#
# Velocity S-wave (km/s) = 4.09483 4.22603 4.16095
# Velocity P-wave (km/s) = 7.03741 7.58900 7.31840
#
# Compressibility (1/GPa) = 0.01785449
#
# Stress axis : x y z
#
# Youngs Moduli (GPa) = 61.04502 94.02763 120.07477
#
# Poissons Ratio (x) = 0.08889 0.50270
# Poissons Ratio (y) = 0.05771 0.43385
# Poissons Ratio (z) = 0.25557 0.33973
#
# Static dielectric constant tensor:
#      x y z
#    x 3.610170 0.000000 0.000000 
#    y 0.000000 4.722670 0.000000 
#    z 0.000000 0.000000 23.845000 
# 
# 
# High freq. dielectric constant tensor:
#      x y z
#    x 1.789410 0.000000 0.000000 
#    y 0.000000 1.819830 0.000000 
#    z 0.000000 0.000000 1.825040 
# 
# From -- ./inp_files/18163.got.cif
#   From: 2010.06.25/outbox.cif.g09.slc.cpg/sg52_10_cif.got.tgz:18163.got - 2010.06.26 19:32:48.
