data_PCOD8215515
_publ_section_title
;
Structure prediction by ZEFSAII (Michael W. Deem and Ramdas Pophale) SiO2 
 PCOD8215515
Probable space group: P N N A
;
_chemical_formula_sum "Si O2"
_cell_formula_units_Z 32
_cell_length_a 15.822468
_cell_length_b 10.060226
_cell_length_c 9.228103
_cell_angle_alpha 90.000000
_cell_angle_beta 90.000000
_cell_angle_gamma 90.000000
_cell_volume 1468.907325
_symmetry_space_group_name_H-M "P N N A"
_symmetry_group_IT_number 52
_symmetry_cell_setting 'orthorhombic'
loop_
_space_group_symop_operation_xyz
x,y,z
1/2-x,-y,z
x,1/2-y,1/2-z
1/2-x,1/2+y,1/2-z
-x,-y,-z
1/2+x,y,-z
-x,1/2+y,1/2+z
1/2+x,1/2-y,1/2+z
loop_
_atom_site_type_symbol
_atom_site_label
_atom_site_fract_x
_atom_site_fract_y
_atom_site_fract_z
Si Si1 0.697561 0.623508 0.147765
Si Si2 0.969726 0.395103 0.282299
Si Si3 0.616805 0.975866 0.926827
Si Si4 0.767143 0.706227 0.598462
O O1 0.750000 0.500000 0.210273
O O2 0.708223 0.750000 0.250000
O O3 0.598479 0.576447 0.152818
O O4 0.736838 0.665847 0.993601
O O5 0.008424 0.250000 0.250000
O O6 0.919858 0.398313 0.435137
O O7 0.046196 0.499787 0.300701
O O8 0.660472 0.115524 0.978485
O O9 0.686062 0.881196 0.857092
O O10 0.807847 0.750000 0.750000
#
# Coordination Sequence:
#
# PCOD8215515 Si02
#       4
#     8   8   8   8
#     4  11  22  40  67  96 125 165 222 274 322 392
#     4  10  19  38  64  96 123 169 215 271 327 388
#     4  10  21  39  65  89 131 172 211 266 334 388
#     4  11  23  40  63  93 129 172 217 266 328 394
#
# _framework density 21.784901999999999
#
# number of rings (size 3 to 8) (size 9 to 14) (size 15 to 20)
#    0.000    1.500    5.000    2.250    3.500    0.000 
#    0.000    7.500    0.000    0.000    0.000    0.000 
#    0.000    0.000    0.000    0.000    0.000    0.000 
#
# Total GULP energy -396418.626656 kJ/mol
# GULP energy per Si atom -12388.082083 kJ/mol
# Density = 2.173532 g / cm^3
# Si number density = 21.784902 Si / 1000 Ang^3
#
#
#
# Elastic Constant Matrix: (Units=GPa)
#
#
# Indices 1 2 3 4 5 6 
#
# 1 97.6072 43.3472 14.8060 0.0000 0.0000 0.0000
# 2 43.3472 92.0839 25.1599 0.0000 0.0000 0.0000
# 3 14.8060 25.1599 79.0306 0.0000 0.0000 0.0000
# 4 0.0000 0.0000 0.0000 34.1928 0.0000 0.0000
# 5 0.0000 0.0000 0.0000 0.0000 13.3893 0.0000
# 6 0.0000 0.0000 0.0000 0.0000 0.0000 18.4910
#
#
#
# Elastic Compliance Matrix: (Units=1/GPa)
#
#
# Indices 1 2 3 4 5 6 
#
# 1 0.012973 -0.005962 -0.000533 0.000000 0.000000 0.000000
# 2 -0.005962 0.014634 -0.003542 0.000000 0.000000 0.000000
# 3 -0.000533 -0.003542 0.013881 0.000000 0.000000 0.000000
# 4 0.000000 0.000000 0.000000 0.029246 0.000000 0.000000
# 5 0.000000 0.000000 0.000000 0.000000 0.074686 0.000000
# 6 0.000000 0.000000 0.000000 0.000000 0.000000 0.054080
#
#
# Mechanical properties :
#
#
# Convention : Reuss Voigt Hill
#
# Bulk Modulus (GPa) = 46.69451 48.37197 47.53324
# Shear Modulus (GPa) = 22.05449 25.57519 23.81484
#
# Velocity S-wave (km/s) = 3.18524 3.43007 3.30992
# Velocity P-wave (km/s) = 5.91680 6.15952 6.03938
#
# Compressibility (1/GPa) = 0.02141579
#
# Stress axis : x y z
#
# Youngs Moduli (GPa) = 77.08046 68.33534 72.04255
#
# Poissons Ratio (x) = 0.40738 0.03837
# Poissons Ratio (y) = 0.45952 0.25516
# Poissons Ratio (z) = 0.04105 0.24203
#
# Static dielectric constant tensor:
#      x y z
#    x 4.262130 0.000000 0.000000 
#    y 0.000000 4.079220 0.000000 
#    z 0.000000 0.000000 3.639150 
# 
# 
# High freq. dielectric constant tensor:
#      x y z
#    x 1.869470 0.000000 0.000000 
#    y 0.000000 1.853590 0.000000 
#    z 0.000000 0.000000 1.820650 
# 
# From -- ./inp_files/11499.got.cif
#   From: 2010.06.25/outbox.cif.g09.slc.cpg/sg52_6_cif.got.tgz:11499.got - 2010.06.26 19:32:48.
