data_PCOD8215138
_publ_section_title
;
Structure prediction by ZEFSAII (Michael W. Deem and Ramdas Pophale) SiO2 
 PCOD8215138
Probable space group: P N N A
;
_chemical_formula_sum "Si O2"
_cell_formula_units_Z 48
_cell_length_a 20.933964
_cell_length_b 23.560332
_cell_length_c 4.929186
_cell_angle_alpha 90.000000
_cell_angle_beta 90.000000
_cell_angle_gamma 90.000000
_cell_volume 2431.129456
_symmetry_space_group_name_H-M "P N N A"
_symmetry_group_IT_number 52
_symmetry_cell_setting 'orthorhombic'
loop_
_space_group_symop_operation_xyz
x,y,z
1/2-x,-y,z
x,1/2-y,1/2-z
1/2-x,1/2+y,1/2-z
-x,-y,-z
1/2+x,y,-z
-x,1/2+y,1/2+z
1/2+x,1/2-y,1/2+z
loop_
_atom_site_type_symbol
_atom_site_label
_atom_site_fract_x
_atom_site_fract_y
_atom_site_fract_z
Si Si1 0.636525 0.930073 0.002738
Si Si2 0.721924 0.939480 0.498001
Si Si3 0.410784 0.951248 0.929846
Si Si4 0.016338 0.632662 0.383704
Si Si5 0.042327 0.188649 0.384864
Si Si6 0.146970 0.395924 0.058821
O O1 0.681691 0.911129 0.252631
O O2 0.590243 0.980918 0.105702
O O3 0.677960 0.952609 0.754499
O O4 0.592403 0.878235 0.894343
O O5 0.776554 0.895377 0.602840
O O6 0.750000 0.000000 0.399727
O O7 0.478820 0.926433 0.824759
O O8 0.357704 0.922156 0.741059
O O9 0.391941 0.935794 0.235981
O O10 0.996323 0.649130 0.683974
O O11 0.996378 0.682359 0.169998
O O12 0.044674 0.250000 0.250000
O O13 0.115513 0.167081 0.427156
#
# Coordination Sequence:
#
# PCOD8215138 Si02
#       6
#     8   8   8   8   8   8
#     4  12  21  33  53  79 120 155 182 218 278 339
#     4  12  21  33  52  78 120 160 191 212 264 344
#     4  10  18  33  51  77 115 148 181 226 267 334
#     4  10  22  35  55  85 109 140 190 234 290 341
#     4  10  21  40  62  79 103 138 188 252 300 326
#     4  10  20  33  53  82 107 145 195 228 266 333
#
# _framework density 19.74391
#
# number of rings (size 3 to 8) (size 9 to 14) (size 15 to 20)
#    0.000    1.333    3.333    3.500    0.000    0.000 
#    0.000    6.667    0.000    4.000    0.000    0.000 
#    0.000    0.000    0.000    0.000    0.000    0.000 
#
# Total GULP energy -594946.048065 kJ/mol
# GULP energy per Si atom -12394.709335 kJ/mol
# Density = 1.969897 g / cm^3
# Si number density = 19.743910 Si / 1000 Ang^3
#
#
#
# Elastic Constant Matrix: (Units=GPa)
#
#
# Indices 1 2 3 4 5 6 
#
# 1 108.5863 47.2414 35.6823 0.0000 0.0000 0.0000
# 2 47.2414 71.6863 14.7708 0.0000 0.0000 0.0000
# 3 35.6823 14.7708 92.8592 0.0000 0.0000 0.0000
# 4 0.0000 0.0000 0.0000 23.9330 0.0000 0.0000
# 5 0.0000 0.0000 0.0000 0.0000 27.3046 0.0000
# 6 0.0000 0.0000 0.0000 0.0000 0.0000 14.9420
#
#
#
# Elastic Compliance Matrix: (Units=1/GPa)
#
#
# Indices 1 2 3 4 5 6 
#
# 1 0.014294 -0.008569 -0.004130 0.000000 0.000000 0.000000
# 2 -0.008569 0.019559 0.000182 0.000000 0.000000 0.000000
# 3 -0.004130 0.000182 0.012327 0.000000 0.000000 0.000000
# 4 0.000000 0.000000 0.000000 0.041783 0.000000 0.000000
# 5 0.000000 0.000000 0.000000 0.000000 0.036624 0.000000
# 6 0.000000 0.000000 0.000000 0.000000 0.000000 0.066925
#
#
# Mechanical properties :
#
#
# Convention : Reuss Voigt Hill
#
# Bulk Modulus (GPa) = 47.28994 52.05787 49.67391
# Shear Modulus (GPa) = 22.36168 24.93172 23.64670
#
# Velocity S-wave (km/s) = 3.36904 3.55738 3.46449
# Velocity P-wave (km/s) = 6.25600 6.58005 6.42007
#
# Compressibility (1/GPa) = 0.02114615
#
# Stress axis : x y z
#
# Youngs Moduli (GPa) = 69.95742 51.12648 81.12262
#
# Poissons Ratio (x) = 0.43811 0.33502
# Poissons Ratio (y) = 0.59947 -0.01473
# Poissons Ratio (z) = 0.28891 -0.00928
#
# Static dielectric constant tensor:
#      x y z
#    x 3.686250 0.000000 0.000000 
#    y 0.000000 3.222420 0.000000 
#    z 0.000000 0.000000 3.757490 
# 
# 
# High freq. dielectric constant tensor:
#      x y z
#    x 1.765830 0.000000 0.000000 
#    y 0.000000 1.718640 0.000000 
#    z 0.000000 0.000000 1.790610 
# 
# From -- ./inp_files/4382.got.cif
#   From: 2010.06.25/outbox.cif.g09.slc.cpg/sg52_3_cif.got.tgz:4382.got - 2010.06.26 19:32:48.
