data_PCOD8215612
_publ_section_title
;
Structure prediction by ZEFSAII (Michael W. Deem and Ramdas Pophale) SiO2 
 PCOD8215612
Probable space group: P N N A
;
_chemical_formula_sum "Si O2"
_cell_formula_units_Z 64
_cell_length_a 4.976262
_cell_length_b 22.375994
_cell_length_c 28.890249
_cell_angle_alpha 90.000000
_cell_angle_beta 90.000000
_cell_angle_gamma 90.000000
_cell_volume 3216.894808
_symmetry_space_group_name_H-M "P N N A"
_symmetry_group_IT_number 52
_symmetry_cell_setting 'orthorhombic'
loop_
_space_group_symop_operation_xyz
x,y,z
1/2-x,-y,z
x,1/2-y,1/2-z
1/2-x,1/2+y,1/2-z
-x,-y,-z
1/2+x,y,-z
-x,1/2+y,1/2+z
1/2+x,1/2-y,1/2+z
loop_
_atom_site_type_symbol
_atom_site_label
_atom_site_fract_x
_atom_site_fract_y
_atom_site_fract_z
Si Si1 0.248040 0.620304 0.734249
Si Si2 0.880478 0.146493 0.528559
Si Si3 0.778802 0.931653 0.139199
Si Si4 0.117546 0.716293 0.469201
Si Si5 0.211981 0.145012 0.121500
Si Si6 0.249224 0.690705 0.279590
Si Si7 0.515691 0.960537 0.591673
Si Si8 0.510437 0.538674 0.804782
O O1 0.220501 0.570476 0.694302
O O2 0.432981 0.675967 0.718826
O O3 0.421142 0.596784 0.777179
O O4 0.946761 0.642601 0.745990
O O5 0.570283 0.134714 0.516046
O O6 0.896270 0.214548 0.545826
O O7 0.998420 0.103323 0.567490
O O8 0.570596 0.888494 0.112043
O O9 0.078914 0.908144 0.131449
O O10 0.750000 0.000000 0.122042
O O11 0.327734 0.700180 0.509833
O O12 0.189295 0.680354 0.423216
O O13 0.170503 0.190445 0.165477
O O14 0.296402 0.750000 0.250000
O O15 0.601272 0.943202 0.643860
O O16 0.250000 0.000000 0.586992
O O17 0.750000 0.000000 0.568420
O O18 0.750000 0.500000 0.780604
O O19 0.250000 0.500000 0.809260
#
# Coordination Sequence:
#
# PCOD8215612 Si02
#       8
#     8   8   8   8   8   8   8   8
#     4  10  20  34  54  78 107 147 184 218 263 311
#     4  10  21  36  55  79 103 135 184 230 273 329
#     4  10  20  35  58  85 113 143 180 223 269 334
#     4  10  21  39  61  82 107 141 184 230 270 324
#     4  10  21  37  59  85 112 147 183 225 283 329
#     4  10  21  36  53  81 115 144 182 224 267 325
#     4  10  21  35  51  76 109 142 179 227 278 324
#     4  10  20  34  51  74 106 141 181 221 261 314
#
# _framework density 19.894960000000001
#
# number of rings (size 3 to 8) (size 9 to 14) (size 15 to 20)
#    0.000    2.000    0.000    3.375    0.000    4.500 
#    0.000    3.750    0.000    7.500    0.000    0.000 
#    0.000    0.000    0.000    0.000    0.000    0.000 
#
# Total GULP energy -793121.740820 kJ/mol
# GULP energy per Si atom -12392.527200 kJ/mol
# Density = 1.984968 g / cm^3
# Si number density = 19.894960 Si / 1000 Ang^3
#
#
#
# Elastic Constant Matrix: (Units=GPa)
#
#
# Indices 1 2 3 4 5 6 
#
# 1 91.8533 18.9136 10.6407 0.0000 0.0000 0.0000
# 2 18.9136 90.4970 52.4845 0.0000 0.0000 0.0000
# 3 10.6407 52.4845 74.3047 0.0000 0.0000 0.0000
# 4 0.0000 0.0000 0.0000 20.9741 0.0000 0.0000
# 5 0.0000 0.0000 0.0000 0.0000 15.6128 0.0000
# 6 0.0000 0.0000 0.0000 0.0000 0.0000 27.4332
#
#
#
# Elastic Compliance Matrix: (Units=1/GPa)
#
#
# Indices 1 2 3 4 5 6 
#
# 1 0.011377 -0.002427 0.000085 0.000000 0.000000 0.000000
# 2 -0.002427 0.019236 -0.013239 0.000000 0.000000 0.000000
# 3 0.000085 -0.013239 0.022797 0.000000 0.000000 0.000000
# 4 0.000000 0.000000 0.000000 0.047678 0.000000 0.000000
# 5 0.000000 0.000000 0.000000 0.000000 0.064050 0.000000
# 6 0.000000 0.000000 0.000000 0.000000 0.000000 0.036452
#
#
# Mechanical properties :
#
#
# Convention : Reuss Voigt Hill
#
# Bulk Modulus (GPa) = 44.94934 46.74806 45.84870
# Shear Modulus (GPa) = 20.81873 24.44510 22.63191
#
# Velocity S-wave (km/s) = 3.23837 3.50910 3.37645
# Velocity P-wave (km/s) = 6.05187 6.32193 6.18837
#
# Compressibility (1/GPa) = 0.02224727
#
# Stress axis : x y z
#
# Youngs Moduli (GPa) = 87.89796 51.98684 43.86460
#
# Poissons Ratio (x) = 0.12618 -0.00374
# Poissons Ratio (y) = 0.21334 0.58074
# Poissons Ratio (z) = -0.00749 0.68827
#
# Static dielectric constant tensor:
#      x y z
#    x 3.876000 0.000000 0.000000 
#    y 0.000000 3.376310 0.000000 
#    z 0.000000 0.000000 3.535300 
# 
# 
# High freq. dielectric constant tensor:
#      x y z
#    x 1.802760 0.000000 0.000000 
#    y 0.000000 1.759900 0.000000 
#    z 0.000000 0.000000 1.753490 
# 
# From -- ./inp_files/43892.got.cif
#   From: 2010.06.25/outbox.cif.g09.slc.cpg/sg52_22_cif.got.tgz:43892.got - 2010.06.26 19:32:48.
