data_PCOD8215150
_publ_section_title
;
Structure prediction by ZEFSAII (Michael W. Deem and Ramdas Pophale) SiO2 
 PCOD8215150
Probable space group: P N N A
;
_chemical_formula_sum "Si O2"
_cell_formula_units_Z 52
_cell_length_a 7.890287
_cell_length_b 18.384932
_cell_length_c 19.694959
_cell_angle_alpha 90.000000
_cell_angle_beta 90.000000
_cell_angle_gamma 90.000000
_cell_volume 2856.997823
_symmetry_space_group_name_H-M "P N N A"
_symmetry_group_IT_number 52
_symmetry_cell_setting 'orthorhombic'
loop_
_space_group_symop_operation_xyz
x,y,z
1/2-x,-y,z
x,1/2-y,1/2-z
1/2-x,1/2+y,1/2-z
-x,-y,-z
1/2+x,y,-z
-x,1/2+y,1/2+z
1/2+x,1/2-y,1/2+z
loop_
_atom_site_type_symbol
_atom_site_label
_atom_site_fract_x
_atom_site_fract_y
_atom_site_fract_z
Si Si1 0.837269 0.719965 0.175579
Si Si2 0.336501 0.353060 0.432318
Si Si3 0.702080 0.726886 0.828282
Si Si4 0.728505 0.349438 0.420097
Si Si5 0.909878 0.045784 0.177018
Si Si6 0.250000 0.000000 0.121916
Si Si7 0.519864 0.831278 0.282043
O O1 0.876364 0.750000 0.250000
O O2 0.754442 0.782133 0.129966
O O3 0.696220 0.656161 0.176549
O O4 0.021075 0.691831 0.148859
O O5 0.265795 0.296281 0.376591
O O6 0.533020 0.371865 0.423928
O O7 0.299533 0.323482 0.507392
O O8 0.233037 0.427876 0.423549
O O9 0.699887 0.750000 0.750000
O O10 0.856071 0.668142 0.832736
O O11 0.838851 0.416573 0.391565
O O12 0.988142 0.105577 0.227366
O O13 0.750000 0.000000 0.207937
O O14 0.073645 0.994226 0.164340
O O15 0.534414 0.750000 0.250000
#
# Coordination Sequence:
#
# PCOD8215150 Si02
#       7
#     8   8   8   8   8   4   8
#     4   9  17  33  56  75  96 135 177 228 273 309
#     4  11  24  34  52  78 109 153 187 225 268 318
#     4   9  19  33  52  75  97 132 182 224 272 319
#     4  11  22  38  51  77 114 147 191 228 259 327
#     4  12  24  37  54  80 112 149 194 228 269 323
#     4  12  24  36  50  70 110 160 188 218 264 312
#     4  10  18  33  57  74  96 141 181 226 276 320
#
# _framework density 18.200924000000001
#
# number of rings (size 3 to 8) (size 9 to 14) (size 15 to 20)
#    0.000    1.538    4.615    2.769    3.231    2.462 
#    0.000    0.000    0.000    0.000    0.000    0.000 
#    0.000    1.231    3.538    0.615    0.000    0.000 
#
# Total GULP energy -644183.774591 kJ/mol
# GULP energy per Si atom -12388.149511 kJ/mol
# Density = 1.815950 g / cm^3
# Si number density = 18.200924 Si / 1000 Ang^3
#
#
#
# Elastic Constant Matrix: (Units=GPa)
#
#
# Indices 1 2 3 4 5 6 
#
# 1 137.9052 25.8866 26.2732 0.0000 0.0000 0.0000
# 2 25.8866 47.4097 50.3463 0.0000 0.0000 0.0000
# 3 26.2732 50.3463 84.7277 0.0000 0.0000 0.0000
# 4 0.0000 0.0000 0.0000 20.8199 0.0000 0.0000
# 5 0.0000 0.0000 0.0000 0.0000 24.7656 0.0000
# 6 0.0000 0.0000 0.0000 0.0000 0.0000 27.3127
#
#
#
# Elastic Compliance Matrix: (Units=1/GPa)
#
#
# Indices 1 2 3 4 5 6 
#
# 1 0.008083 -0.004747 0.000315 0.000000 0.000000 0.000000
# 2 -0.004747 0.059953 -0.034153 0.000000 0.000000 0.000000
# 3 0.000315 -0.034153 0.031999 0.000000 0.000000 0.000000
# 4 0.000000 0.000000 0.000000 0.048031 0.000000 0.000000
# 5 0.000000 0.000000 0.000000 0.000000 0.040379 0.000000
# 6 0.000000 0.000000 0.000000 0.000000 0.000000 0.036613
#
#
# Mechanical properties :
#
#
# Convention : Reuss Voigt Hill
#
# Bulk Modulus (GPa) = 43.73759 52.78387 48.26073
# Shear Modulus (GPa) = 16.13682 25.74874 20.94278
#
# Velocity S-wave (km/s) = 2.98080 3.76532 3.39579
# Velocity P-wave (km/s) = 5.99412 6.92583 6.47675
#
# Compressibility (1/GPa) = 0.02286363
#
# Stress axis : x y z
#
# Youngs Moduli (GPa) = 123.72328 16.67962 31.25081
#
# Poissons Ratio (x) = 0.07918 -0.00983
# Poissons Ratio (y) = 0.58735 1.06731
# Poissons Ratio (z) = -0.03892 0.56966
#
# Static dielectric constant tensor:
#      x y z
#    x 4.775120 0.000000 0.000000 
#    y 0.000000 2.882960 0.000000 
#    z 0.000000 0.000000 3.187580 
# 
# 
# High freq. dielectric constant tensor:
#      x y z
#    x 1.750740 0.000000 0.000000 
#    y 0.000000 1.653110 0.000000 
#    z 0.000000 0.000000 1.669660 
# 
# From -- ./inp_files/31440.got.cif
#   From: 2010.06.25/outbox.cif.g09.slc.cpg/sg52_16_cif.got.tgz:31440.got - 2010.06.26 19:32:48.
