data_PCOD8215592
_publ_section_title
;
Structure prediction by ZEFSAII (Michael W. Deem and Ramdas Pophale) SiO2 
 PCOD8215592
Probable space group: P N N A
;
_chemical_formula_sum "Si O2"
_cell_formula_units_Z 48
_cell_length_a 8.441323
_cell_length_b 25.523626
_cell_length_c 11.277907
_cell_angle_alpha 90.000000
_cell_angle_beta 90.000000
_cell_angle_gamma 90.000000
_cell_volume 2429.860828
_symmetry_space_group_name_H-M "P N N A"
_symmetry_group_IT_number 52
_symmetry_cell_setting 'orthorhombic'
loop_
_space_group_symop_operation_xyz
x,y,z
1/2-x,-y,z
x,1/2-y,1/2-z
1/2-x,1/2+y,1/2-z
-x,-y,-z
1/2+x,y,-z
-x,1/2+y,1/2+z
1/2+x,1/2-y,1/2+z
loop_
_atom_site_type_symbol
_atom_site_label
_atom_site_fract_x
_atom_site_fract_y
_atom_site_fract_z
Si Si1 0.071351 0.109166 0.616009
Si Si2 0.503144 0.303311 0.675364
Si Si3 0.438396 0.497802 0.133054
Si Si4 0.728731 0.271983 0.477085
Si Si5 0.445225 0.282055 0.142150
Si Si6 0.945076 0.105558 0.351667
O O1 0.258371 0.112881 0.634432
O O2 0.002451 0.057699 0.682758
O O3 0.981045 0.158102 0.676247
O O4 0.036095 0.110962 0.476093
O O5 0.499741 0.250000 0.750000
O O6 0.649394 0.304799 0.583475
O O7 0.343083 0.309753 0.598113
O O8 0.519701 0.351873 0.763773
O O9 0.250000 0.500000 0.138888
O O10 0.514698 0.547620 0.201138
O O11 0.500000 0.500000 0.000000
O O12 0.607639 0.247261 0.386022
O O13 0.827998 0.222568 0.529999
O O14 0.364986 0.250000 0.250000
#
# Coordination Sequence:
#
# PCOD8215592 Si02
#       6
#     8   8   8   8   8   8
#     4  11  20  33  54  82 116 146 183 231 280 343
#     4  11  22  37  57  82 115 154 189 230 283 334
#     4  10  20  33  51  79 114 146 180 226 283 342
#     4  10  22  36  51  81 115 144 188 229 267 331
#     4  11  21  34  53  78 107 143 178 220 274 325
#     4  11  21  35  56  82 115 151 184 226 286 347
#
# _framework density 19.754218999999999
#
# number of rings (size 3 to 8) (size 9 to 14) (size 15 to 20)
#    0.000    1.333    0.000   10.500    0.000    4.000 
#    0.000    0.000    0.000    0.000    0.000   29.167 
#    0.000    0.000    0.000    0.000    0.000    0.000 
#
# Total GULP energy -595113.184767 kJ/mol
# GULP energy per Si atom -12398.191349 kJ/mol
# Density = 1.970926 g / cm^3
# Si number density = 19.754219 Si / 1000 Ang^3
#
#
#
# Elastic Constant Matrix: (Units=GPa)
#
#
# Indices 1 2 3 4 5 6 
#
# 1 59.9229 4.7521 13.2378 0.0000 0.0000 0.0000
# 2 4.7521 153.0472 41.1809 0.0000 0.0000 0.0000
# 3 13.2378 41.1809 63.9877 0.0000 0.0000 0.0000
# 4 0.0000 0.0000 0.0000 29.0414 0.0000 0.0000
# 5 0.0000 0.0000 0.0000 0.0000 27.0661 0.0000
# 6 0.0000 0.0000 0.0000 0.0000 0.0000 21.0520
#
#
#
# Elastic Compliance Matrix: (Units=1/GPa)
#
#
# Indices 1 2 3 4 5 6 
#
# 1 0.017522 0.000522 -0.003961 0.000000 0.000000 0.000000
# 2 0.000522 0.007918 -0.005204 0.000000 0.000000 0.000000
# 3 -0.003961 -0.005204 0.019796 0.000000 0.000000 0.000000
# 4 0.000000 0.000000 0.000000 0.034434 0.000000 0.000000
# 5 0.000000 0.000000 0.000000 0.000000 0.036947 0.000000
# 6 0.000000 0.000000 0.000000 0.000000 0.000000 0.047501
#
#
# Mechanical properties :
#
#
# Convention : Reuss Voigt Hill
#
# Bulk Modulus (GPa) = 35.77736 43.92216 39.84976
# Shear Modulus (GPa) = 26.21650 29.95105 28.08377
#
# Velocity S-wave (km/s) = 3.64694 3.89805 3.77458
# Velocity P-wave (km/s) = 5.99033 6.52244 6.26204
#
# Compressibility (1/GPa) = 0.02795064
#
# Stress axis : x y z
#
# Youngs Moduli (GPa) = 57.07216 126.29602 50.51443
#
# Poissons Ratio (x) = -0.06588 0.20007
# Poissons Ratio (y) = -0.02977 0.26286
# Poissons Ratio (z) = 0.22604 0.65720
#
# Static dielectric constant tensor:
#      x y z
#    x 3.824560 0.000000 0.000000 
#    y 0.000000 4.366740 0.000000 
#    z 0.000000 0.000000 3.380020 
# 
# 
# High freq. dielectric constant tensor:
#      x y z
#    x 1.795600 0.000000 0.000000 
#    y 0.000000 1.767000 0.000000 
#    z 0.000000 0.000000 1.728520 
# 
# From -- ./inp_files/16972.got.cif
#   From: 2010.06.25/outbox.cif.g09.slc.cpg/sg52_9_cif.got.tgz:16972.got - 2010.06.26 19:32:48.
