data_PCOD8215772
_publ_section_title
;
Structure prediction by ZEFSAII (Michael W. Deem and Ramdas Pophale) SiO2 
 PCOD8215772
Probable space group: P N N A
;
_chemical_formula_sum "Si O2"
_cell_formula_units_Z 64
_cell_length_a 24.871398
_cell_length_b 14.892051
_cell_length_c 8.608487
_cell_angle_alpha 90.000000
_cell_angle_beta 90.000000
_cell_angle_gamma 90.000000
_cell_volume 3188.464163
_symmetry_space_group_name_H-M "P N N A"
_symmetry_group_IT_number 52
_symmetry_cell_setting 'orthorhombic'
loop_
_space_group_symop_operation_xyz
x,y,z
1/2-x,-y,z
x,1/2-y,1/2-z
1/2-x,1/2+y,1/2-z
-x,-y,-z
1/2+x,y,-z
-x,1/2+y,1/2+z
1/2+x,1/2-y,1/2+z
loop_
_atom_site_type_symbol
_atom_site_label
_atom_site_fract_x
_atom_site_fract_y
_atom_site_fract_z
Si Si1 0.810804 0.491727 0.779105
Si Si2 0.213444 0.686461 0.394007
Si Si3 0.829741 0.676997 0.614454
Si Si4 0.480920 0.178244 0.879301
Si Si5 0.571244 0.316916 0.395444
Si Si6 0.606636 0.749698 0.936446
Si Si7 0.917629 0.053493 0.550144
Si Si8 0.020247 0.484597 0.764720
O O1 0.750000 0.500000 0.852383
O O2 0.808732 0.410880 0.656434
O O3 0.830641 0.580533 0.694279
O O4 0.856669 0.474813 0.907845
O O5 0.224596 0.750000 0.250000
O O6 0.271913 0.685074 0.473599
O O7 0.166967 0.730431 0.500608
O O8 0.841939 0.750000 0.750000
O O9 0.869990 0.680994 0.469970
O O10 0.465490 0.250000 0.750000
O O11 0.489981 0.079205 0.816313
O O12 0.532916 0.218095 0.967155
O O13 0.432216 0.172315 0.002588
O O14 0.569771 0.250000 0.250000
O O15 0.549279 0.415100 0.349556
O O16 0.608363 0.750000 0.750000
O O17 0.585331 0.656272 0.005120
O O18 0.960557 0.048900 0.690431
O O19 0.939754 0.992101 0.411443
#
# Coordination Sequence:
#
# PCOD8215772 Si02
#       8
#     8   8   8   8   8   8   8   8
#     4  10  20  36  67  96 121 162 211 259 310 374
#     4   9  18  36  65  97 118 155 208 263 309 363
#     4  10  23  41  63  92 124 163 214 262 308 374
#     4  12  24  41  64  93 122 159 210 258 314 372
#     4  12  27  42  61  87 126 173 208 248 317 386
#     4  11  20  37  67  94 123 155 205 262 309 362
#     4  11  21  40  63  94 129 161 207 264 313 372
#     4  11  26  40  62  92 130 168 203 258 319 380
#
# _framework density 20.072358999999999
#
# number of rings (size 3 to 8) (size 9 to 14) (size 15 to 20)
#    0.000    1.250    3.750    3.375    5.250    0.000 
#    0.000    0.625    2.750    0.000    0.000    0.000 
#    0.000    0.000    0.000    0.000    0.000    0.000 
#
# Total GULP energy -793193.140506 kJ/mol
# GULP energy per Si atom -12393.642820 kJ/mol
# Density = 2.002667 g / cm^3
# Si number density = 20.072359 Si / 1000 Ang^3
#
#
#
# Elastic Constant Matrix: (Units=GPa)
#
#
# Indices 1 2 3 4 5 6 
#
# 1 176.1651 35.8206 50.3507 0.0000 0.0000 0.0000
# 2 35.8206 114.1989 30.3745 0.0000 0.0000 0.0000
# 3 50.3507 30.3745 65.7041 0.0000 0.0000 0.0000
# 4 0.0000 0.0000 0.0000 28.1701 0.0000 0.0000
# 5 0.0000 0.0000 0.0000 0.0000 35.3870 0.0000
# 6 0.0000 0.0000 0.0000 0.0000 0.0000 32.6110
#
#
#
# Elastic Compliance Matrix: (Units=1/GPa)
#
#
# Indices 1 2 3 4 5 6 
#
# 1 0.007352 -0.000921 -0.005209 0.000000 0.000000 0.000000
# 2 -0.000921 0.010100 -0.003963 0.000000 0.000000 0.000000
# 3 -0.005209 -0.003963 0.021044 0.000000 0.000000 0.000000
# 4 0.000000 0.000000 0.000000 0.035499 0.000000 0.000000
# 5 0.000000 0.000000 0.000000 0.000000 0.028259 0.000000
# 6 0.000000 0.000000 0.000000 0.000000 0.000000 0.030665
#
#
# Mechanical properties :
#
#
# Convention : Reuss Voigt Hill
#
# Bulk Modulus (GPa) = 54.61518 65.46219 60.03869
# Shear Modulus (GPa) = 31.40572 35.20178 33.30375
#
# Velocity S-wave (km/s) = 3.95983 4.19232 4.07773
# Velocity P-wave (km/s) = 6.94083 7.49119 7.22126
#
# Compressibility (1/GPa) = 0.01830993
#
# Stress axis : x y z
#
# Youngs Moduli (GPa) = 136.00903 99.01339 47.52060
#
# Poissons Ratio (x) = 0.09117 0.24752
# Poissons Ratio (y) = 0.12524 0.18834
# Poissons Ratio (z) = 0.70843 0.39242
#
# Static dielectric constant tensor:
#      x y z
#    x 4.110790 0.000000 0.000000 
#    y 0.000000 3.799090 0.000000 
#    z 0.000000 0.000000 3.347830 
# 
# 
# High freq. dielectric constant tensor:
#      x y z
#    x 1.807300 0.000000 0.000000 
#    y 0.000000 1.799770 0.000000 
#    z 0.000000 0.000000 1.746270 
# 
# From -- ./inp_files/14507.got.cif
#   From: 2010.06.25/outbox.cif.g09.slc.cpg/sg52_8_cif.got.tgz:14507.got - 2010.06.26 19:32:48.
