data_PCOD8215361
_publ_section_title
;
Structure prediction by ZEFSAII (Michael W. Deem and Ramdas Pophale) SiO2 
 PCOD8215361
Probable space group: P N N A
;
_chemical_formula_sum "Si O2"
_cell_formula_units_Z 64
_cell_length_a 16.822429
_cell_length_b 11.917204
_cell_length_c 17.377713
_cell_angle_alpha 90.000000
_cell_angle_beta 90.000000
_cell_angle_gamma 90.000000
_cell_volume 3483.819920
_symmetry_space_group_name_H-M "P N N A"
_symmetry_group_IT_number 52
_symmetry_cell_setting 'orthorhombic'
loop_
_space_group_symop_operation_xyz
x,y,z
1/2-x,-y,z
x,1/2-y,1/2-z
1/2-x,1/2+y,1/2-z
-x,-y,-z
1/2+x,y,-z
-x,1/2+y,1/2+z
1/2+x,1/2-y,1/2+z
loop_
_atom_site_type_symbol
_atom_site_label
_atom_site_fract_x
_atom_site_fract_y
_atom_site_fract_z
Si Si1 0.160939 0.996192 0.114660
Si Si2 0.056348 0.786418 0.936742
Si Si3 0.412562 0.238716 0.160510
Si Si4 0.912109 0.779325 0.837850
Si Si5 0.347459 0.116470 0.467706
Si Si6 0.338805 0.003617 0.934653
Si Si7 0.560287 0.298361 0.428573
Si Si8 0.663979 0.142609 0.528745
O O1 0.121835 0.876807 0.128500
O O2 0.250000 0.000000 0.149214
O O3 0.107194 0.089449 0.154913
O O4 0.164462 0.023017 0.024746
O O5 0.003831 0.757017 0.861826
O O6 0.123275 0.876484 0.915096
O O7 0.096666 0.673078 0.968061
O O8 0.997597 0.837040 0.001708
O O9 0.396453 0.250000 0.250000
O O10 0.367060 0.339039 0.117567
O O11 0.506669 0.246489 0.141955
O O12 0.898520 0.750000 0.750000
O O13 0.853693 0.705057 0.890883
O O14 0.257290 0.147430 0.488175
O O15 0.365483 0.984925 0.467019
O O16 0.390939 0.904845 0.896859
O O17 0.250000 0.000000 0.899744
O O18 0.619276 0.201004 0.457558
#
# Coordination Sequence:
#
# PCOD8215361 Si02
#       8
#     8   8   8   8   8   8   8   8
#     4  11  21  35  57  83 111 140 177 221 268 323
#     4  10  19  34  56  79 110 140 180 225 264 313
#     4  11  24  37  53  82 113 148 177 214 271 326
#     4  11  24  37  53  82 113 148 177 214 271 326
#     4  10  21  37  57  81 107 142 186 225 265 315
#     4  11  18  32  60  86 104 132 176 231 275 309
#     4  10  19  34  56  79 110 140 180 225 264 313
#     4  10  21  37  57  81 107 142 186 225 265 315
#
# _framework density 18.370639000000001
#
# number of rings (size 3 to 8) (size 9 to 14) (size 15 to 20)
#    0.000    1.500    5.000    2.625    1.750    6.500 
#    0.000    0.000    0.000    3.000    0.000    0.000 
#    0.000    0.000    0.000    0.000    0.000    0.000 
#
# Total GULP energy -793763.581321 kJ/mol
# GULP energy per Si atom -12402.555958 kJ/mol
# Density = 1.832883 g / cm^3
# Si number density = 18.370639 Si / 1000 Ang^3
#
#
#
# Elastic Constant Matrix: (Units=GPa)
#
#
# Indices 1 2 3 4 5 6 
#
# 1 90.0180 25.8031 8.4803 0.0000 0.0000 0.0000
# 2 25.8031 90.1344 6.6874 0.0000 0.0000 0.0000
# 3 8.4803 6.6874 38.1932 0.0000 0.0000 0.0000
# 4 0.0000 0.0000 0.0000 10.0022 0.0000 0.0000
# 5 0.0000 0.0000 0.0000 0.0000 13.9273 0.0000
# 6 0.0000 0.0000 0.0000 0.0000 0.0000 31.3661
#
#
#
# Elastic Compliance Matrix: (Units=1/GPa)
#
#
# Indices 1 2 3 4 5 6 
#
# 1 0.012272 -0.003355 -0.002137 0.000000 0.000000 0.000000
# 2 -0.003355 0.012158 -0.001384 0.000000 0.000000 0.000000
# 3 -0.002137 -0.001384 0.026900 0.000000 0.000000 0.000000
# 4 0.000000 0.000000 0.000000 0.099978 0.000000 0.000000
# 5 0.000000 0.000000 0.000000 0.000000 0.071801 0.000000
# 6 0.000000 0.000000 0.000000 0.000000 0.000000 0.031882
#
#
# Mechanical properties :
#
#
# Convention : Reuss Voigt Hill
#
# Bulk Modulus (GPa) = 26.61187 33.36526 29.98857
# Shear Modulus (GPa) = 17.77665 22.88408 20.33036
#
# Velocity S-wave (km/s) = 3.11411 3.53326 3.33028
# Velocity P-wave (km/s) = 5.23906 5.90313 5.58098
#
# Compressibility (1/GPa) = 0.03757721
#
# Stress axis : x y z
#
# Youngs Moduli (GPa) = 81.48757 82.25350 37.17529
#
# Poissons Ratio (x) = 0.27592 0.07946
# Poissons Ratio (y) = 0.27335 0.05145
# Poissons Ratio (z) = 0.17418 0.11383
#
# Static dielectric constant tensor:
#      x y z
#    x 3.741070 0.000000 0.000000 
#    y 0.000000 3.431180 0.000000 
#    z 0.000000 0.000000 3.089170 
# 
# 
# High freq. dielectric constant tensor:
#      x y z
#    x 1.730210 0.000000 0.000000 
#    y 0.000000 1.721600 0.000000 
#    z 0.000000 0.000000 1.663320 
# 
# From -- ./inp_files/32473.got.cif
#   From: 2010.06.25/outbox.cif.g09.slc.cpg/sg52_17_cif.got.tgz:32473.got - 2010.06.26 19:32:48.
