data_PCOD8215033
_publ_section_title
;
Structure prediction by ZEFSAII (Michael W. Deem and Ramdas Pophale) SiO2 
 PCOD8215033
Probable space group: P N N A
;
_chemical_formula_sum "Si O2"
_cell_formula_units_Z 40
_cell_length_a 7.557291
_cell_length_b 13.801984
_cell_length_c 14.211144
_cell_angle_alpha 90.000000
_cell_angle_beta 90.000000
_cell_angle_gamma 90.000000
_cell_volume 1482.302036
_symmetry_space_group_name_H-M "P N N A"
_symmetry_group_IT_number 52
_symmetry_cell_setting 'orthorhombic'
loop_
_space_group_symop_operation_xyz
x,y,z
1/2-x,-y,z
x,1/2-y,1/2-z
1/2-x,1/2+y,1/2-z
-x,-y,-z
1/2+x,y,-z
-x,1/2+y,1/2+z
1/2+x,1/2-y,1/2+z
loop_
_atom_site_type_symbol
_atom_site_label
_atom_site_fract_x
_atom_site_fract_y
_atom_site_fract_z
Si Si1 0.310668 0.155192 0.316603
Si Si2 0.740164 0.688341 0.153453
Si Si3 0.528242 0.525268 0.224802
Si Si4 0.402526 0.735899 0.028432
Si Si5 0.579694 0.052935 0.914806
O O1 0.330658 0.250000 0.250000
O O2 0.143425 0.092697 0.285417
O O3 0.264793 0.179065 0.425286
O O4 0.489315 0.087278 0.307232
O O5 0.753430 0.750000 0.250000
O O6 0.700500 0.573903 0.174055
O O7 0.911963 0.706498 0.084337
O O8 0.582379 0.723078 0.085875
O O9 0.570474 0.542139 0.334604
O O10 0.352539 0.846127 0.044816
O O11 0.750000 0.000000 0.871226
O O12 0.500000 0.000000 0.000000
#
# Coordination Sequence:
#
# PCOD8215033 Si02
#       5
#     8   8   8   8   8
#     4  10  17  35  64  93 130 174 241 279 347 426
#     4  11  23  44  69  97 144 187 238 302 357 428
#     4  10  19  37  64  94 134 184 230 293 345 428
#     4  11  22  41  68  98 136 188 229 292 370 425
#     4  12  22  37  65 102 136 179 240 298 370 432
#
# _framework density 26.985054000000002
#
# number of rings (size 3 to 8) (size 9 to 14) (size 15 to 20)
#    0.000    1.200    6.000    2.400    0.000    0.800 
#    0.000    4.000    0.000    0.000    0.000    0.000 
#    0.000    0.000    0.000    0.000    0.000    0.000 
#
# Total GULP energy -495568.149549 kJ/mol
# GULP energy per Si atom -12389.203739 kJ/mol
# Density = 2.692363 g / cm^3
# Si number density = 26.985054 Si / 1000 Ang^3
#
#
#
# Elastic Constant Matrix: (Units=GPa)
#
#
# Indices 1 2 3 4 5 6 
#
# 1 76.9249 -7.8464 9.7076 0.0000 0.0000 0.0000
# 2 -7.8464 176.2079 61.0475 0.0000 0.0000 0.0000
# 3 9.7076 61.0475 223.4266 0.0000 0.0000 0.0000
# 4 0.0000 0.0000 0.0000 47.6687 0.0000 0.0000
# 5 0.0000 0.0000 0.0000 0.0000 76.6925 0.0000
# 6 0.0000 0.0000 0.0000 0.0000 0.0000 14.8095
#
#
#
# Elastic Compliance Matrix: (Units=1/GPa)
#
#
# Indices 1 2 3 4 5 6 
#
# 1 0.013190 0.000868 -0.000810 0.000000 0.000000 0.000000
# 2 0.000868 0.006326 -0.001766 0.000000 0.000000 0.000000
# 3 -0.000810 -0.001766 0.004994 0.000000 0.000000 0.000000
# 4 0.000000 0.000000 0.000000 0.020978 0.000000 0.000000
# 5 0.000000 0.000000 0.000000 0.000000 0.013039 0.000000
# 6 0.000000 0.000000 0.000000 0.000000 0.000000 0.067524
#
#
# Mechanical properties :
#
#
# Convention : Reuss Voigt Hill
#
# Bulk Modulus (GPa) = 47.40900 66.93074 57.16987
# Shear Modulus (GPa) = 36.63038 55.41085 46.02061
#
# Velocity S-wave (km/s) = 3.68833 4.53635 4.13414
# Velocity P-wave (km/s) = 5.97872 7.23151 6.63475
#
# Compressibility (1/GPa) = 0.02109304
#
# Stress axis : x y z
#
# Youngs Moduli (GPa) = 75.81216 158.08689 200.26020
#
# Poissons Ratio (x) = -0.13723 0.16227
# Poissons Ratio (y) = -0.06581 0.35368
# Poissons Ratio (z) = 0.06143 0.27920
#
# Static dielectric constant tensor:
#      x y z
#    x 5.222730 0.000000 0.000000 
#    y 0.000000 5.437340 0.000000 
#    z 0.000000 0.000000 5.381200 
# 
# 
# High freq. dielectric constant tensor:
#      x y z
#    x 2.119740 0.000000 0.000000 
#    y 0.000000 2.100440 0.000000 
#    z 0.000000 0.000000 2.103080 
# 
# From -- ./inp_files/18004.got.cif
#   From: 2010.06.25/outbox.cif.g09.slc.cpg/sg52_10_cif.got.tgz:18004.got - 2010.06.26 19:32:48.
