data_PCOD8215823
_publ_section_title
;
Structure prediction by ZEFSAII (Michael W. Deem and Ramdas Pophale) SiO2 
 PCOD8215823
Probable space group: P N N A
;
_chemical_formula_sum "Si O2"
_cell_formula_units_Z 64
_cell_length_a 31.597493
_cell_length_b 8.675794
_cell_length_c 11.457955
_cell_angle_alpha 90.000000
_cell_angle_beta 90.000000
_cell_angle_gamma 90.000000
_cell_volume 3141.007476
_symmetry_space_group_name_H-M "P N N A"
_symmetry_group_IT_number 52
_symmetry_cell_setting 'orthorhombic'
loop_
_space_group_symop_operation_xyz
x,y,z
1/2-x,-y,z
x,1/2-y,1/2-z
1/2-x,1/2+y,1/2-z
-x,-y,-z
1/2+x,y,-z
-x,1/2+y,1/2+z
1/2+x,1/2-y,1/2+z
loop_
_atom_site_type_symbol
_atom_site_label
_atom_site_fract_x
_atom_site_fract_y
_atom_site_fract_z
Si Si1 0.560773 0.359941 0.147844
Si Si2 0.793052 0.419029 0.902942
Si Si3 0.008095 0.583075 0.696624
Si Si4 0.946694 0.577995 0.505363
Si Si5 0.295462 0.071954 0.774572
Si Si6 0.849900 0.571983 0.468458
Si Si7 0.707854 0.924026 0.872324
Si Si8 0.150781 0.075229 0.573991
O O1 0.578997 0.250000 0.250000
O O2 0.522296 0.462171 0.202335
O O3 0.542877 0.251892 0.043320
O O4 0.601121 0.461618 0.103780
O O5 0.750000 0.500000 0.950601
O O6 0.795079 0.240037 0.938705
O O7 0.793021 0.418137 0.765030
O O8 0.835403 0.504990 0.948970
O O9 0.016769 0.750000 0.750000
O O10 0.032545 0.555051 0.574700
O O11 0.960046 0.568015 0.643854
O O12 0.898403 0.537743 0.489286
O O13 0.289022 0.250000 0.750000
O O14 0.250000 0.000000 0.804232
O O15 0.328666 0.047198 0.878862
O O16 0.315781 0.995759 0.661568
O O17 0.829683 0.539599 0.593894
O O18 0.842324 0.743128 0.423939
O O19 0.750000 0.000000 0.921526
#
# Coordination Sequence:
#
# PCOD8215823 Si02
#       8
#     8   8   8   8   8   8   8   8
#     4   9  19  38  62  87 120 156 188 239 300 357
#     4  10  21  37  57  82 117 156 203 247 289 342
#     4  10  20  37  64  88 115 154 194 241 296 365
#     4   9  21  40  59  88 121 155 194 244 297 362
#     4  12  24  37  57  87 123 161 202 246 296 351
#     4  11  22  39  60  84 120 156 197 245 294 351
#     4  10  21  38  59  81 114 160 204 243 290 339
#     4  11  21  36  57  87 118 154 195 244 293 354
#
# _framework density 20.375627999999999
#
# number of rings (size 3 to 8) (size 9 to 14) (size 15 to 20)
#    0.000    1.750    0.000    5.625    0.000    5.000 
#    4.500    0.000   13.750    0.000    0.000    0.000 
#    0.000    0.000    0.000    0.000    0.000    0.000 
#
# Total GULP energy -793080.508894 kJ/mol
# GULP energy per Si atom -12391.882951 kJ/mol
# Density = 2.032925 g / cm^3
# Si number density = 20.375628 Si / 1000 Ang^3
#
#
#
# Elastic Constant Matrix: (Units=GPa)
#
#
# Indices 1 2 3 4 5 6 
#
# 1 119.3074 66.9330 51.9431 0.0000 0.0000 0.0000
# 2 66.9330 93.2432 43.4589 0.0000 0.0000 0.0000
# 3 51.9431 43.4589 56.1159 0.0000 0.0000 0.0000
# 4 0.0000 0.0000 0.0000 32.2946 0.0000 0.0000
# 5 0.0000 0.0000 0.0000 0.0000 36.3990 0.0000
# 6 0.0000 0.0000 0.0000 0.0000 0.0000 27.2606
#
#
#
# Elastic Compliance Matrix: (Units=1/GPa)
#
#
# Indices 1 2 3 4 5 6 
#
# 1 0.016875 -0.007563 -0.009763 0.000000 0.000000 0.000000
# 2 -0.007563 0.020172 -0.008621 0.000000 0.000000 0.000000
# 3 -0.009763 -0.008621 0.033534 0.000000 0.000000 0.000000
# 4 0.000000 0.000000 0.000000 0.030965 0.000000 0.000000
# 5 0.000000 0.000000 0.000000 0.000000 0.027473 0.000000
# 6 0.000000 0.000000 0.000000 0.000000 0.000000 0.036683
#
#
# Mechanical properties :
#
#
# Convention : Reuss Voigt Hill
#
# Bulk Modulus (GPa) = 53.51572 65.92628 59.72100
# Shear Modulus (GPa) = 22.33862 26.27959 24.30911
#
# Velocity S-wave (km/s) = 3.31470 3.59521 3.45780
# Velocity P-wave (km/s) = 6.40087 7.04697 6.73168
#
# Compressibility (1/GPa) = 0.01868610
#
# Stress axis : x y z
#
# Youngs Moduli (GPa) = 59.25760 49.57346 29.82019
#
# Poissons Ratio (x) = 0.37494 0.29114
# Poissons Ratio (y) = 0.44818 0.25709
# Poissons Ratio (z) = 0.57855 0.42739
#
# Static dielectric constant tensor:
#      x y z
#    x 3.764930 0.000000 0.000000 
#    y 0.000000 3.942280 0.000000 
#    z 0.000000 0.000000 3.851840 
# 
# 
# High freq. dielectric constant tensor:
#      x y z
#    x 1.789380 0.000000 0.000000 
#    y 0.000000 1.797090 0.000000 
#    z 0.000000 0.000000 1.799410 
# 
# From -- ./inp_files/23213.got.cif
#   From: 2010.06.25/outbox.cif.g09.slc.cpg/sg52_12_cif.got.tgz:23213.got - 2010.06.26 19:32:48.
