data_PCOD8215968
_publ_section_title
;
Structure prediction by ZEFSAII (Michael W. Deem and Ramdas Pophale) SiO2 
 PCOD8215968
Probable space group: P N N A
;
_chemical_formula_sum "Si O2"
_cell_formula_units_Z 56
_cell_length_a 15.062142
_cell_length_b 8.492988
_cell_length_c 21.236808
_cell_angle_alpha 90.000000
_cell_angle_beta 90.000000
_cell_angle_gamma 90.000000
_cell_volume 2716.667509
_symmetry_space_group_name_H-M "P N N A"
_symmetry_group_IT_number 52
_symmetry_cell_setting 'orthorhombic'
loop_
_space_group_symop_operation_xyz
x,y,z
1/2-x,-y,z
x,1/2-y,1/2-z
1/2-x,1/2+y,1/2-z
-x,-y,-z
1/2+x,y,-z
-x,1/2+y,1/2+z
1/2+x,1/2-y,1/2+z
loop_
_atom_site_type_symbol
_atom_site_label
_atom_site_fract_x
_atom_site_fract_y
_atom_site_fract_z
Si Si1 0.294408 0.648995 0.884980
Si Si2 0.423637 0.263583 0.413969
Si Si3 0.466756 0.484103 0.896093
Si Si4 0.326438 0.379404 0.297611
Si Si5 0.004544 0.434134 0.247725
Si Si6 0.369764 0.291622 0.551805
Si Si7 0.403189 0.930045 0.859585
O O1 0.250000 0.500000 0.846253
O O2 0.381499 0.582800 0.919989
O O3 0.222905 0.700837 0.937575
O O4 0.328063 0.797401 0.843098
O O5 0.349066 0.288802 0.361708
O O6 0.384801 0.330428 0.478846
O O7 0.510289 0.355807 0.391324
O O8 0.446201 0.076203 0.421724
O O9 0.470143 0.483662 0.820486
O O10 0.455954 0.307824 0.923165
O O11 0.250000 0.500000 0.314735
O O12 0.288167 0.250000 0.250000
O O13 0.409307 0.465980 0.265408
O O14 0.027350 0.250000 0.250000
O O15 0.925552 0.476791 0.295826
O O16 0.362007 0.452938 0.589551
#
# Coordination Sequence:
#
# PCOD8215968 Si02
#       7
#     8   8   8   8   8   8   8
#     4   9  21  37  57  83 124 166 197 258 311 358
#     4  10  22  38  63  89 119 169 203 250 317 385
#     4  10  20  40  63  88 122 163 210 254 307 380
#     4  11  23  41  63  91 126 159 202 263 322 377
#     4  11  21  40  67  92 120 163 212 258 317 381
#     4  11  20  38  60  90 127 159 211 257 311 368
#     4  10  21  36  62  92 121 162 207 260 309 372
#
# _framework density 20.613489999999999
#
# number of rings (size 3 to 8) (size 9 to 14) (size 15 to 20)
#    0.000    1.714    2.857    1.714    0.000    1.143 
#    0.000   10.714    0.000    0.000    0.000    0.000 
#    0.000    0.000    0.000    0.000    0.000    0.000 
#
# Total GULP energy -694072.178172 kJ/mol
# GULP energy per Si atom -12394.146039 kJ/mol
# Density = 2.056657 g / cm^3
# Si number density = 20.613490 Si / 1000 Ang^3
#
#
#
# Elastic Constant Matrix: (Units=GPa)
#
#
# Indices 1 2 3 4 5 6 
#
# 1 75.3138 26.1326 27.8566 0.0000 0.0000 0.0000
# 2 26.1326 107.6759 16.6295 0.0000 0.0000 0.0000
# 3 27.8566 16.6295 100.7696 0.0000 0.0000 0.0000
# 4 0.0000 0.0000 0.0000 25.2646 0.0000 0.0000
# 5 0.0000 0.0000 0.0000 0.0000 5.8774 0.0000
# 6 0.0000 0.0000 0.0000 0.0000 0.0000 35.4382
#
#
#
# Elastic Compliance Matrix: (Units=1/GPa)
#
#
# Indices 1 2 3 4 5 6 
#
# 1 0.015824 -0.003248 -0.003839 0.000000 0.000000 0.000000
# 2 -0.003248 0.010197 -0.000785 0.000000 0.000000 0.000000
# 3 -0.003839 -0.000785 0.011114 0.000000 0.000000 0.000000
# 4 0.000000 0.000000 0.000000 0.039581 0.000000 0.000000
# 5 0.000000 0.000000 0.000000 0.000000 0.170144 0.000000
# 6 0.000000 0.000000 0.000000 0.000000 0.000000 0.028218
#
#
# Mechanical properties :
#
#
# Convention : Reuss Voigt Hill
#
# Bulk Modulus (GPa) = 46.74428 47.22186 46.98307
# Shear Modulus (GPa) = 16.78122 27.52542 22.15332
#
# Velocity S-wave (km/s) = 2.85632 3.65815 3.28182
# Velocity P-wave (km/s) = 5.79688 6.38755 6.09937
#
# Compressibility (1/GPa) = 0.02139299
#
# Stress axis : x y z
#
# Youngs Moduli (GPa) = 63.19335 98.07230 89.97436
#
# Poissons Ratio (x) = 0.31851 0.34537
# Poissons Ratio (y) = 0.20523 0.07062
# Poissons Ratio (z) = 0.24257 0.07698
#
# Static dielectric constant tensor:
#      x y z
#    x 3.732760 0.000000 0.000000 
#    y 0.000000 4.150540 0.000000 
#    z 0.000000 0.000000 3.490730 
# 
# 
# High freq. dielectric constant tensor:
#      x y z
#    x 1.798020 0.000000 0.000000 
#    y 0.000000 1.826580 0.000000 
#    z 0.000000 0.000000 1.782890 
# 
# From -- ./inp_files/37316.got.cif
#   From: 2010.06.25/outbox.cif.g09.slc.cpg/sg52_19_cif.got.tgz:37316.got - 2010.06.26 19:32:48.
