data_PCOD8215220
_publ_section_title
;
Structure prediction by ZEFSAII (Michael W. Deem and Ramdas Pophale) SiO2 
 PCOD8215220
Probable space group: P N N A
;
_chemical_formula_sum "Si O2"
_cell_formula_units_Z 28
_cell_length_a 8.460760
_cell_length_b 9.711765
_cell_length_c 14.897764
_cell_angle_alpha 90.000000
_cell_angle_beta 90.000000
_cell_angle_gamma 90.000000
_cell_volume 1224.133072
_symmetry_space_group_name_H-M "P N N A"
_symmetry_group_IT_number 52
_symmetry_cell_setting 'orthorhombic'
loop_
_space_group_symop_operation_xyz
x,y,z
1/2-x,-y,z
x,1/2-y,1/2-z
1/2-x,1/2+y,1/2-z
-x,-y,-z
1/2+x,y,-z
-x,1/2+y,1/2+z
1/2+x,1/2-y,1/2+z
loop_
_atom_site_type_symbol
_atom_site_label
_atom_site_fract_x
_atom_site_fract_y
_atom_site_fract_z
Si Si1 0.341131 0.372289 0.895558
Si Si2 0.591282 0.915765 0.074526
Si Si3 0.110852 0.250000 0.750000
Si Si4 0.434885 0.516612 0.251707
O O1 0.250000 0.500000 0.945734
O O2 0.381288 0.242765 0.961227
O O3 0.218010 0.307698 0.827628
O O4 0.493253 0.430350 0.842245
O O5 0.485637 0.887735 0.164101
O O6 0.750000 0.000000 0.099213
O O7 0.500000 0.000000 0.000000
O O8 0.999474 0.370326 0.714513
O O9 0.250000 0.500000 0.238763
#
# Coordination Sequence:
#
# PCOD8215220 Si02
#       4
#     8   8   4   8
#     4  10  20  41  65  90 124 171 217 265 324 386
#     4  12  23  42  62  91 131 171 212 261 335 396
#     4  10  18  36  66  86 124 160 212 272 310 380
#     4  11  22  36  65  99 125 160 220 271 317 379
#
# _framework density 22.873329999999999
#
# number of rings (size 3 to 8) (size 9 to 14) (size 15 to 20)
#    0.000    1.143    5.714    1.714    4.000    0.000 
#    0.000    1.429    0.000    0.000    0.000    0.000 
#    0.000    0.000    0.000    0.000    0.000    0.000 
#
# Total GULP energy -346927.438914 kJ/mol
# GULP energy per Si atom -12390.265675 kJ/mol
# Density = 2.282127 g / cm^3
# Si number density = 22.873330 Si / 1000 Ang^3
#
#
#
# Elastic Constant Matrix: (Units=GPa)
#
#
# Indices 1 2 3 4 5 6 
#
# 1 166.0394 57.2021 21.8218 0.0000 0.0000 0.0000
# 2 57.2021 181.2270 15.3192 0.0000 0.0000 0.0000
# 3 21.8218 15.3192 37.7638 0.0000 0.0000 0.0000
# 4 0.0000 0.0000 0.0000 25.9709 0.0000 0.0000
# 5 0.0000 0.0000 0.0000 0.0000 13.4751 0.0000
# 6 0.0000 0.0000 0.0000 0.0000 0.0000 29.2270
#
#
#
# Elastic Compliance Matrix: (Units=1/GPa)
#
#
# Indices 1 2 3 4 5 6 
#
# 1 0.007139 -0.001972 -0.003325 0.000000 0.000000 0.000000
# 2 -0.001972 0.006259 -0.001399 0.000000 0.000000 0.000000
# 3 -0.003325 -0.001399 0.028970 0.000000 0.000000 0.000000
# 4 0.000000 0.000000 0.000000 0.038505 0.000000 0.000000
# 5 0.000000 0.000000 0.000000 0.000000 0.074211 0.000000
# 6 0.000000 0.000000 0.000000 0.000000 0.000000 0.034215
#
#
# Mechanical properties :
#
#
# Convention : Reuss Voigt Hill
#
# Bulk Modulus (GPa) = 34.51393 63.74626 49.13010
# Shear Modulus (GPa) = 23.54606 33.11372 28.32989
#
# Velocity S-wave (km/s) = 3.21192 3.80899 3.52313
# Velocity P-wave (km/s) = 5.37375 6.87563 6.17056
#
# Compressibility (1/GPa) = 0.02897381
#
# Stress axis : x y z
#
# Youngs Moduli (GPa) = 140.07223 159.77625 34.51906
#
# Poissons Ratio (x) = 0.31513 0.11479
# Poissons Ratio (y) = 0.27627 0.04830
# Poissons Ratio (z) = 0.46578 0.22356
#
# Static dielectric constant tensor:
#      x y z
#    x 4.280910 0.000000 0.000000 
#    y 0.000000 3.534780 0.000000 
#    z 0.000000 0.000000 3.491060 
# 
# 
# High freq. dielectric constant tensor:
#      x y z
#    x 1.906770 0.000000 0.000000 
#    y 0.000000 1.938000 0.000000 
#    z 0.000000 0.000000 1.845610 
# 
# From -- ./inp_files/30637.got.cif
#   From: 2010.06.25/outbox.cif.g09.slc.cpg/sg52_16_cif.got.tgz:30637.got - 2010.06.26 19:32:48.
