data_PCOD8215214
_publ_section_title
;
Structure prediction by ZEFSAII (Michael W. Deem and Ramdas Pophale) SiO2 
 PCOD8215214
Probable space group: P N N A
;
_chemical_formula_sum "Si O2"
_cell_formula_units_Z 36
_cell_length_a 16.992104
_cell_length_b 12.857058
_cell_length_c 8.864474
_cell_angle_alpha 90.000000
_cell_angle_beta 90.000000
_cell_angle_gamma 90.000000
_cell_volume 1936.608043
_symmetry_space_group_name_H-M "P N N A"
_symmetry_group_IT_number 52
_symmetry_cell_setting 'orthorhombic'
loop_
_space_group_symop_operation_xyz
x,y,z
1/2-x,-y,z
x,1/2-y,1/2-z
1/2-x,1/2+y,1/2-z
-x,-y,-z
1/2+x,y,-z
-x,1/2+y,1/2+z
1/2+x,1/2-y,1/2+z
loop_
_atom_site_type_symbol
_atom_site_label
_atom_site_fract_x
_atom_site_fract_y
_atom_site_fract_z
Si Si1 0.178450 0.690041 0.480460
Si Si2 0.079441 0.750000 0.750000
Si Si3 0.053859 0.750000 0.250000
Si Si4 0.519028 0.378664 0.994428
Si Si5 0.818565 0.832232 0.628595
Si Si6 0.250000 0.000000 0.168542
O O1 0.140037 0.687164 0.644889
O O2 0.108186 0.687198 0.362407
O O3 0.239239 0.787232 0.452871
O O4 0.216880 0.579981 0.452427
O O5 0.026863 0.672826 0.852395
O O6 0.002561 0.831378 0.344034
O O7 0.612036 0.355493 0.988015
O O8 0.500000 0.500000 0.000000
O O9 0.849551 0.750000 0.750000
O O10 0.807213 0.940226 0.716966
#
# Coordination Sequence:
#
# PCOD8215214 Si02
#       6
#     8   4   4   8   8   4
#     4  10  20  40  61  84 123 158 198 252 296 355
#     4  10  24  42  56  92 128 152 202 268 300 348
#     4  10  20  40  60  90 122 158 192 254 300 360
#     4  11  23  41  63  90 124 164 200 249 316 358
#     4  10  20  37  62  89 116 159 202 245 292 370
#     4  10  18  36  64  86 112 160 212 232 306 364
#
# _framework density 18.589203000000001
#
# number of rings (size 3 to 8) (size 9 to 14) (size 15 to 20)
#    0.000    1.778    4.444    1.333    3.111    0.889 
#   12.000    3.333    0.000    0.000    0.000    0.000 
#    0.000    0.000    0.000    0.000    0.000    0.000 
#
# Total GULP energy -446003.327872 kJ/mol
# GULP energy per Si atom -12388.981330 kJ/mol
# Density = 1.854689 g / cm^3
# Si number density = 18.589203 Si / 1000 Ang^3
#
#
#
# Elastic Constant Matrix: (Units=GPa)
#
#
# Indices 1 2 3 4 5 6 
#
# 1 116.8611 49.8890 61.4462 0.0000 0.0000 0.0000
# 2 49.8890 119.2128 52.5279 0.0000 0.0000 0.0000
# 3 61.4462 52.5279 128.4670 0.0000 0.0000 0.0000
# 4 0.0000 0.0000 0.0000 19.7348 0.0000 0.0000
# 5 0.0000 0.0000 0.0000 0.0000 156.4109 0.0000
# 6 0.0000 0.0000 0.0000 0.0000 0.0000 9.4951
#
#
#
# Elastic Compliance Matrix: (Units=1/GPa)
#
#
# Indices 1 2 3 4 5 6 
#
# 1 0.012316 -0.003121 -0.004615 0.000000 0.000000 0.000000
# 2 -0.003121 0.011022 -0.003014 0.000000 0.000000 0.000000
# 3 -0.004615 -0.003014 0.011224 0.000000 0.000000 0.000000
# 4 0.000000 0.000000 0.000000 0.050672 0.000000 0.000000
# 5 0.000000 0.000000 0.000000 0.000000 0.006393 0.000000
# 6 0.000000 0.000000 0.000000 0.000000 0.000000 0.105318
#
#
# Mechanical properties :
#
#
# Convention : Reuss Voigt Hill
#
# Bulk Modulus (GPa) = 76.55316 76.91857 76.73587
# Shear Modulus (GPa) = 22.44174 50.50667 36.47420
#
# Velocity S-wave (km/s) = 3.47831 5.21813 4.43439
# Velocity P-wave (km/s) = 7.57644 8.81890 8.22118
#
# Compressibility (1/GPa) = 0.01306282
#
# Stress axis : x y z
#
# Youngs Moduli (GPa) = 81.19605 90.72375 89.09614
#
# Poissons Ratio (x) = 0.28312 0.41116
# Poissons Ratio (y) = 0.25339 0.26856
# Poissons Ratio (z) = 0.37470 0.27347
#
# Static dielectric constant tensor:
#      x y z
#    x 3.545210 0.000000 0.000000 
#    y 0.000000 2.740740 0.000000 
#    z 0.000000 0.000000 2.650250 
# 
# 
# High freq. dielectric constant tensor:
#      x y z
#    x 1.727970 0.000000 0.000000 
#    y 0.000000 1.724400 0.000000 
#    z 0.000000 0.000000 1.720060 
# 
# From -- ./inp_files/11708.got.cif
#   From: 2010.06.25/outbox.cif.g09.slc.cpg/sg52_6_cif.got.tgz:11708.got - 2010.06.26 19:32:48.
