data_PCOD8215669
_publ_section_title
;
Structure prediction by ZEFSAII (Michael W. Deem and Ramdas Pophale) SiO2 
 PCOD8215669
Probable space group: P N N A
;
_chemical_formula_sum "Si O2"
_cell_formula_units_Z 40
_cell_length_a 14.957808
_cell_length_b 8.422355
_cell_length_c 19.194956
_cell_angle_alpha 90.000000
_cell_angle_beta 90.000000
_cell_angle_gamma 90.000000
_cell_volume 2418.179962
_symmetry_space_group_name_H-M "P N N A"
_symmetry_group_IT_number 52
_symmetry_cell_setting 'orthorhombic'
loop_
_space_group_symop_operation_xyz
x,y,z
1/2-x,-y,z
x,1/2-y,1/2-z
1/2-x,1/2+y,1/2-z
-x,-y,-z
1/2+x,y,-z
-x,1/2+y,1/2+z
1/2+x,1/2-y,1/2+z
loop_
_atom_site_type_symbol
_atom_site_label
_atom_site_fract_x
_atom_site_fract_y
_atom_site_fract_z
Si Si1 0.371067 0.641844 0.425989
Si Si2 0.827653 0.211085 0.940766
Si Si3 0.028128 0.661150 0.962847
Si Si4 0.035260 0.334325 0.182469
Si Si5 0.835797 0.103939 0.698634
O O1 0.276158 0.688810 0.459689
O O2 0.374566 0.452431 0.416522
O O3 0.449811 0.707229 0.476691
O O4 0.384092 0.723961 0.349685
O O5 0.835248 0.340826 0.880908
O O6 0.877550 0.276806 0.008954
O O7 0.037960 0.636924 0.878805
O O8 0.000000 0.500000 0.000000
O O9 0.991418 0.250000 0.250000
O O10 0.075275 0.500192 0.208242
O O11 0.841255 0.250000 0.750000
O O12 0.750000 0.000000 0.717781
#
# Coordination Sequence:
#
# PCOD8215669 Si02
#       5
#     8   8   8   8   8
#     4   9  21  32  55  77 109 138 184 221 282 328
#     4  11  19  35  53  78 108 147 179 227 271 335
#     4  10  20  35  54  76 110 143 185 228 268 333
#     4  10  20  36  49  77 108 143 180 223 274 334
#     4  12  22  30  49  76 114 150 179 214 274 341
#
# _framework density 16.541364999999999
#
# number of rings (size 3 to 8) (size 9 to 14) (size 15 to 20)
#    1.200    0.400    4.000    2.400    2.800    0.000 
#    0.000    0.000    0.000    0.000    0.000    7.000 
#    0.000    0.000    0.000    0.000    0.000    0.000 
#
# Total GULP energy -495740.955848 kJ/mol
# GULP energy per Si atom -12393.523896 kJ/mol
# Density = 1.650372 g / cm^3
# Si number density = 16.541365 Si / 1000 Ang^3
#
#
#
# Elastic Constant Matrix: (Units=GPa)
#
#
# Indices 1 2 3 4 5 6 
#
# 1 42.4331 6.3002 32.4781 0.0000 0.0000 0.0000
# 2 6.3002 74.7421 31.0380 0.0000 0.0000 0.0000
# 3 32.4781 31.0380 108.5686 0.0000 0.0000 0.0000
# 4 0.0000 0.0000 0.0000 35.4409 0.0000 0.0000
# 5 0.0000 0.0000 0.0000 0.0000 25.5677 0.0000
# 6 0.0000 0.0000 0.0000 0.0000 0.0000 24.1772
#
#
#
# Elastic Compliance Matrix: (Units=1/GPa)
#
#
# Indices 1 2 3 4 5 6 
#
# 1 0.030692 0.001391 -0.009579 0.000000 0.000000 0.000000
# 2 0.001391 0.015245 -0.004774 0.000000 0.000000 0.000000
# 3 -0.009579 -0.004774 0.013441 0.000000 0.000000 0.000000
# 4 0.000000 0.000000 0.000000 0.028216 0.000000 0.000000
# 5 0.000000 0.000000 0.000000 0.000000 0.039112 0.000000
# 6 0.000000 0.000000 0.000000 0.000000 0.000000 0.041361
#
#
# Mechanical properties :
#
#
# Convention : Reuss Voigt Hill
#
# Bulk Modulus (GPa) = 29.89296 40.59736 35.24516
# Shear Modulus (GPa) = 24.37330 27.43234 25.90282
#
# Velocity S-wave (km/s) = 3.84275 4.07677 3.96149
# Velocity P-wave (km/s) = 6.14816 6.83786 6.50216
#
# Compressibility (1/GPa) = 0.03345269
#
# Stress axis : x y z
#
# Youngs Moduli (GPa) = 32.58209 65.59650 74.39818
#
# Poissons Ratio (x) = -0.09123 0.71266
# Poissons Ratio (y) = -0.04531 0.35520
# Poissons Ratio (z) = 0.31210 0.31318
#
# Static dielectric constant tensor:
#      x y z
#    x 2.873280 0.000000 0.000000 
#    y 0.000000 3.326790 0.000000 
#    z 0.000000 0.000000 2.983690 
# 
# 
# High freq. dielectric constant tensor:
#      x y z
#    x 1.600050 0.000000 0.000000 
#    y 0.000000 1.658550 0.000000 
#    z 0.000000 0.000000 1.620360 
# 
# From -- ./inp_files/37119.got.cif
#   From: 2010.06.25/outbox.cif.g09.slc.cpg/sg52_19_cif.got.tgz:37119.got - 2010.06.26 19:32:48.
