data_PCOD8215576
_publ_section_title
;
Structure prediction by ZEFSAII (Michael W. Deem and Ramdas Pophale) SiO2 
 PCOD8215576
Probable space group: P N N A
;
_chemical_formula_sum "Si O2"
_cell_formula_units_Z 44
_cell_length_a 29.115453
_cell_length_b 10.277288
_cell_length_c 7.675402
_cell_angle_alpha 90.000000
_cell_angle_beta 90.000000
_cell_angle_gamma 90.000000
_cell_volume 2296.694389
_symmetry_space_group_name_H-M "P N N A"
_symmetry_group_IT_number 52
_symmetry_cell_setting 'orthorhombic'
loop_
_space_group_symop_operation_xyz
x,y,z
1/2-x,-y,z
x,1/2-y,1/2-z
1/2-x,1/2+y,1/2-z
-x,-y,-z
1/2+x,y,-z
-x,1/2+y,1/2+z
1/2+x,1/2-y,1/2+z
loop_
_atom_site_type_symbol
_atom_site_label
_atom_site_fract_x
_atom_site_fract_y
_atom_site_fract_z
Si Si1 0.462238 0.106926 0.466141
Si Si2 0.292910 0.404829 0.743086
Si Si3 0.511088 0.250000 0.750000
Si Si4 0.044274 0.506968 0.383728
Si Si5 0.638353 0.897639 0.544527
Si Si6 0.139935 0.907959 0.063618
O O1 0.477419 0.232879 0.579701
O O2 0.459556 0.127108 0.255244
O O3 0.411657 0.053298 0.520734
O O4 0.500000 0.000000 0.500000
O O5 0.250000 0.500000 0.752425
O O6 0.280052 0.250000 0.750000
O O7 0.319482 0.447023 0.567353
O O8 0.323424 0.443245 0.909329
O O9 0.544916 0.371366 0.722910
O O10 0.091753 0.522605 0.490749
O O11 0.000000 0.500000 0.500000
O O12 0.652314 0.949293 0.737389
O O13 0.632622 0.743970 0.547672
#
# Coordination Sequence:
#
# PCOD8215576 Si02
#       6
#     8   8   4   8   8   8
#     4   9  19  31  50  80 110 148 190 227 277 338
#     4  10  22  39  62  85 111 144 194 245 295 350
#     4  10  20  32  50  76 120 150 188 238 288 334
#     4  10  20  33  52  79 114 150 195 235 283 349
#     4   9  18  34  58  81 109 145 188 233 281 343
#     4   9  19  35  56  82 107 146 191 228 281 350
#
# _framework density 19.157968
#
# number of rings (size 3 to 8) (size 9 to 14) (size 15 to 20)
#    0.000    2.545    0.000    1.091    8.909    2.909 
#    0.000    5.455    0.000    0.000    0.000    0.000 
#    0.000    0.000    0.000    0.000    0.000    0.000 
#
# Total GULP energy -545109.351292 kJ/mol
# GULP energy per Si atom -12388.848893 kJ/mol
# Density = 1.911436 g / cm^3
# Si number density = 19.157968 Si / 1000 Ang^3
#
#
#
# Elastic Constant Matrix: (Units=GPa)
#
#
# Indices 1 2 3 4 5 6 
#
# 1 171.1813 52.0268 79.0849 0.0000 0.0000 0.0000
# 2 52.0268 53.4874 34.2382 0.0000 0.0000 0.0000
# 3 79.0849 34.2382 112.7931 0.0000 0.0000 0.0000
# 4 0.0000 0.0000 0.0000 20.3138 0.0000 0.0000
# 5 0.0000 0.0000 0.0000 0.0000 37.1729 0.0000
# 6 0.0000 0.0000 0.0000 0.0000 0.0000 34.2916
#
#
#
# Elastic Compliance Matrix: (Units=1/GPa)
#
#
# Indices 1 2 3 4 5 6 
#
# 1 0.010255 -0.006668 -0.005166 0.000000 0.000000 0.000000
# 2 -0.006668 0.027541 -0.003685 0.000000 0.000000 0.000000
# 3 -0.005166 -0.003685 0.013607 0.000000 0.000000 0.000000
# 4 0.000000 0.000000 0.000000 0.049228 0.000000 0.000000
# 5 0.000000 0.000000 0.000000 0.000000 0.026901 0.000000
# 6 0.000000 0.000000 0.000000 0.000000 0.000000 0.029162
#
#
# Mechanical properties :
#
#
# Convention : Reuss Voigt Hill
#
# Bulk Modulus (GPa) = 49.10536 74.24018 61.67277
# Shear Modulus (GPa) = 25.70440 29.82977 27.76709
#
# Velocity S-wave (km/s) = 3.66691 3.95022 3.81120
# Velocity P-wave (km/s) = 6.60422 7.72278 7.18530
#
# Compressibility (1/GPa) = 0.02036437
#
# Stress axis : x y z
#
# Youngs Moduli (GPa) = 97.51139 36.31006 73.49359
#
# Poissons Ratio (x) = 0.24212 0.37969
# Poissons Ratio (y) = 0.65022 0.27079
# Poissons Ratio (z) = 0.50378 0.13379
#
# Static dielectric constant tensor:
#      x y z
#    x 3.542590 0.000000 0.000000 
#    y 0.000000 3.391150 0.000000 
#    z 0.000000 0.000000 4.064380 
# 
# 
# High freq. dielectric constant tensor:
#      x y z
#    x 1.734200 0.000000 0.000000 
#    y 0.000000 1.719040 0.000000 
#    z 0.000000 0.000000 1.759940 
# 
# From -- ./inp_files/14168.got.cif
#   From: 2010.06.25/outbox.cif.g09.slc.cpg/sg52_8_cif.got.tgz:14168.got - 2010.06.26 19:32:48.
