data_PCOD8215509
_publ_section_title
;
Structure prediction by ZEFSAII (Michael W. Deem and Ramdas Pophale) SiO2 
 PCOD8215509
Probable space group: P N N A
;
_chemical_formula_sum "Si O2"
_cell_formula_units_Z 64
_cell_length_a 17.376848
_cell_length_b 11.940588
_cell_length_c 15.035316
_cell_angle_alpha 90.000000
_cell_angle_beta 90.000000
_cell_angle_gamma 90.000000
_cell_volume 3119.674450
_symmetry_space_group_name_H-M "P N N A"
_symmetry_group_IT_number 52
_symmetry_cell_setting 'orthorhombic'
loop_
_space_group_symop_operation_xyz
x,y,z
1/2-x,-y,z
x,1/2-y,1/2-z
1/2-x,1/2+y,1/2-z
-x,-y,-z
1/2+x,y,-z
-x,1/2+y,1/2+z
1/2+x,1/2-y,1/2+z
loop_
_atom_site_type_symbol
_atom_site_label
_atom_site_fract_x
_atom_site_fract_y
_atom_site_fract_z
Si Si1 0.383765 0.506599 0.941773
Si Si2 0.336970 0.258220 0.912184
Si Si3 0.439092 0.881903 0.938627
Si Si4 0.174107 0.278702 0.848009
Si Si5 0.062566 0.983151 0.185580
Si Si6 0.832478 0.443393 0.533340
Si Si7 0.051013 0.453266 0.122863
Si Si8 0.502594 0.292416 0.616750
O O1 0.342894 0.387398 0.938073
O O2 0.337003 0.593030 0.879280
O O3 0.470753 0.505550 0.908139
O O4 0.384250 0.537830 0.046303
O O5 0.263344 0.243197 0.849382
O O6 0.412140 0.216433 0.858714
O O7 0.325975 0.184264 0.001216
O O8 0.371413 0.797942 0.916179
O O9 0.491141 0.910829 0.852916
O O10 0.491431 0.818907 0.011401
O O11 0.400762 0.994637 0.977949
O O12 0.142863 0.250000 0.750000
O O13 0.141554 0.947227 0.136546
O O14 0.074967 0.971583 0.291388
O O15 0.044523 0.113693 0.173063
O O16 0.750000 0.500000 0.520638
O O17 0.043150 0.322520 0.144549
#
# Coordination Sequence:
#
# PCOD8215509 Si02
#       8
#     8   8   8   8   8   8   8   8
#     4  10  23  43  61  87 127 172 203 253 320 377
#     4  11  22  41  62  86 128 172 200 250 316 389
#     4  11  20  38  65  88 127 158 210 261 315 368
#     4  12  25  41  62  95 125 166 208 260 319 387
#     4  11  21  35  64 100 118 157 217 271 296 375
#     4  11  21  40  62  90 128 165 202 252 327 368
#     4  10  21  38  64  90 123 163 216 258 310 368
#     4  10  19  38  62  89 124 167 204 257 321 372
#
# _framework density 20.514961
#
# number of rings (size 3 to 8) (size 9 to 14) (size 15 to 20)
#    0.000    1.250    5.000    2.250    0.000    2.000 
#    4.500    1.875    0.000    1.500    0.000    0.000 
#    0.000    0.000    0.000    0.000    0.000    0.000 
#
# Total GULP energy -793540.105215 kJ/mol
# GULP energy per Si atom -12399.064144 kJ/mol
# Density = 2.046827 g / cm^3
# Si number density = 20.514961 Si / 1000 Ang^3
#
#
#
# Elastic Constant Matrix: (Units=GPa)
#
#
# Indices 1 2 3 4 5 6 
#
# 1 68.8025 15.9632 20.7752 0.0000 0.0000 0.0000
# 2 15.9632 83.8033 41.3007 0.0000 0.0000 0.0000
# 3 20.7752 41.3007 116.4010 0.0000 0.0000 0.0000
# 4 0.0000 0.0000 0.0000 21.2577 0.0000 0.0000
# 5 0.0000 0.0000 0.0000 0.0000 18.5200 0.0000
# 6 0.0000 0.0000 0.0000 0.0000 0.0000 26.6544
#
#
#
# Elastic Compliance Matrix: (Units=1/GPa)
#
#
# Indices 1 2 3 4 5 6 
#
# 1 0.015618 -0.001941 -0.002099 0.000000 0.000000 0.000000
# 2 -0.001941 0.014703 -0.004870 0.000000 0.000000 0.000000
# 3 -0.002099 -0.004870 0.010694 0.000000 0.000000 0.000000
# 4 0.000000 0.000000 0.000000 0.047042 0.000000 0.000000
# 5 0.000000 0.000000 0.000000 0.000000 0.053996 0.000000
# 6 0.000000 0.000000 0.000000 0.000000 0.000000 0.037517
#
#
# Mechanical properties :
#
#
# Convention : Reuss Voigt Hill
#
# Bulk Modulus (GPa) = 43.11315 47.23170 45.17242
# Shear Modulus (GPa) = 24.37587 26.01760 25.19673
#
# Velocity S-wave (km/s) = 3.45077 3.56508 3.50839
# Velocity P-wave (km/s) = 6.07768 6.32609 6.20313
#
# Compressibility (1/GPa) = 0.02319478
#
# Stress axis : x y z
#
# Youngs Moduli (GPa) = 64.02700 68.01520 93.51313
#
# Poissons Ratio (x) = 0.13199 0.19629
# Poissons Ratio (y) = 0.12425 0.45544
# Poissons Ratio (z) = 0.13439 0.33126
#
# Static dielectric constant tensor:
#      x y z
#    x 3.662330 0.000000 0.000000 
#    y 0.000000 3.770250 0.000000 
#    z 0.000000 0.000000 3.641020 
# 
# 
# High freq. dielectric constant tensor:
#      x y z
#    x 1.792620 0.000000 0.000000 
#    y 0.000000 1.808450 0.000000 
#    z 0.000000 0.000000 1.789970 
# 
# From -- ./inp_files/28292.got.cif
#   From: 2010.06.25/outbox.cif.g09.slc.cpg/sg52_15_cif.got.tgz:28292.got - 2010.06.26 19:32:48.
