data_PCOD8215102
_publ_section_title
;
Structure prediction by ZEFSAII (Michael W. Deem and Ramdas Pophale) SiO2 
 PCOD8215102
Probable space group: P N N A
;
_chemical_formula_sum "Si O2"
_cell_formula_units_Z 48
_cell_length_a 11.858721
_cell_length_b 8.795931
_cell_length_c 24.446211
_cell_angle_alpha 90.000000
_cell_angle_beta 90.000000
_cell_angle_gamma 90.000000
_cell_volume 2549.947396
_symmetry_space_group_name_H-M "P N N A"
_symmetry_group_IT_number 52
_symmetry_cell_setting 'orthorhombic'
loop_
_space_group_symop_operation_xyz
x,y,z
1/2-x,-y,z
x,1/2-y,1/2-z
1/2-x,1/2+y,1/2-z
-x,-y,-z
1/2+x,y,-z
-x,1/2+y,1/2+z
1/2+x,1/2-y,1/2+z
loop_
_atom_site_type_symbol
_atom_site_label
_atom_site_fract_x
_atom_site_fract_y
_atom_site_fract_z
Si Si1 0.443237 0.463062 0.101477
Si Si2 0.124682 0.464178 0.625782
Si Si3 0.051547 0.195074 0.085569
Si Si4 0.250000 0.000000 0.135245
Si Si5 0.750000 0.500000 0.978287
Si Si6 0.065119 0.710681 0.312982
Si Si7 0.108631 0.229200 0.533464
O O1 0.448027 0.641559 0.115500
O O2 0.421547 0.371484 0.156870
O O3 0.551425 0.400124 0.070181
O O4 0.345218 0.429748 0.059270
O O5 0.250000 0.500000 0.649352
O O6 0.138951 0.373927 0.569312
O O7 0.058205 0.616532 0.610657
O O8 0.052379 0.370431 0.670226
O O9 0.166857 0.101383 0.097474
O O10 0.038061 0.217499 0.020084
O O11 0.327109 0.105976 0.173597
O O12 0.778700 0.646955 0.013966
O O13 0.061127 0.750000 0.250000
#
# Coordination Sequence:
#
# PCOD8215102 Si02
#       7
#     8   8   8   4   4   8   8
#     4  10  21  36  55  84 112 151 191 234 282 344
#     4  10  23  37  57  84 117 157 200 238 286 349
#     4  10  20  37  55  86 124 148 190 234 290 352
#     4  10  22  35  60  90 112 145 184 236 302 348
#     4  10  18  31  56  82 120 143 188 226 288 352
#     4  10  22  43  61  83 115 146 198 248 295 338
#     4  10  21  32  55  82 117 156 185 233 280 346
#
# _framework density 18.823917000000002
#
# number of rings (size 3 to 8) (size 9 to 14) (size 15 to 20)
#    0.000    2.000    0.000    4.500    5.833    2.000 
#    0.000    4.167    0.000    0.000    0.000    0.000 
#    0.000    0.000    0.000    0.000    0.000    0.000 
#
# Total GULP energy -594987.056677 kJ/mol
# GULP energy per Si atom -12395.563681 kJ/mol
# Density = 1.878107 g / cm^3
# Si number density = 18.823917 Si / 1000 Ang^3
#
#
#
# Elastic Constant Matrix: (Units=GPa)
#
#
# Indices 1 2 3 4 5 6 
#
# 1 114.5893 57.3445 32.3972 0.0000 0.0000 0.0000
# 2 57.3445 147.4426 63.0882 0.0000 0.0000 0.0000
# 3 32.3972 63.0882 115.5508 0.0000 0.0000 0.0000
# 4 0.0000 0.0000 0.0000 22.7913 0.0000 0.0000
# 5 0.0000 0.0000 0.0000 0.0000 17.8415 0.0000
# 6 0.0000 0.0000 0.0000 0.0000 0.0000 24.3746
#
#
#
# Elastic Compliance Matrix: (Units=1/GPa)
#
#
# Indices 1 2 3 4 5 6 
#
# 1 0.010918 -0.003832 -0.000969 0.000000 0.000000 0.000000
# 2 -0.003832 0.010194 -0.004492 0.000000 0.000000 0.000000
# 3 -0.000969 -0.004492 0.011378 0.000000 0.000000 0.000000
# 4 0.000000 0.000000 0.000000 0.043876 0.000000 0.000000
# 5 0.000000 0.000000 0.000000 0.000000 0.056049 0.000000
# 6 0.000000 0.000000 0.000000 0.000000 0.000000 0.041026
#
#
# Mechanical properties :
#
#
# Convention : Reuss Voigt Hill
#
# Bulk Modulus (GPa) = 71.91138 75.91581 73.91359
# Shear Modulus (GPa) = 25.42415 27.98500 26.70457
#
# Velocity S-wave (km/s) = 3.67908 3.85992 3.77058
# Velocity P-wave (km/s) = 7.50550 7.76417 7.63593
#
# Compressibility (1/GPa) = 0.01390600
#
# Stress axis : x y z
#
# Youngs Moduli (GPa) = 91.58881 98.09232 87.88692
#
# Poissons Ratio (x) = 0.37587 0.08517
# Poissons Ratio (y) = 0.35095 0.39476
# Poissons Ratio (z) = 0.08876 0.44060
#
# Static dielectric constant tensor:
#      x y z
#    x 3.434020 0.000000 0.000000 
#    y 0.000000 3.576870 0.000000 
#    z 0.000000 0.000000 3.196000 
# 
# 
# High freq. dielectric constant tensor:
#      x y z
#    x 1.734050 0.000000 0.000000 
#    y 0.000000 1.749690 0.000000 
#    z 0.000000 0.000000 1.706230 
# 
# From -- ./inp_files/40180.got.cif
#   From: 2010.06.25/outbox.cif.g09.slc.cpg/sg52_21_cif.got.tgz:40180.got - 2010.06.26 19:32:48.
