data_PCOD8215464
_publ_section_title
;
Structure prediction by ZEFSAII (Michael W. Deem and Ramdas Pophale) SiO2 
 PCOD8215464
Probable space group: P N N A
;
_chemical_formula_sum "Si O2"
_cell_formula_units_Z 40
_cell_length_a 9.386546
_cell_length_b 8.753173
_cell_length_c 22.745839
_cell_angle_alpha 90.000000
_cell_angle_beta 90.000000
_cell_angle_gamma 90.000000
_cell_volume 1868.845012
_symmetry_space_group_name_H-M "P N N A"
_symmetry_group_IT_number 52
_symmetry_cell_setting 'orthorhombic'
loop_
_space_group_symop_operation_xyz
x,y,z
1/2-x,-y,z
x,1/2-y,1/2-z
1/2-x,1/2+y,1/2-z
-x,-y,-z
1/2+x,y,-z
-x,1/2+y,1/2+z
1/2+x,1/2-y,1/2+z
loop_
_atom_site_type_symbol
_atom_site_label
_atom_site_fract_x
_atom_site_fract_y
_atom_site_fract_z
Si Si1 0.902082 0.254589 0.535948
Si Si2 0.767666 0.178875 0.308366
Si Si3 0.750000 0.000000 0.610829
Si Si4 0.250000 0.000000 0.110221
Si Si5 0.287775 0.678278 0.936425
Si Si6 0.903500 0.755708 0.684255
O O1 0.839508 0.109387 0.569405
O O2 0.862824 0.408749 0.570231
O O3 0.840431 0.265012 0.469757
O O4 0.069992 0.226538 0.529128
O O5 0.693709 0.250000 0.250000
O O6 0.692754 0.233010 0.368864
O O7 0.926990 0.241947 0.313007
O O8 0.750000 0.000000 0.300834
O O9 0.641323 0.089289 0.652270
O O10 0.345946 0.890839 0.150043
O O11 0.250000 0.500000 0.937892
O O12 0.839348 0.750000 0.750000
#
# Coordination Sequence:
#
# PCOD8215464 Si02
#       6
#     8   8   4   4   8   8
#     4  11  24  40  64  95 132 170 216 271 325 391
#     4  10  23  42  65  94 129 170 220 269 325 386
#     4  10  19  36  64  90 125 172 222 266 316 382
#     4  10  25  42  60  98 137 166 216 264 340 386
#     4  11  23  40  67  96 127 173 222 270 318 388
#     4  10  21  40  64  92 130 174 218 267 320 388
#
# _framework density 21.403594999999999
#
# number of rings (size 3 to 8) (size 9 to 14) (size 15 to 20)
#    0.000    1.600    1.000    3.600    5.600    4.000 
#    1.800    5.000    0.000    0.000    0.000    0.000 
#    0.000    0.000    0.000    0.000    0.000    0.000 
#
# Total GULP energy -496002.501709 kJ/mol
# GULP energy per Si atom -12400.062543 kJ/mol
# Density = 2.135488 g / cm^3
# Si number density = 21.403595 Si / 1000 Ang^3
#
#
#
# Elastic Constant Matrix: (Units=GPa)
#
#
# Indices 1 2 3 4 5 6 
#
# 1 100.2264 24.5504 33.0403 0.0000 0.0000 0.0000
# 2 24.5504 98.9929 42.2977 0.0000 0.0000 0.0000
# 3 33.0403 42.2977 162.7197 0.0000 0.0000 0.0000
# 4 0.0000 0.0000 0.0000 -5.6157 0.0000 0.0000
# 5 0.0000 0.0000 0.0000 0.0000 34.0635 0.0000
# 6 0.0000 0.0000 0.0000 0.0000 0.0000 28.9612
#
#
#
# Elastic Compliance Matrix: (Units=1/GPa)
#
#
# Indices 1 2 3 4 5 6 
#
# 1 0.011035 -0.002002 -0.001720 0.000000 0.000000 0.000000
# 2 -0.002002 0.011727 -0.002642 0.000000 0.000000 0.000000
# 3 -0.001720 -0.002642 0.007182 0.000000 0.000000 0.000000
# 4 0.000000 0.000000 0.000000 -0.178074 0.000000 0.000000
# 5 0.000000 0.000000 0.000000 0.000000 0.029357 0.000000
# 6 0.000000 0.000000 0.000000 0.000000 0.000000 0.034529
#
#
# Mechanical properties :
#
#
# Convention : Reuss Voigt Hill
#
# Bulk Modulus (GPa) = 58.08643 62.41286 60.24964
# Shear Modulus (GPa) = -76.01312 28.95183 -23.53064
#
# Velocity S-wave (km/s) = -5.96584 3.68185 -3.31928
# Velocity P-wave (km/s) = 4.50083 6.87735 3.67699
#
# Compressibility (1/GPa) = 0.01721573
#
# Stress axis : x y z
#
# Youngs Moduli (GPa) = 90.62220 85.27354 139.24490
#
# Poissons Ratio (x) = 0.17068 0.23955
# Poissons Ratio (y) = 0.18139 0.36787
# Poissons Ratio (z) = 0.15590 0.22528
#
# Static dielectric constant tensor:
#      x y z
#    x 3.811160 0.000000 0.000000 
#    y 0.000000 3.986070 0.000000 
#    z 0.000000 0.000000 4.541140 
# 
# 
# High freq. dielectric constant tensor:
#      x y z
#    x 1.830580 0.000000 0.000000 
#    y 0.000000 1.834840 0.000000 
#    z 0.000000 0.000000 1.865590 
# 
# From -- ./inp_files/39279.got.cif
#   From: 2010.06.25/outbox.cif.g09.slc.cpg/sg52_20_cif.got.tgz:39279.got - 2010.06.26 19:32:48.
