data_PCOD8215379
_publ_section_title
;
Structure prediction by ZEFSAII (Michael W. Deem and Ramdas Pophale) SiO2 
 PCOD8215379
Probable space group: P N N A
;
_chemical_formula_sum "Si O2"
_cell_formula_units_Z 40
_cell_length_a 14.546940
_cell_length_b 14.555270
_cell_length_c 9.001890
_cell_angle_alpha 90.000000
_cell_angle_beta 90.000000
_cell_angle_gamma 90.000000
_cell_volume 1906.011933
_symmetry_space_group_name_H-M "P N N A"
_symmetry_group_IT_number 52
_symmetry_cell_setting 'orthorhombic'
loop_
_space_group_symop_operation_xyz
x,y,z
1/2-x,-y,z
x,1/2-y,1/2-z
1/2-x,1/2+y,1/2-z
-x,-y,-z
1/2+x,y,-z
-x,1/2+y,1/2+z
1/2+x,1/2-y,1/2+z
loop_
_atom_site_type_symbol
_atom_site_label
_atom_site_fract_x
_atom_site_fract_y
_atom_site_fract_z
Si Si1 0.124815 0.917977 0.374654
Si Si2 0.835902 0.800094 0.981006
Si Si3 0.491722 0.333868 0.351512
Si Si4 0.329383 0.617197 0.176594
Si Si5 0.367944 0.250247 0.923732
O O1 0.044424 0.918520 0.248119
O O2 0.219351 0.878404 0.310007
O O3 0.107604 0.854348 0.519786
O O4 0.134955 0.026382 0.409012
O O5 0.869437 0.700981 0.920102
O O6 0.854396 0.874394 0.850691
O O7 0.732688 0.788914 0.038309
O O8 0.898782 0.833962 0.119246
O O9 0.459043 0.250000 0.250000
O O10 0.439095 0.323381 0.507879
O O11 0.383532 0.250000 0.750000
#
# Coordination Sequence:
#
# PCOD8215379 Si02
#       5
#     8   8   8   8   8
#     4   9  18  37  59  83 112 152 193 237 284 344
#     4  10  19  34  59  85 112 152 190 234 286 344
#     4  10  20  35  57  82 111 154 188 231 286 347
#     4   9  18  34  61  84 111 150 196 233 286 343
#     4  10  20  35  58  84 112 150 192 235 286 339
#
# _framework density 20.986228000000001
#
# number of rings (size 3 to 8) (size 9 to 14) (size 15 to 20)
#    0.000    2.400    2.000    0.600    2.800    0.800 
#    0.000    4.000   22.000    0.000    0.000    0.000 
#    0.000    0.000    0.000    0.000    0.000    0.000 
#
# Total GULP energy -495568.872329 kJ/mol
# GULP energy per Si atom -12389.221808 kJ/mol
# Density = 2.093846 g / cm^3
# Si number density = 20.986228 Si / 1000 Ang^3
#
#
#
# Elastic Constant Matrix: (Units=GPa)
#
#
# Indices 1 2 3 4 5 6 
#
# 1 69.7999 12.8655 17.6988 0.0000 0.0000 0.0000
# 2 12.8655 72.5818 27.6834 0.0000 0.0000 0.0000
# 3 17.6988 27.6834 111.4443 0.0000 0.0000 0.0000
# 4 0.0000 0.0000 0.0000 18.7114 0.0000 0.0000
# 5 0.0000 0.0000 0.0000 0.0000 33.5987 0.0000
# 6 0.0000 0.0000 0.0000 0.0000 0.0000 17.7481
#
#
#
# Elastic Compliance Matrix: (Units=1/GPa)
#
#
# Indices 1 2 3 4 5 6 
#
# 1 0.015175 -0.001956 -0.001924 0.000000 0.000000 0.000000
# 2 -0.001956 0.015472 -0.003533 0.000000 0.000000 0.000000
# 3 -0.001924 -0.003533 0.010156 0.000000 0.000000 0.000000
# 4 0.000000 0.000000 0.000000 0.053443 0.000000 0.000000
# 5 0.000000 0.000000 0.000000 0.000000 0.029763 0.000000
# 6 0.000000 0.000000 0.000000 0.000000 0.000000 0.056344
#
#
# Mechanical properties :
#
#
# Convention : Reuss Voigt Hill
#
# Bulk Modulus (GPa) = 38.49486 41.14681 39.82084
# Shear Modulus (GPa) = 24.52929 27.05019 25.78974
#
# Velocity S-wave (km/s) = 3.42252 3.59409 3.50935
# Velocity P-wave (km/s) = 5.83103 6.07227 5.95287
#
# Compressibility (1/GPa) = 0.02597749
#
# Stress axis : x y z
#
# Youngs Moduli (GPa) = 65.89746 64.63435 98.46208
#
# Poissons Ratio (x) = 0.12642 0.18945
# Poissons Ratio (y) = 0.12889 0.34783
# Poissons Ratio (z) = 0.12679 0.22833
#
# Static dielectric constant tensor:
#      x y z
#    x 3.681360 0.000000 0.000000 
#    y 0.000000 3.611030 0.000000 
#    z 0.000000 0.000000 3.658740 
# 
# 
# High freq. dielectric constant tensor:
#      x y z
#    x 1.822830 0.000000 0.000000 
#    y 0.000000 1.796020 0.000000 
#    z 0.000000 0.000000 1.812690 
# 
# From -- ./inp_files/10055.got.cif
#   From: 2010.06.25/outbox.cif.g09.slc.cpg/sg52_6_cif.got.tgz:10055.got - 2010.06.26 19:32:48.
