data_PCOD8215069
_publ_section_title
;
Structure prediction by ZEFSAII (Michael W. Deem and Ramdas Pophale) SiO2 
 PCOD8215069
Probable space group: P N N A
;
_chemical_formula_sum "Si O2"
_cell_formula_units_Z 52
_cell_length_a 12.098907
_cell_length_b 13.170140
_cell_length_c 18.743772
_cell_angle_alpha 90.000000
_cell_angle_beta 90.000000
_cell_angle_gamma 90.000000
_cell_volume 2986.713211
_symmetry_space_group_name_H-M "P N N A"
_symmetry_group_IT_number 52
_symmetry_cell_setting 'orthorhombic'
loop_
_space_group_symop_operation_xyz
x,y,z
1/2-x,-y,z
x,1/2-y,1/2-z
1/2-x,1/2+y,1/2-z
-x,-y,-z
1/2+x,y,-z
-x,1/2+y,1/2+z
1/2+x,1/2-y,1/2+z
loop_
_atom_site_type_symbol
_atom_site_label
_atom_site_fract_x
_atom_site_fract_y
_atom_site_fract_z
Si Si1 0.710618 0.750000 0.250000
Si Si2 0.241473 0.698993 0.361405
Si Si3 0.160808 0.414548 0.667144
Si Si4 0.957623 0.086224 0.236816
Si Si5 0.800018 0.602089 0.783256
Si Si6 0.535931 0.616157 0.565744
Si Si7 0.048835 0.387056 0.416630
O O1 0.787300 0.692770 0.307819
O O2 0.630597 0.841249 0.277689
O O3 0.252887 0.620864 0.295814
O O4 0.259352 0.812716 0.336403
O O5 0.337199 0.675224 0.418192
O O6 0.120257 0.692304 0.395660
O O7 0.250000 0.500000 0.642397
O O8 0.088115 0.470279 0.729694
O O9 0.085228 0.382323 0.601064
O O10 0.067764 0.091692 0.283307
O O11 0.980245 0.129186 0.156573
O O12 0.750000 0.500000 0.814463
O O13 0.525772 0.649496 0.483148
O O14 0.585039 0.503585 0.572550
#
# Coordination Sequence:
#
# PCOD8215069 Si02
#       7
#     4   8   8   8   8   8   8
#     4  10  18  30  46  66 100 130 154 190 234 284
#     4  10  19  31  50  76  98 126 163 200 247 300
#     4   9  19  30  44  69  97 125 157 190 234 289
#     4   9  17  32  48  68  97 128 157 193 238 287
#     4  10  19  32  52  74  99 127 164 208 248 290
#     4  10  19  30  49  73 101 126 154 200 242 290
#     4   9  18  31  48  71  99 130 156 188 243 300
#
# _framework density 17.410442
#
# number of rings (size 3 to 8) (size 9 to 14) (size 15 to 20)
#    0.000    2.462    0.000    5.077    0.000    7.385 
#    0.000    0.000    0.000    0.923    0.000    6.462 
#    0.000    0.000    0.000    0.000    0.000    0.000 
#
# Total GULP energy -644483.082049 kJ/mol
# GULP energy per Si atom -12393.905424 kJ/mol
# Density = 1.737082 g / cm^3
# Si number density = 17.410442 Si / 1000 Ang^3
#
#
#
# Elastic Constant Matrix: (Units=GPa)
#
#
# Indices 1 2 3 4 5 6 
#
# 1 116.7497 46.8022 46.3170 0.0000 0.0000 0.0000
# 2 46.8022 88.6439 40.2238 0.0000 0.0000 0.0000
# 3 46.3170 40.2238 57.3949 0.0000 0.0000 0.0000
# 4 0.0000 0.0000 0.0000 16.9875 0.0000 0.0000
# 5 0.0000 0.0000 0.0000 0.0000 23.8606 0.0000
# 6 0.0000 0.0000 0.0000 0.0000 0.0000 31.1768
#
#
#
# Elastic Compliance Matrix: (Units=1/GPa)
#
#
# Indices 1 2 3 4 5 6 
#
# 1 0.013163 -0.003123 -0.008434 0.000000 0.000000 0.000000
# 2 -0.003123 0.017282 -0.009592 0.000000 0.000000 0.000000
# 3 -0.008434 -0.009592 0.030951 0.000000 0.000000 0.000000
# 4 0.000000 0.000000 0.000000 0.058867 0.000000 0.000000
# 5 0.000000 0.000000 0.000000 0.000000 0.041910 0.000000
# 6 0.000000 0.000000 0.000000 0.000000 0.000000 0.032075
#
#
# Mechanical properties :
#
#
# Convention : Reuss Voigt Hill
#
# Bulk Modulus (GPa) = 52.35674 58.83050 55.59362
# Shear Modulus (GPa) = 20.58354 23.03468 21.80911
#
# Velocity S-wave (km/s) = 3.44212 3.64131 3.54311
# Velocity P-wave (km/s) = 6.77753 7.17931 6.98131
#
# Compressibility (1/GPa) = 0.01909974
#
# Stress axis : x y z
#
# Youngs Moduli (GPa) = 75.96994 57.86250 32.30868
#
# Poissons Ratio (x) = 0.18069 0.27249
# Poissons Ratio (y) = 0.23724 0.30990
# Poissons Ratio (z) = 0.64073 0.55501
#
# Static dielectric constant tensor:
#      x y z
#    x 3.434870 0.000000 0.000000 
#    y 0.000000 3.138130 0.000000 
#    z 0.000000 0.000000 2.968080 
# 
# 
# High freq. dielectric constant tensor:
#      x y z
#    x 1.691290 0.000000 0.000000 
#    y 0.000000 1.654510 0.000000 
#    z 0.000000 0.000000 1.629940 
# 
# From -- ./inp_files/36932.got.cif
#   From: 2010.06.25/outbox.cif.g09.slc.cpg/sg52_19_cif.got.tgz:36932.got - 2010.06.26 19:32:48.
