data_PCOD8215866
_publ_section_title
;
Structure prediction by ZEFSAII (Michael W. Deem and Ramdas Pophale) SiO2 
 PCOD8215866
Probable space group: P N N A
;
_chemical_formula_sum "Si O2"
_cell_formula_units_Z 60
_cell_length_a 21.817908
_cell_length_b 15.153392
_cell_length_c 9.186185
_cell_angle_alpha 90.000000
_cell_angle_beta 90.000000
_cell_angle_gamma 90.000000
_cell_volume 3037.093425
_symmetry_space_group_name_H-M "P N N A"
_symmetry_group_IT_number 52
_symmetry_cell_setting 'orthorhombic'
loop_
_space_group_symop_operation_xyz
x,y,z
1/2-x,-y,z
x,1/2-y,1/2-z
1/2-x,1/2+y,1/2-z
-x,-y,-z
1/2+x,y,-z
-x,1/2+y,1/2+z
1/2+x,1/2-y,1/2+z
loop_
_atom_site_type_symbol
_atom_site_label
_atom_site_fract_x
_atom_site_fract_y
_atom_site_fract_z
Si Si1 0.818811 0.750000 0.750000
Si Si2 0.382769 0.102812 0.415395
Si Si3 0.066565 0.573404 0.395757
Si Si4 0.926029 0.568884 0.377273
Si Si5 0.947133 0.243536 0.086739
Si Si6 0.417340 0.750766 0.012349
Si Si7 0.754494 0.597255 0.903516
Si Si8 0.628809 0.430666 0.081864
O O1 0.860130 0.772970 0.886704
O O2 0.777745 0.664474 0.781378
O O3 0.391784 0.098791 0.241646
O O4 0.425708 0.175714 0.486902
O O5 0.312627 0.128341 0.455016
O O6 0.398046 0.006031 0.476765
O O7 0.091524 0.485422 0.476637
O O8 0.071851 0.651996 0.512515
O O9 0.997700 0.553241 0.340058
O O10 0.916408 0.673351 0.391755
O O11 0.881235 0.536781 0.247398
O O12 0.919166 0.250000 0.250000
O O13 0.020176 0.246977 0.102850
O O14 0.412392 0.655801 0.937981
O O15 0.750000 0.500000 0.830940
O O16 0.800120 0.591078 0.043518
#
# Coordination Sequence:
#
# PCOD8215866 Si02
#       8
#     4   8   8   8   8   8   8   8
#     4  10  20  38  62  90 110 158 200 258 302 348
#     4  11  23  39  61  83 124 164 205 252 302 370
#     4  10  23  36  59  93 124 156 203 251 307 376
#     4  10  21  38  59  91 125 154 196 256 311 371
#     4  11  22  38  59  89 126 160 195 250 314 368
#     4  10  21  35  62  89 122 149 200 249 303 371
#     4   9  22  39  61  83 117 158 213 252 293 361
#     4  10  21  39  61  84 118 161 203 249 311 350
#
# _framework density 19.755731000000001
#
# number of rings (size 3 to 8) (size 9 to 14) (size 15 to 20)
#    0.000    1.867    0.667    2.400    7.467    5.333 
#    0.000    2.667    8.800    0.000    0.000    0.000 
#    0.000    0.000    0.000    0.000    0.000    0.000 
#
# Total GULP energy -743972.245725 kJ/mol
# GULP energy per Si atom -12399.537429 kJ/mol
# Density = 1.971077 g / cm^3
# Si number density = 19.755731 Si / 1000 Ang^3
#
#
#
# Elastic Constant Matrix: (Units=GPa)
#
#
# Indices 1 2 3 4 5 6 
#
# 1 66.0508 43.4183 40.0285 0.0000 0.0000 0.0000
# 2 43.4183 126.1474 42.4054 0.0000 0.0000 0.0000
# 3 40.0285 42.4054 116.0465 0.0000 0.0000 0.0000
# 4 0.0000 0.0000 0.0000 27.1208 0.0000 0.0000
# 5 0.0000 0.0000 0.0000 0.0000 21.1282 0.0000
# 6 0.0000 0.0000 0.0000 0.0000 0.0000 29.8661
#
#
#
# Elastic Compliance Matrix: (Units=1/GPa)
#
#
# Indices 1 2 3 4 5 6 
#
# 1 0.022345 -0.005814 -0.005583 0.000000 0.000000 0.000000
# 2 -0.005814 0.010550 -0.001850 0.000000 0.000000 0.000000
# 3 -0.005583 -0.001850 0.011219 0.000000 0.000000 0.000000
# 4 0.000000 0.000000 0.000000 0.036872 0.000000 0.000000
# 5 0.000000 0.000000 0.000000 0.000000 0.047330 0.000000
# 6 0.000000 0.000000 0.000000 0.000000 0.000000 0.033483
#
#
# Mechanical properties :
#
#
# Convention : Reuss Voigt Hill
#
# Bulk Modulus (GPa) = 56.75203 62.21657 59.48430
# Shear Modulus (GPa) = 25.75107 27.78252 26.76680
#
# Velocity S-wave (km/s) = 3.61428 3.75414 3.68487
# Velocity P-wave (km/s) = 6.79754 7.09596 6.94836
#
# Compressibility (1/GPa) = 0.01762052
#
# Stress axis : x y z
#
# Youngs Moduli (GPa) = 44.75222 94.78498 89.13496
#
# Poissons Ratio (x) = 0.55110 0.49765
# Poissons Ratio (y) = 0.26020 0.16487
# Poissons Ratio (z) = 0.24985 0.17533
#
# Static dielectric constant tensor:
#      x y z
#    x 3.579330 0.000000 0.000000 
#    y 0.000000 3.768150 0.000000 
#    z 0.000000 0.000000 3.469550 
# 
# 
# High freq. dielectric constant tensor:
#      x y z
#    x 1.756620 0.000000 0.000000 
#    y 0.000000 1.786590 0.000000 
#    z 0.000000 0.000000 1.759940 
# 
# From -- ./inp_files/14436.got.cif
#   From: 2010.06.25/outbox.cif.g09.slc.cpg/sg52_8_cif.got.tgz:14436.got - 2010.06.26 19:32:48.
