data_PCOD8215034
_publ_section_title
;
Structure prediction by ZEFSAII (Michael W. Deem and Ramdas Pophale) SiO2 
 PCOD8215034
Probable space group: P N N A
;
_chemical_formula_sum "Si O2"
_cell_formula_units_Z 48
_cell_length_a 10.189095
_cell_length_b 13.849296
_cell_length_c 16.952251
_cell_angle_alpha 90.000000
_cell_angle_beta 90.000000
_cell_angle_gamma 90.000000
_cell_volume 2392.162528
_symmetry_space_group_name_H-M "P N N A"
_symmetry_group_IT_number 52
_symmetry_cell_setting 'orthorhombic'
loop_
_space_group_symop_operation_xyz
x,y,z
1/2-x,-y,z
x,1/2-y,1/2-z
1/2-x,1/2+y,1/2-z
-x,-y,-z
1/2+x,y,-z
-x,1/2+y,1/2+z
1/2+x,1/2-y,1/2+z
loop_
_atom_site_type_symbol
_atom_site_label
_atom_site_fract_x
_atom_site_fract_y
_atom_site_fract_z
Si Si1 0.403746 0.357001 0.773625
Si Si2 0.482586 0.324677 0.314684
Si Si3 0.896729 0.478000 0.801886
Si Si4 0.224104 0.694666 0.934078
Si Si5 0.252991 0.603512 0.622061
Si Si6 0.528718 0.665617 0.929583
O O1 0.451678 0.250000 0.750000
O O2 0.532392 0.420804 0.786725
O O3 0.307880 0.352599 0.849417
O O4 0.324256 0.407352 0.703860
O O5 0.541622 0.250000 0.250000
O O6 0.391887 0.406130 0.274334
O O7 0.597401 0.377569 0.359043
O O8 0.412221 0.257834 0.380913
O O9 0.750000 0.500000 0.826990
O O10 0.969215 0.428851 0.875336
O O11 0.195668 0.810275 0.931521
O O12 0.123220 0.322165 0.956461
O O13 0.124472 0.648514 0.996660
O O14 0.250000 0.500000 0.577138
#
# Coordination Sequence:
#
# PCOD8215034 Si02
#       6
#     8   8   8   8   8   8
#     4  10  21  37  62  90 116 151 206 254 292 351
#     4   9  18  37  61  84 115 155 195 245 300 354
#     4  11  23  38  60  93 118 157 198 250 308 346
#     4  10  23  40  60  89 121 165 195 247 301 355
#     4  10  17  35  65  88 112 149 209 254 287 350
#     4  10  23  42  61  85 126 158 201 239 302 363
#
# _framework density 20.065526999999999
#
# number of rings (size 3 to 8) (size 9 to 14) (size 15 to 20)
#    0.000    2.000    1.667    3.500    2.333    2.667 
#    3.000    4.167    0.000    0.000    0.000    0.000 
#    0.000    0.000    0.000    0.000    0.000    0.000 
#
# Total GULP energy -594982.673213 kJ/mol
# GULP energy per Si atom -12395.472359 kJ/mol
# Density = 2.001986 g / cm^3
# Si number density = 20.065527 Si / 1000 Ang^3
#
#
#
# Elastic Constant Matrix: (Units=GPa)
#
#
# Indices 1 2 3 4 5 6 
#
# 1 91.8447 27.7374 32.8050 0.0000 0.0000 0.0000
# 2 27.7374 96.6160 13.0712 0.0000 0.0000 0.0000
# 3 32.8050 13.0712 65.9556 0.0000 0.0000 0.0000
# 4 0.0000 0.0000 0.0000 10.8797 0.0000 0.0000
# 5 0.0000 0.0000 0.0000 0.0000 26.1339 0.0000
# 6 0.0000 0.0000 0.0000 0.0000 0.0000 29.7875
#
#
#
# Elastic Compliance Matrix: (Units=1/GPa)
#
#
# Indices 1 2 3 4 5 6 
#
# 1 0.014138 -0.003193 -0.006399 0.000000 0.000000 0.000000
# 2 -0.003193 0.011357 -0.000662 0.000000 0.000000 0.000000
# 3 -0.006399 -0.000662 0.018476 0.000000 0.000000 0.000000
# 4 0.000000 0.000000 0.000000 0.091914 0.000000 0.000000
# 5 0.000000 0.000000 0.000000 0.000000 0.038264 0.000000
# 6 0.000000 0.000000 0.000000 0.000000 0.000000 0.033571
#
#
# Mechanical properties :
#
#
# Convention : Reuss Voigt Hill
#
# Bulk Modulus (GPa) = 42.62409 44.62706 43.62558
# Shear Modulus (GPa) = 21.18196 25.41373 23.29784
#
# Velocity S-wave (km/s) = 3.25258 3.56270 3.41117
# Velocity P-wave (km/s) = 5.94931 6.26201 6.10766
#
# Compressibility (1/GPa) = 0.02346091
#
# Stress axis : x y z
#
# Youngs Moduli (GPa) = 70.73184 88.05461 54.12488
#
# Poissons Ratio (x) = 0.28117 0.34635
# Poissons Ratio (y) = 0.22585 0.03586
# Poissons Ratio (z) = 0.45262 0.05833
#
# Static dielectric constant tensor:
#      x y z
#    x 3.329490 0.000000 0.000000 
#    y 0.000000 4.104910 0.000000 
#    z 0.000000 0.000000 3.551200 
# 
# 
# High freq. dielectric constant tensor:
#      x y z
#    x 1.763430 0.000000 0.000000 
#    y 0.000000 1.799220 0.000000 
#    z 0.000000 0.000000 1.763330 
# 
# From -- ./inp_files/32224.got.cif
#   From: 2010.06.25/outbox.cif.g09.slc.cpg/sg52_17_cif.got.tgz:32224.got - 2010.06.26 19:32:48.
