data_PCOD8215770
_publ_section_title
;
Structure prediction by ZEFSAII (Michael W. Deem and Ramdas Pophale) SiO2 
 PCOD8215770
Probable space group: P N N A
;
_chemical_formula_sum "Si O2"
_cell_formula_units_Z 36
_cell_length_a 14.568607
_cell_length_b 13.760516
_cell_length_c 8.924896
_cell_angle_alpha 90.000000
_cell_angle_beta 90.000000
_cell_angle_gamma 90.000000
_cell_volume 1789.187732
_symmetry_space_group_name_H-M "P N N A"
_symmetry_group_IT_number 52
_symmetry_cell_setting 'orthorhombic'
loop_
_space_group_symop_operation_xyz
x,y,z
1/2-x,-y,z
x,1/2-y,1/2-z
1/2-x,1/2+y,1/2-z
-x,-y,-z
1/2+x,y,-z
-x,1/2+y,1/2+z
1/2+x,1/2-y,1/2+z
loop_
_atom_site_type_symbol
_atom_site_label
_atom_site_fract_x
_atom_site_fract_y
_atom_site_fract_z
Si Si1 0.727573 0.895932 0.153777
Si Si2 0.517717 0.847109 0.154042
Si Si3 0.394800 0.735172 0.582935
Si Si4 0.750000 0.000000 0.446602
Si Si5 0.074949 0.437430 0.081187
O O1 0.621806 0.875540 0.119925
O O2 0.792128 0.811219 0.086811
O O3 0.750000 0.000000 0.077004
O O4 0.745684 0.905362 0.334885
O O5 0.518558 0.750000 0.250000
O O6 0.460509 0.926759 0.249047
O O7 0.465203 0.838680 0.996665
O O8 0.432257 0.750000 0.750000
O O9 0.399305 0.834847 0.492802
O O10 0.666209 0.999100 0.562785
O O11 0.000000 0.500000 0.000000
#
# Coordination Sequence:
#
# PCOD8215770 Si02
#       5
#     8   8   8   4   8
#     4  10  20  39  63  88 121 171 214 267 340 405
#     4  10  23  39  63  91 129 166 215 271 331 399
#     4  11  22  40  64  93 128 172 223 274 327 407
#     4  10  20  36  66  88 124 168 222 262 346 416
#     4  11  21  41  63  96 129 173 220 275 340 410
#
# _framework density 20.120861999999999
#
# number of rings (size 3 to 8) (size 9 to 14) (size 15 to 20)
#    0.667    0.889    4.444    0.667    0.000    0.889 
#    2.000    3.333    0.000    0.000    0.000    0.000 
#    0.000    0.000    0.000    0.000    0.000    0.000 
#
# Total GULP energy -446054.245080 kJ/mol
# GULP energy per Si atom -12390.395697 kJ/mol
# Density = 2.007507 g / cm^3
# Si number density = 20.120862 Si / 1000 Ang^3
#
#
#
# Elastic Constant Matrix: (Units=GPa)
#
#
# Indices 1 2 3 4 5 6 
#
# 1 208.1913 50.7162 71.0268 0.0000 0.0000 0.0000
# 2 50.7162 78.4302 27.4346 0.0000 0.0000 0.0000
# 3 71.0268 27.4346 97.2488 0.0000 0.0000 0.0000
# 4 0.0000 0.0000 0.0000 29.8080 0.0000 0.0000
# 5 0.0000 0.0000 0.0000 0.0000 20.7644 0.0000
# 6 0.0000 0.0000 0.0000 0.0000 0.0000 40.5543
#
#
#
# Elastic Compliance Matrix: (Units=1/GPa)
#
#
# Indices 1 2 3 4 5 6 
#
# 1 0.006993 -0.003035 -0.004251 0.000000 0.000000 0.000000
# 2 -0.003035 0.015463 -0.002146 0.000000 0.000000 0.000000
# 3 -0.004251 -0.002146 0.013993 0.000000 0.000000 0.000000
# 4 0.000000 0.000000 0.000000 0.033548 0.000000 0.000000
# 5 0.000000 0.000000 0.000000 0.000000 0.048159 0.000000
# 6 0.000000 0.000000 0.000000 0.000000 0.000000 0.024658
#
#
# Mechanical properties :
#
#
# Convention : Reuss Voigt Hill
#
# Bulk Modulus (GPa) = 56.86442 75.80283 66.33363
# Shear Modulus (GPa) = 29.84352 33.87153 31.85753
#
# Velocity S-wave (km/s) = 3.85543 4.10738 3.98340
# Velocity P-wave (km/s) = 6.93844 7.76206 7.36178
#
# Compressibility (1/GPa) = 0.01758569
#
# Stress axis : x y z
#
# Youngs Moduli (GPa) = 143.00169 64.66953 71.46351
#
# Poissons Ratio (x) = 0.19626 0.30381
# Poissons Ratio (y) = 0.43399 0.15334
# Poissons Ratio (z) = 0.60793 0.13876
#
# Static dielectric constant tensor:
#      x y z
#    x 3.699790 0.000000 0.000000 
#    y 0.000000 3.727320 0.000000 
#    z 0.000000 0.000000 3.624090 
# 
# 
# High freq. dielectric constant tensor:
#      x y z
#    x 1.797670 0.000000 0.000000 
#    y 0.000000 1.787800 0.000000 
#    z 0.000000 0.000000 1.759060 
# 
# From -- ./inp_files/9923.got.cif
#   From: 2010.06.25/outbox.cif.g09.slc.cpg/sg52_5_cif.got.tgz:9923.got - 2010.06.26 19:32:48.
