data_PCOD8215459
_publ_section_title
;
Structure prediction by ZEFSAII (Michael W. Deem and Ramdas Pophale) SiO2 
 PCOD8215459
Probable space group: P N N A
;
_chemical_formula_sum "Si O2"
_cell_formula_units_Z 56
_cell_length_a 15.099112
_cell_length_b 10.940060
_cell_length_c 16.737516
_cell_angle_alpha 90.000000
_cell_angle_beta 90.000000
_cell_angle_gamma 90.000000
_cell_volume 2764.789781
_symmetry_space_group_name_H-M "P N N A"
_symmetry_group_IT_number 52
_symmetry_cell_setting 'orthorhombic'
loop_
_space_group_symop_operation_xyz
x,y,z
1/2-x,-y,z
x,1/2-y,1/2-z
1/2-x,1/2+y,1/2-z
-x,-y,-z
1/2+x,y,-z
-x,1/2+y,1/2+z
1/2+x,1/2-y,1/2+z
loop_
_atom_site_type_symbol
_atom_site_label
_atom_site_fract_x
_atom_site_fract_y
_atom_site_fract_z
Si Si1 0.019821 0.427091 0.174859
Si Si2 0.207717 0.784620 0.158710
Si Si3 0.348194 0.991914 0.611909
Si Si4 0.943869 0.754310 0.432956
Si Si5 0.958653 0.449792 0.655215
Si Si6 0.114799 0.899968 0.444620
Si Si7 0.600242 0.194098 0.894418
O O1 0.038848 0.508397 0.252595
O O2 0.067227 0.490137 0.100331
O O3 0.057647 0.289715 0.169333
O O4 0.913693 0.422448 0.163284
O O5 0.199869 0.750000 0.250000
O O6 0.133690 0.883410 0.138266
O O7 0.192831 0.661267 0.107143
O O8 0.303139 0.839952 0.138902
O O9 0.387550 0.854364 0.616092
O O10 0.250000 0.000000 0.649877
O O11 0.341240 0.045340 0.523063
O O12 0.888950 0.728627 0.513050
O O13 0.960258 0.638108 0.373412
O O14 0.038844 0.801393 0.464213
O O15 0.961593 0.574025 0.604464
#
# Coordination Sequence:
#
# PCOD8215459 Si02
#       7
#     8   8   8   8   8   8   8
#     4  11  21  39  62  87 123 158 204 256 312 363
#     4  11  22  36  59  93 125 160 200 254 307 369
#     4  11  21  38  65  90 112 155 211 267 304 359
#     4  10  21  39  62  85 119 168 202 249 315 371
#     4  11  24  39  61  86 125 170 203 241 311 390
#     4  10  19  36  61  88 121 152 204 252 305 366
#     4  12  22  38  58  90 129 161 202 250 309 376
#
# _framework density 20.254705999999999
#
# number of rings (size 3 to 8) (size 9 to 14) (size 15 to 20)
#    0.000    1.143    4.286    3.857    0.000    0.000 
#    0.000    0.000    6.286    0.000    0.000    0.000 
#    0.000    0.000    0.000    0.000    0.000    0.000 
#
# Total GULP energy -694249.060609 kJ/mol
# GULP energy per Si atom -12397.304654 kJ/mol
# Density = 2.020861 g / cm^3
# Si number density = 20.254706 Si / 1000 Ang^3
#
#
#
# Elastic Constant Matrix: (Units=GPa)
#
#
# Indices 1 2 3 4 5 6 
#
# 1 107.4360 38.3069 14.9500 0.0000 0.0000 0.0000
# 2 38.3069 109.4705 26.0046 0.0000 0.0000 0.0000
# 3 14.9500 26.0046 50.5140 0.0000 0.0000 0.0000
# 4 0.0000 0.0000 0.0000 35.5051 0.0000 0.0000
# 5 0.0000 0.0000 0.0000 0.0000 21.6661 0.0000
# 6 0.0000 0.0000 0.0000 0.0000 0.0000 24.6844
#
#
#
# Elastic Compliance Matrix: (Units=1/GPa)
#
#
# Indices 1 2 3 4 5 6 
#
# 1 0.010723 -0.003416 -0.001415 0.000000 0.000000 0.000000
# 2 -0.003416 0.011496 -0.004907 0.000000 0.000000 0.000000
# 3 -0.001415 -0.004907 0.022741 0.000000 0.000000 0.000000
# 4 0.000000 0.000000 0.000000 0.028165 0.000000 0.000000
# 5 0.000000 0.000000 0.000000 0.000000 0.046155 0.000000
# 6 0.000000 0.000000 0.000000 0.000000 0.000000 0.040511
#
#
# Mechanical properties :
#
#
# Convention : Reuss Voigt Hill
#
# Bulk Modulus (GPa) = 39.24030 47.32703 43.28367
# Shear Modulus (GPa) = 26.62941 28.91506 27.77224
#
# Velocity S-wave (km/s) = 3.62985 3.78242 3.70692
# Velocity P-wave (km/s) = 6.08138 6.51861 6.30379
#
# Compressibility (1/GPa) = 0.02548400
#
# Stress axis : x y z
#
# Youngs Moduli (GPa) = 93.25936 86.98717 43.97262
#
# Poissons Ratio (x) = 0.29716 0.06222
# Poissons Ratio (y) = 0.31858 0.21578
# Poissons Ratio (z) = 0.13195 0.42685
#
# Static dielectric constant tensor:
#      x y z
#    x 3.674770 0.000000 0.000000 
#    y 0.000000 3.877170 0.000000 
#    z 0.000000 0.000000 3.556740 
# 
# 
# High freq. dielectric constant tensor:
#      x y z
#    x 1.778850 0.000000 0.000000 
#    y 0.000000 1.797800 0.000000 
#    z 0.000000 0.000000 1.780150 
# 
# From -- ./inp_files/27293.got.cif
#   From: 2010.06.25/outbox.cif.g09.slc.cpg/sg52_14_cif.got.tgz:27293.got - 2010.06.26 19:32:48.
