data_PCOD8215330
_publ_section_title
;
Structure prediction by ZEFSAII (Michael W. Deem and Ramdas Pophale) SiO2 
 PCOD8215330
Probable space group: P N N A
;
_chemical_formula_sum "Si O2"
_cell_formula_units_Z 48
_cell_length_a 32.109921
_cell_length_b 5.019312
_cell_length_c 15.083991
_cell_angle_alpha 90.000000
_cell_angle_beta 90.000000
_cell_angle_gamma 90.000000
_cell_volume 2431.082482
_symmetry_space_group_name_H-M "P N N A"
_symmetry_group_IT_number 52
_symmetry_cell_setting 'orthorhombic'
loop_
_space_group_symop_operation_xyz
x,y,z
1/2-x,-y,z
x,1/2-y,1/2-z
1/2-x,1/2+y,1/2-z
-x,-y,-z
1/2+x,y,-z
-x,1/2+y,1/2+z
1/2+x,1/2-y,1/2+z
loop_
_atom_site_type_symbol
_atom_site_label
_atom_site_fract_x
_atom_site_fract_y
_atom_site_fract_z
Si Si1 0.114293 0.651937 0.658399
Si Si2 0.977166 0.498858 0.801902
Si Si3 0.091083 0.346114 0.064586
Si Si4 0.357158 0.141760 0.032095
Si Si5 0.937651 0.663402 0.122597
Si Si6 0.778856 0.248991 0.850512
O O1 0.137219 0.750000 0.750000
O O2 0.146711 0.608173 0.576130
O O3 0.087505 0.385096 0.679876
O O4 0.081459 0.874183 0.632121
O O5 0.997176 0.750000 0.750000
O O6 0.941003 0.646377 0.855625
O O7 0.013742 0.349167 0.855123
O O8 0.956322 0.250000 0.750000
O O9 0.108416 0.640034 0.052478
O O10 0.128589 0.134078 0.079104
O O11 0.065761 0.243830 0.979141
O O12 0.314295 0.238288 0.075047
O O13 0.750000 0.500000 0.868973
O O14 0.797534 0.250000 0.750000
O O15 0.750000 0.000000 0.864812
#
# Coordination Sequence:
#
# PCOD8215330 Si02
#       6
#     8   8   8   8   8   8
#     4  10  19  33  55  81 106 138 183 227 270 316
#     4  12  23  34  50  74 105 143 188 234 280 322
#     4  10  22  37  52  76 107 143 180 222 279 328
#     4  10  21  37  58  81 109 141 174 221 273 325
#     4  10  20  35  53  72 102 144 190 232 267 313
#     4  10  21  38  61  86 109 139 176 212 256 318
#
# _framework density 19.744291
#
# number of rings (size 3 to 8) (size 9 to 14) (size 15 to 20)
#    0.000    1.667    0.000    5.500    0.000    2.000 
#    0.000    6.667    0.000    1.000    0.000    0.000 
#    0.000    0.000    0.000    0.000    0.000    0.000 
#
# Total GULP energy -594947.383143 kJ/mol
# GULP energy per Si atom -12394.737149 kJ/mol
# Density = 1.969935 g / cm^3
# Si number density = 19.744291 Si / 1000 Ang^3
#
#
#
# Elastic Constant Matrix: (Units=GPa)
#
#
# Indices 1 2 3 4 5 6 
#
# 1 81.1384 23.9294 63.9857 0.0000 0.0000 0.0000
# 2 23.9294 122.2243 33.3760 0.0000 0.0000 0.0000
# 3 63.9857 33.3760 106.1544 0.0000 0.0000 0.0000
# 4 0.0000 0.0000 0.0000 29.3950 0.0000 0.0000
# 5 0.0000 0.0000 0.0000 0.0000 21.3507 0.0000
# 6 0.0000 0.0000 0.0000 0.0000 0.0000 -10.4793
#
#
#
# Elastic Compliance Matrix: (Units=1/GPa)
#
#
# Indices 1 2 3 4 5 6 
#
# 1 0.023563 -0.000804 -0.013950 0.000000 0.000000 0.000000
# 2 -0.000804 0.008978 -0.002338 0.000000 0.000000 0.000000
# 3 -0.013950 -0.002338 0.018564 0.000000 0.000000 0.000000
# 4 0.000000 0.000000 0.000000 0.034019 0.000000 0.000000
# 5 0.000000 0.000000 0.000000 0.000000 0.046837 0.000000
# 6 0.000000 0.000000 0.000000 0.000000 0.000000 -0.095427
#
#
# Mechanical properties :
#
#
# Convention : Reuss Voigt Hill
#
# Bulk Modulus (GPa) = 59.10065 61.34437 60.22251
# Shear Modulus (GPa) = 65.48180 20.60170 43.04175
#
# Velocity S-wave (km/s) = 5.76515 3.23371 4.67407
# Velocity P-wave (km/s) = 8.62055 6.71412 7.72636
#
# Compressibility (1/GPa) = 0.01692029
#
# Stress axis : x y z
#
# Youngs Moduli (GPa) = 42.44029 111.38927 53.86833
#
# Poissons Ratio (x) = 0.08954 0.75145
# Poissons Ratio (y) = 0.03411 0.12595
# Poissons Ratio (z) = 0.59204 0.26044
#
# Static dielectric constant tensor:
#      x y z
#    x 3.097720 0.000000 0.000000 
#    y 0.000000 3.826740 0.000000 
#    z 0.000000 0.000000 3.809840 
# 
# 
# High freq. dielectric constant tensor:
#      x y z
#    x 1.720270 0.000000 0.000000 
#    y 0.000000 1.800430 0.000000 
#    z 0.000000 0.000000 1.777350 
# 
# From -- ./inp_files/29401.got.cif
#   From: 2010.06.25/outbox.cif.g09.slc.cpg/sg52_15_cif.got.tgz:29401.got - 2010.06.26 19:32:48.
