data_PCOD8215736
_publ_section_title
;
Structure prediction by ZEFSAII (Michael W. Deem and Ramdas Pophale) SiO2 
 PCOD8215736
Probable space group: P N N A
;
_chemical_formula_sum "Si O2"
_cell_formula_units_Z 60
_cell_length_a 8.850302
_cell_length_b 10.857113
_cell_length_c 30.609355
_cell_angle_alpha 90.000000
_cell_angle_beta 90.000000
_cell_angle_gamma 90.000000
_cell_volume 2941.214014
_symmetry_space_group_name_H-M "P N N A"
_symmetry_group_IT_number 52
_symmetry_cell_setting 'orthorhombic'
loop_
_space_group_symop_operation_xyz
x,y,z
1/2-x,-y,z
x,1/2-y,1/2-z
1/2-x,1/2+y,1/2-z
-x,-y,-z
1/2+x,y,-z
-x,1/2+y,1/2+z
1/2+x,1/2-y,1/2+z
loop_
_atom_site_type_symbol
_atom_site_label
_atom_site_fract_x
_atom_site_fract_y
_atom_site_fract_z
Si Si1 0.123870 0.144092 0.530880
Si Si2 0.250000 0.000000 0.014419
Si Si3 0.026287 0.386620 0.553755
Si Si4 0.146350 0.394519 0.645020
Si Si5 0.428523 0.239622 0.646877
Si Si6 0.131525 0.885715 0.732590
Si Si7 0.425181 0.531466 0.307512
Si Si8 0.051784 0.623082 0.945613
O O1 0.021751 0.239792 0.557274
O O2 0.298693 0.186366 0.534115
O O3 0.086434 0.140702 0.479164
O O4 0.089127 0.020739 0.557505
O O5 0.353735 0.077814 0.046730
O O6 0.137622 0.082549 0.986119
O O7 0.091985 0.443414 0.597841
O O8 0.250000 0.500000 0.666418
O O9 0.247582 0.271763 0.643102
O O10 0.001130 0.400288 0.677076
O O11 0.433333 0.134114 0.683807
O O12 0.533223 0.358147 0.658046
O O13 0.487700 0.182428 0.601254
O O14 0.194841 0.750000 0.750000
O O15 0.986292 0.925511 0.760686
O O16 0.250000 0.000000 0.733730
O O17 0.250000 0.500000 0.304661
#
# Coordination Sequence:
#
# PCOD8215736 Si02
#       8
#     8   4   8   8   8   8   8   8
#     4  10  21  36  61  79 121 167 206 254 312 354
#     4  10  24  32  52  82 122 158 218 252 318 358
#     4  11  20  36  52  85 118 165 206 267 300 370
#     4  10  20  36  59  88 123 162 206 253 306 379
#     4  10  21  39  67  93 127 161 218 265 304 380
#     4  10  21  41  70 102 128 164 208 263 319 392
#     4  10  22  41  63  91 131 170 200 255 335 391
#     4  10  21  39  58  89 116 169 209 256 303 367
#
# _framework density 20.399739
#
# number of rings (size 3 to 8) (size 9 to 14) (size 15 to 20)
#    0.000    1.867    2.000    2.800    2.800    1.067 
#    2.400    6.000    5.867    0.000    0.000    0.000 
#    0.000    0.000    0.000    0.000    0.000    0.000 
#
# Total GULP energy -743312.593980 kJ/mol
# GULP energy per Si atom -12388.543233 kJ/mol
# Density = 2.035331 g / cm^3
# Si number density = 20.399739 Si / 1000 Ang^3
#
#
#
# Elastic Constant Matrix: (Units=GPa)
#
#
# Indices 1 2 3 4 5 6 
#
# 1 125.1689 43.4397 51.1131 0.0000 0.0000 0.0000
# 2 43.4397 87.3793 35.0412 0.0000 0.0000 0.0000
# 3 51.1131 35.0412 122.7553 0.0000 0.0000 0.0000
# 4 0.0000 0.0000 0.0000 23.3713 0.0000 0.0000
# 5 0.0000 0.0000 0.0000 0.0000 20.1149 0.0000
# 6 0.0000 0.0000 0.0000 0.0000 0.0000 25.2596
#
#
#
# Elastic Compliance Matrix: (Units=1/GPa)
#
#
# Indices 1 2 3 4 5 6 
#
# 1 0.010738 -0.004003 -0.003328 0.000000 0.000000 0.000000
# 2 -0.004003 0.014416 -0.002448 0.000000 0.000000 0.000000
# 3 -0.003328 -0.002448 0.010231 0.000000 0.000000 0.000000
# 4 0.000000 0.000000 0.000000 0.042787 0.000000 0.000000
# 5 0.000000 0.000000 0.000000 0.000000 0.049714 0.000000
# 6 0.000000 0.000000 0.000000 0.000000 0.000000 0.039589
#
#
# Mechanical properties :
#
#
# Convention : Reuss Voigt Hill
#
# Bulk Modulus (GPa) = 63.19012 66.05462 64.62237
# Shear Modulus (GPa) = 25.99961 27.46315 26.73138
#
# Velocity S-wave (km/s) = 3.57390 3.67311 3.62384
# Velocity P-wave (km/s) = 6.93351 7.10207 7.01829
#
# Compressibility (1/GPa) = 0.01582526
#
# Stress axis : x y z
#
# Youngs Moduli (GPa) = 93.13015 69.36520 97.74263
#
# Poissons Ratio (x) = 0.27770 0.32530
# Poissons Ratio (y) = 0.37284 0.23930
# Poissons Ratio (z) = 0.30995 0.16983
#
# Static dielectric constant tensor:
#      x y z
#    x 3.741650 0.000000 0.000000 
#    y 0.000000 3.805330 0.000000 
#    z 0.000000 0.000000 3.696540 
# 
# 
# High freq. dielectric constant tensor:
#      x y z
#    x 1.782370 0.000000 0.000000 
#    y 0.000000 1.792740 0.000000 
#    z 0.000000 0.000000 1.795700 
# 
# From -- ./inp_files/44578.got.cif
#   From: 2010.06.25/outbox.cif.g09.slc.cpg/sg52_23_cif.got.tgz:44578.got - 2010.06.26 19:32:48.
