data_PCOD8215238
_publ_section_title
;
Structure prediction by ZEFSAII (Michael W. Deem and Ramdas Pophale) SiO2 
 PCOD8215238
Probable space group: P N N A
;
_chemical_formula_sum "Si O2"
_cell_formula_units_Z 40
_cell_length_a 13.861602
_cell_length_b 15.475386
_cell_length_c 9.051720
_cell_angle_alpha 90.000000
_cell_angle_beta 90.000000
_cell_angle_gamma 90.000000
_cell_volume 1941.717419
_symmetry_space_group_name_H-M "P N N A"
_symmetry_group_IT_number 52
_symmetry_cell_setting 'orthorhombic'
loop_
_space_group_symop_operation_xyz
x,y,z
1/2-x,-y,z
x,1/2-y,1/2-z
1/2-x,1/2+y,1/2-z
-x,-y,-z
1/2+x,y,-z
-x,1/2+y,1/2+z
1/2+x,1/2-y,1/2+z
loop_
_atom_site_type_symbol
_atom_site_label
_atom_site_fract_x
_atom_site_fract_y
_atom_site_fract_z
Si Si1 0.978094 0.790076 0.899301
Si Si2 0.980436 0.871374 0.393762
Si Si3 0.631647 0.097279 0.105650
Si Si4 0.152794 0.907511 0.818908
Si Si5 0.855542 0.020917 0.509480
O O1 0.934040 0.750000 0.750000
O O2 0.081345 0.830761 0.859112
O O3 0.991530 0.720740 0.028887
O O4 0.902872 0.863269 0.950622
O O5 0.936852 0.861746 0.231322
O O6 0.085790 0.916669 0.379910
O O7 0.911651 0.930659 0.494928
O O8 0.741256 0.124878 0.137044
O O9 0.622343 0.993892 0.093285
O O10 0.152957 0.929838 0.646248
O O11 0.750000 0.000000 0.574835
#
# Coordination Sequence:
#
# PCOD8215238 Si02
#       5
#     8   8   8   8   8
#     4  12  24  37  61  96 133 163 207 268 317 369
#     4  10  21  37  63  96 124 160 215 264 315 376
#     4  10  22  43  69  89 122 173 219 256 313 390
#     4  10  20  42  68  88 121 177 217 249 324 394
#     4  10  18  38  67  91 119 166 219 256 317 393
#
# _framework density 20.60032
#
# number of rings (size 3 to 8) (size 9 to 14) (size 15 to 20)
#    0.000    1.600    6.000    1.200    0.000    3.200 
#    0.000    4.000    0.000    0.000    0.000    0.000 
#    0.000    0.000    0.000    0.000    0.000    0.000 
#
# Total GULP energy -496070.164159 kJ/mol
# GULP energy per Si atom -12401.754104 kJ/mol
# Density = 2.055343 g / cm^3
# Si number density = 20.600320 Si / 1000 Ang^3
#
#
#
# Elastic Constant Matrix: (Units=GPa)
#
#
# Indices 1 2 3 4 5 6 
#
# 1 140.7115 46.2996 50.3324 0.0000 0.0000 0.0000
# 2 46.2996 85.4189 43.9705 0.0000 0.0000 0.0000
# 3 50.3324 43.9705 87.5802 0.0000 0.0000 0.0000
# 4 0.0000 0.0000 0.0000 24.2828 0.0000 0.0000
# 5 0.0000 0.0000 0.0000 0.0000 30.3421 0.0000
# 6 0.0000 0.0000 0.0000 0.0000 0.0000 23.6853
#
#
#
# Elastic Compliance Matrix: (Units=1/GPa)
#
#
# Indices 1 2 3 4 5 6 
#
# 1 0.009542 -0.003168 -0.003893 0.000000 0.000000 0.000000
# 2 -0.003168 0.016839 -0.006634 0.000000 0.000000 0.000000
# 3 -0.003893 -0.006634 0.016986 0.000000 0.000000 0.000000
# 4 0.000000 0.000000 0.000000 0.041181 0.000000 0.000000
# 5 0.000000 0.000000 0.000000 0.000000 0.032957 0.000000
# 6 0.000000 0.000000 0.000000 0.000000 0.000000 0.042220
#
#
# Mechanical properties :
#
#
# Convention : Reuss Voigt Hill
#
# Bulk Modulus (GPa) = 62.58859 66.10174 64.34516
# Shear Modulus (GPa) = 25.98209 27.20259 26.59234
#
# Velocity S-wave (km/s) = 3.55526 3.63780 3.59677
# Velocity P-wave (km/s) = 6.87760 7.05707 6.96791
#
# Compressibility (1/GPa) = 0.01597735
#
# Stress axis : x y z
#
# Youngs Moduli (GPa) = 104.80365 59.38684 58.87231
#
# Poissons Ratio (x) = 0.18813 0.22920
# Poissons Ratio (y) = 0.33200 0.39053
# Poissons Ratio (z) = 0.40802 0.39394
#
# Static dielectric constant tensor:
#      x y z
#    x 3.864800 0.000000 0.000000 
#    y 0.000000 3.784130 0.000000 
#    z 0.000000 0.000000 3.532380 
# 
# 
# High freq. dielectric constant tensor:
#      x y z
#    x 1.807840 0.000000 0.000000 
#    y 0.000000 1.814110 0.000000 
#    z 0.000000 0.000000 1.780580 
# 
# From -- ./inp_files/10052.got.cif
#   From: 2010.06.25/outbox.cif.g09.slc.cpg/sg52_6_cif.got.tgz:10052.got - 2010.06.26 19:32:48.
