data_PCOD8215244
_publ_section_title
;
Structure prediction by ZEFSAII (Michael W. Deem and Ramdas Pophale) SiO2 
 PCOD8215244
Probable space group: P N N A
;
_chemical_formula_sum "Si O2"
_cell_formula_units_Z 60
_cell_length_a 12.886025
_cell_length_b 9.370673
_cell_length_c 24.346964
_cell_angle_alpha 90.000000
_cell_angle_beta 90.000000
_cell_angle_gamma 90.000000
_cell_volume 2939.913592
_symmetry_space_group_name_H-M "P N N A"
_symmetry_group_IT_number 52
_symmetry_cell_setting 'orthorhombic'
loop_
_space_group_symop_operation_xyz
x,y,z
1/2-x,-y,z
x,1/2-y,1/2-z
1/2-x,1/2+y,1/2-z
-x,-y,-z
1/2+x,y,-z
-x,1/2+y,1/2+z
1/2+x,1/2-y,1/2+z
loop_
_atom_site_type_symbol
_atom_site_label
_atom_site_fract_x
_atom_site_fract_y
_atom_site_fract_z
Si Si1 0.329750 0.120872 0.852262
Si Si2 0.469736 0.443408 0.346480
Si Si3 0.099383 0.395653 0.944022
Si Si4 0.453259 0.366134 0.468069
Si Si5 0.950120 0.860459 0.319828
Si Si6 0.829600 0.308906 0.044750
Si Si7 0.149807 0.583741 0.244174
Si Si8 0.280721 0.750000 0.750000
O O1 0.335336 0.253010 0.893228
O O2 0.293088 0.172886 0.793188
O O3 0.250000 0.000000 0.874868
O O4 0.447319 0.068313 0.849449
O O5 0.422386 0.411262 0.406561
O O6 0.528081 0.307789 0.321534
O O7 0.377824 0.482575 0.304141
O O8 0.083768 0.414897 0.878968
O O9 0.088325 0.559530 0.965416
O O10 0.212889 0.354924 0.963949
O O11 0.027297 0.272495 0.968298
O O12 0.500000 0.500000 0.500000
O O13 0.351811 0.316812 0.501139
O O14 0.852534 0.872834 0.278424
O O15 0.052897 0.941373 0.297522
O O16 0.250000 0.500000 0.220926
O O17 0.177724 0.750000 0.250000
#
# Coordination Sequence:
#
# PCOD8215244 Si02
#       8
#     8   8   8   8   8   8   8   4
#     4  12  21  35  59  96 128 165 219 258 320 404
#     4  10  20  39  60  88 123 161 213 269 306 378
#     4  10  23  42  63  95 132 164 210 264 332 396
#     4  11  22  40  67  87 122 172 217 266 317 376
#     4  10  18  40  67  88 126 173 197 254 329 393
#     4  11  23  39  63  92 128 167 208 269 326 382
#     4  10  21  42  65  86 121 164 214 263 324 374
#     4  12  20  32  62  98 134 172 204 254 330 408
#
# _framework density 20.408764999999999
#
# number of rings (size 3 to 8) (size 9 to 14) (size 15 to 20)
#    0.000    1.333    6.000    1.200    0.000    2.133 
#    6.000    0.000   32.267    0.000    0.000    0.000 
#    0.000    0.000    0.000    0.000    0.000    0.000 
#
# Total GULP energy -743673.243959 kJ/mol
# GULP energy per Si atom -12394.554066 kJ/mol
# Density = 2.036231 g / cm^3
# Si number density = 20.408765 Si / 1000 Ang^3
#
#
#
# Elastic Constant Matrix: (Units=GPa)
#
#
# Indices 1 2 3 4 5 6 
#
# 1 68.3249 31.2547 36.2778 0.0000 0.0000 0.0000
# 2 31.2547 81.7604 33.1821 0.0000 0.0000 0.0000
# 3 36.2778 33.1821 110.5239 0.0000 0.0000 0.0000
# 4 0.0000 0.0000 0.0000 31.0778 0.0000 0.0000
# 5 0.0000 0.0000 0.0000 0.0000 29.9548 0.0000
# 6 0.0000 0.0000 0.0000 0.0000 0.0000 28.0440
#
#
#
# Elastic Compliance Matrix: (Units=1/GPa)
#
#
# Indices 1 2 3 4 5 6 
#
# 1 0.019746 -0.005600 -0.004800 0.000000 0.000000 0.000000
# 2 -0.005600 0.015516 -0.002820 0.000000 0.000000 0.000000
# 3 -0.004800 -0.002820 0.011470 0.000000 0.000000 0.000000
# 4 0.000000 0.000000 0.000000 0.032177 0.000000 0.000000
# 5 0.000000 0.000000 0.000000 0.000000 0.033384 0.000000
# 6 0.000000 0.000000 0.000000 0.000000 0.000000 0.035658
#
#
# Mechanical properties :
#
#
# Convention : Reuss Voigt Hill
#
# Bulk Modulus (GPa) = 49.28169 51.33760 50.30965
# Shear Modulus (GPa) = 27.60035 28.47497 28.03766
#
# Velocity S-wave (km/s) = 3.68146 3.73933 3.71051
# Velocity P-wave (km/s) = 6.50158 6.62214 6.56214
#
# Compressibility (1/GPa) = 0.02029151
#
# Stress axis : x y z
#
# Youngs Moduli (GPa) = 50.64196 64.44846 87.18366
#
# Poissons Ratio (x) = 0.36094 0.41849
# Poissons Ratio (y) = 0.28362 0.24587
# Poissons Ratio (z) = 0.24309 0.18175
#
# Static dielectric constant tensor:
#      x y z
#    x 3.661880 0.000000 0.000000 
#    y 0.000000 3.796870 0.000000 
#    z 0.000000 0.000000 3.877010 
# 
# 
# High freq. dielectric constant tensor:
#      x y z
#    x 1.784020 0.000000 0.000000 
#    y 0.000000 1.793900 0.000000 
#    z 0.000000 0.000000 1.802120 
# 
# From -- ./inp_files/42795.got.cif
#   From: 2010.06.25/outbox.cif.g09.slc.cpg/sg52_22_cif.got.tgz:42795.got - 2010.06.26 19:32:48.
