data_PCOD8215947
_publ_section_title
;
Structure prediction by ZEFSAII (Michael W. Deem and Ramdas Pophale) SiO2 
 PCOD8215947
Probable space group: P N N A
;
_chemical_formula_sum "Si O2"
_cell_formula_units_Z 24
_cell_length_a 5.215853
_cell_length_b 7.798516
_cell_length_c 24.644115
_cell_angle_alpha 90.000000
_cell_angle_beta 90.000000
_cell_angle_gamma 90.000000
_cell_volume 1002.421880
_symmetry_space_group_name_H-M "P N N A"
_symmetry_group_IT_number 52
_symmetry_cell_setting 'orthorhombic'
loop_
_space_group_symop_operation_xyz
x,y,z
1/2-x,-y,z
x,1/2-y,1/2-z
1/2-x,1/2+y,1/2-z
-x,-y,-z
1/2+x,y,-z
-x,1/2+y,1/2+z
1/2+x,1/2-y,1/2+z
loop_
_atom_site_type_symbol
_atom_site_label
_atom_site_fract_x
_atom_site_fract_y
_atom_site_fract_z
Si Si1 0.979592 0.309638 0.523557
Si Si2 0.750000 0.500000 0.731402
Si Si3 0.066440 0.334710 0.646857
Si Si4 0.750000 0.000000 0.302012
O O1 0.238640 0.212772 0.504337
O O2 0.941689 0.316942 0.587902
O O3 0.000000 0.500000 0.500000
O O4 0.664545 0.655281 0.691074
O O5 0.499082 0.454604 0.766113
O O6 0.250000 0.500000 0.650413
O O7 0.221344 0.163444 0.659588
#
# Coordination Sequence:
#
# PCOD8215947 Si02
#       4
#     8   4   8   4
#     4  10  20  39  68 102 131 177 242 284 354 439
#     4  12  28  48  72 104 148 196 240 300 358 436
#     4  12  27  46  77 101 146 195 234 305 366 423
#     4  12  32  46  68 114 146 186 260 292 358 444
#
# _framework density 23.942014
#
# number of rings (size 3 to 8) (size 9 to 14) (size 15 to 20)
#    0.000    0.667    5.000    3.000    9.333    0.000 
#    0.000    1.667    0.000    0.000    0.000    0.000 
#    0.000    0.000    0.000    0.000    0.000    0.000 
#
# Total GULP energy -297488.097245 kJ/mol
# GULP energy per Si atom -12395.337385 kJ/mol
# Density = 2.388752 g / cm^3
# Si number density = 23.942014 Si / 1000 Ang^3
#
#
#
# Elastic Constant Matrix: (Units=GPa)
#
#
# Indices 1 2 3 4 5 6 
#
# 1 182.7651 26.2402 46.4294 0.0000 0.0000 0.0000
# 2 26.2402 112.8133 38.5221 0.0000 0.0000 0.0000
# 3 46.4294 38.5221 161.9561 0.0000 0.0000 0.0000
# 4 0.0000 0.0000 0.0000 5.0033 0.0000 0.0000
# 5 0.0000 0.0000 0.0000 0.0000 22.7852 0.0000
# 6 0.0000 0.0000 0.0000 0.0000 0.0000 24.8440
#
#
#
# Elastic Compliance Matrix: (Units=1/GPa)
#
#
# Indices 1 2 3 4 5 6 
#
# 1 0.005980 -0.000877 -0.001506 0.000000 0.000000 0.000000
# 2 -0.000877 0.009776 -0.002074 0.000000 0.000000 0.000000
# 3 -0.001506 -0.002074 0.007100 0.000000 0.000000 0.000000
# 4 0.000000 0.000000 0.000000 0.199870 0.000000 0.000000
# 5 0.000000 0.000000 0.000000 0.000000 0.043888 0.000000
# 6 0.000000 0.000000 0.000000 0.000000 0.000000 0.040251
#
#
# Mechanical properties :
#
#
# Convention : Reuss Voigt Hill
#
# Bulk Modulus (GPa) = 71.72216 75.54642 73.63429
# Shear Modulus (GPa) = 15.60427 33.61603 24.61015
#
# Velocity S-wave (km/s) = 2.55571 3.75114 3.20958
# Velocity P-wave (km/s) = 6.22339 7.09816 6.67512
#
# Compressibility (1/GPa) = 0.01394269
#
# Stress axis : x y z
#
# Youngs Moduli (GPa) = 167.22672 102.28779 140.85493
#
# Poissons Ratio (x) = 0.08968 0.21210
# Poissons Ratio (y) = 0.14661 0.29213
# Poissons Ratio (z) = 0.25181 0.21215
#
# Static dielectric constant tensor:
#      x y z
#    x 18.038210 0.000000 0.000000 
#    y 0.000000 3.862810 0.000000 
#    z 0.000000 0.000000 4.459560 
# 
# 
# High freq. dielectric constant tensor:
#      x y z
#    x 1.974340 0.000000 0.000000 
#    y 0.000000 1.909450 0.000000 
#    z 0.000000 0.000000 1.964960 
# 
# From -- ./inp_files/38461.got.cif
#   From: 2010.06.25/outbox.cif.g09.slc.cpg/sg52_20_cif.got.tgz:38461.got - 2010.06.26 19:32:48.
