data_PCOD8215249
_publ_section_title
;
Structure prediction by ZEFSAII (Michael W. Deem and Ramdas Pophale) SiO2 
 PCOD8215249
Probable space group: P N N A
;
_chemical_formula_sum "Si O2"
_cell_formula_units_Z 40
_cell_length_a 5.212286
_cell_length_b 19.920694
_cell_length_c 22.868125
_cell_angle_alpha 90.000000
_cell_angle_beta 90.000000
_cell_angle_gamma 90.000000
_cell_volume 2374.451261
_symmetry_space_group_name_H-M "P N N A"
_symmetry_group_IT_number 52
_symmetry_cell_setting 'orthorhombic'
loop_
_space_group_symop_operation_xyz
x,y,z
1/2-x,-y,z
x,1/2-y,1/2-z
1/2-x,1/2+y,1/2-z
-x,-y,-z
1/2+x,y,-z
-x,1/2+y,1/2+z
1/2+x,1/2-y,1/2+z
loop_
_atom_site_type_symbol
_atom_site_label
_atom_site_fract_x
_atom_site_fract_y
_atom_site_fract_z
Si Si1 0.706683 0.629000 0.358287
Si Si2 0.788714 0.295206 0.663450
Si Si3 0.202768 0.653472 0.205483
Si Si4 0.442645 0.425420 0.523916
Si Si5 0.206149 0.577583 0.772328
O O1 0.478523 0.682516 0.364567
O O2 0.655404 0.574268 0.409080
O O3 0.703430 0.589977 0.297180
O O4 0.971291 0.669234 0.368544
O O5 0.791500 0.315922 0.730507
O O6 0.796096 0.214276 0.658716
O O7 0.443885 0.603400 0.197771
O O8 0.938654 0.614658 0.195651
O O9 0.500000 0.500000 0.500000
O O10 0.218029 0.388880 0.485353
O O11 0.250000 0.500000 0.784422
#
# Coordination Sequence:
#
# PCOD8215249 Si02
#       5
#     8   8   8   8   8
#     4  10  19  31  46  65  81 117 165 195 233 262
#     4   9  17  30  48  62  82 108 153 204 223 278
#     4   9  17  30  43  64  86 113 144 189 245 256
#     4  10  21  34  45  61  86 123 153 200 240 271
#     4  10  19  28  43  65  92 118 149 189 222 286
#
# _framework density 16.845998000000002
#
# number of rings (size 3 to 8) (size 9 to 14) (size 15 to 20)
#    0.000    2.400    0.000    3.000    2.800    4.800 
#    7.200    0.000    0.000    0.000    0.000    0.000 
#    0.000    0.000    0.000    0.000    0.000  252.000 
#
# Total GULP energy -495642.522311 kJ/mol
# GULP energy per Si atom -12391.063058 kJ/mol
# Density = 1.680766 g / cm^3
# Si number density = 16.845998 Si / 1000 Ang^3
#
#
#
# Elastic Constant Matrix: (Units=GPa)
#
#
# Indices 1 2 3 4 5 6 
#
# 1 151.6732 38.8222 14.9793 0.0000 0.0000 0.0000
# 2 38.8222 101.0654 21.9568 0.0000 0.0000 0.0000
# 3 14.9793 21.9568 25.0702 0.0000 0.0000 0.0000
# 4 0.0000 0.0000 0.0000 17.1498 0.0000 0.0000
# 5 0.0000 0.0000 0.0000 0.0000 16.5370 0.0000
# 6 0.0000 0.0000 0.0000 0.0000 0.0000 21.7915
#
#
#
# Elastic Compliance Matrix: (Units=1/GPa)
#
#
# Indices 1 2 3 4 5 6 
#
# 1 0.007427 -0.002333 -0.002394 0.000000 0.000000 0.000000
# 2 -0.002333 0.012952 -0.009950 0.000000 0.000000 0.000000
# 3 -0.002394 -0.009950 0.050033 0.000000 0.000000 0.000000
# 4 0.000000 0.000000 0.000000 0.058310 0.000000 0.000000
# 5 0.000000 0.000000 0.000000 0.000000 0.060470 0.000000
# 6 0.000000 0.000000 0.000000 0.000000 0.000000 0.045889
#
#
# Mechanical properties :
#
#
# Convention : Reuss Voigt Hill
#
# Bulk Modulus (GPa) = 24.35591 47.70283 36.02937
# Shear Modulus (GPa) = 17.97773 24.56570 21.27171
#
# Velocity S-wave (km/s) = 3.27032 3.82285 3.55733
# Velocity P-wave (km/s) = 5.36184 6.91838 6.18924
#
# Compressibility (1/GPa) = 0.04105779
#
# Stress axis : x y z
#
# Youngs Moduli (GPa) = 134.65029 77.20648 19.98675
#
# Poissons Ratio (x) = 0.18009 0.04786
# Poissons Ratio (y) = 0.31408 0.19887
# Poissons Ratio (z) = 0.32242 0.76821
#
# Static dielectric constant tensor:
#      x y z
#    x -2.254750 0.000000 0.000000 
#    y 0.000000 2.799770 0.000000 
#    z 0.000000 0.000000 2.783380 
# 
# 
# High freq. dielectric constant tensor:
#      x y z
#    x 1.685410 0.000000 0.000000 
#    y 0.000000 1.631760 0.000000 
#    z 0.000000 0.000000 1.585020 
# 
# From -- ./inp_files/35043.got.cif
#   From: 2010.06.25/outbox.cif.g09.slc.cpg/sg52_18_cif.got.tgz:35043.got - 2010.06.26 19:32:48.
