data_PCOD8215160
_publ_section_title
;
Structure prediction by ZEFSAII (Michael W. Deem and Ramdas Pophale) SiO2 
 PCOD8215160
Probable space group: P N N A
;
_chemical_formula_sum "Si O2"
_cell_formula_units_Z 40
_cell_length_a 7.807495
_cell_length_b 12.339099
_cell_length_c 21.560932
_cell_angle_alpha 90.000000
_cell_angle_beta 90.000000
_cell_angle_gamma 90.000000
_cell_volume 2077.125289
_symmetry_space_group_name_H-M "P N N A"
_symmetry_group_IT_number 52
_symmetry_cell_setting 'orthorhombic'
loop_
_space_group_symop_operation_xyz
x,y,z
1/2-x,-y,z
x,1/2-y,1/2-z
1/2-x,1/2+y,1/2-z
-x,-y,-z
1/2+x,y,-z
-x,1/2+y,1/2+z
1/2+x,1/2-y,1/2+z
loop_
_atom_site_type_symbol
_atom_site_label
_atom_site_fract_x
_atom_site_fract_y
_atom_site_fract_z
Si Si1 0.245081 0.735041 0.178173
Si Si2 0.459983 0.396628 0.885475
Si Si3 0.696614 0.378063 0.571123
Si Si4 0.586857 0.354422 0.120865
Si Si5 0.968223 0.246709 0.500972
O O1 0.280669 0.750000 0.250000
O O2 0.376888 0.646206 0.152146
O O3 0.287188 0.850106 0.144086
O O4 0.046496 0.701644 0.168362
O O5 0.480266 0.524692 0.890657
O O6 0.281129 0.359355 0.851945
O O7 0.451116 0.355453 0.956005
O O8 0.750000 0.500000 0.557927
O O9 0.512937 0.355011 0.540115
O O10 0.796308 0.281272 0.535784
O O11 0.597216 0.287259 0.056520
#
# Coordination Sequence:
#
# PCOD8215160 Si02
#       5
#     8   8   8   8   8
#     4  10  23  39  56  79 113 153 195 241 276 329
#     4  10  20  35  58  86 114 146 184 233 290 342
#     4  10  20  33  54  77 107 149 185 227 280 337
#     4  10  20  35  58  86 114 146 184 233 290 342
#     4  10  18  34  52  82 118 140 180 230 286 342
#
# _framework density 19.257384999999999
#
# number of rings (size 3 to 8) (size 9 to 14) (size 15 to 20)
#    0.000    2.000    2.000    1.800    0.000    2.400 
#    0.000    0.000    0.000    0.000    0.000    0.000 
#    0.000    0.000    0.000    0.000    0.000    0.000 
#
# Total GULP energy -495602.166734 kJ/mol
# GULP energy per Si atom -12390.054168 kJ/mol
# Density = 1.921355 g / cm^3
# Si number density = 19.257385 Si / 1000 Ang^3
#
#
#
# Elastic Constant Matrix: (Units=GPa)
#
#
# Indices 1 2 3 4 5 6 
#
# 1 63.3380 -2.2615 16.6333 0.0000 0.0000 0.0000
# 2 -2.2615 74.2530 16.3728 0.0000 0.0000 0.0000
# 3 16.6333 16.3728 106.4896 0.0000 0.0000 0.0000
# 4 0.0000 0.0000 0.0000 13.3941 0.0000 0.0000
# 5 0.0000 0.0000 0.0000 0.0000 20.5490 0.0000
# 6 0.0000 0.0000 0.0000 0.0000 0.0000 21.1751
#
#
#
# Elastic Compliance Matrix: (Units=1/GPa)
#
#
# Indices 1 2 3 4 5 6 
#
# 1 0.016552 0.001112 -0.002756 0.000000 0.000000 0.000000
# 2 0.001112 0.014015 -0.002328 0.000000 0.000000 0.000000
# 3 -0.002756 -0.002328 0.010179 0.000000 0.000000 0.000000
# 4 0.000000 0.000000 0.000000 0.074660 0.000000 0.000000
# 5 0.000000 0.000000 0.000000 0.000000 0.048664 0.000000
# 6 0.000000 0.000000 0.000000 0.000000 0.000000 0.047225
#
#
# Mechanical properties :
#
#
# Convention : Reuss Voigt Hill
#
# Bulk Modulus (GPa) = 30.48779 33.95219 32.21999
# Shear Modulus (GPa) = 21.72268 25.24603 23.48436
#
# Velocity S-wave (km/s) = 3.36224 3.62467 3.49592
# Velocity P-wave (km/s) = 5.56228 5.93184 5.75003
#
# Compressibility (1/GPa) = 0.03280001
#
# Stress axis : x y z
#
# Youngs Moduli (GPa) = 60.41622 71.35332 98.24042
#
# Poissons Ratio (x) = -0.07934 0.27078
# Poissons Ratio (y) = -0.06718 0.22875
# Poissons Ratio (z) = 0.16653 0.16614
#
# Static dielectric constant tensor:
#      x y z
#    x 3.671970 0.000000 0.000000 
#    y 0.000000 3.276850 0.000000 
#    z 0.000000 0.000000 3.326720 
# 
# 
# High freq. dielectric constant tensor:
#      x y z
#    x 1.762010 0.000000 0.000000 
#    y 0.000000 1.741300 0.000000 
#    z 0.000000 0.000000 1.725560 
# 
# From -- ./inp_files/30839.got.cif
#   From: 2010.06.25/outbox.cif.g09.slc.cpg/sg52_16_cif.got.tgz:30839.got - 2010.06.26 19:32:48.
