data_PCOD8215225
_publ_section_title
;
Structure prediction by ZEFSAII (Michael W. Deem and Ramdas Pophale) SiO2 
 PCOD8215225
Probable space group: P N N A
;
_chemical_formula_sum "Si O2"
_cell_formula_units_Z 36
_cell_length_a 18.884468
_cell_length_b 11.897876
_cell_length_c 7.457799
_cell_angle_alpha 90.000000
_cell_angle_beta 90.000000
_cell_angle_gamma 90.000000
_cell_volume 1675.656005
_symmetry_space_group_name_H-M "P N N A"
_symmetry_group_IT_number 52
_symmetry_cell_setting 'orthorhombic'
loop_
_space_group_symop_operation_xyz
x,y,z
1/2-x,-y,z
x,1/2-y,1/2-z
1/2-x,1/2+y,1/2-z
-x,-y,-z
1/2+x,y,-z
-x,1/2+y,1/2+z
1/2+x,1/2-y,1/2+z
loop_
_atom_site_type_symbol
_atom_site_label
_atom_site_fract_x
_atom_site_fract_y
_atom_site_fract_z
Si Si1 0.918962 0.003292 0.322134
Si Si2 0.067815 0.921154 0.043851
Si Si3 0.113355 0.250000 0.250000
Si Si4 0.168110 0.477514 0.169243
Si Si5 0.497907 0.809673 0.523094
O O1 0.885708 0.046853 0.133987
O O2 0.971324 0.103352 0.379385
O O3 0.855518 0.984114 0.461839
O O4 0.967802 0.886837 0.308955
O O5 0.052991 0.788083 0.071998
O O6 0.113675 0.944363 0.221086
O O7 0.000000 0.000000 0.000000
O O8 0.163992 0.355685 0.254440
O O9 0.067500 0.252427 0.430277
O O10 0.250000 0.500000 0.187519
#
# Coordination Sequence:
#
# PCOD8215225 Si02
#       5
#     8   8   4   8   8
#     4  10  22  38  62  91 130 171 202 271 339 372
#     4  12  21  38  66  98 122 163 225 279 315 384
#     4  10  18  42  60  86 136 156 204 288 318 368
#     4  11  26  42  60  92 134 175 214 260 329 411
#     4  10  18  37  62  98 126 152 218 279 318 374
#
# _framework density 21.484123
#
# number of rings (size 3 to 8) (size 9 to 14) (size 15 to 20)
#    0.000    1.333    4.444    2.667    0.000    6.222 
#    0.000    0.000    0.000    0.000    0.000    0.000 
#    0.000    0.000    0.000    0.000    0.000    0.000 
#
# Total GULP energy -446037.236421 kJ/mol
# GULP energy per Si atom -12389.923234 kJ/mol
# Density = 2.143522 g / cm^3
# Si number density = 21.484123 Si / 1000 Ang^3
#
#
#
# Elastic Constant Matrix: (Units=GPa)
#
#
# Indices 1 2 3 4 5 6 
#
# 1 109.6553 48.3105 8.9657 0.0000 0.0000 0.0000
# 2 48.3105 162.4466 39.5583 0.0000 0.0000 0.0000
# 3 8.9657 39.5583 63.8217 0.0000 0.0000 0.0000
# 4 0.0000 0.0000 0.0000 23.0894 0.0000 0.0000
# 5 0.0000 0.0000 0.0000 0.0000 15.2186 0.0000
# 6 0.0000 0.0000 0.0000 0.0000 0.0000 24.3268
#
#
#
# Elastic Compliance Matrix: (Units=1/GPa)
#
#
# Indices 1 2 3 4 5 6 
#
# 1 0.010510 -0.003258 0.000543 0.000000 0.000000 0.000000
# 2 -0.003258 0.008260 -0.004662 0.000000 0.000000 0.000000
# 3 0.000543 -0.004662 0.018482 0.000000 0.000000 0.000000
# 4 0.000000 0.000000 0.000000 0.043310 0.000000 0.000000
# 5 0.000000 0.000000 0.000000 0.000000 0.065709 0.000000
# 6 0.000000 0.000000 0.000000 0.000000 0.000000 0.041107
#
#
# Mechanical properties :
#
#
# Convention : Reuss Voigt Hill
#
# Bulk Modulus (GPa) = 44.44808 58.84363 51.64586
# Shear Modulus (GPa) = 23.85132 28.46625 26.15878
#
# Velocity S-wave (km/s) = 3.33556 3.64399 3.49318
# Velocity P-wave (km/s) = 5.96392 6.71965 6.35303
#
# Compressibility (1/GPa) = 0.02249816
#
# Stress axis : x y z
#
# Youngs Moduli (GPa) = 95.14355 121.06473 54.10649
#
# Poissons Ratio (x) = 0.39442 -0.02937
# Poissons Ratio (y) = 0.30997 0.25225
# Poissons Ratio (z) = -0.05165 0.56442
#
# Static dielectric constant tensor:
#      x y z
#    x 3.349860 0.000000 0.000000 
#    y 0.000000 4.444530 0.000000 
#    z 0.000000 0.000000 4.438520 
# 
# 
# High freq. dielectric constant tensor:
#      x y z
#    x 1.788870 0.000000 0.000000 
#    y 0.000000 1.868860 0.000000 
#    z 0.000000 0.000000 1.863330 
# 
# From -- ./inp_files/13075.got.cif
#   From: 2010.06.25/outbox.cif.g09.slc.cpg/sg52_7_cif.got.tgz:13075.got - 2010.06.26 19:32:48.
