data_PCOD8215985
_publ_section_title
;
Structure prediction by ZEFSAII (Michael W. Deem and Ramdas Pophale) SiO2 
 PCOD8215985
Probable space group: P N N A
;
_chemical_formula_sum "Si O2"
_cell_formula_units_Z 64
_cell_length_a 8.876151
_cell_length_b 18.082744
_cell_length_c 19.331433
_cell_angle_alpha 90.000000
_cell_angle_beta 90.000000
_cell_angle_gamma 90.000000
_cell_volume 3102.794867
_symmetry_space_group_name_H-M "P N N A"
_symmetry_group_IT_number 52
_symmetry_cell_setting 'orthorhombic'
loop_
_space_group_symop_operation_xyz
x,y,z
1/2-x,-y,z
x,1/2-y,1/2-z
1/2-x,1/2+y,1/2-z
-x,-y,-z
1/2+x,y,-z
-x,1/2+y,1/2+z
1/2+x,1/2-y,1/2+z
loop_
_atom_site_type_symbol
_atom_site_label
_atom_site_fract_x
_atom_site_fract_y
_atom_site_fract_z
Si Si1 0.224955 0.916941 0.029848
Si Si2 0.484320 0.657455 0.045503
Si Si3 0.965126 0.935210 0.308717
Si Si4 0.133885 0.899178 0.678848
Si Si5 0.178158 0.580620 0.066374
Si Si6 0.487250 0.322266 0.556825
Si Si7 0.667608 0.575716 0.682302
Si Si8 0.944162 0.823820 0.790358
O O1 0.383661 0.881912 0.046952
O O2 0.124318 0.919967 0.100599
O O3 0.250000 0.000000 0.000946
O O4 0.158424 0.863470 0.971971
O O5 0.578292 0.650202 0.115585
O O6 0.309894 0.640629 0.060265
O O7 0.491946 0.742635 0.019089
O O8 0.550297 0.599678 0.989848
O O9 0.814008 0.887267 0.318042
O O10 0.102225 0.910923 0.358430
O O11 0.017779 0.923264 0.229465
O O12 0.919893 0.017268 0.331485
O O13 0.061094 0.875175 0.750563
O O14 0.250000 0.500000 0.053694
O O15 0.473171 0.306063 0.637872
O O16 0.750000 0.500000 0.699559
O O17 0.779386 0.641518 0.701570
O O18 0.911576 0.750000 0.750000
#
# Coordination Sequence:
#
# PCOD8215985 Si02
#       8
#     8   8   8   8   8   8   8   8
#     4  10  23  43  68  96 123 159 214 267 328 386
#     4  12  24  40  63  89 133 173 217 264 316 386
#     4  11  23  39  64  96 127 165 214 267 313 375
#     4  11  23  40  62  95 130 166 212 263 322 378
#     4  12  24  39  63  95 130 176 219 260 312 373
#     4  11  24  43  67  92 126 167 207 267 326 384
#     4  10  20  40  67  94 123 163 210 265 313 386
#     4  11  22  41  66  90 125 171 209 254 326 383
#
# _framework density 20.626564999999999
#
# number of rings (size 3 to 8) (size 9 to 14) (size 15 to 20)
#    0.000    1.000    3.750    3.375    1.750    1.000 
#    2.250    0.625    0.000    0.000    0.000    0.000 
#    0.000    0.000    0.000    0.000    0.000    0.000 
#
# Total GULP energy -793654.013540 kJ/mol
# GULP energy per Si atom -12400.843962 kJ/mol
# Density = 2.057962 g / cm^3
# Si number density = 20.626565 Si / 1000 Ang^3
#
#
#
# Elastic Constant Matrix: (Units=GPa)
#
#
# Indices 1 2 3 4 5 6 
#
# 1 78.0302 20.7064 10.5171 0.0000 0.0000 0.0000
# 2 20.7064 98.2538 18.0747 0.0000 0.0000 0.0000
# 3 10.5171 18.0747 63.8246 0.0000 0.0000 0.0000
# 4 0.0000 0.0000 0.0000 19.5772 0.0000 0.0000
# 5 0.0000 0.0000 0.0000 0.0000 24.7241 0.0000
# 6 0.0000 0.0000 0.0000 0.0000 0.0000 24.7381
#
#
#
# Elastic Compliance Matrix: (Units=1/GPa)
#
#
# Indices 1 2 3 4 5 6 
#
# 1 0.013713 -0.002610 -0.001520 0.000000 0.000000 0.000000
# 2 -0.002610 0.011234 -0.002751 0.000000 0.000000 0.000000
# 3 -0.001520 -0.002751 0.016698 0.000000 0.000000 0.000000
# 4 0.000000 0.000000 0.000000 0.051080 0.000000 0.000000
# 5 0.000000 0.000000 0.000000 0.000000 0.040446 0.000000
# 6 0.000000 0.000000 0.000000 0.000000 0.000000 0.040423
#
#
# Mechanical properties :
#
#
# Convention : Reuss Voigt Hill
#
# Bulk Modulus (GPa) = 35.86705 37.63390 36.75048
# Shear Modulus (GPa) = 25.42564 26.52857 25.97710
#
# Velocity S-wave (km/s) = 3.51474 3.59016 3.55265
# Velocity P-wave (km/s) = 5.82218 5.95573 5.88933
#
# Compressibility (1/GPa) = 0.02788074
#
# Stress axis : x y z
#
# Youngs Moduli (GPa) = 72.92269 89.01599 59.88878
#
# Poissons Ratio (x) = 0.23235 0.09106
# Poissons Ratio (y) = 0.19035 0.16477
# Poissons Ratio (z) = 0.11088 0.24491
#
# Static dielectric constant tensor:
#      x y z
#    x 3.751340 0.000000 0.000000 
#    y 0.000000 3.885840 0.000000 
#    z 0.000000 0.000000 3.961130 
# 
# 
# High freq. dielectric constant tensor:
#      x y z
#    x 1.802510 0.000000 0.000000 
#    y 0.000000 1.812100 0.000000 
#    z 0.000000 0.000000 1.809780 
# 
# From -- ./inp_files/36167.got.cif
#   From: 2010.06.25/outbox.cif.g09.slc.cpg/sg52_19_cif.got.tgz:36167.got - 2010.06.26 19:32:48.
