data_PCOD8215713
_publ_section_title
;
Structure prediction by ZEFSAII (Michael W. Deem and Ramdas Pophale) SiO2 
 PCOD8215713
Probable space group: P N N A
;
_chemical_formula_sum "Si O2"
_cell_formula_units_Z 60
_cell_length_a 9.711079
_cell_length_b 26.020128
_cell_length_c 11.166091
_cell_angle_alpha 90.000000
_cell_angle_beta 90.000000
_cell_angle_gamma 90.000000
_cell_volume 2821.487163
_symmetry_space_group_name_H-M "P N N A"
_symmetry_group_IT_number 52
_symmetry_cell_setting 'orthorhombic'
loop_
_space_group_symop_operation_xyz
x,y,z
1/2-x,-y,z
x,1/2-y,1/2-z
1/2-x,1/2+y,1/2-z
-x,-y,-z
1/2+x,y,-z
-x,1/2+y,1/2+z
1/2+x,1/2-y,1/2+z
loop_
_atom_site_type_symbol
_atom_site_label
_atom_site_fract_x
_atom_site_fract_y
_atom_site_fract_z
Si Si1 0.907115 0.986570 0.613631
Si Si2 0.273736 0.295758 0.515782
Si Si3 0.820619 0.750000 0.250000
Si Si4 0.525391 0.366350 0.503516
Si Si5 0.728428 0.308349 0.918456
Si Si6 0.565379 0.925089 0.784397
Si Si7 0.969052 0.836512 0.376938
Si Si8 0.632298 0.389502 0.748467
O O1 0.926245 0.926360 0.646364
O O2 0.750000 0.000000 0.579079
O O3 0.952993 0.017249 0.734420
O O4 0.000000 0.000000 0.500000
O O5 0.280133 0.265117 0.641253
O O6 0.421730 0.318678 0.480751
O O7 0.176203 0.344862 0.522886
O O8 0.216402 0.253917 0.419244
O O9 0.923963 0.796729 0.274934
O O10 0.500207 0.414767 0.415194
O O11 0.521144 0.385781 0.641140
O O12 0.888763 0.320047 0.938330
O O13 0.666929 0.332043 0.796091
O O14 0.649390 0.337797 0.024213
O O15 0.488354 0.891228 0.684646
O O16 0.726335 0.913454 0.799623
#
# Coordination Sequence:
#
# PCOD8215713 Si02
#       8
#     8   8   4   8   8   8   8   8
#     4  10  22  45  71  99 127 161 213 272 333 386
#     4  11  23  37  60  87 128 168 219 257 310 379
#     4  10  20  36  56  88 120 170 208 266 310 368
#     4  12  23  42  60  92 129 173 213 258 314 389
#     4  10  22  37  58  89 119 167 209 261 313 373
#     4  10  21  41  66  89 127 172 203 269 324 381
#     4  10  20  36  58  83 120 158 210 255 320 372
#     4  10  23  41  65  92 128 167 213 267 326 386
#
# _framework density 21.265381999999999
#
# number of rings (size 3 to 8) (size 9 to 14) (size 15 to 20)
#    0.000    1.600    2.667    2.400    0.000    4.267 
#    2.400    0.000    0.000    0.000    0.000    0.000 
#    0.000    0.000    0.000    0.000    0.000    0.000 
#
# Total GULP energy -743876.464899 kJ/mol
# GULP energy per Si atom -12397.941082 kJ/mol
# Density = 2.121698 g / cm^3
# Si number density = 21.265382 Si / 1000 Ang^3
#
#
#
# Elastic Constant Matrix: (Units=GPa)
#
#
# Indices 1 2 3 4 5 6 
#
# 1 59.8399 13.9944 32.6810 0.0000 0.0000 0.0000
# 2 13.9944 84.7891 37.8248 0.0000 0.0000 0.0000
# 3 32.6810 37.8248 104.0376 0.0000 0.0000 0.0000
# 4 0.0000 0.0000 0.0000 40.4422 0.0000 0.0000
# 5 0.0000 0.0000 0.0000 0.0000 32.9949 0.0000
# 6 0.0000 0.0000 0.0000 0.0000 0.0000 24.7840
#
#
#
# Elastic Compliance Matrix: (Units=1/GPa)
#
#
# Indices 1 2 3 4 5 6 
#
# 1 0.020197 -0.000601 -0.006126 0.000000 0.000000 0.000000
# 2 -0.000601 0.014095 -0.004936 0.000000 0.000000 0.000000
# 3 -0.006126 -0.004936 0.013331 0.000000 0.000000 0.000000
# 4 0.000000 0.000000 0.000000 0.024727 0.000000 0.000000
# 5 0.000000 0.000000 0.000000 0.000000 0.030308 0.000000
# 6 0.000000 0.000000 0.000000 0.000000 0.000000 0.040349
#
#
# Mechanical properties :
#
#
# Convention : Reuss Voigt Hill
#
# Bulk Modulus (GPa) = 41.15570 46.40743 43.78156
# Shear Modulus (GPa) = 28.66465 30.58865 29.62665
#
# Velocity S-wave (km/s) = 3.67543 3.79677 3.73659
# Velocity P-wave (km/s) = 6.11613 6.41023 6.26490
#
# Compressibility (1/GPa) = 0.02429797
#
# Stress axis : x y z
#
# Youngs Moduli (GPa) = 49.51114 70.94719 75.01415
#
# Poissons Ratio (x) = 0.04261 0.45955
# Poissons Ratio (y) = 0.02974 0.37026
# Poissons Ratio (z) = 0.30331 0.35018
#
# Static dielectric constant tensor:
#      x y z
#    x 3.725910 0.000000 0.000000 
#    y 0.000000 4.003790 0.000000 
#    z 0.000000 0.000000 3.858090 
# 
# 
# High freq. dielectric constant tensor:
#      x y z
#    x 1.823190 0.000000 0.000000 
#    y 0.000000 1.828020 0.000000 
#    z 0.000000 0.000000 1.834430 
# 
# From -- ./inp_files/17126.got.cif
#   From: 2010.06.25/outbox.cif.g09.slc.cpg/sg52_9_cif.got.tgz:17126.got - 2010.06.26 19:32:48.
