data_PCOD8215105
_publ_section_title
;
Structure prediction by ZEFSAII (Michael W. Deem and Ramdas Pophale) SiO2 
 PCOD8215105
Probable space group: P N N A
;
_chemical_formula_sum "Si O2"
_cell_formula_units_Z 56
_cell_length_a 14.555413
_cell_length_b 12.907226
_cell_length_c 15.494791
_cell_angle_alpha 90.000000
_cell_angle_beta 90.000000
_cell_angle_gamma 90.000000
_cell_volume 2911.006464
_symmetry_space_group_name_H-M "P N N A"
_symmetry_group_IT_number 52
_symmetry_cell_setting 'orthorhombic'
loop_
_space_group_symop_operation_xyz
x,y,z
1/2-x,-y,z
x,1/2-y,1/2-z
1/2-x,1/2+y,1/2-z
-x,-y,-z
1/2+x,y,-z
-x,1/2+y,1/2+z
1/2+x,1/2-y,1/2+z
loop_
_atom_site_type_symbol
_atom_site_label
_atom_site_fract_x
_atom_site_fract_y
_atom_site_fract_z
Si Si1 0.615141 0.382746 0.035779
Si Si2 0.978971 0.497795 0.186730
Si Si3 0.521367 0.709051 0.090925
Si Si4 0.660407 0.955443 0.614035
Si Si5 0.201331 0.724553 0.998426
Si Si6 0.150717 0.953365 0.024447
Si Si7 0.006543 0.944881 0.875685
O O1 0.594141 0.437822 0.128377
O O2 0.698381 0.299706 0.042814
O O3 0.527877 0.317720 0.000718
O O4 0.637369 0.475565 0.970516
O O5 0.000530 0.379844 0.159078
O O6 0.076704 0.555043 0.179531
O O7 0.952200 0.491356 0.286718
O O8 0.630576 0.703990 0.078851
O O9 0.488968 0.820770 0.126301
O O10 0.686767 0.842744 0.582779
O O11 0.750000 0.000000 0.663160
O O12 0.178217 0.835329 0.038038
O O13 0.250000 0.000000 0.010062
O O14 0.091648 0.000411 0.103935
O O15 0.086588 0.973561 0.941910
#
# Coordination Sequence:
#
# PCOD8215105 Si02
#       7
#     8   8   8   8   8   8   8
#     4  10  18  31  58  90 119 148 190 240 297 359
#     4  11  19  34  56  92 124 146 183 257 311 343
#     4  10  18  35  57  86 119 156 194 231 299 370
#     4   9  17  31  53  87 120 149 186 230 296 362
#     4  10  18  33  60  81 109 160 195 232 283 359
#     4  10  22  43  60  75 108 161 216 237 285 359
#     4  10  23  38  61  82 115 158 201 249 293 355
#
# _framework density 19.237333
#
# number of rings (size 3 to 8) (size 9 to 14) (size 15 to 20)
#    0.000    2.000    2.857    2.143    0.000    0.571 
#    2.571    0.714    0.000    0.000    0.000    0.000 
#    0.000    0.000    0.000    0.000    0.000    0.000 
#
# Total GULP energy -693835.304936 kJ/mol
# GULP energy per Si atom -12389.916160 kJ/mol
# Density = 1.919355 g / cm^3
# Si number density = 19.237333 Si / 1000 Ang^3
#
#
#
# Elastic Constant Matrix: (Units=GPa)
#
#
# Indices 1 2 3 4 5 6 
#
# 1 119.9289 50.4763 21.4342 0.0000 0.0000 0.0000
# 2 50.4763 81.5992 34.5931 0.0000 0.0000 0.0000
# 3 21.4342 34.5931 81.3421 0.0000 0.0000 0.0000
# 4 0.0000 0.0000 0.0000 23.1566 0.0000 0.0000
# 5 0.0000 0.0000 0.0000 0.0000 19.3523 0.0000
# 6 0.0000 0.0000 0.0000 0.0000 0.0000 35.1887
#
#
#
# Elastic Compliance Matrix: (Units=1/GPa)
#
#
# Indices 1 2 3 4 5 6 
#
# 1 0.011273 -0.006971 -0.000006 0.000000 0.000000 0.000000
# 2 -0.006971 0.019261 -0.006354 0.000000 0.000000 0.000000
# 3 -0.000006 -0.006354 0.014998 0.000000 0.000000 0.000000
# 4 0.000000 0.000000 0.000000 0.043184 0.000000 0.000000
# 5 0.000000 0.000000 0.000000 0.000000 0.051673 0.000000
# 6 0.000000 0.000000 0.000000 0.000000 0.000000 0.028418
#
#
# Mechanical properties :
#
#
# Convention : Reuss Voigt Hill
#
# Bulk Modulus (GPa) = 52.99607 55.09751 54.04679
# Shear Modulus (GPa) = 24.78183 27.29729 26.03956
#
# Velocity S-wave (km/s) = 3.59307 3.77101 3.68312
# Velocity P-wave (km/s) = 6.69491 6.90390 6.80021
#
# Compressibility (1/GPa) = 0.01886932
#
# Stress axis : x y z
#
# Youngs Moduli (GPa) = 88.70483 51.91808 66.67673
#
# Poissons Ratio (x) = 0.36192 0.00040
# Poissons Ratio (y) = 0.61836 0.42369
# Poissons Ratio (z) = 0.00053 0.32991
#
# Static dielectric constant tensor:
#      x y z
#    x 3.756880 0.000000 0.000000 
#    y 0.000000 3.127290 0.000000 
#    z 0.000000 0.000000 3.127280 
# 
# 
# High freq. dielectric constant tensor:
#      x y z
#    x 1.760340 0.000000 0.000000 
#    y 0.000000 1.755410 0.000000 
#    z 0.000000 0.000000 1.706980 
# 
# From -- ./inp_files/27384.got.cif
#   From: 2010.06.25/outbox.cif.g09.slc.cpg/sg52_14_cif.got.tgz:27384.got - 2010.06.26 19:32:48.
