data_PCOD8215730
_publ_section_title
;
Structure prediction by ZEFSAII (Michael W. Deem and Ramdas Pophale) SiO2 
 PCOD8215730
Probable space group: P N N A
;
_chemical_formula_sum "Si O2"
_cell_formula_units_Z 32
_cell_length_a 10.174167
_cell_length_b 5.048369
_cell_length_c 29.622584
_cell_angle_alpha 90.000000
_cell_angle_beta 90.000000
_cell_angle_gamma 90.000000
_cell_volume 1521.503280
_symmetry_space_group_name_H-M "P N N A"
_symmetry_group_IT_number 52
_symmetry_cell_setting 'orthorhombic'
loop_
_space_group_symop_operation_xyz
x,y,z
1/2-x,-y,z
x,1/2-y,1/2-z
1/2-x,1/2+y,1/2-z
-x,-y,-z
1/2+x,y,-z
-x,1/2+y,1/2+z
1/2+x,1/2-y,1/2+z
loop_
_atom_site_type_symbol
_atom_site_label
_atom_site_fract_x
_atom_site_fract_y
_atom_site_fract_z
Si Si1 0.250000 0.000000 0.548385
Si Si2 0.117557 0.664755 0.478436
Si Si3 0.661367 0.750000 0.250000
Si Si4 0.970215 0.871081 0.396121
Si Si5 0.099130 0.596771 0.655358
O O1 0.361227 0.128138 0.518032
O O2 0.168274 0.206103 0.579405
O O3 0.250000 0.500000 0.469209
O O4 0.000000 0.500000 0.500000
O O5 0.086474 0.826749 0.432342
O O6 0.750000 0.500000 0.235964
O O7 0.570527 0.685623 0.293249
O O8 0.989729 0.660901 0.355639
O O9 0.951052 0.172203 0.378551
O O10 0.250000 0.500000 0.651818
#
# Coordination Sequence:
#
# PCOD8215730 Si02
#       5
#     4   8   4   8   8
#     4  12  24  42  62  90 134 176 224 270 324 380
#     4  12  27  44  63  92 132 181 231 278 326 381
#     4  10  20  36  58  92 130 168 202 264 344 406
#     4  12  24  38  63  93 127 174 219 265 327 394
#     4  11  21  38  60  93 130 167 211 268 332 406
#
# _framework density 21.031832999999999
#
# number of rings (size 3 to 8) (size 9 to 14) (size 15 to 20)
#    0.000    0.500    5.000    5.250    3.500    0.000 
#    0.000    0.000    0.000    0.000    0.000    3.500 
#    0.000    0.000    0.000    0.000    0.000    0.000 
#
# Total GULP energy -396419.056866 kJ/mol
# GULP energy per Si atom -12388.095527 kJ/mol
# Density = 2.098396 g / cm^3
# Si number density = 21.031833 Si / 1000 Ang^3
#
#
#
# Elastic Constant Matrix: (Units=GPa)
#
#
# Indices 1 2 3 4 5 6 
#
# 1 82.5142 27.2257 35.2789 0.0000 0.0000 0.0000
# 2 27.2257 117.0408 39.7349 0.0000 0.0000 0.0000
# 3 35.2789 39.7349 129.4893 0.0000 0.0000 0.0000
# 4 0.0000 0.0000 0.0000 37.7502 0.0000 0.0000
# 5 0.0000 0.0000 0.0000 0.0000 15.8693 0.0000
# 6 0.0000 0.0000 0.0000 0.0000 0.0000 33.9595
#
#
#
# Elastic Compliance Matrix: (Units=1/GPa)
#
#
# Indices 1 2 3 4 5 6 
#
# 1 0.014217 -0.002224 -0.003191 0.000000 0.000000 0.000000
# 2 -0.002224 0.009885 -0.002428 0.000000 0.000000 0.000000
# 3 -0.003191 -0.002428 0.009337 0.000000 0.000000 0.000000
# 4 0.000000 0.000000 0.000000 0.026490 0.000000 0.000000
# 5 0.000000 0.000000 0.000000 0.000000 0.063015 0.000000
# 6 0.000000 0.000000 0.000000 0.000000 0.000000 0.029447
#
#
# Mechanical properties :
#
#
# Convention : Reuss Voigt Hill
#
# Bulk Modulus (GPa) = 56.32284 59.28037 57.80161
# Shear Modulus (GPa) = 28.73662 32.63614 30.68638
#
# Velocity S-wave (km/s) = 3.70041 3.94350 3.82389
# Velocity P-wave (km/s) = 6.71531 6.99872 6.85848
#
# Compressibility (1/GPa) = 0.01775479
#
# Stress axis : x y z
#
# Youngs Moduli (GPa) = 70.33735 101.15848 107.10133
#
# Poissons Ratio (x) = 0.22496 0.34176
# Poissons Ratio (y) = 0.15642 0.26000
# Poissons Ratio (z) = 0.22445 0.24557
#
# Static dielectric constant tensor:
#      x y z
#    x 2.972450 0.000000 0.000000 
#    y 0.000000 4.009870 0.000000 
#    z 0.000000 0.000000 4.116440 
# 
# 
# High freq. dielectric constant tensor:
#      x y z
#    x 1.770890 0.000000 0.000000 
#    y 0.000000 1.843950 0.000000 
#    z 0.000000 0.000000 1.835340 
# 
# From -- ./inp_files/39839.got.cif
#   From: 2010.06.25/outbox.cif.g09.slc.cpg/sg52_20_cif.got.tgz:39839.got - 2010.06.26 19:32:48.
