data_PCOD8215253
_publ_section_title
;
Structure prediction by ZEFSAII (Michael W. Deem and Ramdas Pophale) SiO2 
 PCOD8215253
Probable space group: P N N A
;
_chemical_formula_sum "Si O2"
_cell_formula_units_Z 52
_cell_length_a 26.253634
_cell_length_b 8.830624
_cell_length_c 11.690127
_cell_angle_alpha 90.000000
_cell_angle_beta 90.000000
_cell_angle_gamma 90.000000
_cell_volume 2710.191938
_symmetry_space_group_name_H-M "P N N A"
_symmetry_group_IT_number 52
_symmetry_cell_setting 'orthorhombic'
loop_
_space_group_symop_operation_xyz
x,y,z
1/2-x,-y,z
x,1/2-y,1/2-z
1/2-x,1/2+y,1/2-z
-x,-y,-z
1/2+x,y,-z
-x,1/2+y,1/2+z
1/2+x,1/2-y,1/2+z
loop_
_atom_site_type_symbol
_atom_site_label
_atom_site_fract_x
_atom_site_fract_y
_atom_site_fract_z
Si Si1 0.766972 0.829113 0.367309
Si Si2 0.563765 0.250000 0.250000
Si Si3 0.565238 0.663184 0.499351
Si Si4 0.505207 0.013610 0.833075
Si Si5 0.628740 0.405373 0.059145
Si Si6 0.453962 0.010705 0.413360
Si Si7 0.159033 0.760773 0.614668
O O1 0.784124 0.750000 0.250000
O O2 0.815613 0.825901 0.453447
O O3 0.718342 0.743944 0.424744
O O4 0.750000 0.000000 0.337415
O O5 0.529853 0.135799 0.175387
O O6 0.599156 0.342040 0.166256
O O7 0.552129 0.522008 0.581153
O O8 0.526725 0.654101 0.388591
O O9 0.561852 0.813046 0.578587
O O10 0.622801 0.639556 0.449641
O O11 0.528221 0.050151 0.709403
O O12 0.635282 0.580770 0.082605
O O13 0.593044 0.398261 0.946606
O O14 0.500000 0.000000 0.500000
O O15 0.157398 0.750000 0.750000
#
# Coordination Sequence:
#
# PCOD8215253 Si02
#       7
#     8   4   8   8   8   8   8
#     4   9  17  31  49  76 106 135 177 225 278 330
#     4  12  18  32  46  72 108 138 172 210 260 328
#     4  10  21  34  52  74 108 144 176 223 264 319
#     4  11  21  34  51  76 112 142 187 215 260 335
#     4  10  19  29  51  71 106 141 171 219 273 318
#     4  11  20  34  50  76 109 145 177 215 268 323
#     4   9  18  31  49  75 105 136 174 220 274 324
#
# _framework density 19.186831999999999
#
# number of rings (size 3 to 8) (size 9 to 14) (size 15 to 20)
#    0.000    1.846    3.846    0.923    2.154    0.000 
#    0.000    0.000    0.000    0.000    0.000    0.000 
#  133.846    0.000    0.000    0.000    0.000    0.000 
#
# Total GULP energy -644212.576158 kJ/mol
# GULP energy per Si atom -12388.703388 kJ/mol
# Density = 1.914316 g / cm^3
# Si number density = 19.186832 Si / 1000 Ang^3
#
#
#
# Elastic Constant Matrix: (Units=GPa)
#
#
# Indices 1 2 3 4 5 6 
#
# 1 164.3067 22.9743 63.5800 0.0000 0.0000 0.0000
# 2 22.9743 12.5381 11.0531 0.0000 0.0000 0.0000
# 3 63.5800 11.0531 109.6290 0.0000 0.0000 0.0000
# 4 0.0000 0.0000 0.0000 16.4874 0.0000 0.0000
# 5 0.0000 0.0000 0.0000 0.0000 23.0845 0.0000
# 6 0.0000 0.0000 0.0000 0.0000 0.0000 34.0148
#
#
#
# Elastic Compliance Matrix: (Units=1/GPa)
#
#
# Indices 1 2 3 4 5 6 
#
# 1 0.009670 -0.014021 -0.004194 0.000000 0.000000 0.000000
# 2 -0.014021 0.107867 -0.002744 0.000000 0.000000 0.000000
# 3 -0.004194 -0.002744 0.011831 0.000000 0.000000 0.000000
# 4 0.000000 0.000000 0.000000 0.060652 0.000000 0.000000
# 5 0.000000 0.000000 0.000000 0.000000 0.043319 0.000000
# 6 0.000000 0.000000 0.000000 0.000000 0.000000 0.029399
#
#
# Mechanical properties :
#
#
# Convention : Reuss Voigt Hill
#
# Bulk Modulus (GPa) = 11.43521 53.52094 32.47808
# Shear Modulus (GPa) = 14.97877 27.30845 21.14361
#
# Velocity S-wave (km/s) = 2.79710 3.77675 3.32322
# Velocity P-wave (km/s) = 4.05025 6.85373 5.62930
#
# Compressibility (1/GPa) = 0.08744923
#
# Stress axis : x y z
#
# Youngs Moduli (GPa) = 103.41594 9.27068 84.52444
#
# Poissons Ratio (x) = 0.12998 0.35453
# Poissons Ratio (y) = 1.44996 0.23194
# Poissons Ratio (z) = 0.43377 0.02544
#
# Static dielectric constant tensor:
#      x y z
#    x 4.471170 0.000000 0.000000 
#    y 0.000000 3.578260 0.000000 
#    z 0.000000 0.000000 3.423210 
# 
# 
# High freq. dielectric constant tensor:
#      x y z
#    x 1.755870 0.000000 0.000000 
#    y 0.000000 1.735150 0.000000 
#    z 0.000000 0.000000 1.713860 
# 
# From -- ./inp_files/22817.got.cif
#   From: 2010.06.25/outbox.cif.g09.slc.cpg/sg52_12_cif.got.tgz:22817.got - 2010.06.26 19:32:48.
