data_PCOD8215643
_publ_section_title
;
Structure prediction by ZEFSAII (Michael W. Deem and Ramdas Pophale) SiO2 
 PCOD8215643
Probable space group: P N N A
;
_chemical_formula_sum "Si O2"
_cell_formula_units_Z 44
_cell_length_a 8.382661
_cell_length_b 16.686328
_cell_length_c 15.396135
_cell_angle_alpha 90.000000
_cell_angle_beta 90.000000
_cell_angle_gamma 90.000000
_cell_volume 2153.547177
_symmetry_space_group_name_H-M "P N N A"
_symmetry_group_IT_number 52
_symmetry_cell_setting 'orthorhombic'
loop_
_space_group_symop_operation_xyz
x,y,z
1/2-x,-y,z
x,1/2-y,1/2-z
1/2-x,1/2+y,1/2-z
-x,-y,-z
1/2+x,y,-z
-x,1/2+y,1/2+z
1/2+x,1/2-y,1/2+z
loop_
_atom_site_type_symbol
_atom_site_label
_atom_site_fract_x
_atom_site_fract_y
_atom_site_fract_z
Si Si1 0.042736 0.091958 0.898514
Si Si2 0.014328 0.279852 0.901512
Si Si3 0.731349 0.373166 0.965492
Si Si4 0.250000 0.500000 0.467906
Si Si5 0.936800 0.448651 0.111918
Si Si6 0.344535 0.898590 0.709234
O O1 0.008253 0.185106 0.907145
O O2 0.121062 0.071961 0.805865
O O3 0.878474 0.042974 0.906388
O O4 0.166720 0.066970 0.972677
O O5 0.836199 0.313309 0.907942
O O6 0.086938 0.309913 0.809033
O O7 0.125730 0.314135 0.976803
O O8 0.619763 0.422663 0.898538
O O9 0.843138 0.433468 0.021101
O O10 0.846405 0.400864 0.190278
O O11 0.928317 0.542702 0.136927
#
# Coordination Sequence:
#
# PCOD8215643 Si02
#       6
#     8   8   8   4   8   8
#     4  11  22  42  58  81 106 141 195 237 289 336
#     4  10  20  34  57  82 114 147 177 228 273 323
#     4   9  19  34  56  87 116 148 186 216 265 328
#     4  10  24  40  64  76  98 146 194 248 280 330
#     4   9  19  34  54  86 119 151 182 215 265 332
#     4  10  21  34  55  82 116 150 176 223 278 328
#
# _framework density 20.431408000000001
#
# number of rings (size 3 to 8) (size 9 to 14) (size 15 to 20)
#    0.000    2.182    0.000    2.727    0.000   15.273 
#    0.000    0.000    0.000    6.545    0.000    0.000 
#    0.000    0.000    0.000    0.000    0.000    0.000 
#
# Total GULP energy -545451.257993 kJ/mol
# GULP energy per Si atom -12396.619500 kJ/mol
# Density = 2.038491 g / cm^3
# Si number density = 20.431408 Si / 1000 Ang^3
#
#
#
# Elastic Constant Matrix: (Units=GPa)
#
#
# Indices 1 2 3 4 5 6 
#
# 1 98.8418 24.4375 25.2528 0.0000 0.0000 0.0000
# 2 24.4375 102.2739 23.5698 0.0000 0.0000 0.0000
# 3 25.2528 23.5698 82.3614 0.0000 0.0000 0.0000
# 4 0.0000 0.0000 0.0000 24.8730 0.0000 0.0000
# 5 0.0000 0.0000 0.0000 0.0000 22.9263 0.0000
# 6 0.0000 0.0000 0.0000 0.0000 0.0000 24.4227
#
#
#
# Elastic Compliance Matrix: (Units=1/GPa)
#
#
# Indices 1 2 3 4 5 6 
#
# 1 0.011364 -0.002047 -0.002898 0.000000 0.000000 0.000000
# 2 -0.002047 0.010837 -0.002474 0.000000 0.000000 0.000000
# 3 -0.002898 -0.002474 0.013738 0.000000 0.000000 0.000000
# 4 0.000000 0.000000 0.000000 0.040204 0.000000 0.000000
# 5 0.000000 0.000000 0.000000 0.000000 0.043618 0.000000
# 6 0.000000 0.000000 0.000000 0.000000 0.000000 0.040946
#
#
# Mechanical properties :
#
#
# Convention : Reuss Voigt Hill
#
# Bulk Modulus (GPa) = 47.39239 47.77747 47.58493
# Shear Modulus (GPa) = 27.38545 28.45886 27.92216
#
# Velocity S-wave (km/s) = 3.66507 3.73620 3.70081
# Velocity P-wave (km/s) = 6.41533 6.48439 6.44996
#
# Compressibility (1/GPa) = 0.02110044
#
# Stress axis : x y z
#
# Youngs Moduli (GPa) = 87.99828 92.27725 72.79003
#
# Poissons Ratio (x) = 0.18892 0.21097
# Poissons Ratio (y) = 0.18016 0.18005
# Poissons Ratio (z) = 0.25505 0.22825
#
# Static dielectric constant tensor:
#      x y z
#    x 3.960920 0.000000 0.000000 
#    y 0.000000 3.624310 0.000000 
#    z 0.000000 0.000000 3.561150 
# 
# 
# High freq. dielectric constant tensor:
#      x y z
#    x 1.804620 0.000000 0.000000 
#    y 0.000000 1.801940 0.000000 
#    z 0.000000 0.000000 1.780990 
# 
# From -- ./inp_files/24631.got.cif
#   From: 2010.06.25/outbox.cif.g09.slc.cpg/sg52_13_cif.got.tgz:24631.got - 2010.06.26 19:32:48.
