data_PCOD8215062
_publ_section_title
;
Structure prediction by ZEFSAII (Michael W. Deem and Ramdas Pophale) SiO2 
 PCOD8215062
Probable space group: P N N A
;
_chemical_formula_sum "Si O2"
_cell_formula_units_Z 52
_cell_length_a 8.804052
_cell_length_b 10.376700
_cell_length_c 28.018288
_cell_angle_alpha 90.000000
_cell_angle_beta 90.000000
_cell_angle_gamma 90.000000
_cell_volume 2559.666916
_symmetry_space_group_name_H-M "P N N A"
_symmetry_group_IT_number 52
_symmetry_cell_setting 'orthorhombic'
loop_
_space_group_symop_operation_xyz
x,y,z
1/2-x,-y,z
x,1/2-y,1/2-z
1/2-x,1/2+y,1/2-z
-x,-y,-z
1/2+x,y,-z
-x,1/2+y,1/2+z
1/2+x,1/2-y,1/2+z
loop_
_atom_site_type_symbol
_atom_site_label
_atom_site_fract_x
_atom_site_fract_y
_atom_site_fract_z
Si Si1 0.817106 0.863461 0.949399
Si Si2 0.390122 0.927451 0.154894
Si Si3 0.858090 0.250398 0.194672
Si Si4 0.579993 0.790084 0.493556
Si Si5 0.852660 0.646559 0.064392
Si Si6 0.250000 0.000000 0.647932
Si Si7 0.644998 0.109703 0.121327
O O1 0.827243 0.856316 0.892142
O O2 0.701540 0.756835 0.967839
O O3 0.750000 0.000000 0.966853
O O4 0.984302 0.827671 0.970114
O O5 0.478553 0.819772 0.186245
O O6 0.250000 0.000000 0.182437
O O7 0.491438 0.048665 0.139957
O O8 0.818507 0.250000 0.250000
O O9 0.850268 0.400197 0.178798
O O10 0.728856 0.174635 0.166267
O O11 0.675555 0.868626 0.453015
O O12 0.469801 0.889089 0.522267
O O13 0.873424 0.568718 0.113418
O O14 0.885570 0.796119 0.077065
O O15 0.750000 0.000000 0.098620
#
# Coordination Sequence:
#
# PCOD8215062 Si02
#       7
#     8   8   8   8   8   4   8
#     4  10  18  29  48  79 113 156 193 240 280 331
#     4  10  20  36  60  85 123 157 183 242 313 358
#     4  10  22  39  66  89 109 144 199 249 301 370
#     4  10  20  30  49  75 116 156 206 231 268 343
#     4  10  20  35  50  80 114 157 194 241 284 328
#     4  10  22  38  62  84 116 144 194 252 290 350
#     4   9  18  34  56  83 115 153 194 247 298 345
#
# _framework density 20.315144
#
# number of rings (size 3 to 8) (size 9 to 14) (size 15 to 20)
#    0.000    2.154    0.000    5.077    3.231    4.308 
#    0.000    0.769    3.385    7.385    0.000    0.000 
#    0.000    0.000    0.000    0.000    0.000    0.000 
#
# Total GULP energy -644375.605132 kJ/mol
# GULP energy per Si atom -12391.838560 kJ/mol
# Density = 2.026891 g / cm^3
# Si number density = 20.315144 Si / 1000 Ang^3
#
#
#
# Elastic Constant Matrix: (Units=GPa)
#
#
# Indices 1 2 3 4 5 6 
#
# 1 100.9052 23.0571 18.2081 0.0000 0.0000 0.0000
# 2 23.0571 58.7887 25.4793 0.0000 0.0000 0.0000
# 3 18.2081 25.4793 89.3759 0.0000 0.0000 0.0000
# 4 0.0000 0.0000 0.0000 16.8030 0.0000 0.0000
# 5 0.0000 0.0000 0.0000 0.0000 12.7821 0.0000
# 6 0.0000 0.0000 0.0000 0.0000 0.0000 23.8895
#
#
#
# Elastic Compliance Matrix: (Units=1/GPa)
#
#
# Indices 1 2 3 4 5 6 
#
# 1 0.010989 -0.003810 -0.001152 0.000000 0.000000 0.000000
# 2 -0.003810 0.020729 -0.005133 0.000000 0.000000 0.000000
# 3 -0.001152 -0.005133 0.012887 0.000000 0.000000 0.000000
# 4 0.000000 0.000000 0.000000 0.059513 0.000000 0.000000
# 5 0.000000 0.000000 0.000000 0.000000 0.078235 0.000000
# 6 0.000000 0.000000 0.000000 0.000000 0.000000 0.041859
#
#
# Mechanical properties :
#
#
# Convention : Reuss Voigt Hill
#
# Bulk Modulus (GPa) = 40.96193 42.50652 41.73422
# Shear Modulus (GPa) = 19.79868 22.84993 21.32431
#
# Velocity S-wave (km/s) = 3.12521 3.35740 3.24338
# Velocity P-wave (km/s) = 5.76451 5.99988 5.88337
#
# Compressibility (1/GPa) = 0.02441291
#
# Stress axis : x y z
#
# Youngs Moduli (GPa) = 91.00065 48.24090 77.59840
#
# Poissons Ratio (x) = 0.18382 0.08943
# Poissons Ratio (y) = 0.34675 0.39833
# Poissons Ratio (z) = 0.10487 0.24763
#
# Static dielectric constant tensor:
#      x y z
#    x 3.871050 0.000000 0.000000 
#    y 0.000000 3.971860 0.000000 
#    z 0.000000 0.000000 3.495720 
# 
# 
# High freq. dielectric constant tensor:
#      x y z
#    x 1.790920 0.000000 0.000000 
#    y 0.000000 1.796860 0.000000 
#    z 0.000000 0.000000 1.775520 
# 
# From -- ./inp_files/42283.got.cif
#   From: 2010.06.25/outbox.cif.g09.slc.cpg/sg52_22_cif.got.tgz:42283.got - 2010.06.26 19:32:48.
