data_PCOD8215715
_publ_section_title
;
Structure prediction by ZEFSAII (Michael W. Deem and Ramdas Pophale) SiO2 
 PCOD8215715
Probable space group: P N N A
;
_chemical_formula_sum "Si O2"
_cell_formula_units_Z 56
_cell_length_a 7.878694
_cell_length_b 22.433517
_cell_length_c 16.573694
_cell_angle_alpha 90.000000
_cell_angle_beta 90.000000
_cell_angle_gamma 90.000000
_cell_volume 2929.347640
_symmetry_space_group_name_H-M "P N N A"
_symmetry_group_IT_number 52
_symmetry_cell_setting 'orthorhombic'
loop_
_space_group_symop_operation_xyz
x,y,z
1/2-x,-y,z
x,1/2-y,1/2-z
1/2-x,1/2+y,1/2-z
-x,-y,-z
1/2+x,y,-z
-x,1/2+y,1/2+z
1/2+x,1/2-y,1/2+z
loop_
_atom_site_type_symbol
_atom_site_label
_atom_site_fract_x
_atom_site_fract_y
_atom_site_fract_z
Si Si1 0.900642 0.537117 0.934576
Si Si2 0.927910 0.573199 0.230826
Si Si3 0.110504 0.123864 0.561805
Si Si4 0.703810 0.255361 0.880964
Si Si5 0.118671 0.707521 0.967610
Si Si6 0.955636 0.062959 0.270994
Si Si7 0.256360 0.151319 0.242361
O O1 0.750000 0.500000 0.890190
O O2 0.028712 0.564722 0.868463
O O3 0.806747 0.587933 0.986821
O O4 0.000000 0.500000 0.000000
O O5 0.943649 0.579909 0.134086
O O6 0.731194 0.587149 0.254920
O O7 0.975765 0.505924 0.256707
O O8 0.061511 0.618999 0.270382
O O9 0.237764 0.176992 0.589135
O O10 0.948853 0.154795 0.523192
O O11 0.506424 0.260144 0.905645
O O12 0.733987 0.195925 0.831287
O O13 0.754217 0.313495 0.827576
O O14 0.803819 0.247622 0.965376
O O15 0.104036 0.103562 0.234285
#
# Coordination Sequence:
#
# PCOD8215715 Si02
#       7
#     8   8   8   8   8   8   8
#     4  12  21  29  45  78 118 163 204 228 269 337
#     4  11  21  36  53  80 118 155 192 231 287 353
#     4  11  19  30  49  78 114 154 193 234 277 332
#     4  10  22  40  60  83 116 148 206 245 301 347
#     4  10  20  36  57  80 112 150 198 255 281 339
#     4  11  23  35  52  83 118 157 200 237 278 350
#     4  11  22  41  58  86 117 164 192 245 295 353
#
# _framework density 19.116885
#
# number of rings (size 3 to 8) (size 9 to 14) (size 15 to 20)
#    0.000    1.143    2.857    6.429    0.000    0.000 
#    5.143    1.429    0.000    0.000    0.000    4.000 
#    0.000    0.000    0.000    0.000    0.000    0.000 
#
# Total GULP energy -693877.065507 kJ/mol
# GULP energy per Si atom -12390.661884 kJ/mol
# Density = 1.907337 g / cm^3
# Si number density = 19.116885 Si / 1000 Ang^3
#
#
#
# Elastic Constant Matrix: (Units=GPa)
#
#
# Indices 1 2 3 4 5 6 
#
# 1 120.0020 59.9856 28.1371 0.0000 0.0000 0.0000
# 2 59.9856 99.5684 32.3349 0.0000 0.0000 0.0000
# 3 28.1371 32.3349 36.0772 0.0000 0.0000 0.0000
# 4 0.0000 0.0000 0.0000 79.7075 0.0000 0.0000
# 5 0.0000 0.0000 0.0000 0.0000 18.6184 0.0000
# 6 0.0000 0.0000 0.0000 0.0000 0.0000 27.4248
#
#
#
# Elastic Compliance Matrix: (Units=1/GPa)
#
#
# Indices 1 2 3 4 5 6 
#
# 1 0.012356 -0.006086 -0.004182 0.000000 0.000000 0.000000
# 2 -0.006086 0.017164 -0.010637 0.000000 0.000000 0.000000
# 3 -0.004182 -0.010637 0.040514 0.000000 0.000000 0.000000
# 4 0.000000 0.000000 0.000000 0.012546 0.000000 0.000000
# 5 0.000000 0.000000 0.000000 0.000000 0.053710 0.000000
# 6 0.000000 0.000000 0.000000 0.000000 0.000000 0.036463
#
#
# Mechanical properties :
#
#
# Convention : Reuss Voigt Hill
#
# Bulk Modulus (GPa) = 35.43124 55.17366 45.30245
# Shear Modulus (GPa) = 22.32422 34.16281 28.24351
#
# Velocity S-wave (km/s) = 3.42098 4.23194 3.84788
# Velocity P-wave (km/s) = 5.84623 7.26656 6.59474
#
# Compressibility (1/GPa) = 0.02822368
#
# Stress axis : x y z
#
# Youngs Moduli (GPa) = 80.93333 58.26057 24.68279
#
# Poissons Ratio (x) = 0.35456 0.10322
# Poissons Ratio (y) = 0.49254 0.26256
# Poissons Ratio (z) = 0.33846 0.61975
#
# Static dielectric constant tensor:
#      x y z
#    x 3.725530 0.000000 0.000000 
#    y 0.000000 3.551980 0.000000 
#    z 0.000000 0.000000 1.758510 
# 
# 
# High freq. dielectric constant tensor:
#      x y z
#    x 1.767660 0.000000 0.000000 
#    y 0.000000 1.733200 0.000000 
#    z 0.000000 0.000000 1.680500 
# 
# From -- ./inp_files/31559.got.cif
#   From: 2010.06.25/outbox.cif.g09.slc.cpg/sg52_16_cif.got.tgz:31559.got - 2010.06.26 19:32:48.
