data_PCOD8215234
_publ_section_title
;
Structure prediction by ZEFSAII (Michael W. Deem and Ramdas Pophale) SiO2 
 PCOD8215234
Probable space group: P N N A
;
_chemical_formula_sum "Si O2"
_cell_formula_units_Z 60
_cell_length_a 12.438534
_cell_length_b 24.124194
_cell_length_c 9.154434
_cell_angle_alpha 90.000000
_cell_angle_beta 90.000000
_cell_angle_gamma 90.000000
_cell_volume 2746.967415
_symmetry_space_group_name_H-M "P N N A"
_symmetry_group_IT_number 52
_symmetry_cell_setting 'orthorhombic'
loop_
_space_group_symop_operation_xyz
x,y,z
1/2-x,-y,z
x,1/2-y,1/2-z
1/2-x,1/2+y,1/2-z
-x,-y,-z
1/2+x,y,-z
-x,1/2+y,1/2+z
1/2+x,1/2-y,1/2+z
loop_
_atom_site_type_symbol
_atom_site_label
_atom_site_fract_x
_atom_site_fract_y
_atom_site_fract_z
Si Si1 0.911750 0.533277 0.816526
Si Si2 0.284765 0.556887 0.891004
Si Si3 0.642146 0.610383 0.524672
Si Si4 0.750000 0.000000 0.929128
Si Si5 0.139184 0.856042 0.492767
Si Si6 0.222447 0.186240 0.246627
Si Si7 0.015478 0.647302 0.746906
Si Si8 0.003812 0.417264 0.776098
O O1 0.833168 0.544877 0.949679
O O2 0.842193 0.526303 0.670801
O O3 0.979028 0.477520 0.845320
O O4 0.991006 0.584660 0.796547
O O5 0.250000 0.500000 0.812874
O O6 0.177900 0.591820 0.912545
O O7 0.367557 0.589571 0.784894
O O8 0.705185 0.553233 0.478195
O O9 0.715308 0.650839 0.623660
O O10 0.597098 0.645769 0.389881
O O11 0.536704 0.589313 0.611657
O O12 0.243745 0.831586 0.411332
O O13 0.077568 0.820566 0.619092
O O14 0.051155 0.869963 0.371732
O O15 0.256160 0.250000 0.250000
O O16 0.095570 0.179519 0.216210
#
# Coordination Sequence:
#
# PCOD8215234 Si02
#       8
#     8   8   8   4   8   8   8   8
#     4  11  17  33  57  88 128 176 216 253 307 372
#     4  12  18  30  56  93 129 169 217 266 307 367
#     4  10  24  43  64  94 135 175 212 262 330 401
#     4  10  18  38  62  88 140 180 206 254 322 396
#     4  11  21  38  64  93 123 165 219 266 315 382
#     4  11  25  48  71  91 124 167 216 280 338 382
#     4  12  24  41  67  97 132 169 217 265 324 395
#     4  10  20  34  56  88 132 176 215 257 307 379
#
# _framework density 21.842269000000002
#
# number of rings (size 3 to 8) (size 9 to 14) (size 15 to 20)
#    0.000    1.067    6.000    2.000    0.000    4.267 
#    3.600    0.000    0.000    0.000    0.000    0.000 
#    0.000    0.000    0.000    0.000    0.000    0.000 
#
# Total GULP energy -743591.258418 kJ/mol
# GULP energy per Si atom -12393.187640 kJ/mol
# Density = 2.179256 g / cm^3
# Si number density = 21.842269 Si / 1000 Ang^3
#
#
#
# Elastic Constant Matrix: (Units=GPa)
#
#
# Indices 1 2 3 4 5 6 
#
# 1 100.6326 14.8002 39.7147 0.0000 0.0000 0.0000
# 2 14.8002 78.1355 15.9937 0.0000 0.0000 0.0000
# 3 39.7147 15.9937 70.1640 0.0000 0.0000 0.0000
# 4 0.0000 0.0000 0.0000 9.6619 0.0000 0.0000
# 5 0.0000 0.0000 0.0000 0.0000 28.1506 0.0000
# 6 0.0000 0.0000 0.0000 0.0000 0.0000 16.3896
#
#
#
# Elastic Compliance Matrix: (Units=1/GPa)
#
#
# Indices 1 2 3 4 5 6 
#
# 1 0.012868 -0.000993 -0.007058 0.000000 0.000000 0.000000
# 2 -0.000993 0.013501 -0.002516 0.000000 0.000000 0.000000
# 3 -0.007058 -0.002516 0.018821 0.000000 0.000000 0.000000
# 4 0.000000 0.000000 0.000000 0.103499 0.000000 0.000000
# 5 0.000000 0.000000 0.000000 0.000000 0.035523 0.000000
# 6 0.000000 0.000000 0.000000 0.000000 0.000000 0.061014
#
#
# Mechanical properties :
#
#
# Convention : Reuss Voigt Hill
#
# Bulk Modulus (GPa) = 41.56593 43.32773 42.44683
# Shear Modulus (GPa) = 18.22301 22.73532 20.47916
#
# Velocity S-wave (km/s) = 2.89156 3.22978 3.06534
# Velocity P-wave (km/s) = 5.49723 5.81277 5.65720
#
# Compressibility (1/GPa) = 0.02405816
#
# Stress axis : x y z
#
# Youngs Moduli (GPa) = 77.70952 74.06709 53.13350
#
# Poissons Ratio (x) = 0.07354 0.37499
# Poissons Ratio (y) = 0.07716 0.13366
# Poissons Ratio (z) = 0.54844 0.18632
#
# Static dielectric constant tensor:
#      x y z
#    x 4.134330 0.000000 0.000000 
#    y 0.000000 3.712410 0.000000 
#    z 0.000000 0.000000 3.862830 
# 
# 
# High freq. dielectric constant tensor:
#      x y z
#    x 1.876260 0.000000 0.000000 
#    y 0.000000 1.814920 0.000000 
#    z 0.000000 0.000000 1.853280 
# 
# From -- ./inp_files/9057.got.cif
#   From: 2010.06.25/outbox.cif.g09.slc.cpg/sg52_5_cif.got.tgz:9057.got - 2010.06.26 19:32:48.
