data_PCOD8215794
_publ_section_title
;
Structure prediction by ZEFSAII (Michael W. Deem and Ramdas Pophale) SiO2 
 PCOD8215794
Probable space group: P N N A
;
_chemical_formula_sum "Si O2"
_cell_formula_units_Z 60
_cell_length_a 29.068488
_cell_length_b 7.752375
_cell_length_c 12.261663
_cell_angle_alpha 90.000000
_cell_angle_beta 90.000000
_cell_angle_gamma 90.000000
_cell_volume 2763.163546
_symmetry_space_group_name_H-M "P N N A"
_symmetry_group_IT_number 52
_symmetry_cell_setting 'orthorhombic'
loop_
_space_group_symop_operation_xyz
x,y,z
1/2-x,-y,z
x,1/2-y,1/2-z
1/2-x,1/2+y,1/2-z
-x,-y,-z
1/2+x,y,-z
-x,1/2+y,1/2+z
1/2+x,1/2-y,1/2+z
loop_
_atom_site_type_symbol
_atom_site_label
_atom_site_fract_x
_atom_site_fract_y
_atom_site_fract_z
Si Si1 0.580784 0.203466 0.372349
Si Si2 0.661633 0.732431 0.477528
Si Si3 0.925129 0.296998 0.133297
Si Si4 0.607536 0.893572 0.668477
Si Si5 0.245255 0.297527 0.625144
Si Si6 0.515705 0.823979 0.553855
Si Si7 0.838044 0.660503 0.517200
Si Si8 0.861953 0.750000 0.750000
O O1 0.596775 0.250000 0.250000
O O2 0.528564 0.272216 0.394370
O O3 0.612958 0.290442 0.463779
O O4 0.581533 0.999448 0.386063
O O5 0.624965 0.709929 0.379226
O O6 0.640819 0.874258 0.562156
O O7 0.709936 0.797470 0.426053
O O8 0.668307 0.544414 0.528911
O O9 0.945934 0.250000 0.250000
O O10 0.960166 0.215648 0.044016
O O11 0.626679 0.750000 0.750000
O O12 0.554127 0.857883 0.644952
O O13 0.607694 0.080477 0.725650
O O14 0.250000 0.500000 0.616607
O O15 0.237532 0.250000 0.750000
O O16 0.200668 0.244571 0.555287
O O17 0.500000 0.000000 0.500000
O O18 0.831745 0.725134 0.641259
#
# Coordination Sequence:
#
# PCOD8215794 Si02
#       8
#     8   8   8   8   8   8   8   4
#     4  11  22  40  60  89 128 165 215 275 325 386
#     4  10  21  42  65  93 130 168 221 268 336 395
#     4  10  20  37  59  87 122 167 206 260 326 389
#     4  11  22  43  67  94 131 179 219 274 332 396
#     4  10  23  41  66  97 131 170 220 274 331 399
#     4   9  20  39  59  88 130 165 220 269 324 392
#     4  11  23  42  63  97 129 171 219 275 333 401
#     4  12  24  42  68  98 132 176 224 268 338 394
#
# _framework density 21.714243
#
# number of rings (size 3 to 8) (size 9 to 14) (size 15 to 20)
#    0.000    1.600    1.333    4.400    0.000    4.267 
#   12.000    3.333    0.000    0.000    0.000    0.000 
#    0.000    0.000    0.000    0.000    0.000    0.000 
#
# Total GULP energy -743693.733567 kJ/mol
# GULP energy per Si atom -12394.895559 kJ/mol
# Density = 2.166482 g / cm^3
# Si number density = 21.714243 Si / 1000 Ang^3
#
#
#
# Elastic Constant Matrix: (Units=GPa)
#
#
# Indices 1 2 3 4 5 6 
#
# 1 153.8286 17.0586 69.2444 0.0000 0.0000 0.0000
# 2 17.0586 63.7170 30.7812 0.0000 0.0000 0.0000
# 3 69.2444 30.7812 164.3345 0.0000 0.0000 0.0000
# 4 0.0000 0.0000 0.0000 36.3063 0.0000 0.0000
# 5 0.0000 0.0000 0.0000 0.0000 25.0575 0.0000
# 6 0.0000 0.0000 0.0000 0.0000 0.0000 22.3128
#
#
#
# Elastic Compliance Matrix: (Units=1/GPa)
#
#
# Indices 1 2 3 4 5 6 
#
# 1 0.008041 -0.000567 -0.003282 0.000000 0.000000 0.000000
# 2 -0.000567 0.017296 -0.003001 0.000000 0.000000 0.000000
# 3 -0.003282 -0.003001 0.008030 0.000000 0.000000 0.000000
# 4 0.000000 0.000000 0.000000 0.027543 0.000000 0.000000
# 5 0.000000 0.000000 0.000000 0.000000 0.039908 0.000000
# 6 0.000000 0.000000 0.000000 0.000000 0.000000 0.044817
#
#
# Mechanical properties :
#
#
# Convention : Reuss Voigt Hill
#
# Bulk Modulus (GPa) = 50.84594 68.44981 59.64788
# Shear Modulus (GPa) = 30.14021 34.38836 32.26429
#
# Velocity S-wave (km/s) = 3.72968 3.98386 3.85887
# Velocity P-wave (km/s) = 6.48183 7.26312 6.88357
#
# Compressibility (1/GPa) = 0.01966725
#
# Stress axis : x y z
#
# Youngs Moduli (GPa) = 124.36314 57.81729 124.53208
#
# Poissons Ratio (x) = 0.03280 0.40870
# Poissons Ratio (y) = 0.07055 0.37367
# Poissons Ratio (z) = 0.40815 0.17349
#
# Static dielectric constant tensor:
#      x y z
#    x 2.616510 0.000000 0.000000 
#    y 0.000000 3.721030 0.000000 
#    z 0.000000 0.000000 3.256200 
# 
# 
# High freq. dielectric constant tensor:
#      x y z
#    x 1.847480 0.000000 0.000000 
#    y 0.000000 1.839660 0.000000 
#    z 0.000000 0.000000 1.865970 
# 
# From -- ./inp_files/23145.got.cif
#   From: 2010.06.25/outbox.cif.g09.slc.cpg/sg52_12_cif.got.tgz:23145.got - 2010.06.26 19:32:48.
