data_PCOD8215969
_publ_section_title
;
Structure prediction by ZEFSAII (Michael W. Deem and Ramdas Pophale) SiO2 
 PCOD8215969
Probable space group: P N N A
;
_chemical_formula_sum "Si O2"
_cell_formula_units_Z 40
_cell_length_a 16.096443
_cell_length_b 9.647521
_cell_length_c 11.706236
_cell_angle_alpha 90.000000
_cell_angle_beta 90.000000
_cell_angle_gamma 90.000000
_cell_volume 1817.870424
_symmetry_space_group_name_H-M "P N N A"
_symmetry_group_IT_number 52
_symmetry_cell_setting 'orthorhombic'
loop_
_space_group_symop_operation_xyz
x,y,z
1/2-x,-y,z
x,1/2-y,1/2-z
1/2-x,1/2+y,1/2-z
-x,-y,-z
1/2+x,y,-z
-x,1/2+y,1/2+z
1/2+x,1/2-y,1/2+z
loop_
_atom_site_type_symbol
_atom_site_label
_atom_site_fract_x
_atom_site_fract_y
_atom_site_fract_z
Si Si1 0.276446 0.158157 0.519415
Si Si2 0.942709 0.750000 0.750000
Si Si3 0.416131 0.571639 0.601631
Si Si4 0.190642 0.250000 0.750000
Si Si5 0.543582 0.724817 0.453143
Si Si6 0.188059 0.112124 0.112704
O O1 0.247658 0.204942 0.644959
O O2 0.375137 0.189742 0.509824
O O3 0.232012 0.242194 0.417916
O O4 0.250000 0.000000 0.500047
O O5 0.883789 0.873097 0.794390
O O6 0.993354 0.814398 0.641411
O O7 0.369877 0.623898 0.714903
O O8 0.488260 0.681848 0.563989
O O9 0.446359 0.415900 0.623092
O O10 0.349038 0.548570 0.502360
O O11 0.250000 0.000000 0.165722
#
# Coordination Sequence:
#
# PCOD8215969 Si02
#       6
#     8   4   8   4   8   8
#     4  11  24  38  62  94 128 165 208 267 322 375
#     4  10  23  36  65  96 116 164 218 262 309 374
#     4   9  20  39  63  88 122 171 211 256 324 383
#     4  10  23  36  59  92 120 162 216 262 309 376
#     4  10  20  40  63  90 127 167 209 262 323 384
#     4  10  20  42  62  86 127 170 212 257 317 392
#
# _framework density 22.003769999999999
#
# number of rings (size 3 to 8) (size 9 to 14) (size 15 to 20)
#    0.000    2.000    2.000    0.600    5.600    0.800 
#    3.600    4.000    0.000    0.000    0.000    0.000 
#    0.000    0.000    0.000    0.000    0.000    0.000 
#
# Total GULP energy -495738.049710 kJ/mol
# GULP energy per Si atom -12393.451243 kJ/mol
# Density = 2.195369 g / cm^3
# Si number density = 22.003770 Si / 1000 Ang^3
#
#
#
# Elastic Constant Matrix: (Units=GPa)
#
#
# Indices 1 2 3 4 5 6 
#
# 1 138.7615 38.6430 21.9862 0.0000 0.0000 0.0000
# 2 38.6430 97.1794 17.6528 0.0000 0.0000 0.0000
# 3 21.9862 17.6528 42.0001 0.0000 0.0000 0.0000
# 4 0.0000 0.0000 0.0000 16.3137 0.0000 0.0000
# 5 0.0000 0.0000 0.0000 0.0000 15.9419 0.0000
# 6 0.0000 0.0000 0.0000 0.0000 0.0000 37.6884
#
#
#
# Elastic Compliance Matrix: (Units=1/GPa)
#
#
# Indices 1 2 3 4 5 6 
#
# 1 0.008502 -0.002785 -0.003280 0.000000 0.000000 0.000000
# 2 -0.002785 0.012053 -0.003608 0.000000 0.000000 0.000000
# 3 -0.003280 -0.003608 0.027043 0.000000 0.000000 0.000000
# 4 0.000000 0.000000 0.000000 0.061298 0.000000 0.000000
# 5 0.000000 0.000000 0.000000 0.000000 0.062728 0.000000
# 6 0.000000 0.000000 0.000000 0.000000 0.000000 0.026533
#
#
# Mechanical properties :
#
#
# Convention : Reuss Voigt Hill
#
# Bulk Modulus (GPa) = 35.39596 48.27834 41.83715
# Shear Modulus (GPa) = 22.03416 27.29942 24.66679
#
# Velocity S-wave (km/s) = 3.16789 3.52614 3.35180
# Velocity P-wave (km/s) = 5.43157 6.21021 5.83390
#
# Compressibility (1/GPa) = 0.02825181
#
# Stress axis : x y z
#
# Youngs Moduli (GPa) = 117.62106 82.96635 36.97816
#
# Poissons Ratio (x) = 0.23105 0.12129
# Poissons Ratio (y) = 0.32756 0.13342
# Poissons Ratio (z) = 0.38580 0.29935
#
# Static dielectric constant tensor:
#      x y z
#    x 4.322730 0.000000 0.000000 
#    y 0.000000 3.790850 0.000000 
#    z 0.000000 0.000000 3.803520 
# 
# 
# High freq. dielectric constant tensor:
#      x y z
#    x 1.886760 0.000000 0.000000 
#    y 0.000000 1.843260 0.000000 
#    z 0.000000 0.000000 1.848850 
# 
# From -- ./inp_files/20384.got.cif
#   From: 2010.06.25/outbox.cif.g09.slc.cpg/sg52_11_cif.got.tgz:20384.got - 2010.06.26 19:32:48.
