data_PCOD8215815
_publ_section_title
;
Structure prediction by ZEFSAII (Michael W. Deem and Ramdas Pophale) SiO2 
 PCOD8215815
Probable space group: P N N A
;
_chemical_formula_sum "Si O2"
_cell_formula_units_Z 36
_cell_length_a 12.534263
_cell_length_b 6.017802
_cell_length_c 21.737294
_cell_angle_alpha 90.000000
_cell_angle_beta 90.000000
_cell_angle_gamma 90.000000
_cell_volume 1639.616109
_symmetry_space_group_name_H-M "P N N A"
_symmetry_group_IT_number 52
_symmetry_cell_setting 'orthorhombic'
loop_
_space_group_symop_operation_xyz
x,y,z
1/2-x,-y,z
x,1/2-y,1/2-z
1/2-x,1/2+y,1/2-z
-x,-y,-z
1/2+x,y,-z
-x,1/2+y,1/2+z
1/2+x,1/2-y,1/2+z
loop_
_atom_site_type_symbol
_atom_site_label
_atom_site_fract_x
_atom_site_fract_y
_atom_site_fract_z
Si Si1 0.132802 0.041839 0.829632
Si Si2 0.558773 0.709173 0.437923
Si Si3 0.515942 0.921826 0.650435
Si Si4 0.515650 0.250000 0.750000
Si Si5 0.865662 0.103135 0.936859
O O1 0.085754 0.289710 0.819806
O O2 0.250000 0.000000 0.801695
O O3 0.131867 0.968657 0.901159
O O4 0.053931 0.869973 0.799736
O O5 0.621755 0.755270 0.501924
O O6 0.441896 0.606348 0.447598
O O7 0.539983 0.941782 0.404035
O O8 0.602870 0.750168 0.623077
O O9 0.574791 0.068025 0.705257
O O10 0.750000 0.000000 0.925417
#
# Coordination Sequence:
#
# PCOD8215815 Si02
#       5
#     8   8   8   4   8
#     4  10  21  35  58  89 121 161 200 245 305 372
#     4   9  20  37  57  92 127 157 196 250 310 366
#     4  10  21  38  56  88 122 164 200 257 311 364
#     4  10  22  34  56  86 120 160 202 258 308 362
#     4  10  20  37  62  91 122 165 206 249 306 378
#
# _framework density 21.956361999999999
#
# number of rings (size 3 to 8) (size 9 to 14) (size 15 to 20)
#    0.000    2.222    0.000    2.000    3.111    3.556 
#    0.000    2.222    0.000    0.000  208.000    0.000 
#    0.000    0.000    0.000    0.000    0.000    0.000 
#
# Total GULP energy -445972.245575 kJ/mol
# GULP energy per Si atom -12388.117933 kJ/mol
# Density = 2.190639 g / cm^3
# Si number density = 21.956362 Si / 1000 Ang^3
#
#
#
# Elastic Constant Matrix: (Units=GPa)
#
#
# Indices 1 2 3 4 5 6 
#
# 1 85.2975 41.8272 29.7658 0.0000 0.0000 0.0000
# 2 41.8272 106.9836 40.2954 0.0000 0.0000 0.0000
# 3 29.7658 40.2954 105.5742 0.0000 0.0000 0.0000
# 4 0.0000 0.0000 0.0000 44.2245 0.0000 0.0000
# 5 0.0000 0.0000 0.0000 0.0000 21.6268 0.0000
# 6 0.0000 0.0000 0.0000 0.0000 0.0000 0.3277
#
#
#
# Elastic Compliance Matrix: (Units=1/GPa)
#
#
# Indices 1 2 3 4 5 6 
#
# 1 0.014976 -0.004981 -0.002321 0.000000 0.000000 0.000000
# 2 -0.004981 0.012573 -0.003395 0.000000 0.000000 0.000000
# 3 -0.002321 -0.003395 0.011422 0.000000 0.000000 0.000000
# 4 0.000000 0.000000 0.000000 0.022612 0.000000 0.000000
# 5 0.000000 0.000000 0.000000 0.000000 0.046239 0.000000
# 6 0.000000 0.000000 0.000000 0.000000 0.000000 3.051648
#
#
# Mechanical properties :
#
#
# Convention : Reuss Voigt Hill
#
# Bulk Modulus (GPa) = 56.88961 57.95913 57.42437
# Shear Modulus (GPa) = 1.56901 25.63359 13.60130
#
# Velocity S-wave (km/s) = 0.84626 3.42055 2.49161
# Velocity P-wave (km/s) = 5.18859 6.48498 5.87266
#
# Compressibility (1/GPa) = 0.01757790
#
# Stress axis : x y z
#
# Youngs Moduli (GPa) = 66.77258 79.53447 87.54941
#
# Poissons Ratio (x) = 0.39615 0.20323
# Poissons Ratio (y) = 0.33259 0.29719
# Poissons Ratio (z) = 0.15500 0.26999
#
# Static dielectric constant tensor:
#      x y z
#    x 3.500550 0.000000 0.000000 
#    y 0.000000 4.084970 0.000000 
#    z 0.000000 0.000000 4.720660 
# 
# 
# High freq. dielectric constant tensor:
#      x y z
#    x 1.812880 0.000000 0.000000 
#    y 0.000000 1.872200 0.000000 
#    z 0.000000 0.000000 1.882070 
# 
# From -- ./inp_files/39906.got.cif
#   From: 2010.06.25/outbox.cif.g09.slc.cpg/sg52_20_cif.got.tgz:39906.got - 2010.06.26 19:32:48.
