data_PCOD8215057
_publ_section_title
;
Structure prediction by ZEFSAII (Michael W. Deem and Ramdas Pophale) SiO2 
 PCOD8215057
Probable space group: P N N A
;
_chemical_formula_sum "Si O2"
_cell_formula_units_Z 40
_cell_length_a 5.051517
_cell_length_b 18.800524
_cell_length_c 22.938087
_cell_angle_alpha 90.000000
_cell_angle_beta 90.000000
_cell_angle_gamma 90.000000
_cell_volume 2178.456882
_symmetry_space_group_name_H-M "P N N A"
_symmetry_group_IT_number 52
_symmetry_cell_setting 'orthorhombic'
loop_
_space_group_symop_operation_xyz
x,y,z
1/2-x,-y,z
x,1/2-y,1/2-z
1/2-x,1/2+y,1/2-z
-x,-y,-z
1/2+x,y,-z
-x,1/2+y,1/2+z
1/2+x,1/2-y,1/2+z
loop_
_atom_site_type_symbol
_atom_site_label
_atom_site_fract_x
_atom_site_fract_y
_atom_site_fract_z
Si Si1 0.183335 0.925664 0.806139
Si Si2 0.204640 0.688732 0.141669
Si Si3 0.316952 0.072693 0.266788
Si Si4 0.281084 0.920251 0.461861
Si Si5 0.196610 0.732696 0.680228
O O1 0.373794 0.927904 0.749227
O O2 0.249436 0.850251 0.835983
O O3 0.873520 0.925919 0.790012
O O4 0.250000 0.000000 0.841713
O O5 0.263079 0.640271 0.196950
O O6 0.221995 0.641467 0.084130
O O7 0.423424 0.749757 0.147517
O O8 0.916769 0.722665 0.146398
O O9 0.250000 0.000000 0.301937
O O10 0.579431 0.910680 0.484434
O O11 0.250000 0.000000 0.434980
O O12 0.195608 0.750000 0.750000
#
# Coordination Sequence:
#
# PCOD8215057 Si02
#       5
#     8   8   8   8   8
#     4  10  20  32  45  66 102 142 172 203 248 302
#     4  12  21  33  54  76 103 140 183 219 268 320
#     4  10  18  29  45  68  97 135 177 207 239 302
#     4  10  22  40  58  79 110 144 184 234 278 316
#     4  12  21  33  50  76 110 140 177 225 261 314
#
# _framework density 18.361619999999998
#
# number of rings (size 3 to 8) (size 9 to 14) (size 15 to 20)
#    0.000    1.200    4.000    3.600    0.000    0.000 
#    0.000    8.000    0.000    0.000    0.000    0.000 
#    0.000   16.000    0.000    0.000    0.000    0.000 
#
# Total GULP energy -495573.183320 kJ/mol
# GULP energy per Si atom -12389.329583 kJ/mol
# Density = 1.831983 g / cm^3
# Si number density = 18.361620 Si / 1000 Ang^3
#
#
#
# Elastic Constant Matrix: (Units=GPa)
#
#
# Indices 1 2 3 4 5 6 
#
# 1 73.2566 1.3043 10.5375 0.0000 0.0000 0.0000
# 2 1.3043 132.1819 27.3947 0.0000 0.0000 0.0000
# 3 10.5375 27.3947 38.1768 0.0000 0.0000 0.0000
# 4 0.0000 0.0000 0.0000 30.4121 0.0000 0.0000
# 5 0.0000 0.0000 0.0000 0.0000 15.6928 0.0000
# 6 0.0000 0.0000 0.0000 0.0000 0.0000 34.1793
#
#
#
# Elastic Compliance Matrix: (Units=1/GPa)
#
#
# Indices 1 2 3 4 5 6 
#
# 1 0.014286 0.000794 -0.004513 0.000000 0.000000 0.000000
# 2 0.000794 0.008931 -0.006628 0.000000 0.000000 0.000000
# 3 -0.004513 -0.006628 0.032196 0.000000 0.000000 0.000000
# 4 0.000000 0.000000 0.000000 0.032882 0.000000 0.000000
# 5 0.000000 0.000000 0.000000 0.000000 0.063724 0.000000
# 6 0.000000 0.000000 0.000000 0.000000 0.000000 0.029257
#
#
# Mechanical properties :
#
#
# Convention : Reuss Voigt Hill
#
# Bulk Modulus (GPa) = 28.80268 35.78758 32.29513
# Shear Modulus (GPa) = 23.41462 29.68210 26.54836
#
# Velocity S-wave (km/s) = 3.57486 4.02497 3.80657
# Velocity P-wave (km/s) = 5.72363 6.41352 6.07837
#
# Compressibility (1/GPa) = 0.03471900
#
# Stress axis : x y z
#
# Youngs Moduli (GPa) = 70.00012 111.96770 31.06004
#
# Poissons Ratio (x) = -0.08895 0.14018
# Poissons Ratio (y) = -0.05561 0.20587
# Poissons Ratio (z) = 0.31592 0.74212
#
# Static dielectric constant tensor:
#      x y z
#    x 3.521090 0.000000 0.000000 
#    y 0.000000 3.937430 0.000000 
#    z 0.000000 0.000000 2.719390 
# 
# 
# High freq. dielectric constant tensor:
#      x y z
#    x 1.739840 0.000000 0.000000 
#    y 0.000000 1.740160 0.000000 
#    z 0.000000 0.000000 1.622530 
# 
# From -- ./inp_files/30127.got.cif
#   From: 2010.06.25/outbox.cif.g09.slc.cpg/sg52_16_cif.got.tgz:30127.got - 2010.06.26 19:32:48.
