data_PCOD8215007
_publ_section_title
;
Structure prediction by ZEFSAII (Michael W. Deem and Ramdas Pophale) SiO2 
 PCOD8215007
Probable space group: P N N A
;
_chemical_formula_sum "Si O2"
_cell_formula_units_Z 52
_cell_length_a 8.981503
_cell_length_b 14.437016
_cell_length_c 25.630857
_cell_angle_alpha 90.000000
_cell_angle_beta 90.000000
_cell_angle_gamma 90.000000
_cell_volume 3323.453331
_symmetry_space_group_name_H-M "P N N A"
_symmetry_group_IT_number 52
_symmetry_cell_setting 'orthorhombic'
loop_
_space_group_symop_operation_xyz
x,y,z
1/2-x,-y,z
x,1/2-y,1/2-z
1/2-x,1/2+y,1/2-z
-x,-y,-z
1/2+x,y,-z
-x,1/2+y,1/2+z
1/2+x,1/2-y,1/2+z
loop_
_atom_site_type_symbol
_atom_site_label
_atom_site_fract_x
_atom_site_fract_y
_atom_site_fract_z
Si Si1 0.934009 0.745689 0.178806
Si Si2 0.853482 0.873607 0.408135
Si Si3 0.622248 0.431629 0.980577
Si Si4 0.468654 0.071434 0.617816
Si Si5 0.592318 0.613971 0.742649
Si Si6 0.337604 0.250000 0.750000
Si Si7 0.928730 0.593765 0.767225
O O1 0.929921 0.717777 0.117422
O O2 0.764756 0.758226 0.198743
O O3 0.003009 0.659398 0.209997
O O4 0.035006 0.837206 0.188821
O O5 0.835004 0.862899 0.471137
O O6 0.693717 0.883131 0.380195
O O7 0.953666 0.962442 0.394495
O O8 0.750000 0.500000 0.962345
O O9 0.563414 0.378753 0.928887
O O10 0.500000 0.500000 0.000000
O O11 0.561134 0.085815 0.670372
O O12 0.767583 0.632847 0.750845
O O13 0.550884 0.506150 0.740324
O O14 0.441175 0.340390 0.747205
#
# Coordination Sequence:
#
# PCOD8215007 Si02
#       7
#     8   8   8   8   8   4   8
#     4  10  19  32  46  68  89 129 168 206 233 287
#     4  10  17  31  46  65  95 127 165 204 228 286
#     4  10  18  28  43  67  97 125 164 204 232 285
#     4  10  19  28  46  69  91 132 168 188 243 290
#     4   9  21  30  45  67  97 123 166 193 245 288
#     4  10  20  28  50  66  92 124 168 204 238 286
#     4  11  19  33  46  68  97 133 156 206 239 299
#
# _framework density 15.646376999999999
#
# number of rings (size 3 to 8) (size 9 to 14) (size 15 to 20)
#    0.000    2.154    6.154    0.923    2.154    2.462 
#    0.000    0.000    0.000    0.000    0.000    0.000 
#    0.000    1.231    0.308    0.000    0.000    0.000 
#
# Total GULP energy -644237.934056 kJ/mol
# GULP energy per Si atom -12389.191040 kJ/mol
# Density = 1.561076 g / cm^3
# Si number density = 15.646377 Si / 1000 Ang^3
#
#
#
# Elastic Constant Matrix: (Units=GPa)
#
#
# Indices 1 2 3 4 5 6 
#
# 1 99.8441 40.2734 27.3562 0.0000 0.0000 0.0000
# 2 40.2734 69.0246 38.7475 0.0000 0.0000 0.0000
# 3 27.3562 38.7475 87.4104 0.0000 0.0000 0.0000
# 4 0.0000 0.0000 0.0000 12.3755 0.0000 0.0000
# 5 0.0000 0.0000 0.0000 0.0000 16.3486 0.0000
# 6 0.0000 0.0000 0.0000 0.0000 0.0000 24.7508
#
#
#
# Elastic Compliance Matrix: (Units=1/GPa)
#
#
# Indices 1 2 3 4 5 6 
#
# 1 0.013157 -0.007143 -0.000952 0.000000 0.000000 0.000000
# 2 -0.007143 0.023165 -0.008033 0.000000 0.000000 0.000000
# 3 -0.000952 -0.008033 0.015299 0.000000 0.000000 0.000000
# 4 0.000000 0.000000 0.000000 0.080805 0.000000 0.000000
# 5 0.000000 0.000000 0.000000 0.000000 0.061167 0.000000
# 6 0.000000 0.000000 0.000000 0.000000 0.000000 0.040403
#
#
# Mechanical properties :
#
#
# Convention : Reuss Voigt Hill
#
# Bulk Modulus (GPa) = 51.63598 52.11483 51.87540
# Shear Modulus (GPa) = 18.33476 20.68845 19.51161
#
# Velocity S-wave (km/s) = 3.42690 3.64022 3.53517
# Velocity P-wave (km/s) = 6.98081 7.14483 7.06329
#
# Compressibility (1/GPa) = 0.01936634
#
# Stress axis : x y z
#
# Youngs Moduli (GPa) = 76.00259 43.16944 65.36383
#
# Poissons Ratio (x) = 0.30835 0.06220
# Poissons Ratio (y) = 0.54287 0.52507
# Poissons Ratio (z) = 0.07232 0.34678
#
# Static dielectric constant tensor:
#      x y z
#    x 3.223160 0.000000 0.000000 
#    y 0.000000 2.814870 0.000000 
#    z 0.000000 0.000000 2.061850 
# 
# 
# High freq. dielectric constant tensor:
#      x y z
#    x 1.620520 0.000000 0.000000 
#    y 0.000000 1.557180 0.000000 
#    z 0.000000 0.000000 1.582910 
# 
# From -- ./inp_files/42377.got.cif
#   From: 2010.06.25/outbox.cif.g09.slc.cpg/sg52_22_cif.got.tgz:42377.got - 2010.06.26 19:32:48.
