data_PCOD8215929
_publ_section_title
;
Structure prediction by ZEFSAII (Michael W. Deem and Ramdas Pophale) SiO2 
 PCOD8215929
Probable space group: P N N A
;
_chemical_formula_sum "Si O2"
_cell_formula_units_Z 48
_cell_length_a 11.297919
_cell_length_b 8.139804
_cell_length_c 22.478376
_cell_angle_alpha 90.000000
_cell_angle_beta 90.000000
_cell_angle_gamma 90.000000
_cell_volume 2067.175436
_symmetry_space_group_name_H-M "P N N A"
_symmetry_group_IT_number 52
_symmetry_cell_setting 'orthorhombic'
loop_
_space_group_symop_operation_xyz
x,y,z
1/2-x,-y,z
x,1/2-y,1/2-z
1/2-x,1/2+y,1/2-z
-x,-y,-z
1/2+x,y,-z
-x,1/2+y,1/2+z
1/2+x,1/2-y,1/2+z
loop_
_atom_site_type_symbol
_atom_site_label
_atom_site_fract_x
_atom_site_fract_y
_atom_site_fract_z
Si Si1 0.170815 0.846818 0.889896
Si Si2 0.002755 0.412591 0.877761
Si Si3 0.914735 0.760347 0.903428
Si Si4 0.809463 0.673705 0.022027
Si Si5 0.852290 0.395127 0.209258
Si Si6 0.717329 0.689971 0.816942
O O1 0.202644 0.788400 0.955868
O O2 0.206330 0.694843 0.847308
O O3 0.028282 0.877014 0.889069
O O4 0.250000 0.000000 0.869219
O O5 0.095029 0.333496 0.924003
O O6 0.051379 0.476318 0.813692
O O7 0.951314 0.570528 0.910716
O O8 0.900232 0.284766 0.857955
O O9 0.822170 0.791024 0.849708
O O10 0.858826 0.785120 0.968305
O O11 0.750000 0.500000 0.003105
O O12 0.750000 0.500000 0.242930
O O13 0.908208 0.250000 0.250000
O O14 0.750000 0.500000 0.815271
O O15 0.697927 0.750000 0.750000
#
# Coordination Sequence:
#
# PCOD8215929 Si02
#       6
#     8   8   8   8   8   8
#     4  11  24  42  60  96 135 173 219 278 344 407
#     4  10  20  39  63  99 123 165 224 279 338 405
#     4  10  23  38  70  95 125 177 224 287 340 405
#     4  12  20  40  69  96 132 165 233 286 343 413
#     4  11  21  40  63  97 131 175 224 277 344 409
#     4  10  23  44  64  95 131 175 230 273 347 421
#
# _framework density 23.220091
#
# number of rings (size 3 to 8) (size 9 to 14) (size 15 to 20)
#    0.000    1.333    5.000    2.500    2.333    7.333 
#    6.000    0.833    0.000    0.000    0.000    0.000 
#    0.000    0.000    0.000    0.000    0.000    0.000 
#
# Total GULP energy -594718.158915 kJ/mol
# GULP energy per Si atom -12389.961644 kJ/mol
# Density = 2.316724 g / cm^3
# Si number density = 23.220091 Si / 1000 Ang^3
#
#
#
# Elastic Constant Matrix: (Units=GPa)
#
#
# Indices 1 2 3 4 5 6 
#
# 1 140.5993 34.6678 47.5449 0.0000 0.0000 0.0000
# 2 34.6678 33.4930 5.6070 0.0000 0.0000 0.0000
# 3 47.5449 5.6070 112.9658 0.0000 0.0000 0.0000
# 4 0.0000 0.0000 0.0000 23.2598 0.0000 0.0000
# 5 0.0000 0.0000 0.0000 0.0000 130.0345 0.0000
# 6 0.0000 0.0000 0.0000 0.0000 0.0000 34.5753
#
#
#
# Elastic Compliance Matrix: (Units=1/GPa)
#
#
# Indices 1 2 3 4 5 6 
#
# 1 0.011215 -0.010909 -0.004179 0.000000 0.000000 0.000000
# 2 -0.010909 0.040719 0.002570 0.000000 0.000000 0.000000
# 3 -0.004179 0.002570 0.010483 0.000000 0.000000 0.000000
# 4 0.000000 0.000000 0.000000 0.042993 0.000000 0.000000
# 5 0.000000 0.000000 0.000000 0.000000 0.007690 0.000000
# 6 0.000000 0.000000 0.000000 0.000000 0.000000 0.028922
#
#
# Mechanical properties :
#
#
# Convention : Reuss Voigt Hill
#
# Bulk Modulus (GPa) = 26.75074 51.41081 39.08078
# Shear Modulus (GPa) = 27.85220 50.85648 39.35434
#
# Velocity S-wave (km/s) = 3.46712 4.68503 4.12131
# Velocity P-wave (km/s) = 5.25104 7.17319 6.28602
#
# Compressibility (1/GPa) = 0.03738215
#
# Stress axis : x y z
#
# Youngs Moduli (GPa) = 89.16270 24.55876 95.38847
#
# Poissons Ratio (x) = 0.26792 0.39862
# Poissons Ratio (y) = 0.97270 -0.24519
# Poissons Ratio (z) = 0.37260 -0.06313
#
# Static dielectric constant tensor:
#      x y z
#    x 4.536720 0.000000 0.000000 
#    y 0.000000 3.753910 0.000000 
#    z 0.000000 0.000000 4.125660 
# 
# 
# High freq. dielectric constant tensor:
#      x y z
#    x 1.927950 0.000000 0.000000 
#    y 0.000000 1.877000 0.000000 
#    z 0.000000 0.000000 1.920420 
# 
# From -- ./inp_files/40149.got.cif
#   From: 2010.06.25/outbox.cif.g09.slc.cpg/sg52_21_cif.got.tgz:40149.got - 2010.06.26 19:32:48.
