data_PCOD8215074
_publ_section_title
;
Structure prediction by ZEFSAII (Michael W. Deem and Ramdas Pophale) SiO2 
 PCOD8215074
Probable space group: P N N A
;
_chemical_formula_sum "Si O2"
_cell_formula_units_Z 40
_cell_length_a 14.123147
_cell_length_b 8.179836
_cell_length_c 19.898377
_cell_angle_alpha 90.000000
_cell_angle_beta 90.000000
_cell_angle_gamma 90.000000
_cell_volume 2298.760526
_symmetry_space_group_name_H-M "P N N A"
_symmetry_group_IT_number 52
_symmetry_cell_setting 'orthorhombic'
loop_
_space_group_symop_operation_xyz
x,y,z
1/2-x,-y,z
x,1/2-y,1/2-z
1/2-x,1/2+y,1/2-z
-x,-y,-z
1/2+x,y,-z
-x,1/2+y,1/2+z
1/2+x,1/2-y,1/2+z
loop_
_atom_site_type_symbol
_atom_site_label
_atom_site_fract_x
_atom_site_fract_y
_atom_site_fract_z
Si Si1 0.607104 0.396750 0.336276
Si Si2 0.346197 0.067963 0.507770
Si Si3 0.543298 0.910527 0.285984
Si Si4 0.193489 0.731380 0.635029
Si Si5 0.996127 0.621276 0.093040
O O1 0.563662 0.437331 0.263237
O O2 0.702058 0.288415 0.334195
O O3 0.632685 0.566227 0.372239
O O4 0.527244 0.298375 0.376621
O O5 0.306842 0.200224 0.560122
O O6 0.407842 0.147399 0.448564
O O7 0.250000 0.000000 0.474288
O O8 0.409651 0.931642 0.544990
O O9 0.494079 0.750000 0.250000
O O10 0.645365 0.854410 0.312796
O O11 0.484354 0.983530 0.348963
#
# Coordination Sequence:
#
# PCOD8215074 Si02
#       5
#     8   8   8   8   8
#     4  10  18  30  49  77 107 132 170 214 260 325
#     4  10  19  36  51  69 103 135 179 212 250 314
#     4   9  19  31  47  74 107 131 162 211 266 316
#     4   9  19  31  47  76 106 141 164 210 270 311
#     4  10  20  31  53  75  95 141 171 210 261 305
#
# _framework density 17.400680999999999
#
# number of rings (size 3 to 8) (size 9 to 14) (size 15 to 20)
#    0.000    2.400    2.000    0.600    0.000   10.400 
#    0.000    0.000    0.000    2.400    0.000    0.000 
#    0.000    0.000    0.000    0.000    0.000    0.000 
#
# Total GULP energy -495749.753978 kJ/mol
# GULP energy per Si atom -12393.743849 kJ/mol
# Density = 1.736108 g / cm^3
# Si number density = 17.400681 Si / 1000 Ang^3
#
#
#
# Elastic Constant Matrix: (Units=GPa)
#
#
# Indices 1 2 3 4 5 6 
#
# 1 67.1254 20.3655 39.3409 0.0000 0.0000 0.0000
# 2 20.3655 54.5642 27.2745 0.0000 0.0000 0.0000
# 3 39.3409 27.2745 84.4486 0.0000 0.0000 0.0000
# 4 0.0000 0.0000 0.0000 28.2740 0.0000 0.0000
# 5 0.0000 0.0000 0.0000 0.0000 13.9819 0.0000
# 6 0.0000 0.0000 0.0000 0.0000 0.0000 17.2848
#
#
#
# Elastic Compliance Matrix: (Units=1/GPa)
#
#
# Indices 1 2 3 4 5 6 
#
# 1 0.021046 -0.003523 -0.008666 0.000000 0.000000 0.000000
# 2 -0.003523 0.022445 -0.005608 0.000000 0.000000 0.000000
# 3 -0.008666 -0.005608 0.017690 0.000000 0.000000 0.000000
# 4 0.000000 0.000000 0.000000 0.035368 0.000000 0.000000
# 5 0.000000 0.000000 0.000000 0.000000 0.071521 0.000000
# 6 0.000000 0.000000 0.000000 0.000000 0.000000 0.057854
#
#
# Mechanical properties :
#
#
# Convention : Reuss Voigt Hill
#
# Bulk Modulus (GPa) = 39.08379 42.23334 40.65856
# Shear Modulus (GPa) = 18.51526 19.85196 19.18361
#
# Velocity S-wave (km/s) = 3.26552 3.38135 3.32394
# Velocity P-wave (km/s) = 6.06036 6.29034 6.17642
#
# Compressibility (1/GPa) = 0.02558606
#
# Stress axis : x y z
#
# Youngs Moduli (GPa) = 47.51593 44.55304 56.52908
#
# Poissons Ratio (x) = 0.15696 0.48990
# Poissons Ratio (y) = 0.16740 0.31701
# Poissons Ratio (z) = 0.41179 0.24985
#
# Static dielectric constant tensor:
#      x y z
#    x 2.903150 0.000000 0.000000 
#    y 0.000000 3.431950 0.000000 
#    z 0.000000 0.000000 3.318290 
# 
# 
# High freq. dielectric constant tensor:
#      x y z
#    x 1.626580 0.000000 0.000000 
#    y 0.000000 1.679930 0.000000 
#    z 0.000000 0.000000 1.670190 
# 
# From -- ./inp_files/32848.got.cif
#   From: 2010.06.25/outbox.cif.g09.slc.cpg/sg52_17_cif.got.tgz:32848.got - 2010.06.26 19:32:48.
