data_PCOD8215470
_publ_section_title
;
Structure prediction by ZEFSAII (Michael W. Deem and Ramdas Pophale) SiO2 
 PCOD8215470
Probable space group: P N N A
;
_chemical_formula_sum "Si O2"
_cell_formula_units_Z 64
_cell_length_a 16.250951
_cell_length_b 11.971845
_cell_length_c 14.546145
_cell_angle_alpha 90.000000
_cell_angle_beta 90.000000
_cell_angle_gamma 90.000000
_cell_volume 2830.008752
_symmetry_space_group_name_H-M "P N N A"
_symmetry_group_IT_number 52
_symmetry_cell_setting 'orthorhombic'
loop_
_space_group_symop_operation_xyz
x,y,z
1/2-x,-y,z
x,1/2-y,1/2-z
1/2-x,1/2+y,1/2-z
-x,-y,-z
1/2+x,y,-z
-x,1/2+y,1/2+z
1/2+x,1/2-y,1/2+z
loop_
_atom_site_type_symbol
_atom_site_label
_atom_site_fract_x
_atom_site_fract_y
_atom_site_fract_z
Si Si1 0.369403 0.512123 0.081690
Si Si2 0.364603 0.192382 0.542446
Si Si3 0.386082 0.375430 0.244824
Si Si4 0.598592 0.906415 0.948177
Si Si5 0.092798 0.113317 0.932025
Si Si6 0.568977 0.069292 0.273716
Si Si7 0.495674 0.340915 0.820911
Si Si8 0.184352 0.336724 0.933454
O O1 0.333083 0.448916 0.172072
O O2 0.439427 0.597683 0.114175
O O3 0.399883 0.416392 0.010757
O O4 0.305065 0.587751 0.025813
O O5 0.351385 0.294787 0.472433
O O6 0.432399 0.228576 0.616666
O O7 0.278704 0.175696 0.597329
O O8 0.351156 0.250000 0.250000
O O9 0.381520 0.438106 0.342619
O O10 0.481011 0.370425 0.208608
O O11 0.502489 0.877373 0.958503
O O12 0.628718 0.006562 0.013606
O O13 0.107954 0.105839 0.822859
O O14 0.141760 0.221995 0.964810
O O15 0.631429 0.102470 0.354707
O O16 0.555905 0.936296 0.267753
O O17 0.534696 0.250000 0.750000
#
# Coordination Sequence:
#
# PCOD8215470 Si02
#       8
#     8   8   8   8   8   8   8   8
#     4  11  24  41  69  95 130 180 226 278 329 402
#     4  12  24  42  68  95 139 180 223 271 344 413
#     4  10  19  36  68  96 119 163 227 281 328 388
#     4  10  21  41  71  98 128 174 228 288 332 390
#     4  10  22  41  67 100 136 172 226 280 337 399
#     4  10  21  37  63  99 132 174 218 268 339 408
#     4  11  24  40  66 102 132 169 224 294 338 385
#     4  12  25  40  64  97 140 183 222 267 333 425
#
# _framework density 22.614771000000001
#
# number of rings (size 3 to 8) (size 9 to 14) (size 15 to 20)
#    0.000    1.250    2.500    4.125    3.500    5.500 
#    0.000    1.250   13.750    0.000    0.000    0.000 
#    0.000    0.000    0.000    0.000    0.000    0.000 
#
# Total GULP energy -793405.166388 kJ/mol
# GULP energy per Si atom -12396.955725 kJ/mol
# Density = 2.256330 g / cm^3
# Si number density = 22.614771 Si / 1000 Ang^3
#
#
#
# Elastic Constant Matrix: (Units=GPa)
#
#
# Indices 1 2 3 4 5 6 
#
# 1 38.3675 25.5618 27.5606 0.0000 0.0000 0.0000
# 2 25.5618 136.5586 47.5771 0.0000 0.0000 0.0000
# 3 27.5606 47.5771 90.2442 0.0000 0.0000 0.0000
# 4 0.0000 0.0000 0.0000 45.9643 0.0000 0.0000
# 5 0.0000 0.0000 0.0000 0.0000 15.5378 0.0000
# 6 0.0000 0.0000 0.0000 0.0000 0.0000 20.3871
#
#
#
# Elastic Compliance Matrix: (Units=1/GPa)
#
#
# Indices 1 2 3 4 5 6 
#
# 1 0.034652 -0.003429 -0.008775 0.000000 0.000000 0.000000
# 2 -0.003429 0.009310 -0.003861 0.000000 0.000000 0.000000
# 3 -0.008775 -0.003861 0.015796 0.000000 0.000000 0.000000
# 4 0.000000 0.000000 0.000000 0.021756 0.000000 0.000000
# 5 0.000000 0.000000 0.000000 0.000000 0.064359 0.000000
# 6 0.000000 0.000000 0.000000 0.000000 0.000000 0.049051
#
#
# Mechanical properties :
#
#
# Convention : Reuss Voigt Hill
#
# Bulk Modulus (GPa) = 36.19497 51.84102 44.01800
# Shear Modulus (GPa) = 21.16289 27.34256 24.25272
#
# Velocity S-wave (km/s) = 3.06240 3.48092 3.27835
# Velocity P-wave (km/s) = 5.34267 6.25532 5.81692
#
# Compressibility (1/GPa) = 0.02762815
#
# Stress axis : x y z
#
# Youngs Moduli (GPa) = 28.85875 107.41246 63.30580
#
# Poissons Ratio (x) = 0.36833 0.55549
# Poissons Ratio (y) = 0.09896 0.24442
# Poissons Ratio (z) = 0.25323 0.41471
#
# Static dielectric constant tensor:
#      x y z
#    x 3.596380 0.000000 0.000000 
#    y 0.000000 4.245260 0.000000 
#    z 0.000000 0.000000 4.198160 
# 
# 
# High freq. dielectric constant tensor:
#      x y z
#    x 1.850650 0.000000 0.000000 
#    y 0.000000 1.905870 0.000000 
#    z 0.000000 0.000000 1.899440 
# 
# From -- ./inp_files/28300.got.cif
#   From: 2010.06.25/outbox.cif.g09.slc.cpg/sg52_15_cif.got.tgz:28300.got - 2010.06.26 19:32:48.
