data_PCOD8215410
_publ_section_title
;
Structure prediction by ZEFSAII (Michael W. Deem and Ramdas Pophale) SiO2 
 PCOD8215410
Probable space group: P N N A
;
_chemical_formula_sum "Si O2"
_cell_formula_units_Z 48
_cell_length_a 16.026395
_cell_length_b 15.579186
_cell_length_c 9.193690
_cell_angle_alpha 90.000000
_cell_angle_beta 90.000000
_cell_angle_gamma 90.000000
_cell_volume 2295.463866
_symmetry_space_group_name_H-M "P N N A"
_symmetry_group_IT_number 52
_symmetry_cell_setting 'orthorhombic'
loop_
_space_group_symop_operation_xyz
x,y,z
1/2-x,-y,z
x,1/2-y,1/2-z
1/2-x,1/2+y,1/2-z
-x,-y,-z
1/2+x,y,-z
-x,1/2+y,1/2+z
1/2+x,1/2-y,1/2+z
loop_
_atom_site_type_symbol
_atom_site_label
_atom_site_fract_x
_atom_site_fract_y
_atom_site_fract_z
Si Si1 0.733304 0.094635 0.380056
Si Si2 0.449642 0.841563 0.679062
Si Si3 0.970718 0.091008 0.948978
Si Si4 0.285708 0.092540 0.940927
Si Si5 0.536392 0.248535 0.593063
Si Si6 0.226915 0.256730 0.090902
O O1 0.635508 0.105130 0.341591
O O2 0.788020 0.102276 0.233015
O O3 0.766346 0.166480 0.493777
O O4 0.750000 0.000000 0.447397
O O5 0.424885 0.750000 0.750000
O O6 0.514042 0.896715 0.776047
O O7 0.497679 0.820930 0.525518
O O8 0.875820 0.107796 0.989775
O O9 0.030972 0.156465 0.030746
O O10 0.000000 0.000000 0.000000
O O11 0.250000 0.000000 0.987795
O O12 0.228465 0.166762 0.006993
O O13 0.489664 0.250000 0.750000
O O14 0.631201 0.219193 0.616272
O O15 0.271488 0.250000 0.250000
#
# Coordination Sequence:
#
# PCOD8215410 Si02
#       6
#     8   8   8   8   8   8
#     4  10  19  35  59  87 116 152 195 236 287 348
#     4   9  18  36  60  81 113 155 190 235 292 348
#     4  11  21  35  56  82 111 147 193 241 288 344
#     4  11  22  36  57  84 114 151 196 241 289 346
#     4   9  19  37  59  82 111 148 189 232 290 352
#     4  10  21  37  58  84 117 153 189 239 296 346
#
# _framework density 20.910806999999998
#
# number of rings (size 3 to 8) (size 9 to 14) (size 15 to 20)
#    0.000    2.000    0.000    6.500    0.000    4.000 
#    0.000    2.500    0.000    0.000    0.000    0.000 
#    0.000    0.000    0.000    0.000    0.000    0.000 
#
# Total GULP energy -594927.928477 kJ/mol
# GULP energy per Si atom -12394.331843 kJ/mol
# Density = 2.086321 g / cm^3
# Si number density = 20.910807 Si / 1000 Ang^3
#
#
#
# Elastic Constant Matrix: (Units=GPa)
#
#
# Indices 1 2 3 4 5 6 
#
# 1 62.2882 16.6792 35.0822 0.0000 0.0000 0.0000
# 2 16.6792 149.4551 81.1778 0.0000 0.0000 0.0000
# 3 35.0822 81.1778 178.8560 0.0000 0.0000 0.0000
# 4 0.0000 0.0000 0.0000 29.0801 0.0000 0.0000
# 5 0.0000 0.0000 0.0000 0.0000 20.6780 0.0000
# 6 0.0000 0.0000 0.0000 0.0000 0.0000 20.8576
#
#
#
# Elastic Compliance Matrix: (Units=1/GPa)
#
#
# Indices 1 2 3 4 5 6 
#
# 1 0.018050 -0.000121 -0.003485 0.000000 0.000000 0.000000
# 2 -0.000121 0.008881 -0.004007 0.000000 0.000000 0.000000
# 3 -0.003485 -0.004007 0.008093 0.000000 0.000000 0.000000
# 4 0.000000 0.000000 0.000000 0.034388 0.000000 0.000000
# 5 0.000000 0.000000 0.000000 0.000000 0.048361 0.000000
# 6 0.000000 0.000000 0.000000 0.000000 0.000000 0.047944
#
#
# Mechanical properties :
#
#
# Convention : Reuss Voigt Hill
#
# Bulk Modulus (GPa) = 50.51286 72.94196 61.72741
# Shear Modulus (GPa) = 26.66051 31.30048 28.98050
#
# Velocity S-wave (km/s) = 3.57454 3.87312 3.72682
# Velocity P-wave (km/s) = 6.42224 7.41347 6.93559
#
# Compressibility (1/GPa) = 0.01979694
#
# Stress axis : x y z
#
# Youngs Moduli (GPa) = 55.40181 112.60041 123.55689
#
# Poissons Ratio (x) = 0.01365 0.43065
# Poissons Ratio (y) = 0.00672 0.49510
# Poissons Ratio (z) = 0.19310 0.45120
#
# Static dielectric constant tensor:
#      x y z
#    x 4.488410 0.000000 0.000000 
#    y 0.000000 3.816470 0.000000 
#    z 0.000000 0.000000 4.438830 
# 
# 
# High freq. dielectric constant tensor:
#      x y z
#    x 1.788870 0.000000 0.000000 
#    y 0.000000 1.819100 0.000000 
#    z 0.000000 0.000000 1.832180 
# 
# From -- ./inp_files/12046.got.cif
#   From: 2010.06.25/outbox.cif.g09.slc.cpg/sg52_7_cif.got.tgz:12046.got - 2010.06.26 19:32:48.
