data_PCOD8215800
_publ_section_title
;
Structure prediction by ZEFSAII (Michael W. Deem and Ramdas Pophale) SiO2 
 PCOD8215800
Probable space group: P N N A
;
_chemical_formula_sum "Si O2"
_cell_formula_units_Z 24
_cell_length_a 5.155895
_cell_length_b 11.439509
_cell_length_c 21.480878
_cell_angle_alpha 90.000000
_cell_angle_beta 90.000000
_cell_angle_gamma 90.000000
_cell_volume 1266.961673
_symmetry_space_group_name_H-M "P N N A"
_symmetry_group_IT_number 52
_symmetry_cell_setting 'orthorhombic'
loop_
_space_group_symop_operation_xyz
x,y,z
1/2-x,-y,z
x,1/2-y,1/2-z
1/2-x,1/2+y,1/2-z
-x,-y,-z
1/2+x,y,-z
-x,1/2+y,1/2+z
1/2+x,1/2-y,1/2+z
loop_
_atom_site_type_symbol
_atom_site_label
_atom_site_fract_x
_atom_site_fract_y
_atom_site_fract_z
Si Si1 0.506662 0.250000 0.750000
Si Si2 0.247276 0.135646 0.359245
Si Si3 0.731511 0.773468 0.125884
Si Si4 0.250000 0.500000 0.542402
O O1 0.688587 0.154583 0.714819
O O2 0.323862 0.188259 0.802114
O O3 0.516109 0.193138 0.379197
O O4 0.015157 0.197579 0.398424
O O5 0.250000 0.000000 0.375520
O O6 0.765072 0.887343 0.085330
O O7 0.500000 0.500000 0.500000
#
# Coordination Sequence:
#
# PCOD8215800 Si02
#       4
#     4   8   8   4
#     4   8  22  32  62  96 122 170 198 274 332 386
#     4  10  20  37  60  93 132 160 206 267 339 393
#     4  10  22  39  61  96 125 167 219 269 327 388
#     4  12  26  46  70  92 134 182 228 276 310 390
#
# _framework density 18.942955000000001
#
# number of rings (size 3 to 8) (size 9 to 14) (size 15 to 20)
#    2.000    0.000    0.000    4.000    0.000    5.333 
#    0.000    0.000    0.000   20.000    0.000    0.000 
#    0.000    0.000    0.000    0.000    0.000    0.000 
#
# Total GULP energy -297323.325708 kJ/mol
# GULP energy per Si atom -12388.471905 kJ/mol
# Density = 1.889984 g / cm^3
# Si number density = 18.942955 Si / 1000 Ang^3
#
#
#
# Elastic Constant Matrix: (Units=GPa)
#
#
# Indices 1 2 3 4 5 6 
#
# 1 158.7512 61.7047 31.9289 0.0000 0.0000 0.0000
# 2 61.7047 156.0527 50.9910 0.0000 0.0000 0.0000
# 3 31.9289 50.9910 80.3143 0.0000 0.0000 0.0000
# 4 0.0000 0.0000 0.0000 28.0844 0.0000 0.0000
# 5 0.0000 0.0000 0.0000 0.0000 16.8436 0.0000
# 6 0.0000 0.0000 0.0000 0.0000 0.0000 33.2282
#
#
#
# Elastic Compliance Matrix: (Units=1/GPa)
#
#
# Indices 1 2 3 4 5 6 
#
# 1 0.007566 -0.002535 -0.001399 0.000000 0.000000 0.000000
# 2 -0.002535 0.008935 -0.004665 0.000000 0.000000 0.000000
# 3 -0.001399 -0.004665 0.015969 0.000000 0.000000 0.000000
# 4 0.000000 0.000000 0.000000 0.035607 0.000000 0.000000
# 5 0.000000 0.000000 0.000000 0.000000 0.059370 0.000000
# 6 0.000000 0.000000 0.000000 0.000000 0.000000 0.030095
#
#
# Mechanical properties :
#
#
# Convention : Reuss Voigt Hill
#
# Bulk Modulus (GPa) = 65.47499 76.04082 70.75790
# Shear Modulus (GPa) = 27.80443 32.33080 30.06761
#
# Velocity S-wave (km/s) = 3.83534 4.13576 3.98838
# Velocity P-wave (km/s) = 7.36563 7.93947 7.65792
#
# Compressibility (1/GPa) = 0.01527301
#
# Stress axis : x y z
#
# Youngs Moduli (GPa) = 132.17747 111.92527 62.62226
#
# Poissons Ratio (x) = 0.28368 0.08758
# Poissons Ratio (y) = 0.33501 0.29212
# Poissons Ratio (z) = 0.18486 0.52212
#
# Static dielectric constant tensor:
#      x y z
#    x 3.678190 0.000000 0.000000 
#    y 0.000000 3.326150 0.000000 
#    z 0.000000 0.000000 3.279050 
# 
# 
# High freq. dielectric constant tensor:
#      x y z
#    x 1.757540 0.000000 0.000000 
#    y 0.000000 1.725520 0.000000 
#    z 0.000000 0.000000 1.710640 
# 
# From -- ./inp_files/29950.got.cif
#   From: 2010.06.25/outbox.cif.g09.slc.cpg/sg52_15_cif.got.tgz:29950.got - 2010.06.26 19:32:48.
