data_PCOD8215608
_publ_section_title
;
Structure prediction by ZEFSAII (Michael W. Deem and Ramdas Pophale) SiO2 
 PCOD8215608
Probable space group: P N N A
;
_chemical_formula_sum "Si O2"
_cell_formula_units_Z 36
_cell_length_a 14.502565
_cell_length_b 5.030087
_cell_length_c 24.928142
_cell_angle_alpha 90.000000
_cell_angle_beta 90.000000
_cell_angle_gamma 90.000000
_cell_volume 1818.487111
_symmetry_space_group_name_H-M "P N N A"
_symmetry_group_IT_number 52
_symmetry_cell_setting 'orthorhombic'
loop_
_space_group_symop_operation_xyz
x,y,z
1/2-x,-y,z
x,1/2-y,1/2-z
1/2-x,1/2+y,1/2-z
-x,-y,-z
1/2+x,y,-z
-x,1/2+y,1/2+z
1/2+x,1/2-y,1/2+z
loop_
_atom_site_type_symbol
_atom_site_label
_atom_site_fract_x
_atom_site_fract_y
_atom_site_fract_z
Si Si1 0.189282 0.738665 0.949755
Si Si2 0.949518 0.502867 0.287399
Si Si3 0.504917 0.136557 0.899650
Si Si4 0.750000 0.000000 0.215204
Si Si5 0.569782 0.887251 0.543148
O O1 0.250000 0.500000 0.924719
O O2 0.099076 0.771393 0.912933
O O3 0.250000 0.000000 0.948490
O O4 0.165314 0.665139 0.011838
O O5 0.954732 0.250000 0.250000
O O6 0.016394 0.455980 0.337931
O O7 0.847129 0.556419 0.314781
O O8 0.979523 0.750000 0.250000
O O9 0.574546 0.386909 0.910215
O O10 0.532338 0.892141 0.936544
O O11 0.777234 0.250000 0.250000
O O12 0.500000 0.000000 0.500000
#
# Coordination Sequence:
#
# PCOD8215608 Si02
#       5
#     8   8   8   4   8
#     4  11  21  34  53  80 106 137 180 222 256 320
#     4  10  20  34  49  72 103 138 181 221 247 293
#     4  11  21  35  55  75 107 149 177 213 267 316
#     4   8  16  30  42  60  94 132 162 212 252 260
#     4  10  20  37  52  74 107 140 173 219 276 312
#
# _framework density 19.796675
#
# number of rings (size 3 to 8) (size 9 to 14) (size 15 to 20)
#    0.000    1.778    0.000    8.000    1.556    0.000 
#    8.000    0.000    0.000    0.000    0.000    0.000 
#    0.000   49.778    0.000    0.000    0.000    0.000 
#
# Total GULP energy -445970.376087 kJ/mol
# GULP energy per Si atom -12388.066002 kJ/mol
# Density = 1.975162 g / cm^3
# Si number density = 19.796675 Si / 1000 Ang^3
#
#
#
# Elastic Constant Matrix: (Units=GPa)
#
#
# Indices 1 2 3 4 5 6 
#
# 1 17.9410 18.2574 8.8034 0.0000 0.0000 0.0000
# 2 18.2574 151.5799 26.4645 0.0000 0.0000 0.0000
# 3 8.8034 26.4645 84.4434 0.0000 0.0000 0.0000
# 4 0.0000 0.0000 0.0000 40.3832 0.0000 0.0000
# 5 0.0000 0.0000 0.0000 0.0000 -10.0606 0.0000
# 6 0.0000 0.0000 0.0000 0.0000 0.0000 29.6474
#
#
#
# Elastic Compliance Matrix: (Units=1/GPa)
#
#
# Indices 1 2 3 4 5 6 
#
# 1 0.065160 -0.007048 -0.004584 0.000000 0.000000 0.000000
# 2 -0.007048 0.007741 -0.001691 0.000000 0.000000 0.000000
# 3 -0.004584 -0.001691 0.012850 0.000000 0.000000 0.000000
# 4 0.000000 0.000000 0.000000 0.024763 0.000000 0.000000
# 5 0.000000 0.000000 0.000000 0.000000 -0.099398 0.000000
# 6 0.000000 0.000000 0.000000 0.000000 0.000000 0.033730
#
#
# Mechanical properties :
#
#
# Convention : Reuss Voigt Hill
#
# Bulk Modulus (GPa) = 16.91921 40.11279 28.51600
# Shear Modulus (GPa) = 54.82752 25.35660 40.09206
#
# Velocity S-wave (km/s) = 5.26834 3.58278 4.50509
# Velocity P-wave (km/s) = 6.75073 6.11731 6.44181
#
# Compressibility (1/GPa) = 0.05910443
#
# Stress axis : x y z
#
# Youngs Moduli (GPa) = 15.34683 129.17570 77.81954
#
# Poissons Ratio (x) = 0.91043 0.35674
# Poissons Ratio (y) = 0.10816 0.13162
# Poissons Ratio (z) = 0.07035 0.21848
#
# Static dielectric constant tensor:
#      x y z
#    x 4.216400 0.000000 0.000000 
#    y 0.000000 4.215250 0.000000 
#    z 0.000000 0.000000 3.622510 
# 
# 
# High freq. dielectric constant tensor:
#      x y z
#    x 1.723840 0.000000 0.000000 
#    y 0.000000 1.804440 0.000000 
#    z 0.000000 0.000000 1.753250 
# 
# From -- ./inp_files/39896.got.cif
#   From: 2010.06.25/outbox.cif.g09.slc.cpg/sg52_20_cif.got.tgz:39896.got - 2010.06.26 19:32:48.
