data_PCOD8215547
_publ_section_title
;
Structure prediction by ZEFSAII (Michael W. Deem and Ramdas Pophale) SiO2 
 PCOD8215547
Probable space group: P N N A
;
_chemical_formula_sum "Si O2"
_cell_formula_units_Z 48
_cell_length_a 9.895394
_cell_length_b 8.391680
_cell_length_c 28.360154
_cell_angle_alpha 90.000000
_cell_angle_beta 90.000000
_cell_angle_gamma 90.000000
_cell_volume 2354.998259
_symmetry_space_group_name_H-M "P N N A"
_symmetry_group_IT_number 52
_symmetry_cell_setting 'orthorhombic'
loop_
_space_group_symop_operation_xyz
x,y,z
1/2-x,-y,z
x,1/2-y,1/2-z
1/2-x,1/2+y,1/2-z
-x,-y,-z
1/2+x,y,-z
-x,1/2+y,1/2+z
1/2+x,1/2-y,1/2+z
loop_
_atom_site_type_symbol
_atom_site_label
_atom_site_fract_x
_atom_site_fract_y
_atom_site_fract_z
Si Si1 0.390843 0.940606 0.061807
Si Si2 0.793679 0.819785 0.371388
Si Si3 0.973807 0.156898 0.154304
Si Si4 0.707943 0.181725 0.700444
Si Si5 0.011692 0.810746 0.195824
Si Si6 0.360242 0.635039 0.538630
O O1 0.482054 0.857925 0.100441
O O2 0.250000 0.000000 0.084395
O O3 0.482847 0.087887 0.044906
O O4 0.351779 0.824295 0.017441
O O5 0.680919 0.709879 0.346679
O O6 0.924308 0.796633 0.339062
O O7 0.826049 0.778970 0.425975
O O8 0.750000 0.000000 0.369892
O O9 0.071856 0.298308 0.170839
O O10 0.982240 0.998288 0.186911
O O11 0.664749 0.250000 0.750000
O O12 0.833328 0.283775 0.680366
O O13 0.750000 0.000000 0.704125
O O14 0.989520 0.750000 0.250000
O O15 0.250000 0.500000 0.550770
#
# Coordination Sequence:
#
# PCOD8215547 Si02
#       6
#     8   8   8   8   8   8
#     4  10  20  35  69  97 116 162 214 257 310 381
#     4  12  25  41  60  90 131 169 208 269 325 378
#     4  12  23  42  66  94 126 169 214 266 314 383
#     4  11  23  41  62  92 127 164 206 260 315 376
#     4  11  23  41  65  93 122 165 214 263 314 383
#     4  10  19  40  64  90 126 163 212 257 312 383
#
# _framework density 20.382180000000002
#
# number of rings (size 3 to 8) (size 9 to 14) (size 15 to 20)
#    0.000    1.000    3.333    5.000    0.000    2.000 
#    0.000    1.667    0.000    0.000    0.000    0.000 
#    0.000    0.000    0.000    0.000    0.000    0.000 
#
# Total GULP energy -594806.481358 kJ/mol
# GULP energy per Si atom -12391.801695 kJ/mol
# Density = 2.033579 g / cm^3
# Si number density = 20.382180 Si / 1000 Ang^3
#
#
#
# Elastic Constant Matrix: (Units=GPa)
#
#
# Indices 1 2 3 4 5 6 
#
# 1 87.0284 -0.4991 23.3037 0.0000 0.0000 0.0000
# 2 -0.4991 90.7963 35.7403 0.0000 0.0000 0.0000
# 3 23.3037 35.7403 112.7086 0.0000 0.0000 0.0000
# 4 0.0000 0.0000 0.0000 16.7318 0.0000 0.0000
# 5 0.0000 0.0000 0.0000 0.0000 27.2410 0.0000
# 6 0.0000 0.0000 0.0000 0.0000 0.0000 39.5348
#
#
#
# Elastic Compliance Matrix: (Units=1/GPa)
#
#
# Indices 1 2 3 4 5 6 
#
# 1 0.012281 0.001219 -0.002926 0.000000 0.000000 0.000000
# 2 0.001219 0.012706 -0.004281 0.000000 0.000000 0.000000
# 3 -0.002926 -0.004281 0.010835 0.000000 0.000000 0.000000
# 4 0.000000 0.000000 0.000000 0.059766 0.000000 0.000000
# 5 0.000000 0.000000 0.000000 0.000000 0.036709 0.000000
# 6 0.000000 0.000000 0.000000 0.000000 0.000000 0.025294
#
#
# Mechanical properties :
#
#
# Convention : Reuss Voigt Hill
#
# Bulk Modulus (GPa) = 41.93567 45.29145 43.61356
# Shear Modulus (GPa) = 28.16656 32.16741 30.16699
#
# Velocity S-wave (km/s) = 3.72145 3.97698 3.85134
# Velocity P-wave (km/s) = 6.25180 6.58467 6.42039
#
# Compressibility (1/GPa) = 0.02384605
#
# Stress axis : x y z
#
# Youngs Moduli (GPa) = 81.42691 78.70587 92.29417
#
# Poissons Ratio (x) = -0.09596 0.27004
# Poissons Ratio (y) = -0.09928 0.39512
# Poissons Ratio (z) = 0.23824 0.33694
#
# Static dielectric constant tensor:
#      x y z
#    x 4.169610 0.000000 0.000000 
#    y 0.000000 3.240280 0.000000 
#    z 0.000000 0.000000 4.051700 
# 
# 
# High freq. dielectric constant tensor:
#      x y z
#    x 1.823440 0.000000 0.000000 
#    y 0.000000 1.761950 0.000000 
#    z 0.000000 0.000000 1.807460 
# 
# From -- ./inp_files/44344.got.cif
#   From: 2010.06.25/outbox.cif.g09.slc.cpg/sg52_23_cif.got.tgz:44344.got - 2010.06.26 19:32:48.
