data_PCOD8215646
_publ_section_title
;
Structure prediction by ZEFSAII (Michael W. Deem and Ramdas Pophale) SiO2 
 PCOD8215646
Probable space group: P N N A
;
_chemical_formula_sum "Si O2"
_cell_formula_units_Z 40
_cell_length_a 12.039039
_cell_length_b 9.000768
_cell_length_c 18.499077
_cell_angle_alpha 90.000000
_cell_angle_beta 90.000000
_cell_angle_gamma 90.000000
_cell_volume 2004.571027
_symmetry_space_group_name_H-M "P N N A"
_symmetry_group_IT_number 52
_symmetry_cell_setting 'orthorhombic'
loop_
_space_group_symop_operation_xyz
x,y,z
1/2-x,-y,z
x,1/2-y,1/2-z
1/2-x,1/2+y,1/2-z
-x,-y,-z
1/2+x,y,-z
-x,1/2+y,1/2+z
1/2+x,1/2-y,1/2+z
loop_
_atom_site_type_symbol
_atom_site_label
_atom_site_fract_x
_atom_site_fract_y
_atom_site_fract_z
Si Si1 0.466849 0.640502 0.914660
Si Si2 0.785198 0.846959 0.049907
Si Si3 0.375898 0.621507 0.390510
Si Si4 0.438426 0.180560 0.567075
Si Si5 0.153362 0.704748 0.331882
O O1 0.371399 0.762105 0.897428
O O2 0.424586 0.476399 0.890870
O O3 0.582409 0.677464 0.876943
O O4 0.480000 0.646723 0.000748
O O5 0.678664 0.741675 0.038983
O O6 0.750000 0.000000 0.089553
O O7 0.839786 0.897767 0.973924
O O8 0.496001 0.700192 0.383116
O O9 0.283507 0.722576 0.350511
O O10 0.385499 0.462092 0.351602
O O11 0.132140 0.750000 0.250000
#
# Coordination Sequence:
#
# PCOD8215646 Si02
#       5
#     8   8   8   8   8
#     4  10  21  34  54  89 115 149 192 237 309 338
#     4  11  18  34  61  84 119 142 189 247 296 351
#     4  10  21  37  56  87 114 154 201 229 298 344
#     4  10  20  34  58  86 120 143 182 262 297 346
#     4  11  22  39  57  81 120 159 200 232 273 359
#
# _framework density 19.954395999999999
#
# number of rings (size 3 to 8) (size 9 to 14) (size 15 to 20)
#    0.000    1.600    4.000    1.800    0.000    7.200 
#    0.000    0.000    0.000    8.400    0.000    0.000 
#    0.000    0.000    0.000    0.000    0.000    0.000 
#
# Total GULP energy -495834.657119 kJ/mol
# GULP energy per Si atom -12395.866428 kJ/mol
# Density = 1.990898 g / cm^3
# Si number density = 19.954396 Si / 1000 Ang^3
#
#
#
# Elastic Constant Matrix: (Units=GPa)
#
#
# Indices 1 2 3 4 5 6 
#
# 1 72.5025 37.1229 14.5151 0.0000 0.0000 0.0000
# 2 37.1229 103.5334 28.1782 0.0000 0.0000 0.0000
# 3 14.5151 28.1782 54.3462 0.0000 0.0000 0.0000
# 4 0.0000 0.0000 0.0000 17.5906 0.0000 0.0000
# 5 0.0000 0.0000 0.0000 0.0000 13.9566 0.0000
# 6 0.0000 0.0000 0.0000 0.0000 0.0000 36.5250
#
#
#
# Elastic Compliance Matrix: (Units=1/GPa)
#
#
# Indices 1 2 3 4 5 6 
#
# 1 0.017014 -0.005663 -0.001608 0.000000 0.000000 0.000000
# 2 -0.005663 0.013130 -0.005296 0.000000 0.000000 0.000000
# 3 -0.001608 -0.005296 0.021576 0.000000 0.000000 0.000000
# 4 0.000000 0.000000 0.000000 0.056849 0.000000 0.000000
# 5 0.000000 0.000000 0.000000 0.000000 0.071651 0.000000
# 6 0.000000 0.000000 0.000000 0.000000 0.000000 0.027379
#
#
# Mechanical properties :
#
#
# Convention : Reuss Voigt Hill
#
# Bulk Modulus (GPa) = 37.61199 43.33493 40.47346
# Shear Modulus (GPa) = 20.69591 23.65216 22.17404
#
# Velocity S-wave (km/s) = 3.22399 3.44657 3.33714
# Velocity P-wave (km/s) = 5.72265 6.13209 5.93091
#
# Compressibility (1/GPa) = 0.02658727
#
# Stress axis : x y z
#
# Youngs Moduli (GPa) = 58.77481 76.15858 46.34824
#
# Poissons Ratio (x) = 0.43128 0.07453
# Poissons Ratio (y) = 0.33284 0.24544
# Poissons Ratio (z) = 0.09451 0.40331
#
# Static dielectric constant tensor:
#      x y z
#    x 3.733260 0.000000 0.000000 
#    y 0.000000 3.959970 0.000000 
#    z 0.000000 0.000000 3.079960 
# 
# 
# High freq. dielectric constant tensor:
#      x y z
#    x 1.784660 0.000000 0.000000 
#    y 0.000000 1.797590 0.000000 
#    z 0.000000 0.000000 1.711210 
# 
# From -- ./inp_files/31938.got.cif
#   From: 2010.06.25/outbox.cif.g09.slc.cpg/sg52_16_cif.got.tgz:31938.got - 2010.06.26 19:32:48.
