data_PCOD8215650
_publ_section_title
;
Structure prediction by ZEFSAII (Michael W. Deem and Ramdas Pophale) SiO2 
 PCOD8215650
Probable space group: P N N A
;
_chemical_formula_sum "Si O2"
_cell_formula_units_Z 48
_cell_length_a 17.412743
_cell_length_b 8.745095
_cell_length_c 15.162172
_cell_angle_alpha 90.000000
_cell_angle_beta 90.000000
_cell_angle_gamma 90.000000
_cell_volume 2308.836295
_symmetry_space_group_name_H-M "P N N A"
_symmetry_group_IT_number 52
_symmetry_cell_setting 'orthorhombic'
loop_
_space_group_symop_operation_xyz
x,y,z
1/2-x,-y,z
x,1/2-y,1/2-z
1/2-x,1/2+y,1/2-z
-x,-y,-z
1/2+x,y,-z
-x,1/2+y,1/2+z
1/2+x,1/2-y,1/2+z
loop_
_atom_site_type_symbol
_atom_site_label
_atom_site_fract_x
_atom_site_fract_y
_atom_site_fract_z
Si Si1 0.330882 0.926028 0.095453
Si Si2 0.427639 0.396696 0.909314
Si Si3 0.070402 0.083173 0.753931
Si Si4 0.605639 0.916224 0.739656
Si Si5 0.423945 0.448761 0.553546
Si Si6 0.608316 0.093459 0.574883
O O1 0.338584 0.744302 0.080308
O O2 0.250000 0.000000 0.123275
O O3 0.387125 0.975089 0.175075
O O4 0.351831 0.997153 0.002086
O O5 0.395193 0.458543 0.815153
O O6 0.402719 0.227412 0.933676
O O7 0.519266 0.375484 0.906587
O O8 0.389754 0.511645 0.980151
O O9 0.111721 0.250000 0.750000
O O10 0.983913 0.107732 0.720798
O O11 0.075602 0.027114 0.852637
O O12 0.645385 0.750000 0.750000
O O13 0.643356 0.988400 0.652312
O O14 0.500000 0.500000 0.500000
#
# Coordination Sequence:
#
# PCOD8215650 Si02
#       6
#     8   8   8   8   8   8
#     4  12  25  39  56  86 127 170 205 250 313 383
#     4  10  20  35  63  93 116 152 202 268 313 357
#     4  10  20  34  61  93 123 149 199 263 321 365
#     4  10  20  35  57  89 123 162 203 244 305 381
#     4  12  21  37  61  86 119 159 209 259 305 370
#     4  10  20  36  60  88 124 155 206 252 310 367
#
# _framework density 20.789694999999998
#
# number of rings (size 3 to 8) (size 9 to 14) (size 15 to 20)
#    0.000    1.333    3.333    3.000    4.667    4.000 
#    0.000    2.500    0.000    6.000    0.000    0.000 
#    0.000    0.000    0.000    0.000    0.000    0.000 
#
# Total GULP energy -594743.273443 kJ/mol
# GULP energy per Si atom -12390.484863 kJ/mol
# Density = 2.074238 g / cm^3
# Si number density = 20.789695 Si / 1000 Ang^3
#
#
#
# Elastic Constant Matrix: (Units=GPa)
#
#
# Indices 1 2 3 4 5 6 
#
# 1 25.0329 22.9611 5.8727 0.0000 0.0000 0.0000
# 2 22.9611 167.7229 63.3646 0.0000 0.0000 0.0000
# 3 5.8727 63.3646 164.8089 0.0000 0.0000 0.0000
# 4 0.0000 0.0000 0.0000 43.9456 0.0000 0.0000
# 5 0.0000 0.0000 0.0000 0.0000 9.5671 0.0000
# 6 0.0000 0.0000 0.0000 0.0000 0.0000 19.8948
#
#
#
# Elastic Compliance Matrix: (Units=1/GPa)
#
#
# Indices 1 2 3 4 5 6 
#
# 1 0.045800 -0.006614 0.000911 0.000000 0.000000 0.000000
# 2 -0.006614 0.007931 -0.002813 0.000000 0.000000 0.000000
# 3 0.000911 -0.002813 0.007117 0.000000 0.000000 0.000000
# 4 0.000000 0.000000 0.000000 0.022755 0.000000 0.000000
# 5 0.000000 0.000000 0.000000 0.000000 0.104525 0.000000
# 6 0.000000 0.000000 0.000000 0.000000 0.000000 0.050264
#
#
# Mechanical properties :
#
#
# Convention : Reuss Voigt Hill
#
# Bulk Modulus (GPa) = 22.82345 60.21794 41.52070
# Shear Modulus (GPa) = 18.51641 32.37258 25.44450
#
# Velocity S-wave (km/s) = 2.98762 3.95035 3.50222
# Velocity P-wave (km/s) = 4.78573 7.05940 6.03069
#
# Compressibility (1/GPa) = 0.04381458
#
# Stress axis : x y z
#
# Youngs Moduli (GPa) = 21.83386 126.09420 140.51159
#
# Poissons Ratio (x) = 0.83401 -0.12800
# Poissons Ratio (y) = 0.14441 0.39532
# Poissons Ratio (z) = -0.01989 0.35475
#
# Static dielectric constant tensor:
#      x y z
#    x 3.268790 0.000000 0.000000 
#    y 0.000000 4.034220 0.000000 
#    z 0.000000 0.000000 4.037840 
# 
# 
# High freq. dielectric constant tensor:
#      x y z
#    x 1.744940 0.000000 0.000000 
#    y 0.000000 1.836810 0.000000 
#    z 0.000000 0.000000 1.834560 
# 
# From -- ./inp_files/28051.got.cif
#   From: 2010.06.25/outbox.cif.g09.slc.cpg/sg52_15_cif.got.tgz:28051.got - 2010.06.26 19:32:48.
