data_PCOD8215367
_publ_section_title
;
Structure prediction by ZEFSAII (Michael W. Deem and Ramdas Pophale) SiO2 
 PCOD8215367
Probable space group: P N N A
;
_chemical_formula_sum "Si O2"
_cell_formula_units_Z 48
_cell_length_a 8.834109
_cell_length_b 9.506360
_cell_length_c 31.096530
_cell_angle_alpha 90.000000
_cell_angle_beta 90.000000
_cell_angle_gamma 90.000000
_cell_volume 2611.493444
_symmetry_space_group_name_H-M "P N N A"
_symmetry_group_IT_number 52
_symmetry_cell_setting 'orthorhombic'
loop_
_space_group_symop_operation_xyz
x,y,z
1/2-x,-y,z
x,1/2-y,1/2-z
1/2-x,1/2+y,1/2-z
-x,-y,-z
1/2+x,y,-z
-x,1/2+y,1/2+z
1/2+x,1/2-y,1/2+z
loop_
_atom_site_type_symbol
_atom_site_label
_atom_site_fract_x
_atom_site_fract_y
_atom_site_fract_z
Si Si1 0.931494 0.006411 0.177232
Si Si2 0.600672 0.589379 0.233897
Si Si3 0.570774 0.986112 0.359428
Si Si4 0.926070 0.008129 0.954007
Si Si5 0.575996 0.720260 0.618486
Si Si6 0.565488 0.282206 0.614274
O O1 0.987172 0.013869 0.226886
O O2 0.986399 0.149063 0.155408
O O3 0.750000 0.000000 0.174190
O O4 0.009967 0.871116 0.157256
O O5 0.750000 0.500000 0.225668
O O6 0.633913 0.750000 0.250000
O O7 0.515263 0.568360 0.188137
O O8 0.493446 0.127538 0.375613
O O9 0.750000 0.000000 0.363675
O O10 0.507365 0.870564 0.392699
O O11 0.979177 0.872607 0.927331
O O12 0.750000 0.000000 0.961687
O O13 0.970465 0.149533 0.927318
O O14 0.000000 0.000000 0.000000
O O15 0.755891 0.724554 0.622204
#
# Coordination Sequence:
#
# PCOD8215367 Si02
#       6
#     8   8   8   8   8   8
#     4  10  19  34  57  78 108 149 197 237 272 330
#     4  10  21  34  53  80 116 150 196 247 289 317
#     4  11  22  36  57  82 112 150 200 238 274 334
#     4   9  20  38  62  86 111 142 180 226 282 347
#     4  10  22  37  56  84 115 152 180 228 299 335
#     4  10  20  39  56  81 119 147 180 233 291 343
#
# _framework density 18.380286999999999
#
# number of rings (size 3 to 8) (size 9 to 14) (size 15 to 20)
#    0.000    2.000    1.667    3.000    7.000    4.000 
#    0.000    5.833    0.000    0.000    0.000    0.000 
#    0.000    0.000    0.000    0.000    0.000    0.000 
#
# Total GULP energy -594802.993370 kJ/mol
# GULP energy per Si atom -12391.729029 kJ/mol
# Density = 1.833845 g / cm^3
# Si number density = 18.380287 Si / 1000 Ang^3
#
#
#
# Elastic Constant Matrix: (Units=GPa)
#
#
# Indices 1 2 3 4 5 6 
#
# 1 79.8015 51.2206 50.2166 0.0000 0.0000 0.0000
# 2 51.2206 167.4948 68.4990 0.0000 0.0000 0.0000
# 3 50.2166 68.4990 135.0482 0.0000 0.0000 0.0000
# 4 0.0000 0.0000 0.0000 14.0842 0.0000 0.0000
# 5 0.0000 0.0000 0.0000 0.0000 23.0232 0.0000
# 6 0.0000 0.0000 0.0000 0.0000 0.0000 36.5319
#
#
#
# Elastic Compliance Matrix: (Units=1/GPa)
#
#
# Indices 1 2 3 4 5 6 
#
# 1 0.017814 -0.003455 -0.004871 0.000000 0.000000 0.000000
# 2 -0.003455 0.008203 -0.002876 0.000000 0.000000 0.000000
# 3 -0.004871 -0.002876 0.010675 0.000000 0.000000 0.000000
# 4 0.000000 0.000000 0.000000 0.071002 0.000000 0.000000
# 5 0.000000 0.000000 0.000000 0.000000 0.043434 0.000000
# 6 0.000000 0.000000 0.000000 0.000000 0.000000 0.027373
#
#
# Mechanical properties :
#
#
# Convention : Reuss Voigt Hill
#
# Bulk Modulus (GPa) = 69.99471 80.24630 75.12051
# Shear Modulus (GPa) = 24.31080 28.88842 26.59961
#
# Velocity S-wave (km/s) = 3.64078 3.96878 3.80831
# Velocity P-wave (km/s) = 7.47247 8.04707 7.76508
#
# Compressibility (1/GPa) = 0.01428679
#
# Stress axis : x y z
#
# Youngs Moduli (GPa) = 56.13412 121.90408 93.67776
#
# Poissons Ratio (x) = 0.42124 0.45635
# Poissons Ratio (y) = 0.19397 0.26941
# Poissons Ratio (z) = 0.27346 0.35058
#
# Static dielectric constant tensor:
#      x y z
#    x 3.344040 0.000000 0.000000 
#    y 0.000000 3.569380 0.000000 
#    z 0.000000 0.000000 3.959630 
# 
# 
# High freq. dielectric constant tensor:
#      x y z
#    x 1.702820 0.000000 0.000000 
#    y 0.000000 1.725960 0.000000 
#    z 0.000000 0.000000 1.708180 
# 
# From -- ./inp_files/44387.got.cif
#   From: 2010.06.25/outbox.cif.g09.slc.cpg/sg52_23_cif.got.tgz:44387.got - 2010.06.26 19:32:48.
