data_PCOD8215046
_publ_section_title
;
Structure prediction by ZEFSAII (Michael W. Deem and Ramdas Pophale) SiO2 
 PCOD8215046
Probable space group: P N N A
;
_chemical_formula_sum "Si O2"
_cell_formula_units_Z 52
_cell_length_a 9.080529
_cell_length_b 11.700807
_cell_length_c 30.202560
_cell_angle_alpha 90.000000
_cell_angle_beta 90.000000
_cell_angle_gamma 90.000000
_cell_volume 3209.007421
_symmetry_space_group_name_H-M "P N N A"
_symmetry_group_IT_number 52
_symmetry_cell_setting 'orthorhombic'
loop_
_space_group_symop_operation_xyz
x,y,z
1/2-x,-y,z
x,1/2-y,1/2-z
1/2-x,1/2+y,1/2-z
-x,-y,-z
1/2+x,y,-z
-x,1/2+y,1/2+z
1/2+x,1/2-y,1/2+z
loop_
_atom_site_type_symbol
_atom_site_label
_atom_site_fract_x
_atom_site_fract_y
_atom_site_fract_z
Si Si1 0.082672 0.847608 0.872649
Si Si2 0.609932 0.230082 0.699950
Si Si3 0.083030 0.139472 0.040314
Si Si4 0.585478 0.867474 0.954716
Si Si5 0.250000 0.000000 0.275633
Si Si6 0.079555 0.383997 0.631720
Si Si7 0.903085 0.157510 0.785001
O O1 0.257677 0.836190 0.876158
O O2 0.018078 0.764325 0.834490
O O3 0.009204 0.809219 0.918805
O O4 0.053055 0.980745 0.864815
O O5 0.550791 0.250000 0.750000
O O6 0.747500 0.313938 0.691365
O O7 0.673947 0.100037 0.694684
O O8 0.250499 0.183678 0.042610
O O9 0.082944 0.003308 0.041425
O O10 0.010095 0.184506 0.994922
O O11 0.516477 0.830642 0.907892
O O12 0.381850 0.042240 0.243334
O O13 0.030391 0.340861 0.679230
O O14 0.953943 0.250000 0.750000
#
# Coordination Sequence:
#
# PCOD8215046 Si02
#       7
#     8   8   8   8   4   8   8
#     4  10  19  27  41  62  88 118 148 176 210 261
#     4   9  17  29  46  64  83 112 149 185 222 264
#     4   9  16  26  38  59  83 113 146 172 209 252
#     4   9  16  25  40  56  84 116 141 174 209 255
#     4   8  16  30  48  64  84 112 150 192 226 262
#     4  10  18  28  40  61  90 119 145 175 214 256
#     4   9  17  29  45  62  83 110 144 180 219 261
#
# _framework density 16.204388000000002
#
# number of rings (size 3 to 8) (size 9 to 14) (size 15 to 20)
#    0.000    3.077    0.000    3.692    0.000    6.769 
#    0.000    0.000    0.000    2.769    0.000    0.000 
#    0.000   19.692    0.000    0.000    0.000    0.615 
#
# Total GULP energy -644316.514174 kJ/mol
# GULP energy per Si atom -12390.702196 kJ/mol
# Density = 1.616751 g / cm^3
# Si number density = 16.204388 Si / 1000 Ang^3
#
#
#
# Elastic Constant Matrix: (Units=GPa)
#
#
# Indices 1 2 3 4 5 6 
#
# 1 122.0206 24.6803 72.2962 0.0000 0.0000 0.0000
# 2 24.6803 43.0641 19.0027 0.0000 0.0000 0.0000
# 3 72.2962 19.0027 114.9793 0.0000 0.0000 0.0000
# 4 0.0000 0.0000 0.0000 15.1294 0.0000 0.0000
# 5 0.0000 0.0000 0.0000 0.0000 26.9961 0.0000
# 6 0.0000 0.0000 0.0000 0.0000 0.0000 13.9123
#
#
#
# Elastic Compliance Matrix: (Units=1/GPa)
#
#
# Indices 1 2 3 4 5 6 
#
# 1 0.013793 -0.004399 -0.007946 0.000000 0.000000 0.000000
# 2 -0.004399 0.026451 -0.001606 0.000000 0.000000 0.000000
# 3 -0.007946 -0.001606 0.013959 0.000000 0.000000 0.000000
# 4 0.000000 0.000000 0.000000 0.066097 0.000000 0.000000
# 5 0.000000 0.000000 0.000000 0.000000 0.037042 0.000000
# 6 0.000000 0.000000 0.000000 0.000000 0.000000 0.071879
#
#
# Mechanical properties :
#
#
# Convention : Reuss Voigt Hill
#
# Bulk Modulus (GPa) = 38.01983 56.89136 47.45559
# Shear Modulus (GPa) = 18.80499 22.14654 20.47576
#
# Velocity S-wave (km/s) = 3.41029 3.70090 3.55856
# Velocity P-wave (km/s) = 6.24663 7.31075 6.79954
#
# Compressibility (1/GPa) = 0.02630207
#
# Stress axis : x y z
#
# Youngs Moduli (GPa) = 72.50224 37.80624 71.64052
#
# Poissons Ratio (x) = 0.16629 0.56922
# Poissons Ratio (y) = 0.31891 0.11504
# Poissons Ratio (z) = 0.57607 0.06071
#
# Static dielectric constant tensor:
#      x y z
#    x 3.085330 0.000000 0.000000 
#    y 0.000000 3.538760 0.000000 
#    z 0.000000 0.000000 3.115090 
# 
# 
# High freq. dielectric constant tensor:
#      x y z
#    x 1.623930 0.000000 0.000000 
#    y 0.000000 1.565030 0.000000 
#    z 0.000000 0.000000 1.629610 
# 
# From -- ./inp_files/44527.got.cif
#   From: 2010.06.25/outbox.cif.g09.slc.cpg/sg52_23_cif.got.tgz:44527.got - 2010.06.26 19:32:48.
