data_PCOD8215999
_publ_section_title
;
Structure prediction by ZEFSAII (Michael W. Deem and Ramdas Pophale) SiO2 
 PCOD8215999
Probable space group: P N N A
;
_chemical_formula_sum "Si O2"
_cell_formula_units_Z 32
_cell_length_a 16.255719
_cell_length_b 10.361073
_cell_length_c 8.267533
_cell_angle_alpha 90.000000
_cell_angle_beta 90.000000
_cell_angle_gamma 90.000000
_cell_volume 1392.473228
_symmetry_space_group_name_H-M "P N N A"
_symmetry_group_IT_number 52
_symmetry_cell_setting 'orthorhombic'
loop_
_space_group_symop_operation_xyz
x,y,z
1/2-x,-y,z
x,1/2-y,1/2-z
1/2-x,1/2+y,1/2-z
-x,-y,-z
1/2+x,y,-z
-x,1/2+y,1/2+z
1/2+x,1/2-y,1/2+z
loop_
_atom_site_type_symbol
_atom_site_label
_atom_site_fract_x
_atom_site_fract_y
_atom_site_fract_z
Si Si1 0.750000 0.500000 0.720033
Si Si2 0.625858 0.051819 0.214833
Si Si3 0.721131 0.836312 0.067676
Si Si4 0.006464 0.750000 0.250000
Si Si5 0.871035 0.096313 0.529538
O O1 0.758719 0.627087 0.607660
O O2 0.830681 0.487384 0.828844
O O3 0.710144 0.136833 0.205917
O O4 0.550015 0.142141 0.160696
O O5 0.640360 0.926979 0.100132
O O6 0.600395 0.006498 0.396070
O O7 0.694546 0.687754 0.064679
O O8 0.059173 0.813649 0.393535
#
# Coordination Sequence:
#
# PCOD8215999 Si02
#       5
#     4   8   8   4   8
#     4  10  20  40  70  98 132 178 232 284 338 412
#     4  10  25  40  70  97 138 183 235 280 346 420
#     4  10  23  45  69 103 132 185 242 279 339 435
#     4  12  26  44  66 108 144 178 232 296 360 400
#     4  12  23  45  71 100 142 180 228 295 351 410
#
# _framework density 22.980694
#
# number of rings (size 3 to 8) (size 9 to 14) (size 15 to 20)
#    0.000    1.500    2.500    3.000   10.500    1.000 
#    0.000    0.000    0.000    0.000    0.000    0.000 
#    0.000    0.000    0.000    0.000    0.000    0.000 
#
# Total GULP energy -396579.122381 kJ/mol
# GULP energy per Si atom -12393.097574 kJ/mol
# Density = 2.292839 g / cm^3
# Si number density = 22.980694 Si / 1000 Ang^3
#
#
#
# Elastic Constant Matrix: (Units=GPa)
#
#
# Indices 1 2 3 4 5 6 
#
# 1 111.8465 46.4891 55.1987 0.0000 0.0000 0.0000
# 2 46.4891 84.8475 49.8664 0.0000 0.0000 0.0000
# 3 55.1987 49.8664 110.3959 0.0000 0.0000 0.0000
# 4 0.0000 0.0000 0.0000 32.3855 0.0000 0.0000
# 5 0.0000 0.0000 0.0000 0.0000 30.4820 0.0000
# 6 0.0000 0.0000 0.0000 0.0000 0.0000 58.4347
#
#
#
# Elastic Compliance Matrix: (Units=1/GPa)
#
#
# Indices 1 2 3 4 5 6 
#
# 1 0.013022 -0.004504 -0.004477 0.000000 0.000000 0.000000
# 2 -0.004504 0.017603 -0.005699 0.000000 0.000000 0.000000
# 3 -0.004477 -0.005699 0.013871 0.000000 0.000000 0.000000
# 4 0.000000 0.000000 0.000000 0.030878 0.000000 0.000000
# 5 0.000000 0.000000 0.000000 0.000000 0.032806 0.000000
# 6 0.000000 0.000000 0.000000 0.000000 0.000000 0.017113
#
#
# Mechanical properties :
#
#
# Convention : Reuss Voigt Hill
#
# Bulk Modulus (GPa) = 66.06619 67.79983 66.93301
# Shear Modulus (GPa) = 31.30867 34.62949 32.96908
#
# Velocity S-wave (km/s) = 3.69506 3.88609 3.79178
# Velocity P-wave (km/s) = 6.85679 7.05000 6.95407
#
# Compressibility (1/GPa) = 0.01513634
#
# Stress axis : x y z
#
# Youngs Moduli (GPa) = 76.79136 56.80739 72.09187
#
# Poissons Ratio (x) = 0.25586 0.32274
# Poissons Ratio (y) = 0.34587 0.41089
# Poissons Ratio (z) = 0.34378 0.32377
#
# Static dielectric constant tensor:
#      x y z
#    x 3.947080 0.000000 0.000000 
#    y 0.000000 4.324600 0.000000 
#    z 0.000000 0.000000 4.118380 
# 
# 
# High freq. dielectric constant tensor:
#      x y z
#    x 1.881040 0.000000 0.000000 
#    y 0.000000 1.921870 0.000000 
#    z 0.000000 0.000000 1.910370 
# 
# From -- ./inp_files/9599.got.cif
#   From: 2010.06.25/outbox.cif.g09.slc.cpg/sg52_5_cif.got.tgz:9599.got - 2010.06.26 19:32:48.
