data_PCOD8215095
_publ_section_title
;
Structure prediction by ZEFSAII (Michael W. Deem and Ramdas Pophale) SiO2 
 PCOD8215095
Probable space group: P N N A
;
_chemical_formula_sum "Si O2"
_cell_formula_units_Z 60
_cell_length_a 16.763775
_cell_length_b 11.993562
_cell_length_c 17.556635
_cell_angle_alpha 90.000000
_cell_angle_beta 90.000000
_cell_angle_gamma 90.000000
_cell_volume 3529.890944
_symmetry_space_group_name_H-M "P N N A"
_symmetry_group_IT_number 52
_symmetry_cell_setting 'orthorhombic'
loop_
_space_group_symop_operation_xyz
x,y,z
1/2-x,-y,z
x,1/2-y,1/2-z
1/2-x,1/2+y,1/2-z
-x,-y,-z
1/2+x,y,-z
-x,1/2+y,1/2+z
1/2+x,1/2-y,1/2+z
loop_
_atom_site_type_symbol
_atom_site_label
_atom_site_fract_x
_atom_site_fract_y
_atom_site_fract_z
Si Si1 0.843738 0.354157 0.377293
Si Si2 0.339134 0.607732 0.626834
Si Si3 0.591422 0.190371 0.442866
Si Si4 0.944274 0.250000 0.250000
Si Si5 0.058637 0.365845 0.774348
Si Si6 0.160549 0.021779 0.442464
Si Si7 0.520424 0.434544 0.840005
Si Si8 0.571651 0.839135 0.472552
O O1 0.749329 0.340257 0.366921
O O2 0.852030 0.482322 0.403884
O O3 0.887505 0.333896 0.296718
O O4 0.882661 0.267757 0.437463
O O5 0.382942 0.680900 0.562960
O O6 0.373058 0.612031 0.712552
O O7 0.597432 0.141456 0.357780
O O8 0.651796 0.120066 0.495419
O O9 0.502545 0.197391 0.475923
O O10 0.006111 0.315692 0.197729
O O11 0.014609 0.250000 0.750000
O O12 0.995952 0.466990 0.779310
O O13 0.111127 0.055397 0.367387
O O14 0.250000 0.000000 0.416400
O O15 0.132698 0.902941 0.474008
O O16 0.459743 0.432759 0.912330
#
# Coordination Sequence:
#
# PCOD8215095 Si02
#       8
#     8   8   8   4   8   8   8   8
#     4  10  21  33  48  77 109 138 170 210 252 315
#     4  10  21  34  48  77 112 136 167 211 262 303
#     4  10  19  34  52  75 105 137 173 211 254 311
#     4  10  20  32  52  72 100 144 168 202 262 310
#     4  10  18  31  52  75 106 138 165 211 255 309
#     4  11  20  33  55  78 100 134 171 221 262 290
#     4  10  18  36  52  75 103 131 175 213 248 318
#     4  10  19  34  54  75 103 136 176 210 253 305
#
# _framework density 16.997693000000002
#
# number of rings (size 3 to 8) (size 9 to 14) (size 15 to 20)
#    0.000    1.867    4.000    1.600    2.800    0.533 
#    2.400    0.000    1.467    0.000    0.000    0.000 
#    0.000    0.000    0.000    0.000    0.000    0.000 
#
# Total GULP energy -743533.821456 kJ/mol
# GULP energy per Si atom -12392.230358 kJ/mol
# Density = 1.695901 g / cm^3
# Si number density = 16.997693 Si / 1000 Ang^3
#
#
#
# Elastic Constant Matrix: (Units=GPa)
#
#
# Indices 1 2 3 4 5 6 
#
# 1 128.0302 60.2300 47.3872 0.0000 0.0000 0.0000
# 2 60.2300 103.0804 37.6081 0.0000 0.0000 0.0000
# 3 47.3872 37.6081 58.9987 0.0000 0.0000 0.0000
# 4 0.0000 0.0000 0.0000 28.2538 0.0000 0.0000
# 5 0.0000 0.0000 0.0000 0.0000 17.7990 0.0000
# 6 0.0000 0.0000 0.0000 0.0000 0.0000 27.3657
#
#
#
# Elastic Compliance Matrix: (Units=1/GPa)
#
#
# Indices 1 2 3 4 5 6 
#
# 1 0.012727 -0.004830 -0.007143 0.000000 0.000000 0.000000
# 2 -0.004830 0.014474 -0.005347 0.000000 0.000000 0.000000
# 3 -0.007143 -0.005347 0.026095 0.000000 0.000000 0.000000
# 4 0.000000 0.000000 0.000000 0.035393 0.000000 0.000000
# 5 0.000000 0.000000 0.000000 0.000000 0.056183 0.000000
# 6 0.000000 0.000000 0.000000 0.000000 0.000000 0.036542
#
#
# Mechanical properties :
#
#
# Convention : Reuss Voigt Hill
#
# Bulk Modulus (GPa) = 53.60263 64.50667 59.05465
# Shear Modulus (GPa) = 22.49480 24.34262 23.41871
#
# Velocity S-wave (km/s) = 3.64181 3.78843 3.71584
# Velocity P-wave (km/s) = 7.02050 7.56101 7.29576
#
# Compressibility (1/GPa) = 0.01865580
#
# Stress axis : x y z
#
# Youngs Moduli (GPa) = 78.57447 69.08834 38.32133
#
# Poissons Ratio (x) = 0.33371 0.27373
# Poissons Ratio (y) = 0.37953 0.20490
# Poissons Ratio (z) = 0.56127 0.36941
#
# Static dielectric constant tensor:
#      x y z
#    x 3.015750 0.000000 0.000000 
#    y 0.000000 3.420780 0.000000 
#    z 0.000000 0.000000 3.155400 
# 
# 
# High freq. dielectric constant tensor:
#      x y z
#    x 1.636150 0.000000 0.000000 
#    y 0.000000 1.672920 0.000000 
#    z 0.000000 0.000000 1.640710 
# 
# From -- ./inp_files/33253.got.cif
#   From: 2010.06.25/outbox.cif.g09.slc.cpg/sg52_17_cif.got.tgz:33253.got - 2010.06.26 19:32:48.
