data_PCOD8215877
_publ_section_title
;
Structure prediction by ZEFSAII (Michael W. Deem and Ramdas Pophale) SiO2 
 PCOD8215877
Probable space group: P N N A
;
_chemical_formula_sum "Si O2"
_cell_formula_units_Z 60
_cell_length_a 21.323049
_cell_length_b 11.029936
_cell_length_c 12.301204
_cell_angle_alpha 90.000000
_cell_angle_beta 90.000000
_cell_angle_gamma 90.000000
_cell_volume 2893.143120
_symmetry_space_group_name_H-M "P N N A"
_symmetry_group_IT_number 52
_symmetry_cell_setting 'orthorhombic'
loop_
_space_group_symop_operation_xyz
x,y,z
1/2-x,-y,z
x,1/2-y,1/2-z
1/2-x,1/2+y,1/2-z
-x,-y,-z
1/2+x,y,-z
-x,1/2+y,1/2+z
1/2+x,1/2-y,1/2+z
loop_
_atom_site_type_symbol
_atom_site_label
_atom_site_fract_x
_atom_site_fract_y
_atom_site_fract_z
Si Si1 0.818214 0.959888 0.575396
Si Si2 0.226001 0.294634 0.463314
Si Si3 0.129017 0.379336 0.292157
Si Si4 0.238776 0.629668 0.688486
Si Si5 0.134843 0.796285 0.452602
Si Si6 0.093826 0.836723 0.842726
Si Si7 0.945706 0.250000 0.750000
Si Si8 0.990302 0.483159 0.627215
O O1 0.813248 0.830277 0.515065
O O2 0.855617 0.957458 0.687399
O O3 0.750000 0.000000 0.610705
O O4 0.850702 0.066484 0.502762
O O5 0.190958 0.368223 0.368407
O O6 0.224544 0.372639 0.573656
O O7 0.298648 0.271082 0.431707
O O8 0.105021 0.250000 0.250000
O O9 0.074097 0.445515 0.355286
O O10 0.250000 0.500000 0.748914
O O11 0.263020 0.750000 0.750000
O O12 0.165313 0.634007 0.676192
O O13 0.090075 0.725732 0.537664
O O14 0.098524 0.810954 0.339772
O O15 0.067348 0.750000 0.750000
O O16 0.052189 0.955260 0.824582
O O17 0.987272 0.350593 0.684699
O O18 0.000000 0.500000 0.500000
#
# Coordination Sequence:
#
# PCOD8215877 Si02
#       8
#     8   8   8   8   8   8   4   8
#     4   9  18  33  58  95 131 161 202 257 326 401
#     4   9  21  34  61  97 131 160 204 264 335 396
#     4  10  21  37  60  92 125 163 204 261 327 379
#     4  10  23  42  66  93 127 171 219 266 329 385
#     4  10  20  38  63  96 129 172 214 262 333 399
#     4  10  23  45  67  89 123 175 222 269 320 383
#     4  12  24  40  64  94 130 174 212 270 332 392
#     4  12  25  43  63  89 130 170 222 269 318 389
#
# _framework density 20.738690999999999
#
# number of rings (size 3 to 8) (size 9 to 14) (size 15 to 20)
#    0.000    1.867    2.667    0.400    6.533    4.267 
#    1.200    3.333    0.000    0.000    0.000    0.000 
#    0.000    0.000    0.000    0.000    0.000    0.000 
#
# Total GULP energy -743301.393028 kJ/mol
# GULP energy per Si atom -12388.356550 kJ/mol
# Density = 2.069149 g / cm^3
# Si number density = 20.738691 Si / 1000 Ang^3
#
#
#
# Elastic Constant Matrix: (Units=GPa)
#
#
# Indices 1 2 3 4 5 6 
#
# 1 56.2196 34.6515 33.1251 0.0000 0.0000 0.0000
# 2 34.6515 136.3459 46.3823 0.0000 0.0000 0.0000
# 3 33.1251 46.3823 81.1587 0.0000 0.0000 0.0000
# 4 0.0000 0.0000 0.0000 32.6553 0.0000 0.0000
# 5 0.0000 0.0000 0.0000 0.0000 26.3609 0.0000
# 6 0.0000 0.0000 0.0000 0.0000 0.0000 26.2594
#
#
#
# Elastic Compliance Matrix: (Units=1/GPa)
#
#
# Indices 1 2 3 4 5 6 
#
# 1 0.024722 -0.003538 -0.008068 0.000000 0.000000 0.000000
# 2 -0.003538 0.009611 -0.004048 0.000000 0.000000 0.000000
# 3 -0.008068 -0.004048 0.017928 0.000000 0.000000 0.000000
# 4 0.000000 0.000000 0.000000 0.030623 0.000000 0.000000
# 5 0.000000 0.000000 0.000000 0.000000 0.037935 0.000000
# 6 0.000000 0.000000 0.000000 0.000000 0.000000 0.038082
#
#
# Mechanical properties :
#
#
# Convention : Reuss Voigt Hill
#
# Bulk Modulus (GPa) = 47.72982 55.78245 51.75613
# Shear Modulus (GPa) = 25.35569 27.69279 26.52424
#
# Velocity S-wave (km/s) = 3.50040 3.65817 3.58015
# Velocity P-wave (km/s) = 6.27709 6.69321 6.48849
#
# Compressibility (1/GPa) = 0.02095126
#
# Stress axis : x y z
#
# Youngs Moduli (GPa) = 40.44948 104.05062 55.77784
#
# Poissons Ratio (x) = 0.36817 0.45003
# Poissons Ratio (y) = 0.14312 0.22581
# Poissons Ratio (z) = 0.32636 0.42123
#
# Static dielectric constant tensor:
#      x y z
#    x 3.653130 0.000000 0.000000 
#    y 0.000000 4.156120 0.000000 
#    z 0.000000 0.000000 2.012760 
# 
# 
# High freq. dielectric constant tensor:
#      x y z
#    x 1.795780 0.000000 0.000000 
#    y 0.000000 1.825750 0.000000 
#    z 0.000000 0.000000 1.804260 
# 
# From -- ./inp_files/21776.got.cif
#   From: 2010.06.25/outbox.cif.g09.slc.cpg/sg52_11_cif.got.tgz:21776.got - 2010.06.26 19:32:48.
