data_PCOD8215583
_publ_section_title
;
Structure prediction by ZEFSAII (Michael W. Deem and Ramdas Pophale) SiO2 
 PCOD8215583
Probable space group: P N N A
;
_chemical_formula_sum "Si O2"
_cell_formula_units_Z 40
_cell_length_a 8.660756
_cell_length_b 21.094695
_cell_length_c 10.187710
_cell_angle_alpha 90.000000
_cell_angle_beta 90.000000
_cell_angle_gamma 90.000000
_cell_volume 1861.253930
_symmetry_space_group_name_H-M "P N N A"
_symmetry_group_IT_number 52
_symmetry_cell_setting 'orthorhombic'
loop_
_space_group_symop_operation_xyz
x,y,z
1/2-x,-y,z
x,1/2-y,1/2-z
1/2-x,1/2+y,1/2-z
-x,-y,-z
1/2+x,y,-z
-x,1/2+y,1/2+z
1/2+x,1/2-y,1/2+z
loop_
_atom_site_type_symbol
_atom_site_label
_atom_site_fract_x
_atom_site_fract_y
_atom_site_fract_z
Si Si1 0.250000 0.500000 0.003224
Si Si2 0.203776 0.250000 0.750000
Si Si3 0.507696 0.414693 0.110548
Si Si4 0.874374 0.825312 0.875313
Si Si5 0.516325 0.653856 0.625026
Si Si6 0.519633 0.688150 0.114227
O O1 0.378906 0.468295 0.093567
O O2 0.324818 0.555031 0.914451
O O3 0.094013 0.286747 0.651163
O O4 0.305544 0.298923 0.836748
O O5 0.501344 0.397964 0.262898
O O6 0.479072 0.353631 0.017521
O O7 0.691332 0.823408 0.887442
O O8 0.936541 0.754988 0.906853
O O9 0.926435 0.848661 0.730341
O O10 0.954392 0.871766 0.983616
#
# Coordination Sequence:
#
# PCOD8215583 Si02
#       6
#     4   4   8   8   8   8
#     4  10  24  42  64  92 110 150 226 276 308 352
#     4  10  20  32  56  92 126 158 194 226 298 390
#     4  11  23  42  67  86 116 160 210 265 310 348
#     4  10  22  36  56  93 132 159 195 231 303 401
#     4  12  22  36  58  86 126 166 197 244 300 363
#     4  10  21  38  61  94 130 160 192 246 308 383
#
# _framework density 21.490887000000001
#
# number of rings (size 3 to 8) (size 9 to 14) (size 15 to 20)
#    0.000    1.600    0.000    7.200    0.000    4.800 
#    0.000    0.000    0.000   20.400    0.000    0.000 
#    0.000    0.000    0.000    0.000    0.000    0.000 
#
# Total GULP energy -495940.909775 kJ/mol
# GULP energy per Si atom -12398.522744 kJ/mol
# Density = 2.144197 g / cm^3
# Si number density = 21.490887 Si / 1000 Ang^3
#
#
#
# Elastic Constant Matrix: (Units=GPa)
#
#
# Indices 1 2 3 4 5 6 
#
# 1 137.6801 7.2653 31.1517 0.0000 0.0000 0.0000
# 2 7.2653 53.2787 28.2969 0.0000 0.0000 0.0000
# 3 31.1517 28.2969 135.8268 0.0000 0.0000 0.0000
# 4 0.0000 0.0000 0.0000 17.3135 0.0000 0.0000
# 5 0.0000 0.0000 0.0000 0.0000 6.4663 0.0000
# 6 0.0000 0.0000 0.0000 0.0000 0.0000 20.7355
#
#
#
# Elastic Compliance Matrix: (Units=1/GPa)
#
#
# Indices 1 2 3 4 5 6 
#
# 1 0.007661 -0.000125 -0.001731 0.000000 0.000000 0.000000
# 2 -0.000125 0.021106 -0.004368 0.000000 0.000000 0.000000
# 3 -0.001731 -0.004368 0.008669 0.000000 0.000000 0.000000
# 4 0.000000 0.000000 0.000000 0.057758 0.000000 0.000000
# 5 0.000000 0.000000 0.000000 0.000000 0.154648 0.000000
# 6 0.000000 0.000000 0.000000 0.000000 0.000000 0.048227
#
#
# Mechanical properties :
#
#
# Convention : Reuss Voigt Hill
#
# Bulk Modulus (GPa) = 40.01962 51.13482 45.57722
# Shear Modulus (GPa) = 15.68142 26.24117 20.96130
#
# Velocity S-wave (km/s) = 2.70419 3.49813 3.12646
# Velocity P-wave (km/s) = 5.33031 6.33729 5.85549
#
# Compressibility (1/GPa) = 0.02498774
#
# Stress axis : x y z
#
# Youngs Moduli (GPa) = 130.52281 47.37903 115.34837
#
# Poissons Ratio (x) = 0.00594 0.19967
# Poissons Ratio (y) = 0.01636 0.50388
# Poissons Ratio (z) = 0.22594 0.20697
#
# Static dielectric constant tensor:
#      x y z
#    x 4.210850 0.000000 0.000000 
#    y 0.000000 3.503420 0.000000 
#    z 0.000000 0.000000 4.315220 
# 
# 
# High freq. dielectric constant tensor:
#      x y z
#    x 1.870810 0.000000 0.000000 
#    y 0.000000 1.795140 0.000000 
#    z 0.000000 0.000000 1.857460 
# 
# From -- ./inp_files/7458.got.cif
#   From: 2010.06.25/outbox.cif.g09.slc.cpg/sg52_4_cif.got.tgz:7458.got - 2010.06.26 19:32:48.
