data_PCOD8215167
_publ_section_title
;
Structure prediction by ZEFSAII (Michael W. Deem and Ramdas Pophale) SiO2 
 PCOD8215167
Probable space group: P N N A
;
_chemical_formula_sum "Si O2"
_cell_formula_units_Z 52
_cell_length_a 19.269159
_cell_length_b 15.124597
_cell_length_c 9.103928
_cell_angle_alpha 90.000000
_cell_angle_beta 90.000000
_cell_angle_gamma 90.000000
_cell_volume 2653.232976
_symmetry_space_group_name_H-M "P N N A"
_symmetry_group_IT_number 52
_symmetry_cell_setting 'orthorhombic'
loop_
_space_group_symop_operation_xyz
x,y,z
1/2-x,-y,z
x,1/2-y,1/2-z
1/2-x,1/2+y,1/2-z
-x,-y,-z
1/2+x,y,-z
-x,1/2+y,1/2+z
1/2+x,1/2-y,1/2+z
loop_
_atom_site_type_symbol
_atom_site_label
_atom_site_fract_x
_atom_site_fract_y
_atom_site_fract_z
Si Si1 0.522469 0.373663 0.112086
Si Si2 0.597539 0.409475 0.408778
Si Si3 0.736700 0.147716 0.213484
Si Si4 0.250000 0.000000 0.547160
Si Si5 0.898026 0.464828 0.998821
Si Si6 0.889563 0.396671 0.326735
Si Si7 0.017974 0.211483 0.097872
O O1 0.553547 0.368302 0.274045
O O2 0.567727 0.438942 0.010938
O O3 0.442272 0.408049 0.118232
O O4 0.524379 0.278592 0.036883
O O5 0.677486 0.379803 0.401009
O O6 0.592310 0.514986 0.415935
O O7 0.565234 0.373245 0.559574
O O8 0.726470 0.250000 0.250000
O O9 0.727347 0.083976 0.354321
O O10 0.811220 0.132868 0.139169
O O11 0.182719 0.974700 0.448901
O O12 0.900829 0.413784 0.154237
O O13 0.938310 0.317705 0.380792
O O14 0.047225 0.250000 0.250000
#
# Coordination Sequence:
#
# PCOD8215167 Si02
#       7
#     8   8   8   4   8   8   8
#     4  10  19  35  56  84 118 147 192 243 295 352
#     4  11  22  39  59  88 119 157 192 251 305 359
#     4  11  19  33  59  87 117 150 203 252 291 344
#     4  10  18  34  56  88 120 146 206 242 296 350
#     4   9  18  33  57  82 116 150 188 243 295 354
#     4  10  20  38  57  86 115 156 199 249 297 355
#     4  12  23  35  56  88 116 152 201 246 296 348
#
# _framework density 19.598731000000001
#
# number of rings (size 3 to 8) (size 9 to 14) (size 15 to 20)
#    0.000    1.538    6.154    2.308    2.154    0.000 
#    0.000    0.000    0.000    3.692    0.000    0.000 
#    0.000    0.000    0.000    0.000    0.000    0.000 
#
# Total GULP energy -644774.064640 kJ/mol
# GULP energy per Si atom -12399.501243 kJ/mol
# Density = 1.955412 g / cm^3
# Si number density = 19.598731 Si / 1000 Ang^3
#
#
#
# Elastic Constant Matrix: (Units=GPa)
#
#
# Indices 1 2 3 4 5 6 
#
# 1 122.3011 -0.7450 17.9998 0.0000 0.0000 0.0000
# 2 -0.7450 81.7826 14.2314 0.0000 0.0000 0.0000
# 3 17.9998 14.2314 39.7178 0.0000 0.0000 0.0000
# 4 0.0000 0.0000 0.0000 26.3235 0.0000 0.0000
# 5 0.0000 0.0000 0.0000 0.0000 23.3109 0.0000
# 6 0.0000 0.0000 0.0000 0.0000 0.0000 33.5939
#
#
#
# Elastic Compliance Matrix: (Units=1/GPa)
#
#
# Indices 1 2 3 4 5 6 
#
# 1 0.008813 0.000827 -0.004290 0.000000 0.000000 0.000000
# 2 0.000827 0.013118 -0.005075 0.000000 0.000000 0.000000
# 3 -0.004290 -0.005075 0.028940 0.000000 0.000000 0.000000
# 4 0.000000 0.000000 0.000000 0.037989 0.000000 0.000000
# 5 0.000000 0.000000 0.000000 0.000000 0.042898 0.000000
# 6 0.000000 0.000000 0.000000 0.000000 0.000000 0.029767
#
#
# Mechanical properties :
#
#
# Convention : Reuss Voigt Hill
#
# Bulk Modulus (GPa) = 29.59058 34.08599 31.83829
# Shear Modulus (GPa) = 26.33406 30.80002 28.56704
#
# Velocity S-wave (km/s) = 3.66958 3.96856 3.82199
# Velocity P-wave (km/s) = 5.75199 6.19911 5.97973
#
# Compressibility (1/GPa) = 0.03379454
#
# Stress axis : x y z
#
# Youngs Moduli (GPa) = 113.46874 76.22980 34.55373
#
# Poissons Ratio (x) = -0.06303 0.14824
# Poissons Ratio (y) = -0.09382 0.17537
# Poissons Ratio (z) = 0.48681 0.38688
#
# Static dielectric constant tensor:
#      x y z
#    x 3.882720 0.000000 0.000000 
#    y 0.000000 3.721130 0.000000 
#    z 0.000000 0.000000 3.095300 
# 
# 
# High freq. dielectric constant tensor:
#      x y z
#    x 1.777670 0.000000 0.000000 
#    y 0.000000 1.783430 0.000000 
#    z 0.000000 0.000000 1.703320 
# 
# From -- ./inp_files/13359.got.cif
#   From: 2010.06.25/outbox.cif.g09.slc.cpg/sg52_7_cif.got.tgz:13359.got - 2010.06.26 19:32:48.
