data_PCOD8215616
_publ_section_title
;
Structure prediction by ZEFSAII (Michael W. Deem and Ramdas Pophale) SiO2 
 PCOD8215616
Probable space group: P N N A
;
_chemical_formula_sum "Si O2"
_cell_formula_units_Z 60
_cell_length_a 8.803219
_cell_length_b 24.082709
_cell_length_c 14.213802
_cell_angle_alpha 90.000000
_cell_angle_beta 90.000000
_cell_angle_gamma 90.000000
_cell_volume 3013.402230
_symmetry_space_group_name_H-M "P N N A"
_symmetry_group_IT_number 52
_symmetry_cell_setting 'orthorhombic'
loop_
_space_group_symop_operation_xyz
x,y,z
1/2-x,-y,z
x,1/2-y,1/2-z
1/2-x,1/2+y,1/2-z
-x,-y,-z
1/2+x,y,-z
-x,1/2+y,1/2+z
1/2+x,1/2-y,1/2+z
loop_
_atom_site_type_symbol
_atom_site_label
_atom_site_fract_x
_atom_site_fract_y
_atom_site_fract_z
Si Si1 0.957686 0.404074 0.150394
Si Si2 0.776682 0.439172 0.800573
Si Si3 0.282462 0.806247 0.880301
Si Si4 0.033861 0.408574 0.936802
Si Si5 0.773885 0.437833 0.588324
Si Si6 0.750000 0.500000 0.124217
Si Si7 0.722500 0.319250 0.168290
Si Si8 0.500334 0.134748 0.973870
O O1 0.851914 0.456497 0.185509
O O2 0.889037 0.345604 0.181925
O O3 0.121169 0.405185 0.196863
O O4 0.960703 0.403590 0.037914
O O5 0.750000 0.500000 0.843771
O O6 0.834843 0.442822 0.694325
O O7 0.900482 0.408547 0.861530
O O8 0.262343 0.740219 0.880219
O O9 0.343004 0.821008 0.775079
O O10 0.117879 0.832565 0.906551
O O11 0.411987 0.823659 0.954946
O O12 0.135228 0.464220 0.939311
O O13 0.130850 0.355476 0.906904
O O14 0.750000 0.500000 0.547613
O O15 0.622819 0.399745 0.586510
O O16 0.908951 0.410926 0.530977
#
# Coordination Sequence:
#
# PCOD8215616 Si02
#       8
#     8   8   8   8   8   4   8   8
#     4  11  22  35  56  83 119 157 196 231 283 340
#     4  11  21  34  55  84 121 149 189 234 280 339
#     4  10  22  42  63  82 115 149 196 239 287 337
#     4  11  22  35  56  83 119 157 196 231 283 340
#     4  10  21  37  61  91 117 143 183 236 286 349
#     4  10  20  34  52  78 118 162 192 222 280 340
#     4  10  23  40  58  84 115 152 192 245 283 333
#     4  10  21  40  66  84 112 151 186 232 294 350
#
# _framework density 19.911048999999998
#
# number of rings (size 3 to 8) (size 9 to 14) (size 15 to 20)
#    0.000    1.600    1.333    4.000    3.733    0.000 
#    0.000    0.000    8.800    6.400    0.000    0.000 
#    0.000    0.000    0.000    0.000    0.000    0.000 
#
# Total GULP energy -743785.896566 kJ/mol
# GULP energy per Si atom -12396.431609 kJ/mol
# Density = 1.986573 g / cm^3
# Si number density = 19.911049 Si / 1000 Ang^3
#
#
#
# Elastic Constant Matrix: (Units=GPa)
#
#
# Indices 1 2 3 4 5 6 
#
# 1 78.7356 23.8923 8.5175 0.0000 0.0000 0.0000
# 2 23.8923 119.9278 23.4762 0.0000 0.0000 0.0000
# 3 8.5175 23.4762 61.8957 0.0000 0.0000 0.0000
# 4 0.0000 0.0000 0.0000 16.2907 0.0000 0.0000
# 5 0.0000 0.0000 0.0000 0.0000 -27.3975 0.0000
# 6 0.0000 0.0000 0.0000 0.0000 0.0000 20.7510
#
#
#
# Elastic Compliance Matrix: (Units=1/GPa)
#
#
# Indices 1 2 3 4 5 6 
#
# 1 0.013565 -0.002525 -0.000909 0.000000 0.000000 0.000000
# 2 -0.002525 0.009477 -0.003247 0.000000 0.000000 0.000000
# 3 -0.000909 -0.003247 0.017513 0.000000 0.000000 0.000000
# 4 0.000000 0.000000 0.000000 0.061385 0.000000 0.000000
# 5 0.000000 0.000000 0.000000 0.000000 -0.036500 0.000000
# 6 0.000000 0.000000 0.000000 0.000000 0.000000 0.048191
#
#
# Mechanical properties :
#
#
# Convention : Reuss Voigt Hill
#
# Bulk Modulus (GPa) = 36.77360 41.37012 39.07186
# Shear Modulus (GPa) = 36.74939 15.57369 26.16154
#
# Velocity S-wave (km/s) = 4.30080 2.79975 3.62874
# Velocity P-wave (km/s) = 6.57050 5.59232 6.10105
#
# Compressibility (1/GPa) = 0.02719342
#
# Stress axis : x y z
#
# Youngs Moduli (GPa) = 73.71826 105.51958 57.10078
#
# Poissons Ratio (x) = 0.26639 0.05192
# Poissons Ratio (y) = 0.18610 0.18541
# Poissons Ratio (z) = 0.06702 0.34263
#
# Static dielectric constant tensor:
#      x y z
#    x 3.762010 0.000000 0.000000 
#    y 0.000000 3.708260 0.000000 
#    z 0.000000 0.000000 3.496810 
# 
# 
# High freq. dielectric constant tensor:
#      x y z
#    x 1.785090 0.000000 0.000000 
#    y 0.000000 1.776790 0.000000 
#    z 0.000000 0.000000 1.771880 
# 
# From -- ./inp_files/25091.got.cif
#   From: 2010.06.25/outbox.cif.g09.slc.cpg/sg52_13_cif.got.tgz:25091.got - 2010.06.26 19:32:48.
