data_PCOD8215655
_publ_section_title
;
Structure prediction by ZEFSAII (Michael W. Deem and Ramdas Pophale) SiO2 
 PCOD8215655
Probable space group: P N N A
;
_chemical_formula_sum "Si O2"
_cell_formula_units_Z 56
_cell_length_a 9.118935
_cell_length_b 21.441046
_cell_length_c 17.334206
_cell_angle_alpha 90.000000
_cell_angle_beta 90.000000
_cell_angle_gamma 90.000000
_cell_volume 3389.175373
_symmetry_space_group_name_H-M "P N N A"
_symmetry_group_IT_number 52
_symmetry_cell_setting 'orthorhombic'
loop_
_space_group_symop_operation_xyz
x,y,z
1/2-x,-y,z
x,1/2-y,1/2-z
1/2-x,1/2+y,1/2-z
-x,-y,-z
1/2+x,y,-z
-x,1/2+y,1/2+z
1/2+x,1/2-y,1/2+z
loop_
_atom_site_type_symbol
_atom_site_label
_atom_site_fract_x
_atom_site_fract_y
_atom_site_fract_z
Si Si1 0.304390 0.279212 0.575996
Si Si2 0.793223 0.180777 0.782207
Si Si3 0.970635 0.318960 0.284676
Si Si4 0.697566 0.851801 0.617395
Si Si5 0.958877 0.347440 0.120889
Si Si6 0.043975 0.723802 0.422631
Si Si7 0.872295 0.452665 0.007363
O O1 0.353081 0.324713 0.646315
O O2 0.365511 0.210468 0.590831
O O3 0.377714 0.305132 0.497839
O O4 0.130140 0.277315 0.568440
O O5 0.784947 0.250000 0.750000
O O6 0.632807 0.162871 0.815855
O O7 0.835368 0.136829 0.708942
O O8 0.912369 0.179154 0.850647
O O9 0.973445 0.250000 0.250000
O O10 0.928590 0.362013 0.211476
O O11 0.598228 0.795001 0.586832
O O12 0.658997 0.914802 0.571660
O O13 0.868700 0.834068 0.605470
O O14 0.901181 0.406967 0.077300
O O15 0.750000 0.500000 0.033015
O O16 0.000000 0.500000 0.000000
#
# Coordination Sequence:
#
# PCOD8215655 Si02
#       7
#     8   8   8   8   8   8   8
#     4  11  20  29  47  72  98 127 161 196 243 298
#     4   8  16  31  48  66  92 125 158 194 244 298
#     4   8  16  31  48  66  92 125 158 194 244 297
#     4  10  20  35  49  66  95 130 163 205 248 284
#     4  10  20  35  49  66  95 130 163 205 248 283
#     4  11  20  29  47  72  98 127 161 196 243 297
#     4  12  24  36  50  72  96 132 176 210 238 279
#
# _framework density 16.523192999999999
#
# number of rings (size 3 to 8) (size 9 to 14) (size 15 to 20)
#    0.000    2.000    2.857    4.286    2.000    5.143 
#    0.000    0.000    0.000    0.000    0.000    0.000 
#    0.000    2.286    0.000    0.143    0.000    0.000 
#
# Total GULP energy -693908.223719 kJ/mol
# GULP energy per Si atom -12391.218281 kJ/mol
# Density = 1.648559 g / cm^3
# Si number density = 16.523193 Si / 1000 Ang^3
#
#
#
# Elastic Constant Matrix: (Units=GPa)
#
#
# Indices 1 2 3 4 5 6 
#
# 1 142.2958 26.0495 73.8523 0.0000 0.0000 0.0000
# 2 26.0495 46.9669 42.1815 0.0000 0.0000 0.0000
# 3 73.8523 42.1815 140.9513 0.0000 0.0000 0.0000
# 4 0.0000 0.0000 0.0000 21.2633 0.0000 0.0000
# 5 0.0000 0.0000 0.0000 0.0000 29.8046 0.0000
# 6 0.0000 0.0000 0.0000 0.0000 0.0000 13.1799
#
#
#
# Elastic Compliance Matrix: (Units=1/GPa)
#
#
# Indices 1 2 3 4 5 6 
#
# 1 0.009695 -0.001115 -0.004746 0.000000 0.000000 0.000000
# 2 -0.001115 0.029246 -0.008168 0.000000 0.000000 0.000000
# 3 -0.004746 -0.008168 0.012026 0.000000 0.000000 0.000000
# 4 0.000000 0.000000 0.000000 0.047029 0.000000 0.000000
# 5 0.000000 0.000000 0.000000 0.000000 0.033552 0.000000
# 6 0.000000 0.000000 0.000000 0.000000 0.000000 0.075873
#
#
# Mechanical properties :
#
#
# Convention : Reuss Voigt Hill
#
# Bulk Modulus (GPa) = 43.65156 68.26450 55.95803
# Shear Modulus (GPa) = 20.56640 25.39161 22.97901
#
# Velocity S-wave (km/s) = 3.53186 3.92436 3.73327
# Velocity P-wave (km/s) = 6.56565 7.87008 7.24727
#
# Compressibility (1/GPa) = 0.02290869
#
# Stress axis : x y z
#
# Youngs Moduli (GPa) = 103.14655 34.19304 83.15401
#
# Poissons Ratio (x) = 0.03811 0.39466
# Poissons Ratio (y) = 0.11496 0.67922
# Poissons Ratio (z) = 0.48955 0.27930
#
# Static dielectric constant tensor:
#      x y z
#    x 3.207650 0.000000 0.000000 
#    y 0.000000 2.751320 0.000000 
#    z 0.000000 0.000000 4.084790 
# 
# 
# High freq. dielectric constant tensor:
#      x y z
#    x 1.648640 0.000000 0.000000 
#    y 0.000000 1.568340 0.000000 
#    z 0.000000 0.000000 1.652180 
# 
# From -- ./inp_files/31554.got.cif
#   From: 2010.06.25/outbox.cif.g09.slc.cpg/sg52_16_cif.got.tgz:31554.got - 2010.06.26 19:32:48.
