data_PCOD8215506
_publ_section_title
;
Structure prediction by ZEFSAII (Michael W. Deem and Ramdas Pophale) SiO2 
 PCOD8215506
Probable space group: P N N A
;
_chemical_formula_sum "Si O2"
_cell_formula_units_Z 44
_cell_length_a 8.596271
_cell_length_b 13.838921
_cell_length_c 19.579822
_cell_angle_alpha 90.000000
_cell_angle_beta 90.000000
_cell_angle_gamma 90.000000
_cell_volume 2329.276621
_symmetry_space_group_name_H-M "P N N A"
_symmetry_group_IT_number 52
_symmetry_cell_setting 'orthorhombic'
loop_
_space_group_symop_operation_xyz
x,y,z
1/2-x,-y,z
x,1/2-y,1/2-z
1/2-x,1/2+y,1/2-z
-x,-y,-z
1/2+x,y,-z
-x,1/2+y,1/2+z
1/2+x,1/2-y,1/2+z
loop_
_atom_site_type_symbol
_atom_site_label
_atom_site_fract_x
_atom_site_fract_y
_atom_site_fract_z
Si Si1 0.273109 0.660094 0.571899
Si Si2 0.489637 0.966051 0.841839
Si Si3 0.126842 0.306865 0.820436
Si Si4 0.811445 0.224417 0.820939
Si Si5 0.750000 0.000000 0.267419
Si Si6 0.910857 0.858830 0.922828
O O1 0.345275 0.571103 0.613003
O O2 0.313757 0.759205 0.609677
O O3 0.332905 0.645608 0.495850
O O4 0.089629 0.662780 0.569173
O O5 0.594101 0.876861 0.816921
O O6 0.406073 0.019632 0.778001
O O7 0.601347 0.037418 0.884814
O O8 0.168084 0.250000 0.750000
O O9 0.210461 0.410067 0.816160
O O10 0.939260 0.309747 0.830943
O O11 0.724945 0.250000 0.750000
O O12 0.679713 0.221970 0.878578
#
# Coordination Sequence:
#
# PCOD8215506 Si02
#       6
#     8   8   8   8   4   8
#     4  11  22  37  56  86 124 157 201 253 319 361
#     4  11  20  37  58  93 120 156 206 252 308 378
#     4  10  19  38  61  87 122 164 200 257 303 370
#     4  10  21  38  55  83 129 159 195 253 315 362
#     4  12  18  36  70  88 122 158 216 246 304 378
#     4  12  23  36  59  86 120 166 201 256 308 376
#
# _framework density 18.889986
#
# number of rings (size 3 to 8) (size 9 to 14) (size 15 to 20)
#    0.000    1.091    7.273    3.273    0.000    3.636 
#    0.000    0.000    0.000    4.364    0.000    0.000 
#    0.000    0.000    0.000    0.000    0.000    0.000 
#
# Total GULP energy -545130.542100 kJ/mol
# GULP energy per Si atom -12389.330502 kJ/mol
# Density = 1.884699 g / cm^3
# Si number density = 18.889986 Si / 1000 Ang^3
#
#
#
# Elastic Constant Matrix: (Units=GPa)
#
#
# Indices 1 2 3 4 5 6 
#
# 1 103.5328 27.5167 43.7811 0.0000 0.0000 0.0000
# 2 27.5167 84.5623 51.2528 0.0000 0.0000 0.0000
# 3 43.7811 51.2528 99.4772 0.0000 0.0000 0.0000
# 4 0.0000 0.0000 0.0000 31.5921 0.0000 0.0000
# 5 0.0000 0.0000 0.0000 0.0000 20.0382 0.0000
# 6 0.0000 0.0000 0.0000 0.0000 0.0000 20.8546
#
#
#
# Elastic Compliance Matrix: (Units=1/GPa)
#
#
# Indices 1 2 3 4 5 6 
#
# 1 0.011927 -0.001017 -0.004725 0.000000 0.000000 0.000000
# 2 -0.001017 0.017282 -0.008456 0.000000 0.000000 0.000000
# 3 -0.004725 -0.008456 0.016489 0.000000 0.000000 0.000000
# 4 0.000000 0.000000 0.000000 0.031654 0.000000 0.000000
# 5 0.000000 0.000000 0.000000 0.000000 0.049905 0.000000
# 6 0.000000 0.000000 0.000000 0.000000 0.000000 0.047951
#
#
# Mechanical properties :
#
#
# Convention : Reuss Voigt Hill
#
# Bulk Modulus (GPa) = 57.80109 59.18596 58.49353
# Shear Modulus (GPa) = 23.88093 25.49842 24.68968
#
# Velocity S-wave (km/s) = 3.55943 3.67800 3.61920
# Velocity P-wave (km/s) = 6.89623 7.03113 6.96401
#
# Compressibility (1/GPa) = 0.01730071
#
# Stress axis : x y z
#
# Youngs Moduli (GPa) = 83.84120 57.86383 60.64616
#
# Poissons Ratio (x) = 0.05886 0.28657
# Poissons Ratio (y) = 0.08528 0.51284
# Poissons Ratio (z) = 0.39617 0.48932
#
# Static dielectric constant tensor:
#      x y z
#    x 3.658370 0.000000 0.000000 
#    y 0.000000 3.421290 0.000000 
#    z 0.000000 0.000000 3.553420 
# 
# 
# High freq. dielectric constant tensor:
#      x y z
#    x 1.747340 0.000000 0.000000 
#    y 0.000000 1.701130 0.000000 
#    z 0.000000 0.000000 1.731380 
# 
# From -- ./inp_files/31172.got.cif
#   From: 2010.06.25/outbox.cif.g09.slc.cpg/sg52_16_cif.got.tgz:31172.got - 2010.06.26 19:32:48.
