data_PCOD8215139
_publ_section_title
;
Structure prediction by ZEFSAII (Michael W. Deem and Ramdas Pophale) SiO2 
 PCOD8215139
Probable space group: P N N A
;
_chemical_formula_sum "Si O2"
_cell_formula_units_Z 52
_cell_length_a 20.904261
_cell_length_b 12.471463
_cell_length_c 11.054417
_cell_angle_alpha 90.000000
_cell_angle_beta 90.000000
_cell_angle_gamma 90.000000
_cell_volume 2881.960771
_symmetry_space_group_name_H-M "P N N A"
_symmetry_group_IT_number 52
_symmetry_cell_setting 'orthorhombic'
loop_
_space_group_symop_operation_xyz
x,y,z
1/2-x,-y,z
x,1/2-y,1/2-z
1/2-x,1/2+y,1/2-z
-x,-y,-z
1/2+x,y,-z
-x,1/2+y,1/2+z
1/2+x,1/2-y,1/2+z
loop_
_atom_site_type_symbol
_atom_site_label
_atom_site_fract_x
_atom_site_fract_y
_atom_site_fract_z
Si Si1 0.915184 0.938605 0.097821
Si Si2 0.532388 0.653935 0.460241
Si Si3 0.522055 0.081599 0.332019
Si Si4 0.028870 0.355039 0.100899
Si Si5 0.862037 0.750000 0.750000
Si Si6 0.103839 0.854306 0.198746
Si Si7 0.180741 0.050015 0.108030
O O1 0.919973 0.893697 0.235531
O O2 0.962066 0.875776 0.008712
O O3 0.847159 0.937538 0.029189
O O4 0.941191 0.058518 0.121092
O O5 0.521978 0.758918 0.379255
O O6 0.583073 0.676353 0.564484
O O7 0.544372 0.131634 0.458251
O O8 0.457242 0.136335 0.286105
O O9 0.506286 0.956577 0.344086
O O10 0.095177 0.326822 0.165828
O O11 0.818358 0.832618 0.828296
O O12 0.143184 0.750000 0.250000
O O13 0.142145 0.966017 0.193099
O O14 0.250000 0.000000 0.091710
#
# Coordination Sequence:
#
# PCOD8215139 Si02
#       7
#     8   8   8   8   4   8   8
#     4   9  18  34  50  78 106 136 184 222 267 327
#     4   9  16  28  51  77 109 139 162 214 279 336
#     4  10  20  31  53  88 116 142 171 219 291 345
#     4  11  19  31  52  87 119 142 168 214 292 354
#     4  12  22  38  54  84 116 146 184 236 272 334
#     4  10  18  33  51  81 114 139 176 224 276 335
#     4  11  24  38  57  76 102 154 198 233 268 313
#
# _framework density 18.043271000000001
#
# number of rings (size 3 to 8) (size 9 to 14) (size 15 to 20)
#    0.000    1.846    4.615    1.846    1.077    0.000 
#    0.000    0.000    0.000    0.923    8.000    0.000 
#    0.000    0.000    0.000    0.000    0.000    0.000 
#
# Total GULP energy -644239.742343 kJ/mol
# GULP energy per Si atom -12389.225814 kJ/mol
# Density = 1.800220 g / cm^3
# Si number density = 18.043271 Si / 1000 Ang^3
#
#
#
# Elastic Constant Matrix: (Units=GPa)
#
#
# Indices 1 2 3 4 5 6 
#
# 1 70.1560 20.1713 39.1966 0.0000 0.0000 0.0000
# 2 20.1713 84.4181 6.8933 0.0000 0.0000 0.0000
# 3 39.1966 6.8933 90.2592 0.0000 0.0000 0.0000
# 4 0.0000 0.0000 0.0000 22.7046 0.0000 0.0000
# 5 0.0000 0.0000 0.0000 0.0000 12.2480 0.0000
# 6 0.0000 0.0000 0.0000 0.0000 0.0000 21.8916
#
#
#
# Elastic Compliance Matrix: (Units=1/GPa)
#
#
# Indices 1 2 3 4 5 6 
#
# 1 0.020154 -0.004127 -0.008437 0.000000 0.000000 0.000000
# 2 -0.004127 0.012765 0.000817 0.000000 0.000000 0.000000
# 3 -0.008437 0.000817 0.014681 0.000000 0.000000 0.000000
# 4 0.000000 0.000000 0.000000 0.044044 0.000000 0.000000
# 5 0.000000 0.000000 0.000000 0.000000 0.081646 0.000000
# 6 0.000000 0.000000 0.000000 0.000000 0.000000 0.045680
#
#
# Mechanical properties :
#
#
# Convention : Reuss Voigt Hill
#
# Bulk Modulus (GPa) = 41.48220 41.92842 41.70531
# Shear Modulus (GPa) = 19.96016 23.27366 21.61691
#
# Velocity S-wave (km/s) = 3.32962 3.59539 3.46505
# Velocity P-wave (km/s) = 6.14997 6.36584 6.25884
#
# Compressibility (1/GPa) = 0.02410673
#
# Stress axis : x y z
#
# Youngs Moduli (GPa) = 49.61688 78.33828 68.11614
#
# Poissons Ratio (x) = 0.32329 0.57471
# Poissons Ratio (y) = 0.20476 -0.05567
# Poissons Ratio (z) = 0.41863 -0.06402
#
# Static dielectric constant tensor:
#      x y z
#    x 2.869060 0.000000 0.000000 
#    y 0.000000 3.718960 0.000000 
#    z 0.000000 0.000000 3.434190 
# 
# 
# High freq. dielectric constant tensor:
#      x y z
#    x 1.632320 0.000000 0.000000 
#    y 0.000000 1.726660 0.000000 
#    z 0.000000 0.000000 1.702590 
# 
# From -- ./inp_files/21817.got.cif
#   From: 2010.06.25/outbox.cif.g09.slc.cpg/sg52_11_cif.got.tgz:21817.got - 2010.06.26 19:32:48.
