data_PCOD8215083
_publ_section_title
;
Structure prediction by ZEFSAII (Michael W. Deem and Ramdas Pophale) SiO2 
 PCOD8215083
Probable space group: P N N A
;
_chemical_formula_sum "Si O2"
_cell_formula_units_Z 32
_cell_length_a 14.852467
_cell_length_b 8.407611
_cell_length_c 12.980596
_cell_angle_alpha 90.000000
_cell_angle_beta 90.000000
_cell_angle_gamma 90.000000
_cell_volume 1620.935894
_symmetry_space_group_name_H-M "P N N A"
_symmetry_group_IT_number 52
_symmetry_cell_setting 'orthorhombic'
loop_
_space_group_symop_operation_xyz
x,y,z
1/2-x,-y,z
x,1/2-y,1/2-z
1/2-x,1/2+y,1/2-z
-x,-y,-z
1/2+x,y,-z
-x,1/2+y,1/2+z
1/2+x,1/2-y,1/2+z
loop_
_atom_site_type_symbol
_atom_site_label
_atom_site_fract_x
_atom_site_fract_y
_atom_site_fract_z
Si Si1 0.654911 0.430767 0.456331
Si Si2 0.959807 0.065232 0.220280
Si Si3 0.819969 0.866746 0.338287
Si Si4 0.841922 0.580192 0.699678
O O1 0.750000 0.500000 0.416771
O O2 0.577044 0.530373 0.396251
O O3 0.650791 0.242211 0.433469
O O4 0.647304 0.436961 0.577749
O O5 0.947641 0.250000 0.250000
O O6 0.063049 0.007646 0.236704
O O7 0.908274 0.954143 0.299182
O O8 0.778801 0.750000 0.250000
O O9 0.750000 0.000000 0.374649
O O10 0.750000 0.500000 0.738816
O O11 0.834133 0.750000 0.750000
#
# Coordination Sequence:
#
# PCOD8215083 Si02
#       4
#     8   8   8   8
#     4  10  20  35  56  81 108 140 174 218 270 319
#     4  10  19  35  56  81 109 137 172 221 273 322
#     4  10  18  30  53  84 109 132 167 218 277 326
#     4  10  23  40  55  74 106 147 187 219 255 309
#
# _framework density 19.741681
#
# number of rings (size 3 to 8) (size 9 to 14) (size 15 to 20)
#    0.000    2.000    0.000    6.000    0.000    4.000 
#    0.000    5.000    0.000    0.000    0.000    0.000 
#    0.000    0.000    0.000    0.000    0.000    0.000 
#
# Total GULP energy -396423.741621 kJ/mol
# GULP energy per Si atom -12388.241926 kJ/mol
# Density = 1.969675 g / cm^3
# Si number density = 19.741681 Si / 1000 Ang^3
#
#
#
# Elastic Constant Matrix: (Units=GPa)
#
#
# Indices 1 2 3 4 5 6 
#
# 1 164.0011 61.9292 35.8601 0.0000 0.0000 0.0000
# 2 61.9292 113.7375 31.1433 0.0000 0.0000 0.0000
# 3 35.8601 31.1433 36.4841 0.0000 0.0000 0.0000
# 4 0.0000 0.0000 0.0000 25.5358 0.0000 0.0000
# 5 0.0000 0.0000 0.0000 0.0000 -6.1076 0.0000
# 6 0.0000 0.0000 0.0000 0.0000 0.0000 -1.3334
#
#
#
# Elastic Compliance Matrix: (Units=1/GPa)
#
#
# Indices 1 2 3 4 5 6 
#
# 1 0.008511 -0.003058 -0.005754 0.000000 0.000000 0.000000
# 2 -0.003058 0.012573 -0.007727 0.000000 0.000000 0.000000
# 3 -0.005754 -0.007727 0.039661 0.000000 0.000000 0.000000
# 4 0.000000 0.000000 0.000000 0.039161 0.000000 0.000000
# 5 0.000000 0.000000 0.000000 0.000000 -0.163730 0.000000
# 6 0.000000 0.000000 0.000000 0.000000 0.000000 -0.749946
#
#
# Mechanical properties :
#
#
# Convention : Reuss Voigt Hill
#
# Bulk Modulus (GPa) = 36.14568 63.56532 49.85550
# Shear Modulus (GPa) = -6.48113 15.97162 4.74524
#
# Velocity S-wave (km/s) = -1.81386 2.84743 1.55206
# Velocity P-wave (km/s) = 3.73661 6.56345 5.34047
#
# Compressibility (1/GPa) = 0.02766582
#
# Stress axis : x y z
#
# Youngs Moduli (GPa) = 117.49991 79.53520 25.21385
#
# Poissons Ratio (x) = 0.24324 0.14509
# Poissons Ratio (y) = 0.35935 0.19482
# Poissons Ratio (z) = 0.67615 0.61453
#
# Static dielectric constant tensor:
#      x y z
#    x 4.172420 0.000000 0.000000 
#    y 0.000000 3.488810 0.000000 
#    z 0.000000 0.000000 3.454400 
# 
# 
# High freq. dielectric constant tensor:
#      x y z
#    x 1.785770 0.000000 0.000000 
#    y 0.000000 1.771760 0.000000 
#    z 0.000000 0.000000 1.750530 
# 
# From -- ./inp_files/18833.got.cif
#   From: 2010.06.25/outbox.cif.g09.slc.cpg/sg52_10_cif.got.tgz:18833.got - 2010.06.26 19:32:48.
