data_PCOD8215602
_publ_section_title
;
Structure prediction by ZEFSAII (Michael W. Deem and Ramdas Pophale) SiO2 
 PCOD8215602
Probable space group: P N N A
;
_chemical_formula_sum "Si O2"
_cell_formula_units_Z 48
_cell_length_a 10.816798
_cell_length_b 8.715388
_cell_length_c 24.970018
_cell_angle_alpha 90.000000
_cell_angle_beta 90.000000
_cell_angle_gamma 90.000000
_cell_volume 2353.988306
_symmetry_space_group_name_H-M "P N N A"
_symmetry_group_IT_number 52
_symmetry_cell_setting 'orthorhombic'
loop_
_space_group_symop_operation_xyz
x,y,z
1/2-x,-y,z
x,1/2-y,1/2-z
1/2-x,1/2+y,1/2-z
-x,-y,-z
1/2+x,y,-z
-x,1/2+y,1/2+z
1/2+x,1/2-y,1/2+z
loop_
_atom_site_type_symbol
_atom_site_label
_atom_site_fract_x
_atom_site_fract_y
_atom_site_fract_z
Si Si1 0.131464 0.596781 0.904273
Si Si2 0.584829 0.337291 0.304011
Si Si3 0.279801 0.328708 0.020283
Si Si4 0.496309 0.293381 0.094587
Si Si5 0.625517 0.684154 0.308049
Si Si6 0.622164 0.408879 0.482458
O O1 0.250000 0.500000 0.882705
O O2 0.026144 0.471233 0.916618
O O3 0.079778 0.712032 0.858375
O O4 0.161720 0.683206 0.960168
O O5 0.551748 0.250000 0.250000
O O6 0.491850 0.245870 0.343097
O O7 0.557915 0.519095 0.307247
O O8 0.728481 0.318663 0.316923
O O9 0.250000 0.500000 0.036968
O O10 0.370877 0.253845 0.063469
O O11 0.152974 0.229737 0.024028
O O12 0.600624 0.174219 0.074037
O O13 0.590956 0.750000 0.250000
O O14 0.750000 0.500000 0.477176
O O15 0.500000 0.500000 0.500000
#
# Coordination Sequence:
#
# PCOD8215602 Si02
#       6
#     8   8   8   8   8   8
#     4  11  20  35  56  86 125 166 216 256 322 395
#     4  10  21  35  55  87 125 165 216 267 333 395
#     4  11  24  43  61  90 128 175 220 266 327 397
#     4  12  23  38  63  89 126 174 213 270 331 391
#     4  10  20  33  56  85 128 171 208 267 332 399
#     4  12  25  40  62  95 137 170 220 267 326 394
#
# _framework density 20.390924999999999
#
# number of rings (size 3 to 8) (size 9 to 14) (size 15 to 20)
#    0.000    1.000    6.667    1.500    7.000    0.000 
#    0.000    0.000    0.000    0.000    4.333    0.000 
#    0.000    0.000    0.000    0.000    0.000    0.000 
#
# Total GULP energy -594770.675128 kJ/mol
# GULP energy per Si atom -12391.055732 kJ/mol
# Density = 2.034451 g / cm^3
# Si number density = 20.390925 Si / 1000 Ang^3
#
#
#
# Elastic Constant Matrix: (Units=GPa)
#
#
# Indices 1 2 3 4 5 6 
#
# 1 81.2093 45.8353 45.6445 0.0000 0.0000 0.0000
# 2 45.8353 135.0428 51.7292 0.0000 0.0000 0.0000
# 3 45.6445 51.7292 128.9158 0.0000 0.0000 0.0000
# 4 0.0000 0.0000 0.0000 37.5867 0.0000 0.0000
# 5 0.0000 0.0000 0.0000 0.0000 22.4771 0.0000
# 6 0.0000 0.0000 0.0000 0.0000 0.0000 31.3077
#
#
#
# Elastic Compliance Matrix: (Units=1/GPa)
#
#
# Indices 1 2 3 4 5 6 
#
# 1 0.017117 -0.004122 -0.004407 0.000000 0.000000 0.000000
# 2 -0.004122 0.009743 -0.002450 0.000000 0.000000 0.000000
# 3 -0.004407 -0.002450 0.010300 0.000000 0.000000 0.000000
# 4 0.000000 0.000000 0.000000 0.026605 0.000000 0.000000
# 5 0.000000 0.000000 0.000000 0.000000 0.044490 0.000000
# 6 0.000000 0.000000 0.000000 0.000000 0.000000 0.031941
#
#
# Mechanical properties :
#
#
# Convention : Reuss Voigt Hill
#
# Bulk Modulus (GPa) = 65.77569 70.17620 67.97595
# Shear Modulus (GPa) = 29.90070 31.73822 30.81946
#
# Velocity S-wave (km/s) = 3.83348 3.94951 3.89193
# Velocity P-wave (km/s) = 7.20565 7.43561 7.32154
#
# Compressibility (1/GPa) = 0.01520319
#
# Stress axis : x y z
#
# Youngs Moduli (GPa) = 58.42147 102.64297 97.08455
#
# Poissons Ratio (x) = 0.42307 0.42781
# Poissons Ratio (y) = 0.24080 0.23785
# Poissons Ratio (z) = 0.25744 0.25147
#
# Static dielectric constant tensor:
#      x y z
#    x 3.358210 0.000000 0.000000 
#    y 0.000000 4.136220 0.000000 
#    z 0.000000 0.000000 3.567660 
# 
# 
# High freq. dielectric constant tensor:
#      x y z
#    x 1.746690 0.000000 0.000000 
#    y 0.000000 1.824460 0.000000 
#    z 0.000000 0.000000 1.787090 
# 
# From -- ./inp_files/40166.got.cif
#   From: 2010.06.25/outbox.cif.g09.slc.cpg/sg52_21_cif.got.tgz:40166.got - 2010.06.26 19:32:48.
