data_PCOD8215462
_publ_section_title
;
Structure prediction by ZEFSAII (Michael W. Deem and Ramdas Pophale) SiO2 
 PCOD8215462
Probable space group: P N N A
;
_chemical_formula_sum "Si O2"
_cell_formula_units_Z 32
_cell_length_a 16.027548
_cell_length_b 16.132462
_cell_length_c 5.171729
_cell_angle_alpha 90.000000
_cell_angle_beta 90.000000
_cell_angle_gamma 90.000000
_cell_volume 1337.221950
_symmetry_space_group_name_H-M "P N N A"
_symmetry_group_IT_number 52
_symmetry_cell_setting 'orthorhombic'
loop_
_space_group_symop_operation_xyz
x,y,z
1/2-x,-y,z
x,1/2-y,1/2-z
1/2-x,1/2+y,1/2-z
-x,-y,-z
1/2+x,y,-z
-x,1/2+y,1/2+z
1/2+x,1/2-y,1/2+z
loop_
_atom_site_type_symbol
_atom_site_label
_atom_site_fract_x
_atom_site_fract_y
_atom_site_fract_z
Si Si1 0.168744 0.545371 0.806588
Si Si2 0.425142 0.615989 0.970848
Si Si3 0.748185 0.301738 0.005120
Si Si4 0.979094 0.094442 0.020747
O O1 0.250000 0.500000 0.682091
O O2 0.120199 0.596623 0.581302
O O3 0.106878 0.479781 0.946340
O O4 0.200497 0.612100 0.017151
O O5 0.349008 0.679042 0.951981
O O6 0.469323 0.633412 0.242074
O O7 0.492170 0.638611 0.744750
O O8 0.764988 0.250000 0.750000
O O9 0.780342 0.250000 0.250000
O O10 0.000000 0.000000 0.000000
#
# Coordination Sequence:
#
# PCOD8215462 Si02
#       4
#     8   8   8   8
#     4   9  20  38  63  93 122 156 201 254 309 365
#     4  10  21  39  63  87 119 161 206 250 298 365
#     4  11  24  41  60  88 126 166 203 251 312 370
#     4  10  19  36  62  92 118 151 203 255 300 358
#
# _framework density 23.930208
#
# number of rings (size 3 to 8) (size 9 to 14) (size 15 to 20)
#    0.000    2.000    0.000    4.500    0.000    6.000 
#    0.000   25.000    0.000    0.000    0.000    0.000 
#    0.000    0.000    0.000    0.000    0.000    0.000 
#
# Total GULP energy -396626.965929 kJ/mol
# GULP energy per Si atom -12394.592685 kJ/mol
# Density = 2.387574 g / cm^3
# Si number density = 23.930208 Si / 1000 Ang^3
#
#
#
# Elastic Constant Matrix: (Units=GPa)
#
#
# Indices 1 2 3 4 5 6 
#
# 1 119.9122 34.5118 34.0502 0.0000 0.0000 0.0000
# 2 34.5118 70.1199 38.1128 0.0000 0.0000 0.0000
# 3 34.0502 38.1128 154.5566 0.0000 0.0000 0.0000
# 4 0.0000 0.0000 0.0000 27.0888 0.0000 0.0000
# 5 0.0000 0.0000 0.0000 0.0000 17.0675 0.0000
# 6 0.0000 0.0000 0.0000 0.0000 0.0000 27.9586
#
#
#
# Elastic Compliance Matrix: (Units=1/GPa)
#
#
# Indices 1 2 3 4 5 6 
#
# 1 0.009883 -0.004251 -0.001129 0.000000 0.000000 0.000000
# 2 -0.004251 0.018297 -0.003575 0.000000 0.000000 0.000000
# 3 -0.001129 -0.003575 0.007601 0.000000 0.000000 0.000000
# 4 0.000000 0.000000 0.000000 0.036916 0.000000 0.000000
# 5 0.000000 0.000000 0.000000 0.000000 0.058591 0.000000
# 6 0.000000 0.000000 0.000000 0.000000 0.000000 0.035767
#
#
# Mechanical properties :
#
#
# Convention : Reuss Voigt Hill
#
# Bulk Modulus (GPa) = 55.95920 61.99314 58.97617
# Shear Modulus (GPa) = 26.18872 30.28392 28.23632
#
# Velocity S-wave (km/s) = 3.31173 3.56126 3.43876
# Velocity P-wave (km/s) = 6.16916 6.54768 6.36124
#
# Compressibility (1/GPa) = 0.01787016
#
# Stress axis : x y z
#
# Youngs Moduli (GPa) = 101.17901 54.65446 131.56896
#
# Poissons Ratio (x) = 0.23232 0.14857
# Poissons Ratio (y) = 0.43008 0.47041
# Poissons Ratio (z) = 0.11425 0.19541
#
# Static dielectric constant tensor:
#      x y z
#    x 3.078480 0.000000 0.000000 
#    y 0.000000 4.058970 0.000000 
#    z 0.000000 0.000000 4.613890 
# 
# 
# High freq. dielectric constant tensor:
#      x y z
#    x 1.959350 0.000000 0.000000 
#    y 0.000000 1.929610 0.000000 
#    z 0.000000 0.000000 1.935540 
# 
# From -- ./inp_files/3138.got.cif
#   From: 2010.06.25/outbox.cif.g09.slc.cpg/sg52_2_cif.got.tgz:3138.got - 2010.06.26 19:32:48.
