data_PCOD8215269
_publ_section_title
;
Structure prediction by ZEFSAII (Michael W. Deem and Ramdas Pophale) SiO2 
 PCOD8215269
Probable space group: P N N A
;
_chemical_formula_sum "Si O2"
_cell_formula_units_Z 64
_cell_length_a 9.411318
_cell_length_b 17.329083
_cell_length_c 23.325382
_cell_angle_alpha 90.000000
_cell_angle_beta 90.000000
_cell_angle_gamma 90.000000
_cell_volume 3804.125139
_symmetry_space_group_name_H-M "P N N A"
_symmetry_group_IT_number 52
_symmetry_cell_setting 'orthorhombic'
loop_
_space_group_symop_operation_xyz
x,y,z
1/2-x,-y,z
x,1/2-y,1/2-z
1/2-x,1/2+y,1/2-z
-x,-y,-z
1/2+x,y,-z
-x,1/2+y,1/2+z
1/2+x,1/2-y,1/2+z
loop_
_atom_site_type_symbol
_atom_site_label
_atom_site_fract_x
_atom_site_fract_y
_atom_site_fract_z
Si Si1 0.916529 0.500000 0.356840
Si Si2 0.090897 0.500000 0.242943
Si Si3 0.415800 0.193597 0.556945
Si Si4 0.909296 0.085434 0.633394
Si Si5 0.414486 0.628957 0.556029
Si Si6 0.914486 0.371043 0.443971
Si Si7 0.084200 0.193597 0.556945
Si Si8 0.909296 0.914566 0.633394
O O1 0.750000 0.500000 0.347417
O O2 0.965517 0.576256 0.391183
O O3 0.965517 0.423744 0.391183
O O4 0.982182 0.500000 0.294347
O O5 0.250000 0.500000 0.268301
O O6 0.068890 0.575755 0.202335
O O7 0.068890 0.424245 0.202335
O O8 0.444524 0.282558 0.572437
O O9 0.250000 0.176605 0.547482
O O10 0.500000 0.169209 0.500000
O O11 0.473178 0.143538 0.609681
O O12 0.750000 0.116961 0.620704
O O13 0.026822 0.143538 0.609681
O O14 0.926401 0.000000 0.604854
O O15 0.500000 0.603741 0.500000
O O16 0.250000 0.614473 0.542108
O O17 0.444524 0.717442 0.572437
#
# Coordination Sequence:
#
# PCOD8215269 Si02
#       8
#     8   8   8   8   8   8   8   8
#     4  10  19  33  53  73  97 128 163 200 242 286
#     4   8  18  35  52  71  95 124 164 206 237 280
#     4  10  19  31  49  73 101 129 160 196 240 289
#     4   8  17  34  52  69  96 127 161 203 238 279
#     4   9  19  33  49  74 102 128 159 198 239 286
#     4   9  19  33  49  74 102 128 159 198 239 286
#     4  10  19  31  49  73 101 129 160 196 240 289
#     4   8  17  34  52  69  96 127 161 203 238 279
#
# _framework density 16.823841999999999
#
# number of rings (size 3 to 8) (size 9 to 14) (size 15 to 20)
#    0.750    2.250    0.000    1.125    0.000    4.000 
#    0.000    1.250    0.000    7.500    0.000    0.000 
#    0.000    0.000    0.000    0.000    0.000    0.000 
#
# Total GULP energy -793229.735775 kJ/mol
# GULP energy per Si atom -12394.214621 kJ/mol
# Density = 1.678555 g / cm^3
# Si number density = 16.823842 Si / 1000 Ang^3
#
#
#
# Elastic Constant Matrix: (Units=GPa)
#
#
# Indices 1 2 3 4 5 6 
#
# 1 87.1959 48.6715 58.9413 0.0000 0.0000 0.0000
# 2 48.6715 75.2489 55.5415 0.0000 0.0000 0.0000
# 3 58.9413 55.5415 105.1375 0.0000 0.0000 0.0000
# 4 0.0000 0.0000 0.0000 2.5171 0.0000 0.0000
# 5 0.0000 0.0000 0.0000 0.0000 37.4683 0.0000
# 6 0.0000 0.0000 0.0000 0.0000 0.0000 20.9060
#
#
#
# Elastic Compliance Matrix: (Units=1/GPa)
#
#
# Indices 1 2 3 4 5 6 
#
# 1 0.021072 -0.008049 -0.007562 0.000000 0.000000 0.000000
# 2 -0.008049 0.024857 -0.008619 0.000000 0.000000 0.000000
# 3 -0.007562 -0.008619 0.018304 0.000000 0.000000 0.000000
# 4 0.000000 0.000000 0.000000 0.397281 0.000000 0.000000
# 5 0.000000 0.000000 0.000000 0.000000 0.026689 0.000000
# 6 0.000000 0.000000 0.000000 0.000000 0.000000 0.047833
#
#
# Mechanical properties :
#
#
# Convention : Reuss Voigt Hill
#
# Bulk Modulus (GPa) = 63.39357 65.98786 64.69072
# Shear Modulus (GPa) = 8.47813 19.14014 13.80913
#
# Velocity S-wave (km/s) = 2.24729 3.37661 2.86808
# Velocity P-wave (km/s) = 6.67056 7.38309 7.03585
#
# Compressibility (1/GPa) = 0.01577447
#
# Stress axis : x y z
#
# Youngs Moduli (GPa) = 47.45552 40.23022 54.63357
#
# Poissons Ratio (x) = 0.32379 0.41312
# Poissons Ratio (y) = 0.38195 0.47090
# Poissons Ratio (z) = 0.35884 0.34675
#
# Static dielectric constant tensor:
#      x y z
#    x 3.097250 0.000000 0.000000 
#    y 0.000000 3.098400 0.000000 
#    z 0.000000 0.000000 2.926230 
# 
# 
# High freq. dielectric constant tensor:
#      x y z
#    x 1.653110 0.000000 0.000000 
#    y 0.000000 1.640330 0.000000 
#    z 0.000000 0.000000 1.631940 
# 
# From -- ./inp_files/39743.got.cif
#   From: 2010.06.25/outbox.cif.g09.slc.cpg/sg52_20_cif.got.tgz:39743.got - 2010.06.26 19:32:48.
