data_PCOD8215282
_publ_section_title
;
Structure prediction by ZEFSAII (Michael W. Deem and Ramdas Pophale) SiO2 
 PCOD8215282
Probable space group: P N N A
;
_chemical_formula_sum "Si O2"
_cell_formula_units_Z 40
_cell_length_a 33.275753
_cell_length_b 5.030678
_cell_length_c 13.950888
_cell_angle_alpha 90.000000
_cell_angle_beta 90.000000
_cell_angle_gamma 90.000000
_cell_volume 2335.373051
_symmetry_space_group_name_H-M "P N N A"
_symmetry_group_IT_number 52
_symmetry_cell_setting 'orthorhombic'
loop_
_space_group_symop_operation_xyz
x,y,z
1/2-x,-y,z
x,1/2-y,1/2-z
1/2-x,1/2+y,1/2-z
-x,-y,-z
1/2+x,y,-z
-x,1/2+y,1/2+z
1/2+x,1/2-y,1/2+z
loop_
_atom_site_type_symbol
_atom_site_label
_atom_site_fract_x
_atom_site_fract_y
_atom_site_fract_z
Si Si1 0.003393 0.224235 0.142505
Si Si2 0.292919 0.495040 0.182766
Si Si3 0.873802 0.282555 0.863463
Si Si4 0.913048 0.773779 0.950983
Si Si5 0.447986 0.727736 0.857584
O O1 0.020627 0.250000 0.250000
O O2 0.973945 0.467141 0.119087
O O3 0.040597 0.174001 0.072599
O O4 0.977787 0.965930 0.127882
O O5 0.250000 0.500000 0.125194
O O6 0.284728 0.250000 0.250000
O O7 0.329827 0.411680 0.113127
O O8 0.303780 0.750000 0.250000
O O9 0.878822 0.250000 0.750000
O O10 0.905462 0.491439 0.902060
O O11 0.881922 0.999559 0.914533
O O12 0.910894 0.748789 0.066926
O O13 0.429740 0.750000 0.750000
#
# Coordination Sequence:
#
# PCOD8215282 Si02
#       5
#     8   8   8   8   8
#     4  10  19  32  48  66  90 124 161 199 244 289
#     4   9  17  31  49  68  96 133 160 179 216 279
#     4  11  21  32  47  73 101 125 153 189 234 284
#     4  12  21  32  49  70  96 125 158 201 246 278
#     4  10  21  35  49  65  89 125 169 206 238 282
#
# _framework density 17.127883000000001
#
# number of rings (size 3 to 8) (size 9 to 14) (size 15 to 20)
#    0.000    1.600    0.000    7.800    0.000    1.600 
#    0.000    0.000    0.000    0.000    0.000    0.000 
#    0.000    3.200    0.000    2.800    0.000    0.000 
#
# Total GULP energy -495569.331637 kJ/mol
# GULP energy per Si atom -12389.233291 kJ/mol
# Density = 1.708890 g / cm^3
# Si number density = 17.127883 Si / 1000 Ang^3
#
#
#
# Elastic Constant Matrix: (Units=GPa)
#
#
# Indices 1 2 3 4 5 6 
#
# 1 67.1209 23.3776 44.6573 0.0000 0.0000 0.0000
# 2 23.3776 114.7409 26.6271 0.0000 0.0000 0.0000
# 3 44.6573 26.6271 96.9160 0.0000 0.0000 0.0000
# 4 0.0000 0.0000 0.0000 20.0849 0.0000 0.0000
# 5 0.0000 0.0000 0.0000 0.0000 11.7362 0.0000
# 6 0.0000 0.0000 0.0000 0.0000 0.0000 33.7893
#
#
#
# Elastic Compliance Matrix: (Units=1/GPa)
#
#
# Indices 1 2 3 4 5 6 
#
# 1 0.022029 -0.002278 -0.009525 0.000000 0.000000 0.000000
# 2 -0.002278 0.009544 -0.001573 0.000000 0.000000 0.000000
# 3 -0.009525 -0.001573 0.015139 0.000000 0.000000 0.000000
# 4 0.000000 0.000000 0.000000 0.049789 0.000000 0.000000
# 5 0.000000 0.000000 0.000000 0.000000 0.085206 0.000000
# 6 0.000000 0.000000 0.000000 0.000000 0.000000 0.029595
#
#
# Mechanical properties :
#
#
# Convention : Reuss Voigt Hill
#
# Bulk Modulus (GPa) = 50.09550 52.01130 51.05340
# Shear Modulus (GPa) = 20.43261 25.39648 22.91454
#
# Velocity S-wave (km/s) = 3.45765 3.85483 3.66163
# Velocity P-wave (km/s) = 6.72695 7.08840 6.91004
#
# Compressibility (1/GPa) = 0.01996187
#
# Stress axis : x y z
#
# Youngs Moduli (GPa) = 45.39491 104.77410 66.05403
#
# Poissons Ratio (x) = 0.23866 0.62915
# Poissons Ratio (y) = 0.10340 0.10388
# Poissons Ratio (z) = 0.43237 0.16477
#
# Static dielectric constant tensor:
#      x y z
#    x 3.413900 0.000000 0.000000 
#    y 0.000000 3.384280 0.000000 
#    z 0.000000 0.000000 1.893350 
# 
# 
# High freq. dielectric constant tensor:
#      x y z
#    x 1.636950 0.000000 0.000000 
#    y 0.000000 1.692780 0.000000 
#    z 0.000000 0.000000 1.631290 
# 
# From -- ./inp_files/29308.got.cif
#   From: 2010.06.25/outbox.cif.g09.slc.cpg/sg52_15_cif.got.tgz:29308.got - 2010.06.26 19:32:48.
