data_PCOD8215435
_publ_section_title
;
Structure prediction by ZEFSAII (Michael W. Deem and Ramdas Pophale) SiO2 
 PCOD8215435
Probable space group: P N N A
;
_chemical_formula_sum "Si O2"
_cell_formula_units_Z 48
_cell_length_a 11.662507
_cell_length_b 13.608211
_cell_length_c 13.623637
_cell_angle_alpha 90.000000
_cell_angle_beta 90.000000
_cell_angle_gamma 90.000000
_cell_volume 2162.150973
_symmetry_space_group_name_H-M "P N N A"
_symmetry_group_IT_number 52
_symmetry_cell_setting 'orthorhombic'
loop_
_space_group_symop_operation_xyz
x,y,z
1/2-x,-y,z
x,1/2-y,1/2-z
1/2-x,1/2+y,1/2-z
-x,-y,-z
1/2+x,y,-z
-x,1/2+y,1/2+z
1/2+x,1/2-y,1/2+z
loop_
_atom_site_type_symbol
_atom_site_label
_atom_site_fract_x
_atom_site_fract_y
_atom_site_fract_z
Si Si1 0.936121 0.673332 0.672005
Si Si2 0.346866 0.070719 0.602683
Si Si3 0.223918 0.149596 0.790826
Si Si4 0.304973 0.104464 0.151747
Si Si5 0.118864 0.781361 0.965717
Si Si6 0.010531 0.026874 0.746829
O O1 0.988193 0.750000 0.750000
O O2 0.798956 0.676526 0.679761
O O3 0.984625 0.566400 0.687780
O O4 0.986315 0.706511 0.567118
O O5 0.312081 0.107676 0.710976
O O6 0.363699 0.162235 0.528852
O O7 0.250000 0.000000 0.555423
O O8 0.460070 0.003978 0.632431
O O9 0.170270 0.250000 0.750000
O O10 0.290424 0.167688 0.892240
O O11 0.116986 0.077158 0.802933
O O12 0.393495 0.092137 0.243921
O O13 0.250000 0.000000 0.117397
O O14 0.372879 0.162226 0.067488
#
# Coordination Sequence:
#
# PCOD8215435 Si02
#       6
#     8   8   8   8   8   8
#     4  11  21  39  60  83 121 166 205 240 308 386
#     4   9  17  34  61  88 113 155 211 253 290 364
#     4   9  18  31  55  85 114 150 199 252 297 348
#     4  10  26  35  54  91 128 158 198 255 325 363
#     4  11  20  35  58  88 122 162 197 250 314 366
#     4  10  19  36  55  86 117 152 202 249 301 363
#
# _framework density 22.200116000000001
#
# number of rings (size 3 to 8) (size 9 to 14) (size 15 to 20)
#    0.000    2.000    3.333    0.500    4.667    2.000 
#    0.000    0.000    0.000    6.000    0.000    0.000 
#    0.000    0.000    0.000    0.000    0.000    0.000 
#
# Total GULP energy -594663.870506 kJ/mol
# GULP energy per Si atom -12388.830636 kJ/mol
# Density = 2.214959 g / cm^3
# Si number density = 22.200116 Si / 1000 Ang^3
#
#
#
# Elastic Constant Matrix: (Units=GPa)
#
#
# Indices 1 2 3 4 5 6 
#
# 1 124.4415 36.9536 15.6001 0.0000 0.0000 0.0000
# 2 36.9536 83.7018 22.5432 0.0000 0.0000 0.0000
# 3 15.6001 22.5432 35.3290 0.0000 0.0000 0.0000
# 4 0.0000 0.0000 0.0000 24.6999 0.0000 0.0000
# 5 0.0000 0.0000 0.0000 0.0000 7.8871 0.0000
# 6 0.0000 0.0000 0.0000 0.0000 0.0000 33.4009
#
#
#
# Elastic Compliance Matrix: (Units=1/GPa)
#
#
# Indices 1 2 3 4 5 6 
#
# 1 0.009343 -0.003639 -0.001803 0.000000 0.000000 0.000000
# 2 -0.003639 0.015844 -0.008503 0.000000 0.000000 0.000000
# 3 -0.001803 -0.008503 0.034527 0.000000 0.000000 0.000000
# 4 0.000000 0.000000 0.000000 0.040486 0.000000 0.000000
# 5 0.000000 0.000000 0.000000 0.000000 0.126789 0.000000
# 6 0.000000 0.000000 0.000000 0.000000 0.000000 0.029939
#
#
# Mechanical properties :
#
#
# Convention : Reuss Voigt Hill
#
# Bulk Modulus (GPa) = 31.42369 43.74067 37.58218
# Shear Modulus (GPa) = 16.92468 24.42261 20.67365
#
# Velocity S-wave (km/s) = 2.76410 3.32039 3.05493
# Velocity P-wave (km/s) = 4.93685 5.86904 5.42301
#
# Compressibility (1/GPa) = 0.03182313
#
# Stress axis : x y z
#
# Youngs Moduli (GPa) = 107.03669 63.11606 28.96253
#
# Poissons Ratio (x) = 0.22968 0.05223
# Poissons Ratio (y) = 0.38950 0.24627
# Poissons Ratio (z) = 0.19303 0.53667
#
# Static dielectric constant tensor:
#      x y z
#    x 4.338050 0.000000 0.000000 
#    y 0.000000 4.672530 0.000000 
#    z 0.000000 0.000000 3.341930 
# 
# 
# High freq. dielectric constant tensor:
#      x y z
#    x 1.881280 0.000000 0.000000 
#    y 0.000000 1.895510 0.000000 
#    z 0.000000 0.000000 1.809770 
# 
# From -- ./inp_files/26054.got.cif
#   From: 2010.06.25/outbox.cif.g09.slc.cpg/sg52_14_cif.got.tgz:26054.got - 2010.06.26 19:32:48.
