data_PCOD8215146
_publ_section_title
;
Structure prediction by ZEFSAII (Michael W. Deem and Ramdas Pophale) SiO2 
 PCOD8215146
Probable space group: P N N A
;
_chemical_formula_sum "Si O2"
_cell_formula_units_Z 44
_cell_length_a 8.845435
_cell_length_b 11.594406
_cell_length_c 22.666765
_cell_angle_alpha 90.000000
_cell_angle_beta 90.000000
_cell_angle_gamma 90.000000
_cell_volume 2324.648217
_symmetry_space_group_name_H-M "P N N A"
_symmetry_group_IT_number 52
_symmetry_cell_setting 'orthorhombic'
loop_
_space_group_symop_operation_xyz
x,y,z
1/2-x,-y,z
x,1/2-y,1/2-z
1/2-x,1/2+y,1/2-z
-x,-y,-z
1/2+x,y,-z
-x,1/2+y,1/2+z
1/2+x,1/2-y,1/2+z
loop_
_atom_site_type_symbol
_atom_site_label
_atom_site_fract_x
_atom_site_fract_y
_atom_site_fract_z
Si Si1 0.976550 0.769408 0.502079
Si Si2 0.034011 0.575900 0.419738
Si Si3 0.250000 0.000000 0.857918
Si Si4 0.903618 0.283502 0.317104
Si Si5 0.235681 0.633533 0.920556
Si Si6 0.668179 0.167257 0.893862
O O1 0.900231 0.827174 0.444570
O O2 0.851041 0.760174 0.553796
O O3 0.038347 0.641935 0.482747
O O4 0.113383 0.845762 0.527706
O O5 0.156022 0.645106 0.378111
O O6 0.089488 0.445178 0.422978
O O7 0.862523 0.579461 0.396565
O O8 0.154717 0.914259 0.817899
O O9 0.888564 0.250000 0.250000
O O10 0.808465 0.201543 0.360814
O O11 0.080010 0.287479 0.336142
O O12 0.250000 0.500000 0.904046
#
# Coordination Sequence:
#
# PCOD8215146 Si02
#       6
#     8   8   4   8   8   8
#     4  11  19  35  54  84 116 150 190 232 290 353
#     4  10  18  33  55  85 119 140 183 236 295 341
#     4  10  20  36  62  88 110 144 194 248 290 334
#     4  10  22  39  59  81 114 154 196 244 292 345
#     4  11  23  37  57  83 118 158 194 238 292 351
#     4   9  20  33  55  84 114 151 183 235 293 350
#
# _framework density 18.927596000000001
#
# number of rings (size 3 to 8) (size 9 to 14) (size 15 to 20)
#    0.000    1.818    3.636    1.091    1.273    1.455 
#    0.000    0.909    0.000    2.182    0.000    0.000 
#    0.000    0.000    0.000    0.000    0.000    0.000 
#
# Total GULP energy -545190.752526 kJ/mol
# GULP energy per Si atom -12390.698921 kJ/mol
# Density = 1.888452 g / cm^3
# Si number density = 18.927596 Si / 1000 Ang^3
#
#
#
# Elastic Constant Matrix: (Units=GPa)
#
#
# Indices 1 2 3 4 5 6 
#
# 1 102.1524 15.8676 45.8943 0.0000 0.0000 0.0000
# 2 15.8676 73.4913 38.4528 0.0000 0.0000 0.0000
# 3 45.8943 38.4528 116.7432 0.0000 0.0000 0.0000
# 4 0.0000 0.0000 0.0000 23.8481 0.0000 0.0000
# 5 0.0000 0.0000 0.0000 0.0000 15.0893 0.0000
# 6 0.0000 0.0000 0.0000 0.0000 0.0000 21.2180
#
#
#
# Elastic Compliance Matrix: (Units=1/GPa)
#
#
# Indices 1 2 3 4 5 6 
#
# 1 0.011890 -0.000147 -0.004626 0.000000 0.000000 0.000000
# 2 -0.000147 0.016442 -0.005358 0.000000 0.000000 0.000000
# 3 -0.004626 -0.005358 0.012149 0.000000 0.000000 0.000000
# 4 0.000000 0.000000 0.000000 0.041932 0.000000 0.000000
# 5 0.000000 0.000000 0.000000 0.000000 0.066272 0.000000
# 6 0.000000 0.000000 0.000000 0.000000 0.000000 0.047130
#
#
# Mechanical properties :
#
#
# Convention : Reuss Voigt Hill
#
# Bulk Modulus (GPa) = 49.45555 54.75738 52.10646
# Shear Modulus (GPa) = 22.43988 24.84257 23.64122
#
# Velocity S-wave (km/s) = 3.44694 3.62678 3.53800
# Velocity P-wave (km/s) = 6.48285 6.82135 6.65425
#
# Compressibility (1/GPa) = 0.02022018
#
# Stress axis : x y z
#
# Youngs Moduli (GPa) = 84.10109 60.81901 82.30978
#
# Poissons Ratio (x) = 0.00893 0.38077
# Poissons Ratio (y) = 0.01235 0.44102
# Poissons Ratio (z) = 0.38906 0.32587
#
# Static dielectric constant tensor:
#      x y z
#    x 3.690800 0.000000 0.000000 
#    y 0.000000 3.382830 0.000000 
#    z 0.000000 0.000000 3.051470 
# 
# 
# High freq. dielectric constant tensor:
#      x y z
#    x 1.746180 0.000000 0.000000 
#    y 0.000000 1.728500 0.000000 
#    z 0.000000 0.000000 1.696210 
# 
# From -- ./inp_files/39368.got.cif
#   From: 2010.06.25/outbox.cif.g09.slc.cpg/sg52_20_cif.got.tgz:39368.got - 2010.06.26 19:32:48.
