data_PCOD8215342
_publ_section_title
;
Structure prediction by ZEFSAII (Michael W. Deem and Ramdas Pophale) SiO2 
 PCOD8215342
Probable space group: P N N A
;
_chemical_formula_sum "Si O2"
_cell_formula_units_Z 40
_cell_length_a 9.021473
_cell_length_b 8.692346
_cell_length_c 25.662942
_cell_angle_alpha 90.000000
_cell_angle_beta 90.000000
_cell_angle_gamma 90.000000
_cell_volume 2012.430548
_symmetry_space_group_name_H-M "P N N A"
_symmetry_group_IT_number 52
_symmetry_cell_setting 'orthorhombic'
loop_
_space_group_symop_operation_xyz
x,y,z
1/2-x,-y,z
x,1/2-y,1/2-z
1/2-x,1/2+y,1/2-z
-x,-y,-z
1/2+x,y,-z
-x,1/2+y,1/2+z
1/2+x,1/2-y,1/2+z
loop_
_atom_site_type_symbol
_atom_site_label
_atom_site_fract_x
_atom_site_fract_y
_atom_site_fract_z
Si Si1 0.653681 0.345514 0.386884
Si Si2 0.317769 0.162352 0.697760
Si Si3 0.360406 0.275223 0.088646
Si Si4 0.809954 0.169538 0.473019
Si Si5 0.949129 0.621298 0.889502
O O1 0.750000 0.500000 0.386888
O O2 0.694647 0.252185 0.335286
O O3 0.472293 0.356273 0.387741
O O4 0.683145 0.254384 0.440311
O O5 0.361221 0.250000 0.750000
O O6 0.466074 0.145425 0.664353
O O7 0.250000 0.000000 0.713929
O O8 0.197479 0.272349 0.114518
O O9 0.425115 0.442047 0.101651
O O10 0.342699 0.245903 0.027036
O O11 0.958521 0.177803 0.439161
O O12 0.750000 0.000000 0.485652
#
# Coordination Sequence:
#
# PCOD8215342 Si02
#       5
#     8   8   8   8   8
#     4  11  23  38  56  86 126 161 204 249 305 379
#     4  11  22  42  65  85 109 153 205 258 316 378
#     4  11  19  33  61  89 122 159 203 250 300 368
#     4  11  18  33  58  89 119 168 209 243 297 373
#     4  10  19  33  59  92 117 149 206 260 299 364
#
# _framework density 19.876460999999999
#
# number of rings (size 3 to 8) (size 9 to 14) (size 15 to 20)
#    0.000    1.200    6.000    3.600    0.000    0.800 
#    0.000    5.000    4.400    0.000    0.000    0.000 
#    0.000    0.000    0.000    0.000    0.000    0.000 
#
# Total GULP energy -495830.552749 kJ/mol
# GULP energy per Si atom -12395.763819 kJ/mol
# Density = 1.983122 g / cm^3
# Si number density = 19.876461 Si / 1000 Ang^3
#
#
#
# Elastic Constant Matrix: (Units=GPa)
#
#
# Indices 1 2 3 4 5 6 
#
# 1 143.1954 23.1998 39.7212 0.0000 0.0000 0.0000
# 2 23.1998 59.4513 20.0018 0.0000 0.0000 0.0000
# 3 39.7212 20.0018 133.6380 0.0000 0.0000 0.0000
# 4 0.0000 0.0000 0.0000 31.6798 0.0000 0.0000
# 5 0.0000 0.0000 0.0000 0.0000 -1.8136 0.0000
# 6 0.0000 0.0000 0.0000 0.0000 0.0000 30.4143
#
#
#
# Elastic Compliance Matrix: (Units=1/GPa)
#
#
# Indices 1 2 3 4 5 6 
#
# 1 0.007929 -0.002423 -0.001994 0.000000 0.000000 0.000000
# 2 -0.002423 0.018453 -0.002042 0.000000 0.000000 0.000000
# 3 -0.001994 -0.002042 0.008381 0.000000 0.000000 0.000000
# 4 0.000000 0.000000 0.000000 0.031566 0.000000 0.000000
# 5 0.000000 0.000000 0.000000 0.000000 -0.551396 0.000000
# 6 0.000000 0.000000 0.000000 0.000000 0.000000 0.032879
#
#
# Mechanical properties :
#
#
# Convention : Reuss Voigt Hill
#
# Bulk Modulus (GPa) = 45.77633 55.79224 50.78429
# Shear Modulus (GPa) = -11.57439 28.94690 8.68625
#
# Velocity S-wave (km/s) = -2.41574 3.82034 2.09275
# Velocity P-wave (km/s) = 3.91144 6.89858 5.60758
#
# Compressibility (1/GPa) = 0.02184535
#
# Stress axis : x y z
#
# Youngs Moduli (GPa) = 126.11566 54.19164 119.31501
#
# Poissons Ratio (x) = 0.13133 0.23793
# Poissons Ratio (y) = 0.30562 0.24359
# Poissons Ratio (z) = 0.25149 0.11064
#
# Static dielectric constant tensor:
#      x y z
#    x 3.962270 0.000000 0.000000 
#    y 0.000000 3.539270 0.000000 
#    z 0.000000 0.000000 3.473890 
# 
# 
# High freq. dielectric constant tensor:
#      x y z
#    x 1.790780 0.000000 0.000000 
#    y 0.000000 1.748730 0.000000 
#    z 0.000000 0.000000 1.763370 
# 
# From -- ./inp_files/39177.got.cif
#   From: 2010.06.25/outbox.cif.g09.slc.cpg/sg52_20_cif.got.tgz:39177.got - 2010.06.26 19:32:48.
