data_PCOD8215723
_publ_section_title
;
Structure prediction by ZEFSAII (Michael W. Deem and Ramdas Pophale) SiO2 
 PCOD8215723
Probable space group: P N N A
;
_chemical_formula_sum "Si O2"
_cell_formula_units_Z 40
_cell_length_a 7.854673
_cell_length_b 18.590566
_cell_length_c 14.871115
_cell_angle_alpha 90.000000
_cell_angle_beta 90.000000
_cell_angle_gamma 90.000000
_cell_volume 2171.522101
_symmetry_space_group_name_H-M "P N N A"
_symmetry_group_IT_number 52
_symmetry_cell_setting 'orthorhombic'
loop_
_space_group_symop_operation_xyz
x,y,z
1/2-x,-y,z
x,1/2-y,1/2-z
1/2-x,1/2+y,1/2-z
-x,-y,-z
1/2+x,y,-z
-x,1/2+y,1/2+z
1/2+x,1/2-y,1/2+z
loop_
_atom_site_type_symbol
_atom_site_label
_atom_site_fract_x
_atom_site_fract_y
_atom_site_fract_z
Si Si1 0.060570 0.769831 0.107946
Si Si2 0.504895 0.250000 0.750000
Si Si3 0.318841 0.194434 0.920203
Si Si4 0.068047 0.966762 0.908890
Si Si5 0.802887 0.347416 0.772668
Si Si6 0.750000 0.500000 0.718949
O O1 0.880655 0.806630 0.094050
O O2 0.064419 0.691537 0.158294
O O3 0.158681 0.827829 0.168893
O O4 0.148940 0.760882 0.011368
O O5 0.388989 0.232977 0.833571
O O6 0.615064 0.316236 0.788730
O O7 0.402107 0.116563 0.928323
O O8 0.917819 0.977871 0.836813
O O9 0.250000 0.000000 0.877280
O O10 0.000000 0.000000 0.000000
O O11 0.803575 0.433473 0.783377
#
# Coordination Sequence:
#
# PCOD8215723 Si02
#       6
#     8   4   8   8   8   4
#     4  10  22  36  60  84 122 154 212 242 303 359
#     4  10  20  36  58  82 114 150 208 234 302 352
#     4  12  21  38  59  89 118 161 200 259 293 372
#     4  12  24  34  57  94 131 163 197 246 324 386
#     4  10  21  39  57  87 117 163 193 253 301 368
#     4  12  22  40  60  86 134 156 202 258 318 374
#
# _framework density 18.420258
#
# number of rings (size 3 to 8) (size 9 to 14) (size 15 to 20)
#    0.000    1.200    3.000    7.200    0.000    0.000 
#    0.000    0.000    0.000    4.800    0.000    0.000 
#    0.000    0.000    0.000    0.000    0.000    0.000 
#
# Total GULP energy -495797.408353 kJ/mol
# GULP energy per Si atom -12394.935209 kJ/mol
# Density = 1.837833 g / cm^3
# Si number density = 18.420258 Si / 1000 Ang^3
#
#
#
# Elastic Constant Matrix: (Units=GPa)
#
#
# Indices 1 2 3 4 5 6 
#
# 1 96.3065 23.6047 23.3367 0.0000 0.0000 0.0000
# 2 23.6047 139.2110 44.6993 0.0000 0.0000 0.0000
# 3 23.3367 44.6993 102.5616 0.0000 0.0000 0.0000
# 4 0.0000 0.0000 0.0000 20.2714 0.0000 0.0000
# 5 0.0000 0.0000 0.0000 0.0000 19.8546 0.0000
# 6 0.0000 0.0000 0.0000 0.0000 0.0000 21.0559
#
#
#
# Elastic Compliance Matrix: (Units=1/GPa)
#
#
# Indices 1 2 3 4 5 6 
#
# 1 0.011175 -0.001254 -0.001996 0.000000 0.000000 0.000000
# 2 -0.001254 0.008493 -0.003416 0.000000 0.000000 0.000000
# 3 -0.001996 -0.003416 0.011693 0.000000 0.000000 0.000000
# 4 0.000000 0.000000 0.000000 0.049331 0.000000 0.000000
# 5 0.000000 0.000000 0.000000 0.000000 0.050366 0.000000
# 6 0.000000 0.000000 0.000000 0.000000 0.000000 0.047493
#
#
# Mechanical properties :
#
#
# Convention : Reuss Voigt Hill
#
# Bulk Modulus (GPa) = 55.46804 57.92896 56.69850
# Shear Modulus (GPa) = 25.26634 28.66561 26.96597
#
# Velocity S-wave (km/s) = 3.70761 3.94915 3.83029
# Velocity P-wave (km/s) = 6.96465 7.23265 7.09991
#
# Compressibility (1/GPa) = 0.01802840
#
# Stress axis : x y z
#
# Youngs Moduli (GPa) = 89.48924 117.74644 85.51905
#
# Poissons Ratio (x) = 0.14763 0.17071
# Poissons Ratio (y) = 0.11220 0.29214
# Poissons Ratio (z) = 0.17864 0.40224
#
# Static dielectric constant tensor:
#      x y z
#    x 3.678310 0.000000 0.000000 
#    y 0.000000 3.607370 0.000000 
#    z 0.000000 0.000000 3.102300 
# 
# 
# High freq. dielectric constant tensor:
#      x y z
#    x 1.732730 0.000000 0.000000 
#    y 0.000000 1.704850 0.000000 
#    z 0.000000 0.000000 1.700000 
# 
# From -- ./inp_files/16714.got.cif
#   From: 2010.06.25/outbox.cif.g09.slc.cpg/sg52_9_cif.got.tgz:16714.got - 2010.06.26 19:32:48.
