data_PCOD8215108
_publ_section_title
;
Structure prediction by ZEFSAII (Michael W. Deem and Ramdas Pophale) SiO2 
 PCOD8215108
Probable space group: P N N A
;
_chemical_formula_sum "Si O2"
_cell_formula_units_Z 48
_cell_length_a 19.213181
_cell_length_b 9.057940
_cell_length_c 14.970895
_cell_angle_alpha 90.000000
_cell_angle_beta 90.000000
_cell_angle_gamma 90.000000
_cell_volume 2605.412414
_symmetry_space_group_name_H-M "P N N A"
_symmetry_group_IT_number 52
_symmetry_cell_setting 'orthorhombic'
loop_
_space_group_symop_operation_xyz
x,y,z
1/2-x,-y,z
x,1/2-y,1/2-z
1/2-x,1/2+y,1/2-z
-x,-y,-z
1/2+x,y,-z
-x,1/2+y,1/2+z
1/2+x,1/2-y,1/2+z
loop_
_atom_site_type_symbol
_atom_site_label
_atom_site_fract_x
_atom_site_fract_y
_atom_site_fract_z
Si Si1 0.598333 0.029056 0.059798
Si Si2 0.285286 0.750000 0.750000
Si Si3 0.564853 0.436199 0.946746
Si Si4 0.400081 0.846191 0.627834
Si Si5 0.458661 0.412977 0.216993
Si Si6 0.250000 0.500000 0.626848
Si Si7 0.532024 0.382204 0.617972
O O1 0.576482 0.176159 0.114191
O O2 0.681138 0.004238 0.066256
O O3 0.551253 0.900896 0.103349
O O4 0.578148 0.035546 0.956409
O O5 0.332167 0.858475 0.688908
O O6 0.239440 0.645299 0.687614
O O7 0.589810 0.552172 0.870712
O O8 0.547079 0.291006 0.888070
O O9 0.500000 0.500000 0.000000
O O10 0.619208 0.408032 0.027972
O O11 0.462022 0.926205 0.681008
O O12 0.438880 0.250000 0.250000
O O13 0.445528 0.540574 0.289668
#
# Coordination Sequence:
#
# PCOD8215108 Si02
#       7
#     8   4   8   8   8   4   8
#     4   9  18  32  53  72 105 135 177 210 257 307
#     4  10  18  34  52  68 102 142 178 196 256 314
#     4   9  20  30  45  74 105 134 171 213 259 306
#     4   9  16  33  50  67 104 148 160 201 262 320
#     4  11  17  29  48  75 103 136 167 215 264 308
#     4  10  20  36  48  78 102 144 172 208 252 318
#     4  10  18  32  51  76 100 137 173 218 258 307
#
# _framework density 18.423186999999999
#
# number of rings (size 3 to 8) (size 9 to 14) (size 15 to 20)
#    0.000    2.333    2.500    1.500    2.333    0.000 
#    9.000    0.000    0.000    0.000    0.000    8.167 
#    0.000    0.000    0.000    0.000    0.000    0.000 
#
# Total GULP energy -594632.174105 kJ/mol
# GULP energy per Si atom -12388.170294 kJ/mol
# Density = 1.838125 g / cm^3
# Si number density = 18.423187 Si / 1000 Ang^3
#
#
#
# Elastic Constant Matrix: (Units=GPa)
#
#
# Indices 1 2 3 4 5 6 
#
# 1 64.7828 8.2157 27.1581 0.0000 0.0000 0.0000
# 2 8.2157 67.9962 44.9157 0.0000 0.0000 0.0000
# 3 27.1581 44.9157 130.7801 0.0000 0.0000 0.0000
# 4 0.0000 0.0000 0.0000 36.9372 0.0000 0.0000
# 5 0.0000 0.0000 0.0000 0.0000 13.0769 0.0000
# 6 0.0000 0.0000 0.0000 0.0000 0.0000 13.6027
#
#
#
# Elastic Compliance Matrix: (Units=1/GPa)
#
#
# Indices 1 2 3 4 5 6 
#
# 1 0.016915 0.000358 -0.003635 0.000000 0.000000 0.000000
# 2 0.000358 0.019030 -0.006610 0.000000 0.000000 0.000000
# 3 -0.003635 -0.006610 0.010672 0.000000 0.000000 0.000000
# 4 0.000000 0.000000 0.000000 0.027073 0.000000 0.000000
# 5 0.000000 0.000000 0.000000 0.000000 0.076471 0.000000
# 6 0.000000 0.000000 0.000000 0.000000 0.000000 0.073515
#
#
# Mechanical properties :
#
#
# Convention : Reuss Voigt Hill
#
# Bulk Modulus (GPa) = 37.25676 47.12646 42.19161
# Shear Modulus (GPa) = 19.81006 24.94134 22.37570
#
# Velocity S-wave (km/s) = 3.28270 3.68340 3.48881
# Velocity P-wave (km/s) = 5.88514 6.61252 6.25940
#
# Compressibility (1/GPa) = 0.02684076
#
# Stress axis : x y z
#
# Youngs Moduli (GPa) = 59.11958 52.54929 93.70748
#
# Poissons Ratio (x) = -0.01880 0.34067
# Poissons Ratio (y) = -0.02115 0.61940
# Poissons Ratio (z) = 0.21492 0.34735
#
# Static dielectric constant tensor:
#      x y z
#    x 2.891740 0.000000 0.000000 
#    y 0.000000 3.488270 0.000000 
#    z 0.000000 0.000000 3.970340 
# 
# 
# High freq. dielectric constant tensor:
#      x y z
#    x 1.648080 0.000000 0.000000 
#    y 0.000000 1.714450 0.000000 
#    z 0.000000 0.000000 1.739770 
# 
# From -- ./inp_files/28121.got.cif
#   From: 2010.06.25/outbox.cif.g09.slc.cpg/sg52_15_cif.got.tgz:28121.got - 2010.06.26 19:32:48.
