data_PCOD8215474
_publ_section_title
;
Structure prediction by ZEFSAII (Michael W. Deem and Ramdas Pophale) SiO2 
 PCOD8215474
Probable space group: P N N A
;
_chemical_formula_sum "Si O2"
_cell_formula_units_Z 48
_cell_length_a 7.769610
_cell_length_b 27.651465
_cell_length_c 10.937331
_cell_angle_alpha 90.000000
_cell_angle_beta 90.000000
_cell_angle_gamma 90.000000
_cell_volume 2349.788212
_symmetry_space_group_name_H-M "P N N A"
_symmetry_group_IT_number 52
_symmetry_cell_setting 'orthorhombic'
loop_
_space_group_symop_operation_xyz
x,y,z
1/2-x,-y,z
x,1/2-y,1/2-z
1/2-x,1/2+y,1/2-z
-x,-y,-z
1/2+x,y,-z
-x,1/2+y,1/2+z
1/2+x,1/2-y,1/2+z
loop_
_atom_site_type_symbol
_atom_site_label
_atom_site_fract_x
_atom_site_fract_y
_atom_site_fract_z
Si Si1 0.235485 0.055302 0.168224
Si Si2 0.909162 0.817744 0.508484
Si Si3 0.594005 0.598726 0.434663
Si Si4 0.170034 0.753539 0.613962
Si Si5 0.139376 0.639291 0.173622
Si Si6 0.394600 0.839095 0.887139
O O1 0.319816 0.085781 0.278712
O O2 0.034749 0.069212 0.152443
O O3 0.250000 0.000000 0.207457
O O4 0.340671 0.064046 0.043598
O O5 0.778564 0.803349 0.400136
O O6 0.818862 0.834470 0.635530
O O7 0.006094 0.765828 0.529433
O O8 0.026452 0.860798 0.451499
O O9 0.495772 0.645615 0.489838
O O10 0.757477 0.617761 0.356245
O O11 0.101569 0.750000 0.750000
O O12 0.284408 0.707775 0.577217
O O13 0.034052 0.668618 0.278749
#
# Coordination Sequence:
#
# PCOD8215474 Si02
#       6
#     8   8   8   8   8   8
#     4  10  20  37  60  90 116 150 190 236 292 357
#     4  10  23  41  55  81 115 156 188 242 279 324
#     4   9  20  34  60  87 126 147 177 237 295 345
#     4  11  21  37  58  82 114 150 197 226 269 339
#     4  10  22  39  60  78 115 154 192 236 293 336
#     4  10  19  37  56  90 115 153 188 226 284 340
#
# _framework density 20.427372999999999
#
# number of rings (size 3 to 8) (size 9 to 14) (size 15 to 20)
#    0.000    2.000    1.667    1.500    2.333    0.000 
#    9.000    0.833    0.000    0.000    0.000    0.000 
#    0.000    0.000    0.000    0.000    0.000    0.000 
#
# Total GULP energy -594627.307069 kJ/mol
# GULP energy per Si atom -12388.068897 kJ/mol
# Density = 2.038088 g / cm^3
# Si number density = 20.427373 Si / 1000 Ang^3
#
#
#
# Elastic Constant Matrix: (Units=GPa)
#
#
# Indices 1 2 3 4 5 6 
#
# 1 106.7867 45.9668 43.1347 0.0000 0.0000 0.0000
# 2 45.9668 103.8259 45.1257 0.0000 0.0000 0.0000
# 3 43.1347 45.1257 78.7418 0.0000 0.0000 0.0000
# 4 0.0000 0.0000 0.0000 19.3586 0.0000 0.0000
# 5 0.0000 0.0000 0.0000 0.0000 17.1951 0.0000
# 6 0.0000 0.0000 0.0000 0.0000 0.0000 27.2605
#
#
#
# Elastic Compliance Matrix: (Units=1/GPa)
#
#
# Indices 1 2 3 4 5 6 
#
# 1 0.012925 -0.003522 -0.005062 0.000000 0.000000 0.000000
# 2 -0.003522 0.013786 -0.005971 0.000000 0.000000 0.000000
# 3 -0.005062 -0.005971 0.018895 0.000000 0.000000 0.000000
# 4 0.000000 0.000000 0.000000 0.051657 0.000000 0.000000
# 5 0.000000 0.000000 0.000000 0.000000 0.058156 0.000000
# 6 0.000000 0.000000 0.000000 0.000000 0.000000 0.036683
#
#
# Mechanical properties :
#
#
# Convention : Reuss Voigt Hill
#
# Bulk Modulus (GPa) = 60.62297 61.97875 61.30086
# Shear Modulus (GPa) = 22.05449 23.10466 22.57958
#
# Velocity S-wave (km/s) = 3.28937 3.36678 3.32830
# Velocity P-wave (km/s) = 6.64593 6.74689 6.69660
#
# Compressibility (1/GPa) = 0.01649540
#
# Stress axis : x y z
#
# Youngs Moduli (GPa) = 77.36736 72.53652 52.92536
#
# Poissons Ratio (x) = 0.25550 0.26790
# Poissons Ratio (y) = 0.27252 0.31602
# Poissons Ratio (z) = 0.39162 0.43312
#
# Static dielectric constant tensor:
#      x y z
#    x 4.176010 0.000000 0.000000 
#    y 0.000000 3.378560 0.000000 
#    z 0.000000 0.000000 3.393970 
# 
# 
# High freq. dielectric constant tensor:
#      x y z
#    x 1.825700 0.000000 0.000000 
#    y 0.000000 1.764960 0.000000 
#    z 0.000000 0.000000 1.772590 
# 
# From -- ./inp_files/17050.got.cif
#   From: 2010.06.25/outbox.cif.g09.slc.cpg/sg52_9_cif.got.tgz:17050.got - 2010.06.26 19:32:48.
