data_PCOD8215149
_publ_section_title
;
Structure prediction by ZEFSAII (Michael W. Deem and Ramdas Pophale) SiO2 
 PCOD8215149
Probable space group: P N N A
;
_chemical_formula_sum "Si O2"
_cell_formula_units_Z 52
_cell_length_a 19.590980
_cell_length_b 25.821378
_cell_length_c 5.080456
_cell_angle_alpha 90.000000
_cell_angle_beta 90.000000
_cell_angle_gamma 90.000000
_cell_volume 2570.030463
_symmetry_space_group_name_H-M "P N N A"
_symmetry_group_IT_number 52
_symmetry_cell_setting 'orthorhombic'
loop_
_space_group_symop_operation_xyz
x,y,z
1/2-x,-y,z
x,1/2-y,1/2-z
1/2-x,1/2+y,1/2-z
-x,-y,-z
1/2+x,y,-z
-x,1/2+y,1/2+z
1/2+x,1/2-y,1/2+z
loop_
_atom_site_type_symbol
_atom_site_label
_atom_site_fract_x
_atom_site_fract_y
_atom_site_fract_z
Si Si1 0.871306 0.940936 0.724447
Si Si2 0.147133 0.919320 0.745081
Si Si3 0.973629 0.305680 0.699842
Si Si4 0.429227 0.601517 0.722978
Si Si5 0.433244 0.453552 0.246371
Si Si6 0.750000 0.000000 0.492931
Si Si7 0.882696 0.307587 0.201788
O O1 0.885461 0.902638 0.485566
O O2 0.798395 0.968209 0.689471
O O3 0.929695 0.984739 0.727503
O O4 0.874660 0.907391 0.989705
O O5 0.088112 0.927328 0.528877
O O6 0.167782 0.857492 0.741755
O O7 0.209662 0.958605 0.688445
O O8 0.117446 0.932068 0.030601
O O9 0.006345 0.250000 0.750000
O O10 0.037841 0.342536 0.726873
O O11 0.944620 0.312855 0.407320
O O12 0.912456 0.313482 0.908273
O O13 0.488509 0.558913 0.694607
O O14 0.848209 0.250000 0.250000
#
# Coordination Sequence:
#
# PCOD8215149 Si02
#       7
#     8   8   8   8   8   4   8
#     4  11  24  36  55  79 112 157 192 232 272 344
#     4  11  20  37  58  80 117 154 188 244 280 348
#     4  10  20  34  56  87 120 144 175 228 294 360
#     4  12  20  36  58  85 116 145 184 232 294 343
#     4  11  21  35  56  85 116 144 183 233 291 346
#     4  10  26  42  54  78 116 160 208 230 288 324
#     4  10  18  33  56  85 113 145 183 233 294 341
#
# _framework density 20.233224
#
# number of rings (size 3 to 8) (size 9 to 14) (size 15 to 20)
#    0.000    1.231    3.077    4.615    0.000    5.538 
#    0.000    0.000    0.000    0.923    0.000    6.462 
#    0.000    0.000    0.000    0.000    0.000    0.000 
#
# Total GULP energy -644571.197225 kJ/mol
# GULP energy per Si atom -12395.599947 kJ/mol
# Density = 2.018717 g / cm^3
# Si number density = 20.233224 Si / 1000 Ang^3
#
#
#
# Elastic Constant Matrix: (Units=GPa)
#
#
# Indices 1 2 3 4 5 6 
#
# 1 62.8231 15.5510 5.7044 0.0000 0.0000 0.0000
# 2 15.5510 111.0147 20.2623 0.0000 0.0000 0.0000
# 3 5.7044 20.2623 83.0487 0.0000 0.0000 0.0000
# 4 0.0000 0.0000 0.0000 20.2532 0.0000 0.0000
# 5 0.0000 0.0000 0.0000 0.0000 4.8602 0.0000
# 6 0.0000 0.0000 0.0000 0.0000 0.0000 30.6678
#
#
#
# Elastic Compliance Matrix: (Units=1/GPa)
#
#
# Indices 1 2 3 4 5 6 
#
# 1 0.016518 -0.002205 -0.000597 0.000000 0.000000 0.000000
# 2 -0.002205 0.009722 -0.002221 0.000000 0.000000 0.000000
# 3 -0.000597 -0.002221 0.012624 0.000000 0.000000 0.000000
# 4 0.000000 0.000000 0.000000 0.049375 0.000000 0.000000
# 5 0.000000 0.000000 0.000000 0.000000 0.205753 0.000000
# 6 0.000000 0.000000 0.000000 0.000000 0.000000 0.032608
#
#
# Mechanical properties :
#
#
# Convention : Reuss Voigt Hill
#
# Bulk Modulus (GPa) = 34.69878 37.76909 36.23393
# Shear Modulus (GPa) = 14.44047 25.51416 19.97731
#
# Velocity S-wave (km/s) = 2.67442 3.55491 3.14562
# Velocity P-wave (km/s) = 5.16946 5.96299 5.58035
#
# Compressibility (1/GPa) = 0.02881946
#
# Stress axis : x y z
#
# Youngs Moduli (GPa) = 60.54115 102.85981 79.21496
#
# Poissons Ratio (x) = 0.22680 0.04726
# Poissons Ratio (y) = 0.13349 0.17590
# Poissons Ratio (z) = 0.03612 0.22840
#
# Static dielectric constant tensor:
#      x y z
#    x 3.230400 0.000000 0.000000 
#    y 0.000000 4.089030 0.000000 
#    z 0.000000 0.000000 3.910330 
# 
# 
# High freq. dielectric constant tensor:
#      x y z
#    x 1.735860 0.000000 0.000000 
#    y 0.000000 1.798300 0.000000 
#    z 0.000000 0.000000 1.815890 
# 
# From -- ./inp_files/3569.got.cif
#   From: 2010.06.25/outbox.cif.g09.slc.cpg/sg52_2_cif.got.tgz:3569.got - 2010.06.26 19:32:48.
