data_PCOD8215701
_publ_section_title
;
Structure prediction by ZEFSAII (Michael W. Deem and Ramdas Pophale) SiO2 
 PCOD8215701
Probable space group: P N N A
;
_chemical_formula_sum "Si O2"
_cell_formula_units_Z 32
_cell_length_a 8.321019
_cell_length_b 11.775560
_cell_length_c 14.977751
_cell_angle_alpha 90.000000
_cell_angle_beta 90.000000
_cell_angle_gamma 90.000000
_cell_volume 1467.589817
_symmetry_space_group_name_H-M "P N N A"
_symmetry_group_IT_number 52
_symmetry_cell_setting 'orthorhombic'
loop_
_space_group_symop_operation_xyz
x,y,z
1/2-x,-y,z
x,1/2-y,1/2-z
1/2-x,1/2+y,1/2-z
-x,-y,-z
1/2+x,y,-z
-x,1/2+y,1/2+z
1/2+x,1/2-y,1/2+z
loop_
_atom_site_type_symbol
_atom_site_label
_atom_site_fract_x
_atom_site_fract_y
_atom_site_fract_z
Si Si1 0.644405 0.388701 0.427037
Si Si2 0.428182 0.542722 0.091387
Si Si3 0.441462 0.505357 0.285002
Si Si4 0.532217 0.703095 0.404534
O O1 0.750000 0.500000 0.445156
O O2 0.528596 0.406324 0.341424
O O3 0.772529 0.285712 0.411724
O O4 0.531534 0.366921 0.510724
O O5 0.250000 0.500000 0.088249
O O6 0.502731 0.490324 0.182482
O O7 0.442989 0.677700 0.098497
O O8 0.500000 0.500000 0.000000
O O9 0.250000 0.500000 0.293527
O O10 0.493145 0.630987 0.316348
#
# Coordination Sequence:
#
# PCOD8215701 Si02
#       4
#     8   8   8   8
#     4  10  20  35  62  93 120 152 199 260 310 363
#     4  11  25  42  60  86 125 167 205 252 306 371
#     4  10  21  39  62  89 121 157 206 259 310 366
#     4  11  20  38  63  90 121 160 201 249 309 370
#
# _framework density 21.804459999999999
#
# number of rings (size 3 to 8) (size 9 to 14) (size 15 to 20)
#    0.000    1.500    0.000    7.500    0.000    3.000 
#    0.000    8.750    0.000    3.000    0.000    0.000 
#    0.000    0.000    0.000    0.000    0.000    0.000 
#
# Total GULP energy -396636.465106 kJ/mol
# GULP energy per Si atom -12394.889535 kJ/mol
# Density = 2.175483 g / cm^3
# Si number density = 21.804460 Si / 1000 Ang^3
#
#
#
# Elastic Constant Matrix: (Units=GPa)
#
#
# Indices 1 2 3 4 5 6 
#
# 1 124.5313 38.4388 71.8002 0.0000 0.0000 0.0000
# 2 38.4388 70.3992 31.3971 0.0000 0.0000 0.0000
# 3 71.8002 31.3971 200.9152 0.0000 0.0000 0.0000
# 4 0.0000 0.0000 0.0000 1.2751 0.0000 0.0000
# 5 0.0000 0.0000 0.0000 0.0000 36.7857 0.0000
# 6 0.0000 0.0000 0.0000 0.0000 0.0000 39.8866
#
#
#
# Elastic Compliance Matrix: (Units=1/GPa)
#
#
# Indices 1 2 3 4 5 6 
#
# 1 0.011421 -0.004746 -0.003340 0.000000 0.000000 0.000000
# 2 -0.004746 0.017241 -0.000998 0.000000 0.000000 0.000000
# 3 -0.003340 -0.000998 0.006327 0.000000 0.000000 0.000000
# 4 0.000000 0.000000 0.000000 0.784256 0.000000 0.000000
# 5 0.000000 0.000000 0.000000 0.000000 0.027184 0.000000
# 6 0.000000 0.000000 0.000000 0.000000 0.000000 0.025071
#
#
# Mechanical properties :
#
#
# Convention : Reuss Voigt Hill
#
# Bulk Modulus (GPa) = 59.45135 75.45754 67.45445
# Shear Modulus (GPa) = 5.58488 32.53680 19.06084
#
# Velocity S-wave (km/s) = 1.60216 3.86710 2.95985
# Velocity P-wave (km/s) = 5.54504 7.39060 6.53331
#
# Compressibility (1/GPa) = 0.01682048
#
# Stress axis : x y z
#
# Youngs Moduli (GPa) = 87.56045 57.99984 158.06084
#
# Poissons Ratio (x) = 0.27529 0.52787
# Poissons Ratio (y) = 0.41560 0.15777
# Poissons Ratio (z) = 0.29242 0.05789
#
# Static dielectric constant tensor:
#      x y z
#    x 4.246370 0.000000 0.000000 
#    y 0.000000 3.755730 0.000000 
#    z 0.000000 0.000000 3.925270 
# 
# 
# High freq. dielectric constant tensor:
#      x y z
#    x 1.868120 0.000000 0.000000 
#    y 0.000000 1.833420 0.000000 
#    z 0.000000 0.000000 1.875790 
# 
# From -- ./inp_files/24073.got.cif
#   From: 2010.06.25/outbox.cif.g09.slc.cpg/sg52_13_cif.got.tgz:24073.got - 2010.06.26 19:32:48.
