data_PCOD8215620
_publ_section_title
;
Structure prediction by ZEFSAII (Michael W. Deem and Ramdas Pophale) SiO2 
 PCOD8215620
Probable space group: P N N A
;
_chemical_formula_sum "Si O2"
_cell_formula_units_Z 64
_cell_length_a 31.504853
_cell_length_b 9.595955
_cell_length_c 13.140907
_cell_angle_alpha 90.000000
_cell_angle_beta 90.000000
_cell_angle_gamma 90.000000
_cell_volume 3972.747856
_symmetry_space_group_name_H-M "P N N A"
_symmetry_group_IT_number 52
_symmetry_cell_setting 'orthorhombic'
loop_
_space_group_symop_operation_xyz
x,y,z
1/2-x,-y,z
x,1/2-y,1/2-z
1/2-x,1/2+y,1/2-z
-x,-y,-z
1/2+x,y,-z
-x,1/2+y,1/2+z
1/2+x,1/2-y,1/2+z
loop_
_atom_site_type_symbol
_atom_site_label
_atom_site_fract_x
_atom_site_fract_y
_atom_site_fract_z
Si Si1 0.932633 0.976912 0.944548
Si Si2 0.522633 0.913104 0.363100
Si Si3 0.798599 0.339723 0.851504
Si Si4 0.882764 0.775698 0.628776
Si Si5 0.385124 0.267738 0.369834
Si Si6 0.292750 0.836449 0.350929
Si Si7 0.436126 0.021916 0.438341
Si Si8 0.522570 0.587604 0.366697
O O1 0.896081 0.074058 0.897250
O O2 0.912195 0.824566 0.938029
O O3 0.942445 0.015263 0.061553
O O4 0.976538 0.983706 0.881440
O O5 0.476800 0.982673 0.372025
O O6 0.518512 0.750750 0.392083
O O7 0.538776 0.935222 0.248317
O O8 0.554581 0.990239 0.440689
O O9 0.796976 0.250000 0.750000
O O10 0.839079 0.281278 0.915839
O O11 0.752763 0.323965 0.910473
O O12 0.804370 0.503081 0.824734
O O13 0.887897 0.750000 0.750000
O O14 0.833387 0.767228 0.592809
O O15 0.897104 0.929951 0.599072
O O16 0.383261 0.250000 0.250000
O O17 0.423709 0.180649 0.416698
O O18 0.285701 0.750000 0.250000
#
# Coordination Sequence:
#
# PCOD8215620 Si02
#       8
#     8   8   8   8   8   8   8   8
#     4  11  22  33  49  70  96 127 167 200 239 286
#     4  10  20  34  53  68  96 127 163 205 249 284
#     4   9  18  30  44  67  99 126 163 200 231 285
#     4  11  20  32  50  70  99 135 163 194 237 289
#     4  11  20  30  46  72  99 127 162 203 232 277
#     4   9  18  30  45  66  95 135 160 189 244 288
#     4  11  20  33  49  74  92 128 168 200 234 289
#     4  10  20  36  50  69  96 130 159 206 251 284
#
# _framework density 16.109756999999998
#
# number of rings (size 3 to 8) (size 9 to 14) (size 15 to 20)
#    0.000    1.750    3.750    2.250    5.250    0.000 
#    0.000    1.875    0.000    0.000    0.000    0.000 
#    0.000    6.000    0.000    0.000    0.000    0.000 
#
# Total GULP energy -793055.599032 kJ/mol
# GULP energy per Si atom -12391.493735 kJ/mol
# Density = 1.607309 g / cm^3
# Si number density = 16.109757 Si / 1000 Ang^3
#
#
#
# Elastic Constant Matrix: (Units=GPa)
#
#
# Indices 1 2 3 4 5 6 
#
# 1 105.1765 19.0214 34.2621 0.0000 0.0000 0.0000
# 2 19.0214 48.1907 15.2914 0.0000 0.0000 0.0000
# 3 34.2621 15.2914 69.1404 0.0000 0.0000 0.0000
# 4 0.0000 0.0000 0.0000 23.8787 0.0000 0.0000
# 5 0.0000 0.0000 0.0000 0.0000 12.5075 0.0000
# 6 0.0000 0.0000 0.0000 0.0000 0.0000 23.6211
#
#
#
# Elastic Compliance Matrix: (Units=1/GPa)
#
#
# Indices 1 2 3 4 5 6 
#
# 1 0.011727 -0.002995 -0.005149 0.000000 0.000000 0.000000
# 2 -0.002995 0.023082 -0.003621 0.000000 0.000000 0.000000
# 3 -0.005149 -0.003621 0.017816 0.000000 0.000000 0.000000
# 4 0.000000 0.000000 0.000000 0.041878 0.000000 0.000000
# 5 0.000000 0.000000 0.000000 0.000000 0.079952 0.000000
# 6 0.000000 0.000000 0.000000 0.000000 0.000000 0.042335
#
#
# Mechanical properties :
#
#
# Convention : Reuss Voigt Hill
#
# Bulk Modulus (GPa) = 34.36983 39.96195 37.16589
# Shear Modulus (GPa) = 19.99867 22.26365 21.13116
#
# Velocity S-wave (km/s) = 3.52717 3.72156 3.62567
# Velocity P-wave (km/s) = 6.16190 6.58229 6.37556
#
# Compressibility (1/GPa) = 0.02909529
#
# Stress axis : x y z
#
# Youngs Moduli (GPa) = 85.27548 43.32396 56.13079
#
# Poissons Ratio (x) = 0.12975 0.28900
# Poissons Ratio (y) = 0.25539 0.20324
# Poissons Ratio (z) = 0.43906 0.15687
#
# Static dielectric constant tensor:
#      x y z
#    x 3.616780 0.000000 0.000000 
#    y 0.000000 3.177000 0.000000 
#    z 0.000000 0.000000 2.726700 
# 
# 
# High freq. dielectric constant tensor:
#      x y z
#    x 1.626620 0.000000 0.000000 
#    y 0.000000 1.634630 0.000000 
#    z 0.000000 0.000000 1.567020 
# 
# From -- ./inp_files/29765.got.cif
#   From: 2010.06.25/outbox.cif.g09.slc.cpg/sg52_15_cif.got.tgz:29765.got - 2010.06.26 19:32:48.
