data_PCOD8215986
_publ_section_title
;
Structure prediction by ZEFSAII (Michael W. Deem and Ramdas Pophale) SiO2 
 PCOD8215986
Probable space group: P N N A
;
_chemical_formula_sum "Si O2"
_cell_formula_units_Z 32
_cell_length_a 15.664551
_cell_length_b 16.786070
_cell_length_c 5.813224
_cell_angle_alpha 90.000000
_cell_angle_beta 90.000000
_cell_angle_gamma 90.000000
_cell_volume 1528.565449
_symmetry_space_group_name_H-M "P N N A"
_symmetry_group_IT_number 52
_symmetry_cell_setting 'orthorhombic'
loop_
_space_group_symop_operation_xyz
x,y,z
1/2-x,-y,z
x,1/2-y,1/2-z
1/2-x,1/2+y,1/2-z
-x,-y,-z
1/2+x,y,-z
-x,1/2+y,1/2+z
1/2+x,1/2-y,1/2+z
loop_
_atom_site_type_symbol
_atom_site_label
_atom_site_fract_x
_atom_site_fract_y
_atom_site_fract_z
Si Si1 0.361093 0.604708 0.989332
Si Si2 0.999815 0.333110 0.647113
Si Si3 0.906550 0.750000 0.750000
Si Si4 0.750000 0.000000 0.217823
Si Si5 0.408837 0.481608 0.387300
O O1 0.346208 0.692105 0.100256
O O2 0.393881 0.536740 0.165561
O O3 0.428720 0.617645 0.786025
O O4 0.271166 0.575660 0.882090
O O5 0.972047 0.250000 0.750000
O O6 0.035582 0.312815 0.392862
O O7 0.914894 0.387059 0.663471
O O8 0.832417 0.013296 0.065511
O O9 0.500000 0.500000 0.500000
#
# Coordination Sequence:
#
# PCOD8215986 Si02
#       5
#     8   8   4   4   8
#     4  11  22  41  70  98 133 179 235 283 349 420
#     4  10  22  39  73  97 130 178 225 282 354 411
#     4  10  20  40  68 100 132 174 226 282 352 416
#     4  12  26  38  70 102 134 182 234 288 354 418
#     4  12  23  44  71  97 133 182 234 288 344 423
#
# _framework density 20.934660999999998
#
# number of rings (size 3 to 8) (size 9 to 14) (size 15 to 20)
#    0.000    1.000    5.000    1.500    0.000    0.000 
#    0.000    0.000   71.500    0.000    0.000    0.000 
#    0.000    0.000    0.000    0.000    0.000    0.000 
#
# Total GULP energy -396431.921739 kJ/mol
# GULP energy per Si atom -12388.497554 kJ/mol
# Density = 2.088701 g / cm^3
# Si number density = 20.934661 Si / 1000 Ang^3
#
#
#
# Elastic Constant Matrix: (Units=GPa)
#
#
# Indices 1 2 3 4 5 6 
#
# 1 115.9301 64.8833 56.7316 0.0000 0.0000 0.0000
# 2 64.8833 159.4885 59.4007 0.0000 0.0000 0.0000
# 3 56.7316 59.4007 125.1391 0.0000 0.0000 0.0000
# 4 0.0000 0.0000 0.0000 39.6577 0.0000 0.0000
# 5 0.0000 0.0000 0.0000 0.0000 15.2051 0.0000
# 6 0.0000 0.0000 0.0000 0.0000 0.0000 32.8626
#
#
#
# Elastic Compliance Matrix: (Units=1/GPa)
#
#
# Indices 1 2 3 4 5 6 
#
# 1 0.012620 -0.003648 -0.003990 0.000000 0.000000 0.000000
# 2 -0.003648 0.008671 -0.002462 0.000000 0.000000 0.000000
# 3 -0.003990 -0.002462 0.010968 0.000000 0.000000 0.000000
# 4 0.000000 0.000000 0.000000 0.025216 0.000000 0.000000
# 5 0.000000 0.000000 0.000000 0.000000 0.065767 0.000000
# 6 0.000000 0.000000 0.000000 0.000000 0.000000 0.030430
#
#
# Mechanical properties :
#
#
# Convention : Reuss Voigt Hill
#
# Bulk Modulus (GPa) = 82.91894 84.73209 83.82552
# Shear Modulus (GPa) = 28.10688 32.18122 30.14405
#
# Velocity S-wave (km/s) = 3.66813 3.92500 3.79873
# Velocity P-wave (km/s) = 7.59175 7.81685 7.70512
#
# Compressibility (1/GPa) = 0.01205997
#
# Stress axis : x y z
#
# Youngs Moduli (GPa) = 79.23911 115.32406 91.17044
#
# Poissons Ratio (x) = 0.42073 0.36373
# Poissons Ratio (y) = 0.28908 0.22447
# Poissons Ratio (z) = 0.31613 0.28394
#
# Static dielectric constant tensor:
#      x y z
#    x 4.058020 0.000000 0.000000 
#    y 0.000000 5.702450 0.000000 
#    z 0.000000 0.000000 4.232220 
# 
# 
# High freq. dielectric constant tensor:
#      x y z
#    x 1.781730 0.000000 0.000000 
#    y 0.000000 1.846880 0.000000 
#    z 0.000000 0.000000 1.840180 
# 
# From -- ./inp_files/1946.got.cif
#   From: 2010.06.25/outbox.cif.g09.slc.cpg/sg52_1_cif.got.tgz:1946.got - 2010.06.26 19:32:48.
