data_PCOD8215771
_publ_section_title
;
Structure prediction by ZEFSAII (Michael W. Deem and Ramdas Pophale) SiO2 
 PCOD8215771
Probable space group: P N N A
;
_chemical_formula_sum "Si O2"
_cell_formula_units_Z 40
_cell_length_a 8.547443
_cell_length_b 8.336986
_cell_length_c 26.268232
_cell_angle_alpha 90.000000
_cell_angle_beta 90.000000
_cell_angle_gamma 90.000000
_cell_volume 1871.871917
_symmetry_space_group_name_H-M "P N N A"
_symmetry_group_IT_number 52
_symmetry_cell_setting 'orthorhombic'
loop_
_space_group_symop_operation_xyz
x,y,z
1/2-x,-y,z
x,1/2-y,1/2-z
1/2-x,1/2+y,1/2-z
-x,-y,-z
1/2+x,y,-z
-x,1/2+y,1/2+z
1/2+x,1/2-y,1/2+z
loop_
_atom_site_type_symbol
_atom_site_label
_atom_site_fract_x
_atom_site_fract_y
_atom_site_fract_z
Si Si1 0.750000 0.500000 0.303468
Si Si2 0.958518 0.750000 0.250000
Si Si3 0.510047 0.399259 0.147446
Si Si4 0.351147 0.264570 0.872685
Si Si5 0.177385 0.836142 0.448887
Si Si6 0.017370 0.171793 0.025661
O O1 0.852997 0.603365 0.266242
O O2 0.632275 0.609700 0.336670
O O3 0.050892 0.674268 0.201634
O O4 0.535896 0.592032 0.146993
O O5 0.670077 0.316580 0.128935
O O6 0.370702 0.353096 0.109750
O O7 0.395471 0.203628 0.928764
O O8 0.305715 0.695098 0.454758
O O9 0.023996 0.800268 0.482075
O O10 0.250000 0.000000 0.469627
O O11 0.000000 0.000000 0.000000
#
# Coordination Sequence:
#
# PCOD8215771 Si02
#       6
#     4   4   8   8   8   8
#     4  10  20  36  66  98 128 166 216 282 320 388
#     4  10  20  38  68  94 130 170 224 270 334 382
#     4  10  22  41  68  96 128 173 222 275 322 394
#     4  10  22  39  65  98 134 165 222 269 331 386
#     4  12  25  44  68  93 132 176 220 263 332 402
#     4  12  27  42  65  98 135 173 214 271 334 396
#
# _framework density 21.368984000000001
#
# number of rings (size 3 to 8) (size 9 to 14) (size 15 to 20)
#    0.000    1.200    2.000    4.800   11.200    0.000 
#    0.000    0.000    4.400    0.000    0.000    0.000 
#    0.000    0.000    0.000    0.000    0.000    0.000 
#
# Total GULP energy -495873.886397 kJ/mol
# GULP energy per Si atom -12396.847160 kJ/mol
# Density = 2.132035 g / cm^3
# Si number density = 21.368984 Si / 1000 Ang^3
#
#
#
# Elastic Constant Matrix: (Units=GPa)
#
#
# Indices 1 2 3 4 5 6 
#
# 1 77.3292 38.7967 43.2289 0.0000 0.0000 0.0000
# 2 38.7967 153.5175 71.7228 0.0000 0.0000 0.0000
# 3 43.2289 71.7228 142.1021 0.0000 0.0000 0.0000
# 4 0.0000 0.0000 0.0000 46.8460 0.0000 0.0000
# 5 0.0000 0.0000 0.0000 0.0000 41.3499 0.0000
# 6 0.0000 0.0000 0.0000 0.0000 0.0000 30.4533
#
#
#
# Elastic Compliance Matrix: (Units=1/GPa)
#
#
# Indices 1 2 3 4 5 6 
#
# 1 0.016202 -0.002345 -0.003745 0.000000 0.000000 0.000000
# 2 -0.002345 0.008863 -0.003760 0.000000 0.000000 0.000000
# 3 -0.003745 -0.003760 0.010074 0.000000 0.000000 0.000000
# 4 0.000000 0.000000 0.000000 0.021347 0.000000 0.000000
# 5 0.000000 0.000000 0.000000 0.000000 0.024184 0.000000
# 6 0.000000 0.000000 0.000000 0.000000 0.000000 0.032837
#
#
# Mechanical properties :
#
#
# Convention : Reuss Voigt Hill
#
# Bulk Modulus (GPa) = 64.77112 75.60509 70.18811
# Shear Modulus (GPa) = 36.13922 38.34321 37.24122
#
# Velocity S-wave (km/s) = 4.11688 4.24056 4.17918
# Velocity P-wave (km/s) = 7.27839 7.70935 7.49696
#
# Compressibility (1/GPa) = 0.01543898
#
# Stress axis : x y z
#
# Youngs Moduli (GPa) = 61.72152 112.82565 99.26099
#
# Poissons Ratio (x) = 0.26454 0.37176
# Poissons Ratio (y) = 0.14472 0.37324
# Poissons Ratio (z) = 0.23117 0.42425
#
# Static dielectric constant tensor:
#      x y z
#    x 3.664870 0.000000 0.000000 
#    y 0.000000 4.077840 0.000000 
#    z 0.000000 0.000000 4.118140 
# 
# 
# High freq. dielectric constant tensor:
#      x y z
#    x 1.808320 0.000000 0.000000 
#    y 0.000000 1.856790 0.000000 
#    z 0.000000 0.000000 1.849130 
# 
# From -- ./inp_files/42165.got.cif
#   From: 2010.06.25/outbox.cif.g09.slc.cpg/sg52_22_cif.got.tgz:42165.got - 2010.06.26 19:32:48.
