data_PCOD8215423
_publ_section_title
;
Structure prediction by ZEFSAII (Michael W. Deem and Ramdas Pophale) SiO2 
 PCOD8215423
Probable space group: P N N A
;
_chemical_formula_sum "Si O2"
_cell_formula_units_Z 48
_cell_length_a 13.891794
_cell_length_b 9.663798
_cell_length_c 14.506788
_cell_angle_alpha 90.000000
_cell_angle_beta 90.000000
_cell_angle_gamma 90.000000
_cell_volume 1947.499893
_symmetry_space_group_name_H-M "P N N A"
_symmetry_group_IT_number 52
_symmetry_cell_setting 'orthorhombic'
loop_
_space_group_symop_operation_xyz
x,y,z
1/2-x,-y,z
x,1/2-y,1/2-z
1/2-x,1/2+y,1/2-z
-x,-y,-z
1/2+x,y,-z
-x,1/2+y,1/2+z
1/2+x,1/2-y,1/2+z
loop_
_atom_site_type_symbol
_atom_site_label
_atom_site_fract_x
_atom_site_fract_y
_atom_site_fract_z
Si Si1 0.136217 0.513578 0.524535
Si Si2 0.135531 0.501141 0.893030
Si Si3 0.361968 0.514239 0.194353
Si Si4 0.362432 0.783492 0.465411
Si Si5 0.539743 0.593007 0.283458
Si Si6 0.364051 0.204906 0.453837
O O1 0.250000 0.500000 0.542208
O O2 0.097602 0.372549 0.477236
O O3 0.086608 0.554327 0.619977
O O4 0.106524 0.634012 0.452024
O O5 0.250000 0.500000 0.883923
O O6 0.090849 0.497224 0.792512
O O7 0.096762 0.364791 0.946057
O O8 0.095604 0.630661 0.954011
O O9 0.250000 0.500000 0.223943
O O10 0.392292 0.646794 0.131135
O O11 0.426970 0.543192 0.284401
O O12 0.392574 0.374555 0.139901
O O13 0.249384 0.801264 0.466006
O O14 0.557092 0.750000 0.250000
#
# Coordination Sequence:
#
# PCOD8215423 Si02
#       6
#     8   8   8   8   8   8
#     4  10  19  35  61  98 134 153 188 261 331 378
#     4   9  17  33  55  85 125 159 194 238 307 383
#     4   9  20  41  67  85 110 165 225 261 294 363
#     4   8  17  33  61  89 117 158 208 255 305 354
#     4  12  23  35  59  95 126 165 203 249 322 375
#     4   8  15  33  60  90 116 157 207 252 306 362
#
# _framework density 24.646985000000001
#
# number of rings (size 3 to 8) (size 9 to 14) (size 15 to 20)
#    0.000    2.667    1.667    2.500    0.000    3.333 
#    0.000    0.833    7.333    3.000    0.000    0.000 
#    0.000    0.000    0.000    0.000    0.000    0.000 
#
# Total GULP energy -594730.373820 kJ/mol
# GULP energy per Si atom -12390.216121 kJ/mol
# Density = 2.459089 g / cm^3
# Si number density = 24.646985 Si / 1000 Ang^3
#
#
#
# Elastic Constant Matrix: (Units=GPa)
#
#
# Indices 1 2 3 4 5 6 
#
# 1 67.6964 25.0827 16.0318 0.0000 0.0000 0.0000
# 2 25.0827 193.0614 43.7708 0.0000 0.0000 0.0000
# 3 16.0318 43.7708 46.2795 0.0000 0.0000 0.0000
# 4 0.0000 0.0000 0.0000 2.6164 0.0000 0.0000
# 5 0.0000 0.0000 0.0000 0.0000 18.0676 0.0000
# 6 0.0000 0.0000 0.0000 0.0000 0.0000 13.1891
#
#
#
# Elastic Compliance Matrix: (Units=1/GPa)
#
#
# Indices 1 2 3 4 5 6 
#
# 1 0.016262 -0.001064 -0.004627 0.000000 0.000000 0.000000
# 2 -0.001064 0.006663 -0.005933 0.000000 0.000000 0.000000
# 3 -0.004627 -0.005933 0.028823 0.000000 0.000000 0.000000
# 4 0.000000 0.000000 0.000000 0.382200 0.000000 0.000000
# 5 0.000000 0.000000 0.000000 0.000000 0.055348 0.000000
# 6 0.000000 0.000000 0.000000 0.000000 0.000000 0.075820
#
#
# Mechanical properties :
#
#
# Convention : Reuss Voigt Hill
#
# Bulk Modulus (GPa) = 35.08929 52.97864 44.03396
# Shear Modulus (GPa) = 8.36310 21.58475 14.97393
#
# Velocity S-wave (km/s) = 1.84405 2.96253 2.46750
# Velocity P-wave (km/s) = 4.33609 5.76574 5.10125
#
# Compressibility (1/GPa) = 0.02849873
#
# Stress axis : x y z
#
# Youngs Moduli (GPa) = 61.49391 150.07967 34.69494
#
# Poissons Ratio (x) = 0.15963 0.16054
# Poissons Ratio (y) = 0.06541 0.20586
# Poissons Ratio (z) = 0.28455 0.89049
#
# Static dielectric constant tensor:
#      x y z
#    x 4.476060 0.000000 0.000000 
#    y 0.000000 5.801270 0.000000 
#    z 0.000000 0.000000 4.188580 
# 
# 
# High freq. dielectric constant tensor:
#      x y z
#    x 1.989920 0.000000 0.000000 
#    y 0.000000 1.983900 0.000000 
#    z 0.000000 0.000000 1.961370 
# 
# From -- ./inp_files/33073.got.cif
#   From: 2010.06.25/outbox.cif.g09.slc.cpg/sg52_17_cif.got.tgz:33073.got - 2010.06.26 19:32:48.
