data_PCOD8215286
_publ_section_title
;
Structure prediction by ZEFSAII (Michael W. Deem and Ramdas Pophale) SiO2 
 PCOD8215286
Probable space group: P N N A
;
_chemical_formula_sum "Si O2"
_cell_formula_units_Z 64
_cell_length_a 22.145045
_cell_length_b 9.049337
_cell_length_c 14.752004
_cell_angle_alpha 90.000000
_cell_angle_beta 90.000000
_cell_angle_gamma 90.000000
_cell_volume 2956.271730
_symmetry_space_group_name_H-M "P N N A"
_symmetry_group_IT_number 52
_symmetry_cell_setting 'orthorhombic'
loop_
_space_group_symop_operation_xyz
x,y,z
1/2-x,-y,z
x,1/2-y,1/2-z
1/2-x,1/2+y,1/2-z
-x,-y,-z
1/2+x,y,-z
-x,1/2+y,1/2+z
1/2+x,1/2-y,1/2+z
loop_
_atom_site_type_symbol
_atom_site_label
_atom_site_fract_x
_atom_site_fract_y
_atom_site_fract_z
Si Si1 0.867934 0.841850 0.565230
Si Si2 0.473901 0.655819 0.394518
Si Si3 0.250738 0.324188 0.478582
Si Si4 0.093179 0.145343 0.638344
Si Si5 0.270408 0.829983 0.664533
Si Si6 0.409119 0.319414 0.839250
Si Si7 0.012718 0.667566 0.401410
Si Si8 0.631816 0.827698 0.543660
O O1 0.915925 0.758050 0.629952
O O2 0.807756 0.743290 0.570539
O O3 0.900389 0.859054 0.469148
O O4 0.853811 0.012333 0.588233
O O5 0.531110 0.723413 0.345955
O O6 0.465460 0.487906 0.358778
O O7 0.482094 0.643850 0.501770
O O8 0.250000 0.500000 0.480578
O O9 0.252550 0.259457 0.578963
O O10 0.311769 0.274468 0.427186
O O11 0.157901 0.187751 0.678668
O O12 0.039617 0.261160 0.662703
O O13 0.073025 0.988425 0.679194
O O14 0.239426 0.750000 0.750000
O O15 0.250000 0.000000 0.655979
O O16 0.374711 0.250000 0.750000
O O17 0.370807 0.317405 0.932917
O O18 0.070218 0.774475 0.410160
#
# Coordination Sequence:
#
# PCOD8215286 Si02
#       8
#     8   8   8   8   8   8   8   8
#     4   9  17  32  50  69  95 126 166 209 254 300
#     4   9  17  30  49  71  95 125 162 211 258 304
#     4  11  21  32  48  72 101 132 168 209 252 300
#     4   9  19  33  48  67  93 128 168 212 255 296
#     4  11  23  37  50  67  97 139 182 215 247 294
#     4  10  20  31  47  69  98 133 170 202 246 303
#     4   9  17  31  50  72  95 123 165 212 265 305
#     4  10  19  32  51  72 101 136 167 211 258 301
#
# _framework density 21.648890000000002
#
# number of rings (size 3 to 8) (size 9 to 14) (size 15 to 20)
#    0.000    2.250    0.000    4.500    0.000   10.000 
#    0.000    0.000    0.000    0.000    0.000    0.000 
#    0.000   13.000    0.000    1.125    0.000    0.250 
#
# Total GULP energy -792974.804736 kJ/mol
# GULP energy per Si atom -12390.231324 kJ/mol
# Density = 2.159962 g / cm^3
# Si number density = 21.648890 Si / 1000 Ang^3
#
#
#
# Elastic Constant Matrix: (Units=GPa)
#
#
# Indices 1 2 3 4 5 6 
#
# 1 134.0107 84.6363 13.0634 0.0000 0.0000 0.0000
# 2 84.6363 195.3739 11.6106 0.0000 0.0000 0.0000
# 3 13.0634 11.6106 14.6896 0.0000 0.0000 0.0000
# 4 0.0000 0.0000 0.0000 -20.1974 0.0000 0.0000
# 5 0.0000 0.0000 0.0000 0.0000 -64.0701 0.0000
# 6 0.0000 0.0000 0.0000 0.0000 0.0000 35.2038
#
#
#
# Elastic Compliance Matrix: (Units=1/GPa)
#
#
# Indices 1 2 3 4 5 6 
#
# 1 0.010783 -0.004304 -0.006188 0.000000 0.000000 0.000000
# 2 -0.004304 0.007088 -0.001775 0.000000 0.000000 0.000000
# 3 -0.006188 -0.001775 0.074982 0.000000 0.000000 0.000000
# 4 0.000000 0.000000 0.000000 -0.049511 0.000000 0.000000
# 5 0.000000 0.000000 0.000000 0.000000 -0.015608 0.000000
# 6 0.000000 0.000000 0.000000 0.000000 0.000000 0.028406
#
#
# Mechanical properties :
#
#
# Convention : Reuss Voigt Hill
#
# Bulk Modulus (GPa) = 14.63716 62.52164 38.57940
# Shear Modulus (GPa) = 48.33405 5.83819 27.08612
#
# Velocity S-wave (km/s) = 4.73020 1.64396 3.54100
# Velocity P-wave (km/s) = 6.05053 5.70491 5.88026
#
# Compressibility (1/GPa) = 0.06831927
#
# Stress axis : x y z
#
# Youngs Moduli (GPa) = 92.73608 141.07915 13.33661
#
# Poissons Ratio (x) = 0.60715 0.08253
# Poissons Ratio (y) = 0.39910 0.02368
# Poissons Ratio (z) = 0.57385 0.25046
#
# Static dielectric constant tensor:
#      x y z
#    x 3.703660 0.000000 0.000000 
#    y 0.000000 4.181210 0.000000 
#    z 0.000000 0.000000 3.448770 
# 
# 
# High freq. dielectric constant tensor:
#      x y z
#    x 1.857670 0.000000 0.000000 
#    y 0.000000 1.867220 0.000000 
#    z 0.000000 0.000000 1.792840 
# 
# From -- ./inp_files/34130.got.cif
#   From: 2010.06.25/outbox.cif.g09.slc.cpg/sg52_18_cif.got.tgz:34130.got - 2010.06.26 19:32:48.
