data_PCOD8215594
_publ_section_title
;
Structure prediction by ZEFSAII (Michael W. Deem and Ramdas Pophale) SiO2 
 PCOD8215594
Probable space group: P N N A
;
_chemical_formula_sum "Si O2"
_cell_formula_units_Z 48
_cell_length_a 9.417324
_cell_length_b 9.458379
_cell_length_c 30.763325
_cell_angle_alpha 90.000000
_cell_angle_beta 90.000000
_cell_angle_gamma 90.000000
_cell_volume 2740.169944
_symmetry_space_group_name_H-M "P N N A"
_symmetry_group_IT_number 52
_symmetry_cell_setting 'orthorhombic'
loop_
_space_group_symop_operation_xyz
x,y,z
1/2-x,-y,z
x,1/2-y,1/2-z
1/2-x,1/2+y,1/2-z
-x,-y,-z
1/2+x,y,-z
-x,1/2+y,1/2+z
1/2+x,1/2-y,1/2+z
loop_
_atom_site_type_symbol
_atom_site_label
_atom_site_fract_x
_atom_site_fract_y
_atom_site_fract_z
Si Si1 0.917024 0.493836 0.325490
Si Si2 0.087236 0.992271 0.043564
Si Si3 0.588750 0.487799 0.847196
Si Si4 0.389338 0.086670 0.733196
Si Si5 0.584640 0.792679 0.879887
Si Si6 0.089510 0.297855 0.382765
O O1 0.750000 0.500000 0.334779
O O2 0.952507 0.495300 0.274547
O O3 0.987790 0.631896 0.344810
O O4 0.983574 0.352671 0.345764
O O5 0.050610 0.849728 0.071270
O O6 0.250000 0.000000 0.029765
O O7 0.047238 0.130229 0.071880
O O8 0.000000 0.000000 0.000000
O O9 0.750000 0.500000 0.830094
O O10 0.497730 0.434134 0.806339
O O11 0.543997 0.629552 0.872558
O O12 0.573940 0.370893 0.885305
O O13 0.360846 0.250000 0.750000
O O14 0.250000 0.000000 0.718439
O O15 0.747730 0.833916 0.870163
#
# Coordination Sequence:
#
# PCOD8215594 Si02
#       6
#     8   8   8   8   8   8
#     4  10  20  33  52  75 103 144 184 217 262 315
#     4   9  18  34  56  80 106 135 169 216 265 324
#     4  10  21  37  57  79 104 143 186 227 264 312
#     4  11  24  38  52  76 113 147 183 224 276 310
#     4   9  20  35  56  79 105 139 176 218 273 311
#     4   9  18  37  55  77 107 138 174 224 267 315
#
# _framework density 17.517161999999999
#
# number of rings (size 3 to 8) (size 9 to 14) (size 15 to 20)
#    0.000    2.333    1.667    1.500    4.667    4.000 
#    0.000    0.833    0.000    0.000    0.000    0.000 
#    0.000    0.000    0.000    0.000    0.000    0.000 
#
# Total GULP energy -594716.488307 kJ/mol
# GULP energy per Si atom -12389.926840 kJ/mol
# Density = 1.747729 g / cm^3
# Si number density = 17.517162 Si / 1000 Ang^3
#
#
#
# Elastic Constant Matrix: (Units=GPa)
#
#
# Indices 1 2 3 4 5 6 
#
# 1 72.8634 55.1534 63.0035 0.0000 0.0000 0.0000
# 2 55.1534 155.3140 61.1760 0.0000 0.0000 0.0000
# 3 63.0035 61.1760 118.0573 0.0000 0.0000 0.0000
# 4 0.0000 0.0000 0.0000 14.3091 0.0000 0.0000
# 5 0.0000 0.0000 0.0000 0.0000 32.0838 0.0000
# 6 0.0000 0.0000 0.0000 0.0000 0.0000 24.1582
#
#
#
# Elastic Compliance Matrix: (Units=1/GPa)
#
#
# Indices 1 2 3 4 5 6 
#
# 1 0.028455 -0.005181 -0.012501 0.000000 0.000000 0.000000
# 2 -0.005181 0.009033 -0.001916 0.000000 0.000000 0.000000
# 3 -0.012501 -0.001916 0.016135 0.000000 0.000000 0.000000
# 4 0.000000 0.000000 0.000000 0.069886 0.000000 0.000000
# 5 0.000000 0.000000 0.000000 0.000000 0.031168 0.000000
# 6 0.000000 0.000000 0.000000 0.000000 0.000000 0.041394
#
#
# Mechanical properties :
#
#
# Convention : Reuss Voigt Hill
#
# Bulk Modulus (GPa) = 69.31267 78.32224 73.81745
# Shear Modulus (GPa) = 20.82678 25.23701 23.03190
#
# Velocity S-wave (km/s) = 3.45184 3.79978 3.62998
# Velocity P-wave (km/s) = 7.45260 8.00374 7.73308
#
# Compressibility (1/GPa) = 0.01442738
#
# Stress axis : x y z
#
# Youngs Moduli (GPa) = 35.14290 110.70552 61.97807
#
# Poissons Ratio (x) = 0.57353 0.77479
# Poissons Ratio (y) = 0.18207 0.11875
# Poissons Ratio (z) = 0.43932 0.21211
#
# Static dielectric constant tensor:
#      x y z
#    x 3.303710 0.000000 0.000000 
#    y 0.000000 3.659780 0.000000 
#    z 0.000000 0.000000 3.086000 
# 
# 
# High freq. dielectric constant tensor:
#      x y z
#    x 1.677280 0.000000 0.000000 
#    y 0.000000 1.688280 0.000000 
#    z 0.000000 0.000000 1.659990 
# 
# From -- ./inp_files/42681.got.cif
#   From: 2010.06.25/outbox.cif.g09.slc.cpg/sg52_22_cif.got.tgz:42681.got - 2010.06.26 19:32:48.
