data_PCOD8215184
_publ_section_title
;
Structure prediction by ZEFSAII (Michael W. Deem and Ramdas Pophale) SiO2 
 PCOD8215184
Probable space group: P N N A
;
_chemical_formula_sum "Si O2"
_cell_formula_units_Z 48
_cell_length_a 18.954401
_cell_length_b 9.045106
_cell_length_c 15.108280
_cell_angle_alpha 90.000000
_cell_angle_beta 90.000000
_cell_angle_gamma 90.000000
_cell_volume 2590.232511
_symmetry_space_group_name_H-M "P N N A"
_symmetry_group_IT_number 52
_symmetry_cell_setting 'orthorhombic'
loop_
_space_group_symop_operation_xyz
x,y,z
1/2-x,-y,z
x,1/2-y,1/2-z
1/2-x,1/2+y,1/2-z
-x,-y,-z
1/2+x,y,-z
-x,1/2+y,1/2+z
1/2+x,1/2-y,1/2+z
loop_
_atom_site_type_symbol
_atom_site_label
_atom_site_fract_x
_atom_site_fract_y
_atom_site_fract_z
Si Si1 0.958239 0.854715 0.166044
Si Si2 0.694702 0.129757 0.480666
Si Si3 0.298286 0.642756 0.666298
Si Si4 0.541685 0.429298 0.078299
Si Si5 0.465813 0.922438 0.264497
Si Si6 0.188167 0.382569 0.182911
O O1 0.964692 0.750000 0.250000
O O2 0.878592 0.914944 0.158229
O O3 0.978500 0.745805 0.084606
O O4 0.013960 0.990218 0.173635
O O5 0.721539 0.269455 0.423730
O O6 0.624819 0.060558 0.437418
O O7 0.683465 0.179692 0.582702
O O8 0.750000 0.000000 0.476546
O O9 0.250000 0.500000 0.676945
O O10 0.287571 0.750000 0.750000
O O11 0.523486 0.523270 0.165169
O O12 0.500000 0.500000 0.000000
O O13 0.474480 0.750000 0.250000
O O14 0.386244 0.961314 0.293876
O O15 0.250000 0.500000 0.194225
O O16 0.203607 0.250000 0.250000
#
# Coordination Sequence:
#
# PCOD8215184 Si02
#       6
#     8   8   8   8   8   8
#     4   8  18  33  52  79 108 142 185 223 272 337
#     4  10  21  38  57  84 113 147 193 229 277 343
#     4  10  20  34  56  84 119 151 180 228 281 340
#     4  10  18  35  58  77 109 148 181 231 284 330
#     4  10  20  36  57  83 112 144 187 239 279 337
#     4  10  22  39  59  80 110 149 191 240 285 330
#
# _framework density 18.531154999999998
#
# number of rings (size 3 to 8) (size 9 to 14) (size 15 to 20)
#    0.000    2.333    1.667    1.500    0.000    4.667 
#    0.000    0.833    0.000    0.000    0.000    0.000 
#    0.000    0.000    0.000    0.000    0.000    0.000 
#
# Total GULP energy -594961.141345 kJ/mol
# GULP energy per Si atom -12395.023778 kJ/mol
# Density = 1.848898 g / cm^3
# Si number density = 18.531155 Si / 1000 Ang^3
#
#
#
# Elastic Constant Matrix: (Units=GPa)
#
#
# Indices 1 2 3 4 5 6 
#
# 1 100.4252 73.6380 55.1627 0.0000 0.0000 0.0000
# 2 73.6380 117.0696 58.6762 0.0000 0.0000 0.0000
# 3 55.1627 58.6762 103.3990 0.0000 0.0000 0.0000
# 4 0.0000 0.0000 0.0000 35.7611 0.0000 0.0000
# 5 0.0000 0.0000 0.0000 0.0000 27.2197 0.0000
# 6 0.0000 0.0000 0.0000 0.0000 0.0000 31.0235
#
#
#
# Elastic Compliance Matrix: (Units=1/GPa)
#
#
# Indices 1 2 3 4 5 6 
#
# 1 0.020160 -0.010188 -0.004974 0.000000 0.000000 0.000000
# 2 -0.010188 0.017086 -0.004260 0.000000 0.000000 0.000000
# 3 -0.004974 -0.004260 0.014742 0.000000 0.000000 0.000000
# 4 0.000000 0.000000 0.000000 0.027963 0.000000 0.000000
# 5 0.000000 0.000000 0.000000 0.000000 0.036738 0.000000
# 6 0.000000 0.000000 0.000000 0.000000 0.000000 0.032234
#
#
# Mechanical properties :
#
#
# Convention : Reuss Voigt Hill
#
# Bulk Modulus (GPa) = 76.08221 77.31640 76.69930
# Shear Modulus (GPa) = 26.02137 27.69532 26.85835
#
# Velocity S-wave (km/s) = 3.75133 3.87011 3.81118
# Velocity P-wave (km/s) = 7.74008 7.86023 7.80039
#
# Compressibility (1/GPa) = 0.01314368
#
# Stress axis : x y z
#
# Youngs Moduli (GPa) = 49.60230 58.52844 67.83112
#
# Poissons Ratio (x) = 0.59629 0.33739
# Poissons Ratio (y) = 0.50535 0.28899
# Poissons Ratio (z) = 0.24672 0.24935
#
# Static dielectric constant tensor:
#      x y z
#    x 3.522710 0.000000 0.000000 
#    y 0.000000 3.700420 0.000000 
#    z 0.000000 0.000000 3.861730 
# 
# 
# High freq. dielectric constant tensor:
#      x y z
#    x 1.723140 0.000000 0.000000 
#    y 0.000000 1.711300 0.000000 
#    z 0.000000 0.000000 1.720210 
# 
# From -- ./inp_files/28066.got.cif
#   From: 2010.06.25/outbox.cif.g09.slc.cpg/sg52_15_cif.got.tgz:28066.got - 2010.06.26 19:32:48.
