data_PCOD8215788
_publ_section_title
;
Structure prediction by ZEFSAII (Michael W. Deem and Ramdas Pophale) SiO2 
 PCOD8215788
Probable space group: P N N A
;
_chemical_formula_sum "Si O2"
_cell_formula_units_Z 40
_cell_length_a 8.061429
_cell_length_b 11.297240
_cell_length_c 22.217099
_cell_angle_alpha 90.000000
_cell_angle_beta 90.000000
_cell_angle_gamma 90.000000
_cell_volume 2023.353377
_symmetry_space_group_name_H-M "P N N A"
_symmetry_group_IT_number 52
_symmetry_cell_setting 'orthorhombic'
loop_
_space_group_symop_operation_xyz
x,y,z
1/2-x,-y,z
x,1/2-y,1/2-z
1/2-x,1/2+y,1/2-z
-x,-y,-z
1/2+x,y,-z
-x,1/2+y,1/2+z
1/2+x,1/2-y,1/2+z
loop_
_atom_site_type_symbol
_atom_site_label
_atom_site_fract_x
_atom_site_fract_y
_atom_site_fract_z
Si Si1 0.097221 0.335310 0.199704
Si Si2 0.957469 0.377122 0.072668
Si Si3 0.572329 0.441772 0.249099
Si Si4 0.538333 0.747800 0.831516
Si Si5 0.926673 0.645331 0.054437
O O1 0.014170 0.250000 0.250000
O O2 0.289188 0.301753 0.193938
O O3 0.019190 0.316578 0.133727
O O4 0.064334 0.467074 0.223660
O O5 0.002184 0.516467 0.070442
O O6 0.765108 0.352381 0.068465
O O7 0.046249 0.318192 0.014881
O O8 0.750000 0.500000 0.262355
O O9 0.598713 0.340715 0.198116
O O10 0.498042 0.382042 0.310006
O O11 0.522772 0.740391 0.903669
#
# Coordination Sequence:
#
# PCOD8215788 Si02
#       5
#     8   8   8   8   8
#     4  12  24  38  62  91 130 161 206 255 315 375
#     4  10  21  35  59  88 122 162 199 267 314 371
#     4  11  24  39  58  91 128 166 208 254 312 377
#     4  11  23  39  61  90 125 168 207 257 316 377
#     4  10  20  37  58  87 122 158 210 254 322 372
#
# _framework density 19.769162000000001
#
# number of rings (size 3 to 8) (size 9 to 14) (size 15 to 20)
#    0.000    1.200    4.000    3.000    5.600    1.600 
#    0.000    0.000    0.000    1.200    0.000    0.000 
#    0.000    0.000    0.000    0.000    0.000    0.000 
#
# Total GULP energy -495866.806064 kJ/mol
# GULP energy per Si atom -12396.670152 kJ/mol
# Density = 1.972417 g / cm^3
# Si number density = 19.769162 Si / 1000 Ang^3
#
#
#
# Elastic Constant Matrix: (Units=GPa)
#
#
# Indices 1 2 3 4 5 6 
#
# 1 92.0278 40.8973 48.7337 0.0000 0.0000 0.0000
# 2 40.8973 69.9606 61.1461 0.0000 0.0000 0.0000
# 3 48.7337 61.1461 206.4290 0.0000 0.0000 0.0000
# 4 0.0000 0.0000 0.0000 37.1669 0.0000 0.0000
# 5 0.0000 0.0000 0.0000 0.0000 30.0436 0.0000
# 6 0.0000 0.0000 0.0000 0.0000 0.0000 24.4206
#
#
#
# Elastic Compliance Matrix: (Units=1/GPa)
#
#
# Indices 1 2 3 4 5 6 
#
# 1 0.014921 -0.007615 -0.001267 0.000000 0.000000 0.000000
# 2 -0.007615 0.023174 -0.005066 0.000000 0.000000 0.000000
# 3 -0.001267 -0.005066 0.006644 0.000000 0.000000 0.000000
# 4 0.000000 0.000000 0.000000 0.026906 0.000000 0.000000
# 5 0.000000 0.000000 0.000000 0.000000 0.033285 0.000000
# 6 0.000000 0.000000 0.000000 0.000000 0.000000 0.040949
#
#
# Mechanical properties :
#
#
# Convention : Reuss Voigt Hill
#
# Bulk Modulus (GPa) = 59.37635 74.44128 66.90882
# Shear Modulus (GPa) = 27.87219 32.83558 30.35389
#
# Velocity S-wave (km/s) = 3.75891 4.07990 3.92269
# Velocity P-wave (km/s) = 6.99566 7.74152 7.37802
#
# Compressibility (1/GPa) = 0.01684172
#
# Stress axis : x y z
#
# Youngs Moduli (GPa) = 67.01743 43.15246 150.51007
#
# Poissons Ratio (x) = 0.32863 0.19068
# Poissons Ratio (y) = 0.51037 0.76254
# Poissons Ratio (z) = 0.08490 0.21863
#
# Static dielectric constant tensor:
#      x y z
#    x 3.500380 0.000000 0.000000 
#    y 0.000000 3.457870 0.000000 
#    z 0.000000 0.000000 3.985010 
# 
# 
# High freq. dielectric constant tensor:
#      x y z
#    x 1.778080 0.000000 0.000000 
#    y 0.000000 1.726300 0.000000 
#    z 0.000000 0.000000 1.780910 
# 
# From -- ./inp_files/35768.got.cif
#   From: 2010.06.25/outbox.cif.g09.slc.cpg/sg52_18_cif.got.tgz:35768.got - 2010.06.26 19:32:48.
