data_PCOD8215496
_publ_section_title
;
Structure prediction by ZEFSAII (Michael W. Deem and Ramdas Pophale) SiO2 
 PCOD8215496
Probable space group: P N N A
;
_chemical_formula_sum "Si O2"
_cell_formula_units_Z 48
_cell_length_a 9.819224
_cell_length_b 14.276434
_cell_length_c 16.205987
_cell_angle_alpha 90.000000
_cell_angle_beta 90.000000
_cell_angle_gamma 90.000000
_cell_volume 2271.812033
_symmetry_space_group_name_H-M "P N N A"
_symmetry_group_IT_number 52
_symmetry_cell_setting 'orthorhombic'
loop_
_space_group_symop_operation_xyz
x,y,z
1/2-x,-y,z
x,1/2-y,1/2-z
1/2-x,1/2+y,1/2-z
-x,-y,-z
1/2+x,y,-z
-x,1/2+y,1/2+z
1/2+x,1/2-y,1/2+z
loop_
_atom_site_type_symbol
_atom_site_label
_atom_site_fract_x
_atom_site_fract_y
_atom_site_fract_z
Si Si1 0.967121 0.430182 0.261702
Si Si2 0.605856 0.742097 0.943928
Si Si3 0.622688 0.558937 0.843479
Si Si4 0.709278 0.750000 0.250000
Si Si5 0.250000 0.000000 0.880052
Si Si6 0.737320 0.160428 0.799491
Si Si7 0.193290 0.201255 0.924681
O O1 0.883856 0.339684 0.233379
O O2 0.882697 0.495540 0.322674
O O3 0.999909 0.487092 0.176971
O O4 0.104192 0.403557 0.312563
O O5 0.583786 0.636994 0.910183
O O6 0.691428 0.810050 0.884127
O O7 0.456478 0.783133 0.962046
O O8 0.692424 0.737758 0.028035
O O9 0.750000 0.500000 0.878471
O O10 0.652895 0.606250 0.755373
O O11 0.806007 0.767927 0.171228
O O12 0.265744 0.907736 0.936079
O O13 0.683400 0.250000 0.750000
#
# Coordination Sequence:
#
# PCOD8215496 Si02
#       7
#     8   8   8   4   4   8   8
#     4  10  19  37  65  97 127 171 227 272 326 405
#     4  11  25  42  68  96 142 176 228 279 349 390
#     4   9  20  38  66 100 129 172 231 273 330 410
#     4  10  24  42  68  90 136 180 222 278 346 394
#     4  10  24  40  64  96 136 170 228 270 338 404
#     4   9  18  35  64  94 129 174 215 271 335 402
#     4  11  27  45  66  97 136 178 224 282 344 407
#
# _framework density 21.128509000000001
#
# number of rings (size 3 to 8) (size 9 to 14) (size 15 to 20)
#    0.000    2.000    0.833    1.000   12.833    0.667 
#    4.500    3.333    0.000    0.000    0.000    0.000 
#    0.000    0.000    0.000    0.000    0.000    0.000 
#
# Total GULP energy -595254.435334 kJ/mol
# GULP energy per Si atom -12401.134069 kJ/mol
# Density = 2.108042 g / cm^3
# Si number density = 21.128509 Si / 1000 Ang^3
#
#
#
# Elastic Constant Matrix: (Units=GPa)
#
#
# Indices 1 2 3 4 5 6 
#
# 1 128.4991 32.7560 41.1789 0.0000 0.0000 0.0000
# 2 32.7560 102.0304 26.7484 0.0000 0.0000 0.0000
# 3 41.1789 26.7484 74.4821 0.0000 0.0000 0.0000
# 4 0.0000 0.0000 0.0000 21.6300 0.0000 0.0000
# 5 0.0000 0.0000 0.0000 0.0000 19.3829 0.0000
# 6 0.0000 0.0000 0.0000 0.0000 0.0000 26.4349
#
#
#
# Elastic Compliance Matrix: (Units=1/GPa)
#
#
# Indices 1 2 3 4 5 6 
#
# 1 0.009781 -0.001901 -0.004725 0.000000 0.000000 0.000000
# 2 -0.001901 0.011189 -0.002967 0.000000 0.000000 0.000000
# 3 -0.004725 -0.002967 0.017104 0.000000 0.000000 0.000000
# 4 0.000000 0.000000 0.000000 0.046232 0.000000 0.000000
# 5 0.000000 0.000000 0.000000 0.000000 0.051592 0.000000
# 6 0.000000 0.000000 0.000000 0.000000 0.000000 0.037829
#
#
# Mechanical properties :
#
#
# Convention : Reuss Voigt Hill
#
# Bulk Modulus (GPa) = 52.94525 56.26426 54.60475
# Shear Modulus (GPa) = 25.09923 27.11144 26.10533
#
# Velocity S-wave (km/s) = 3.45038 3.58602 3.51885
# Velocity P-wave (km/s) = 6.40207 6.62068 6.51229
#
# Compressibility (1/GPa) = 0.01888744
#
# Stress axis : x y z
#
# Youngs Moduli (GPa) = 102.23957 89.37109 58.46663
#
# Poissons Ratio (x) = 0.16993 0.27624
# Poissons Ratio (y) = 0.19440 0.17348
# Poissons Ratio (z) = 0.48306 0.26517
#
# Static dielectric constant tensor:
#      x y z
#    x 3.738200 0.000000 0.000000 
#    y 0.000000 4.221570 0.000000 
#    z 0.000000 0.000000 3.446910 
# 
# 
# High freq. dielectric constant tensor:
#      x y z
#    x 1.833460 0.000000 0.000000 
#    y 0.000000 1.843930 0.000000 
#    z 0.000000 0.000000 1.792940 
# 
# From -- ./inp_files/26116.got.cif
#   From: 2010.06.25/outbox.cif.g09.slc.cpg/sg52_14_cif.got.tgz:26116.got - 2010.06.26 19:32:48.
