data_PCOD8215611
_publ_section_title
;
Structure prediction by ZEFSAII (Michael W. Deem and Ramdas Pophale) SiO2 
 PCOD8215611
Probable space group: P N N A
;
_chemical_formula_sum "Si O2"
_cell_formula_units_Z 32
_cell_length_a 12.868332
_cell_length_b 5.028765
_cell_length_c 25.954317
_cell_angle_alpha 90.000000
_cell_angle_beta 90.000000
_cell_angle_gamma 90.000000
_cell_volume 1679.551027
_symmetry_space_group_name_H-M "P N N A"
_symmetry_group_IT_number 52
_symmetry_cell_setting 'orthorhombic'
loop_
_space_group_symop_operation_xyz
x,y,z
1/2-x,-y,z
x,1/2-y,1/2-z
1/2-x,1/2+y,1/2-z
-x,-y,-z
1/2+x,y,-z
-x,1/2+y,1/2+z
1/2+x,1/2-y,1/2+z
loop_
_atom_site_type_symbol
_atom_site_label
_atom_site_fract_x
_atom_site_fract_y
_atom_site_fract_z
Si Si1 0.179268 0.746385 0.691164
Si Si2 0.314961 0.754330 0.432399
Si Si3 0.453237 0.160613 0.903058
Si Si4 0.909002 0.626187 0.034480
O O1 0.250000 0.500000 0.678904
O O2 0.140030 0.750000 0.750000
O O3 0.077733 0.690713 0.656545
O O4 0.250000 0.000000 0.677383
O O5 0.250000 0.500000 0.416313
O O6 0.427554 0.751382 0.406271
O O7 0.321665 0.772419 0.494945
O O8 0.250000 0.000000 0.410115
O O9 0.375538 0.374028 0.930822
O O10 0.443617 0.869921 0.928747
O O11 0.000000 0.500000 0.000000
#
# Coordination Sequence:
#
# PCOD8215611 Si02
#       4
#     8   8   8   8
#     4  10  22  39  59  83 107 135 179 235 289 332
#     4  11  21  33  50  76 111 145 176 212 256 315
#     4  11  21  36  56  78 108 144 182 221 270 327
#     4  10  20  34  50  75 108 144 182 218 255 310
#
# _framework density 19.052710000000001
#
# number of rings (size 3 to 8) (size 9 to 14) (size 15 to 20)
#    0.000    1.500    0.000    9.000    0.000    6.000 
#    0.000    0.000    0.000    1.500    0.000    0.000 
#    0.000    0.000    0.000    0.000    0.000    0.000 
#
# Total GULP energy -396488.189849 kJ/mol
# GULP energy per Si atom -12390.255933 kJ/mol
# Density = 1.900935 g / cm^3
# Si number density = 19.052710 Si / 1000 Ang^3
#
#
#
# Elastic Constant Matrix: (Units=GPa)
#
#
# Indices 1 2 3 4 5 6 
#
# 1 82.6463 41.4585 56.4209 0.0000 0.0000 0.0000
# 2 41.4585 163.7240 46.1623 0.0000 0.0000 0.0000
# 3 56.4209 46.1623 108.9905 0.0000 0.0000 0.0000
# 4 0.0000 0.0000 0.0000 28.6094 0.0000 0.0000
# 5 0.0000 0.0000 0.0000 0.0000 34.4923 0.0000
# 6 0.0000 0.0000 0.0000 0.0000 0.0000 43.8827
#
#
#
# Elastic Compliance Matrix: (Units=1/GPa)
#
#
# Indices 1 2 3 4 5 6 
#
# 1 0.019493 -0.002375 -0.009085 0.000000 0.000000 0.000000
# 2 -0.002375 0.007225 -0.001831 0.000000 0.000000 0.000000
# 3 -0.009085 -0.001831 0.014654 0.000000 0.000000 0.000000
# 4 0.000000 0.000000 0.000000 0.034953 0.000000 0.000000
# 5 0.000000 0.000000 0.000000 0.000000 0.028992 0.000000
# 6 0.000000 0.000000 0.000000 0.000000 0.000000 0.022788
#
#
# Mechanical properties :
#
#
# Convention : Reuss Voigt Hill
#
# Bulk Modulus (GPa) = 67.61010 71.49379 69.55194
# Shear Modulus (GPa) = 31.32480 35.48484 33.40482
#
# Velocity S-wave (km/s) = 4.05916 4.32030 4.19177
# Velocity P-wave (km/s) = 7.58498 7.90521 7.74675
#
# Compressibility (1/GPa) = 0.01479069
#
# Stress axis : x y z
#
# Youngs Moduli (GPa) = 51.29978 138.40083 68.24154
#
# Poissons Ratio (x) = 0.32863 0.62000
# Poissons Ratio (y) = 0.12181 0.12495
# Poissons Ratio (z) = 0.46608 0.25342
#
# Static dielectric constant tensor:
#      x y z
#    x 3.105750 0.000000 0.000000 
#    y 0.000000 3.908060 0.000000 
#    z 0.000000 0.000000 3.313780 
# 
# 
# High freq. dielectric constant tensor:
#      x y z
#    x 1.727330 0.000000 0.000000 
#    y 0.000000 1.771580 0.000000 
#    z 0.000000 0.000000 1.712840 
# 
# From -- ./inp_files/39824.got.cif
#   From: 2010.06.25/outbox.cif.g09.slc.cpg/sg52_20_cif.got.tgz:39824.got - 2010.06.26 19:32:48.
