data_PCOD8215347
_publ_section_title
;
Structure prediction by ZEFSAII (Michael W. Deem and Ramdas Pophale) SiO2 
 PCOD8215347
Probable space group: P N N A
;
_chemical_formula_sum "Si O2"
_cell_formula_units_Z 60
_cell_length_a 8.920100
_cell_length_b 26.412754
_cell_length_c 14.165346
_cell_angle_alpha 90.000000
_cell_angle_beta 90.000000
_cell_angle_gamma 90.000000
_cell_volume 3337.417944
_symmetry_space_group_name_H-M "P N N A"
_symmetry_group_IT_number 52
_symmetry_cell_setting 'orthorhombic'
loop_
_space_group_symop_operation_xyz
x,y,z
1/2-x,-y,z
x,1/2-y,1/2-z
1/2-x,1/2+y,1/2-z
-x,-y,-z
1/2+x,y,-z
-x,1/2+y,1/2+z
1/2+x,1/2-y,1/2+z
loop_
_atom_site_type_symbol
_atom_site_label
_atom_site_fract_x
_atom_site_fract_y
_atom_site_fract_z
Si Si1 0.551838 0.858788 0.764749
Si Si2 0.991006 0.434277 0.584745
Si Si3 0.736046 0.795003 0.889800
Si Si4 0.963596 0.340060 0.454355
Si Si5 0.730838 0.712307 0.106761
Si Si6 0.763094 0.319756 0.304677
Si Si7 0.926536 0.198241 0.584645
Si Si8 0.250000 0.000000 0.987281
O O1 0.530915 0.915737 0.806045
O O2 0.702388 0.835139 0.807995
O O3 0.415674 0.826551 0.811213
O O4 0.566286 0.852945 0.650915
O O5 0.132599 0.471492 0.580568
O O6 0.024626 0.387825 0.512973
O O7 0.837474 0.461340 0.554955
O O8 0.686427 0.737750 0.861879
O O9 0.908187 0.802661 0.915953
O O10 0.640931 0.804319 0.983683
O O11 0.860935 0.360170 0.365564
O O12 0.699332 0.674124 0.193724
O O13 0.685844 0.766785 0.148448
O O14 0.903812 0.717499 0.075971
O O15 0.635198 0.689019 0.020577
#
# Coordination Sequence:
#
# PCOD8215347 Si02
#       8
#     8   8   8   8   8   8   8   4
#     4  10  20  34  51  70 104 135 183 213 264 307
#     4  10  20  34  54  81 103 136 162 220 272 340
#     4  11  19  29  45  71  99 143 178 217 239 297
#     4  11  20  31  51  74 107 139 184 213 259 307
#     4  10  21  32  47  65 101 142 187 215 254 270
#     4  10  19  34  47  68  99 144 181 223 243 301
#     4  11  20  33  47  68 100 144 184 220 243 293
#     4  10  20  36  56  76 110 128 166 212 296 350
#
# _framework density 17.977969999999999
#
# number of rings (size 3 to 8) (size 9 to 14) (size 15 to 20)
#    0.000    1.600    2.667    5.200    0.000    1.067 
#    2.400    0.000    0.000    0.000    0.000    0.000 
#    0.000   36.267    0.000    0.000    0.000    0.000 
#
# Total GULP energy -743290.602552 kJ/mol
# GULP energy per Si atom -12388.176709 kJ/mol
# Density = 1.793705 g / cm^3
# Si number density = 17.977970 Si / 1000 Ang^3
#
#
#
# Elastic Constant Matrix: (Units=GPa)
#
#
# Indices 1 2 3 4 5 6 
#
# 1 83.7006 12.6848 41.1088 0.0000 0.0000 0.0000
# 2 12.6848 52.1965 31.4991 0.0000 0.0000 0.0000
# 3 41.1088 31.4991 118.0886 0.0000 0.0000 0.0000
# 4 0.0000 0.0000 0.0000 23.8948 0.0000 0.0000
# 5 0.0000 0.0000 0.0000 0.0000 25.9168 0.0000
# 6 0.0000 0.0000 0.0000 0.0000 0.0000 21.6262
#
#
#
# Elastic Compliance Matrix: (Units=1/GPa)
#
#
# Indices 1 2 3 4 5 6 
#
# 1 0.014425 -0.000566 -0.004871 0.000000 0.000000 0.000000
# 2 -0.000566 0.022856 -0.005900 0.000000 0.000000 0.000000
# 3 -0.004871 -0.005900 0.011737 0.000000 0.000000 0.000000
# 4 0.000000 0.000000 0.000000 0.041850 0.000000 0.000000
# 5 0.000000 0.000000 0.000000 0.000000 0.038585 0.000000
# 6 0.000000 0.000000 0.000000 0.000000 0.000000 0.046240
#
#
# Mechanical properties :
#
#
# Convention : Reuss Voigt Hill
#
# Bulk Modulus (GPa) = 37.95656 47.17457 42.56556
# Shear Modulus (GPa) = 24.13719 25.53378 24.83548
#
# Velocity S-wave (km/s) = 3.66812 3.77275 3.72080
# Velocity P-wave (km/s) = 6.25291 6.72870 6.49516
#
# Compressibility (1/GPa) = 0.02634591
#
# Stress axis : x y z
#
# Youngs Moduli (GPa) = 69.32234 43.75176 85.19756
#
# Poissons Ratio (x) = 0.02478 0.41497
# Poissons Ratio (y) = 0.03926 0.50263
# Poissons Ratio (z) = 0.33765 0.25811
#
# Static dielectric constant tensor:
#      x y z
#    x 3.430090 0.000000 0.000000 
#    y 0.000000 3.075040 0.000000 
#    z 0.000000 0.000000 3.551000 
# 
# 
# High freq. dielectric constant tensor:
#      x y z
#    x 1.710170 0.000000 0.000000 
#    y 0.000000 1.637030 0.000000 
#    z 0.000000 0.000000 1.692740 
# 
# From -- ./inp_files/25193.got.cif
#   From: 2010.06.25/outbox.cif.g09.slc.cpg/sg52_13_cif.got.tgz:25193.got - 2010.06.26 19:32:48.
