data_PCOD8215319
_publ_section_title
;
Structure prediction by ZEFSAII (Michael W. Deem and Ramdas Pophale) SiO2 
 PCOD8215319
Probable space group: P N N A
;
_chemical_formula_sum "Si O2"
_cell_formula_units_Z 36
_cell_length_a 8.346526
_cell_length_b 12.423159
_cell_length_c 18.800652
_cell_angle_alpha 90.000000
_cell_angle_beta 90.000000
_cell_angle_gamma 90.000000
_cell_volume 1949.443734
_symmetry_space_group_name_H-M "P N N A"
_symmetry_group_IT_number 52
_symmetry_cell_setting 'orthorhombic'
loop_
_space_group_symop_operation_xyz
x,y,z
1/2-x,-y,z
x,1/2-y,1/2-z
1/2-x,1/2+y,1/2-z
-x,-y,-z
1/2+x,y,-z
-x,1/2+y,1/2+z
1/2+x,1/2-y,1/2+z
loop_
_atom_site_type_symbol
_atom_site_label
_atom_site_fract_x
_atom_site_fract_y
_atom_site_fract_z
Si Si1 0.657893 0.609419 0.425042
Si Si2 0.750000 0.500000 0.794507
Si Si3 0.768059 0.198933 0.606047
Si Si4 0.936605 0.764961 0.016689
Si Si5 0.934570 0.653249 0.699723
O O1 0.750000 0.500000 0.439457
O O2 0.784927 0.705354 0.435090
O O3 0.515873 0.627290 0.482476
O O4 0.585531 0.616057 0.346532
O O5 0.802407 0.403035 0.844931
O O6 0.610501 0.453570 0.743966
O O7 0.625322 0.185771 0.547275
O O8 0.718300 0.303017 0.653839
O O9 0.936912 0.209273 0.567455
O O10 0.994087 0.750000 0.750000
#
# Coordination Sequence:
#
# PCOD8215319 Si02
#       5
#     8   4   8   8   8
#     4  10  19  33  54  79 105 135 175 218 268 314
#     4  10  20  36  58  74 106 152 184 198 268 328
#     4   9  19  36  58  78 107 139 175 226 263 314
#     4   9  19  35  54  81 107 131 171 231 271 300
#     4   9  20  37  51  74 110 141 175 217 257 314
#
# _framework density 18.466806999999999
#
# number of rings (size 3 to 8) (size 9 to 14) (size 15 to 20)
#    0.000    2.667    0.000    0.667    3.111    0.889 
#    8.000    0.000    0.000    0.000    0.000    0.000 
#    0.000    0.000    0.000    0.000    0.000    0.000 
#
# Total GULP energy -446081.422012 kJ/mol
# GULP energy per Si atom -12391.150611 kJ/mol
# Density = 1.842478 g / cm^3
# Si number density = 18.466807 Si / 1000 Ang^3
#
#
#
# Elastic Constant Matrix: (Units=GPa)
#
#
# Indices 1 2 3 4 5 6 
#
# 1 97.3404 41.5929 65.8406 0.0000 0.0000 0.0000
# 2 41.5929 90.1620 54.9147 0.0000 0.0000 0.0000
# 3 65.8406 54.9147 128.8085 0.0000 0.0000 0.0000
# 4 0.0000 0.0000 0.0000 23.0500 0.0000 0.0000
# 5 0.0000 0.0000 0.0000 0.0000 35.8959 0.0000
# 6 0.0000 0.0000 0.0000 0.0000 0.0000 13.9797
#
#
#
# Elastic Compliance Matrix: (Units=1/GPa)
#
#
# Indices 1 2 3 4 5 6 
#
# 1 0.016408 -0.003324 -0.006970 0.000000 0.000000 0.000000
# 2 -0.003324 0.015655 -0.004975 0.000000 0.000000 0.000000
# 3 -0.006970 -0.004975 0.013447 0.000000 0.000000 0.000000
# 4 0.000000 0.000000 0.000000 0.043384 0.000000 0.000000
# 5 0.000000 0.000000 0.000000 0.000000 0.027858 0.000000
# 6 0.000000 0.000000 0.000000 0.000000 0.000000 0.071532
#
#
# Mechanical properties :
#
#
# Convention : Reuss Voigt Hill
#
# Bulk Modulus (GPa) = 66.79130 71.22304 69.00717
# Shear Modulus (GPa) = 22.34015 24.84931 23.59473
#
# Velocity S-wave (km/s) = 3.48191 3.67225 3.57835
# Velocity P-wave (km/s) = 7.23960 7.52545 7.38391
#
# Compressibility (1/GPa) = 0.01497201
#
# Stress axis : x y z
#
# Youngs Moduli (GPa) = 60.94625 63.87881 74.36620
#
# Poissons Ratio (x) = 0.21234 0.51831
# Poissons Ratio (y) = 0.20259 0.36996
# Poissons Ratio (z) = 0.42478 0.31779
#
# Static dielectric constant tensor:
#      x y z
#    x 3.419140 0.000000 0.000000 
#    y 0.000000 3.163510 0.000000 
#    z 0.000000 0.000000 3.679590 
# 
# 
# High freq. dielectric constant tensor:
#      x y z
#    x 1.709210 0.000000 0.000000 
#    y 0.000000 1.692870 0.000000 
#    z 0.000000 0.000000 1.733350 
# 
# From -- ./inp_files/39350.got.cif
#   From: 2010.06.25/outbox.cif.g09.slc.cpg/sg52_20_cif.got.tgz:39350.got - 2010.06.26 19:32:48.
