data_PCOD8215919
_publ_section_title
;
Structure prediction by ZEFSAII (Michael W. Deem and Ramdas Pophale) SiO2 
 PCOD8215919
Probable space group: P N N A
;
_chemical_formula_sum "Si O2"
_cell_formula_units_Z 40
_cell_length_a 8.795675
_cell_length_b 26.480893
_cell_length_c 8.459458
_cell_angle_alpha 90.000000
_cell_angle_beta 90.000000
_cell_angle_gamma 90.000000
_cell_volume 1970.354358
_symmetry_space_group_name_H-M "P N N A"
_symmetry_group_IT_number 52
_symmetry_cell_setting 'orthorhombic'
loop_
_space_group_symop_operation_xyz
x,y,z
1/2-x,-y,z
x,1/2-y,1/2-z
1/2-x,1/2+y,1/2-z
-x,-y,-z
1/2+x,y,-z
-x,1/2+y,1/2+z
1/2+x,1/2-y,1/2+z
loop_
_atom_site_type_symbol
_atom_site_label
_atom_site_fract_x
_atom_site_fract_y
_atom_site_fract_z
Si Si1 0.846200 0.608144 0.120587
Si Si2 0.012448 0.306756 0.699257
Si Si3 0.700944 0.152432 0.911620
Si Si4 0.013237 0.896018 0.681603
Si Si5 0.227350 0.943779 0.900005
O O1 0.950069 0.657003 0.152856
O O2 0.669552 0.625650 0.104858
O O3 0.857186 0.568195 0.266624
O O4 0.906730 0.582135 0.958940
O O5 0.040915 0.250000 0.750000
O O6 0.128851 0.319657 0.559882
O O7 0.839303 0.313687 0.647014
O O8 0.577747 0.148324 0.771299
O O9 0.761557 0.096346 0.957706
O O10 0.061381 0.938333 0.813188
O O11 0.250000 0.000000 0.966947
#
# Coordination Sequence:
#
# PCOD8215919 Si02
#       5
#     8   8   8   8   8
#     4   9  21  39  58  90 123 160 201 258 305 362
#     4  11  23  41  63  89 121 161 209 251 317 368
#     4  11  21  43  61  91 127 159 208 263 298 378
#     4  10  20  39  62  85 130 160 201 256 308 356
#     4   9  21  38  61  92 122 166 210 248 314 366
#
# _framework density 20.300916999999998
#
# number of rings (size 3 to 8) (size 9 to 14) (size 15 to 20)
#    1.200    0.800    2.000    1.200    0.000    4.800 
#    0.000    3.000    0.000    0.000    0.000    0.000 
#    0.000    0.000    0.000    0.000    0.000    0.000 
#
# Total GULP energy -495659.508964 kJ/mol
# GULP energy per Si atom -12391.487724 kJ/mol
# Density = 2.025471 g / cm^3
# Si number density = 20.300917 Si / 1000 Ang^3
#
#
#
# Elastic Constant Matrix: (Units=GPa)
#
#
# Indices 1 2 3 4 5 6 
#
# 1 108.3428 24.6265 26.3148 0.0000 0.0000 0.0000
# 2 24.6265 95.2835 0.4687 0.0000 0.0000 0.0000
# 3 26.3148 0.4687 50.3867 0.0000 0.0000 0.0000
# 4 0.0000 0.0000 0.0000 17.0446 0.0000 0.0000
# 5 0.0000 0.0000 0.0000 0.0000 35.2899 0.0000
# 6 0.0000 0.0000 0.0000 0.0000 0.0000 21.7571
#
#
#
# Elastic Compliance Matrix: (Units=1/GPa)
#
#
# Indices 1 2 3 4 5 6 
#
# 1 0.011317 -0.002896 -0.005884 0.000000 0.000000 0.000000
# 2 -0.002896 0.011237 0.001408 0.000000 0.000000 0.000000
# 3 -0.005884 0.001408 0.022906 0.000000 0.000000 0.000000
# 4 0.000000 0.000000 0.000000 0.058669 0.000000 0.000000
# 5 0.000000 0.000000 0.000000 0.000000 0.028337 0.000000
# 6 0.000000 0.000000 0.000000 0.000000 0.000000 0.045962
#
#
# Mechanical properties :
#
#
# Convention : Reuss Voigt Hill
#
# Bulk Modulus (GPa) = 32.55566 39.64811 36.10189
# Shear Modulus (GPa) = 24.58084 28.32519 26.45302
#
# Velocity S-wave (km/s) = 3.48346 3.73938 3.61369
# Velocity P-wave (km/s) = 5.67897 6.18195 5.93579
#
# Compressibility (1/GPa) = 0.03071662
#
# Stress axis : x y z
#
# Youngs Moduli (GPa) = 88.36046 88.99512 43.65640
#
# Poissons Ratio (x) = 0.25774 0.25686
# Poissons Ratio (y) = 0.25590 -0.06147
# Poissons Ratio (z) = 0.51988 -0.12530
#
# Static dielectric constant tensor:
#      x y z
#    x 3.743810 0.000000 0.000000 
#    y 0.000000 3.212020 0.000000 
#    z 0.000000 0.000000 3.665050 
# 
# 
# High freq. dielectric constant tensor:
#      x y z
#    x 1.801990 0.000000 0.000000 
#    y 0.000000 1.747830 0.000000 
#    z 0.000000 0.000000 1.796740 
# 
# From -- ./inp_files/7449.got.cif
#   From: 2010.06.25/outbox.cif.g09.slc.cpg/sg52_4_cif.got.tgz:7449.got - 2010.06.26 19:32:48.
