data_PCOD8215907
_publ_section_title
;
Structure prediction by ZEFSAII (Michael W. Deem and Ramdas Pophale) SiO2 
 PCOD8215907
Probable space group: P N N A
;
_chemical_formula_sum "Si O2"
_cell_formula_units_Z 56
_cell_length_a 15.053427
_cell_length_b 9.357207
_cell_length_c 19.113740
_cell_angle_alpha 90.000000
_cell_angle_beta 90.000000
_cell_angle_gamma 90.000000
_cell_volume 2692.323810
_symmetry_space_group_name_H-M "P N N A"
_symmetry_group_IT_number 52
_symmetry_cell_setting 'orthorhombic'
loop_
_space_group_symop_operation_xyz
x,y,z
1/2-x,-y,z
x,1/2-y,1/2-z
1/2-x,1/2+y,1/2-z
-x,-y,-z
1/2+x,y,-z
-x,1/2+y,1/2+z
1/2+x,1/2-y,1/2+z
loop_
_atom_site_type_symbol
_atom_site_label
_atom_site_fract_x
_atom_site_fract_y
_atom_site_fract_z
Si Si1 0.053800 0.250000 0.750000
Si Si2 0.932147 0.339282 0.634658
Si Si3 0.105633 0.153432 0.125161
Si Si4 0.478296 0.250000 0.750000
Si Si5 0.634533 0.546263 0.035203
Si Si6 0.031795 0.275553 0.994508
Si Si7 0.348010 0.489660 0.805319
Si Si8 0.225738 0.848853 0.400178
O O1 0.111358 0.351554 0.800329
O O2 0.990789 0.349039 0.703635
O O3 0.875860 0.485302 0.633922
O O4 0.864257 0.206571 0.635605
O O5 0.000761 0.315283 0.571653
O O6 0.197978 0.236683 0.117677
O O7 0.043093 0.219527 0.184953
O O8 0.055975 0.158894 0.051641
O O9 0.413203 0.382865 0.764495
O O10 0.616862 0.378571 0.018794
O O11 0.666401 0.561449 0.114891
O O12 0.543270 0.627700 0.028271
O O13 0.707612 0.618666 0.983294
O O14 0.250000 0.500000 0.770146
O O15 0.250000 0.000000 0.363886
#
# Coordination Sequence:
#
# PCOD8215907 Si02
#       8
#     4   8   8   4   8   8   8   8
#     4  12  25  45  68  96 134 188 234 277 355 430
#     4  11  25  42  67  98 142 184 232 282 358 416
#     4  12  24  44  67  99 149 180 234 286 351 417
#     4  12  27  45  70 102 136 196 230 283 357 420
#     4  10  20  39  70 105 127 170 236 292 341 400
#     4  10  20  38  68  97 129 179 229 284 341 413
#     4  12  25  45  70  99 140 176 232 295 348 422
#     4  11  24  40  69 105 134 175 235 290 339 407
#
# _framework density 20.799875
#
# number of rings (size 3 to 8) (size 9 to 14) (size 15 to 20)
#    0.000    0.857    5.714    1.714    2.000    0.571 
#    0.000    0.000    0.000    0.000    0.000    0.000 
#    0.000    0.000    0.000    0.000    0.000    0.000 
#
# Total GULP energy -694159.150692 kJ/mol
# GULP energy per Si atom -12395.699120 kJ/mol
# Density = 2.075253 g / cm^3
# Si number density = 20.799875 Si / 1000 Ang^3
#
#
#
# Elastic Constant Matrix: (Units=GPa)
#
#
# Indices 1 2 3 4 5 6 
#
# 1 124.7117 40.8142 44.0880 0.0000 0.0000 0.0000
# 2 40.8142 111.7405 18.9093 0.0000 0.0000 0.0000
# 3 44.0880 18.9093 81.9312 0.0000 0.0000 0.0000
# 4 0.0000 0.0000 0.0000 -3.4617 0.0000 0.0000
# 5 0.0000 0.0000 0.0000 0.0000 -37.5128 0.0000
# 6 0.0000 0.0000 0.0000 0.0000 0.0000 39.0394
#
#
#
# Elastic Compliance Matrix: (Units=1/GPa)
#
#
# Indices 1 2 3 4 5 6 
#
# 1 0.010841 -0.003093 -0.005120 0.000000 0.000000 0.000000
# 2 -0.003093 0.010196 -0.000689 0.000000 0.000000 0.000000
# 3 -0.005120 -0.000689 0.015119 0.000000 0.000000 0.000000
# 4 0.000000 0.000000 0.000000 -0.288874 0.000000 0.000000
# 5 0.000000 0.000000 0.000000 0.000000 -0.026658 0.000000
# 6 0.000000 0.000000 0.000000 0.000000 0.000000 0.025615
#
#
# Mechanical properties :
#
#
# Convention : Reuss Voigt Hill
#
# Bulk Modulus (GPa) = 54.48799 58.44515 56.46657
# Shear Modulus (GPa) = -21.75421 13.91777 -3.91822
#
# Velocity S-wave (km/s) = -3.23752 2.58956 -1.37399
# Velocity P-wave (km/s) = 3.50397 6.09105 4.96884
#
# Compressibility (1/GPa) = 0.01835267
#
# Stress axis : x y z
#
# Youngs Moduli (GPa) = 92.24494 98.08066 66.14122
#
# Poissons Ratio (x) = 0.30339 0.33861
# Poissons Ratio (y) = 0.28534 0.04554
# Poissons Ratio (z) = 0.47225 0.06754
#
# Static dielectric constant tensor:
#      x y z
#    x 3.884710 0.000000 0.000000 
#    y 0.000000 3.879070 0.000000 
#    z 0.000000 0.000000 3.683270 
# 
# 
# High freq. dielectric constant tensor:
#      x y z
#    x 1.828520 0.000000 0.000000 
#    y 0.000000 1.815470 0.000000 
#    z 0.000000 0.000000 1.806840 
# 
# From -- ./inp_files/37363.got.cif
#   From: 2010.06.25/outbox.cif.g09.slc.cpg/sg52_19_cif.got.tgz:37363.got - 2010.06.26 19:32:48.
