data_PCOD8215077
_publ_section_title
;
Structure prediction by ZEFSAII (Michael W. Deem and Ramdas Pophale) SiO2 
 PCOD8215077
Probable space group: P N N A
;
_chemical_formula_sum "Si O2"
_cell_formula_units_Z 44
_cell_length_a 11.440858
_cell_length_b 11.725775
_cell_length_c 18.117989
_cell_angle_alpha 90.000000
_cell_angle_beta 90.000000
_cell_angle_gamma 90.000000
_cell_volume 2430.581251
_symmetry_space_group_name_H-M "P N N A"
_symmetry_group_IT_number 52
_symmetry_cell_setting 'orthorhombic'
loop_
_space_group_symop_operation_xyz
x,y,z
1/2-x,-y,z
x,1/2-y,1/2-z
1/2-x,1/2+y,1/2-z
-x,-y,-z
1/2+x,y,-z
-x,1/2+y,1/2+z
1/2+x,1/2-y,1/2+z
loop_
_atom_site_type_symbol
_atom_site_label
_atom_site_fract_x
_atom_site_fract_y
_atom_site_fract_z
Si Si1 0.928375 0.635850 0.206492
Si Si2 0.867891 0.931265 0.443731
Si Si3 0.957455 0.634467 0.908303
Si Si4 0.563962 0.672194 0.320388
Si Si5 0.620190 0.470063 0.764788
Si Si6 0.250000 0.500000 0.701791
O O1 0.917721 0.750000 0.250000
O O2 0.877863 0.657183 0.124228
O O3 0.849941 0.541066 0.243943
O O4 0.060547 0.589195 0.210990
O O5 0.882475 0.853083 0.516876
O O6 0.750000 0.000000 0.450841
O O7 0.964310 0.025287 0.425142
O O8 0.875105 0.611194 0.837264
O O9 0.032560 0.748409 0.890839
O O10 0.599484 0.750000 0.250000
O O11 0.451473 0.593561 0.300405
O O12 0.679834 0.597920 0.344299
O O13 0.750000 0.500000 0.736528
#
# Coordination Sequence:
#
# PCOD8215077 Si02
#       6
#     8   8   8   8   8   4
#     4  10  20  30  50  80 101 132 174 218 262 305
#     4  10  19  32  51  78 107 131 167 221 267 319
#     4   9  19  33  50  77 107 135 171 212 273 315
#     4   9  18  31  51  78 105 139 175 214 266 313
#     4   9  18  33  50  74 104 137 175 215 254 312
#     4  10  18  30  50  76 108 134 174 220 258 310
#
# _framework density 18.102665999999999
#
# number of rings (size 3 to 8) (size 9 to 14) (size 15 to 20)
#    0.000    2.545    0.909    2.182    2.545    2.182 
#    0.000    0.000    0.000    4.364    4.727    0.000 
#    0.000    0.000    0.000    0.000    0.000    0.000 
#
# Total GULP energy -545169.414448 kJ/mol
# GULP energy per Si atom -12390.213965 kJ/mol
# Density = 1.806146 g / cm^3
# Si number density = 18.102666 Si / 1000 Ang^3
#
#
#
# Elastic Constant Matrix: (Units=GPa)
#
#
# Indices 1 2 3 4 5 6 
#
# 1 94.5966 30.9762 24.1696 0.0000 0.0000 0.0000
# 2 30.9762 74.0500 43.1066 0.0000 0.0000 0.0000
# 3 24.1696 43.1066 100.6662 0.0000 0.0000 0.0000
# 4 0.0000 0.0000 0.0000 45.7719 0.0000 0.0000
# 5 0.0000 0.0000 0.0000 0.0000 14.8261 0.0000
# 6 0.0000 0.0000 0.0000 0.0000 0.0000 16.1052
#
#
#
# Elastic Compliance Matrix: (Units=1/GPa)
#
#
# Indices 1 2 3 4 5 6 
#
# 1 0.012324 -0.004573 -0.001001 0.000000 0.000000 0.000000
# 2 -0.004573 0.019685 -0.007332 0.000000 0.000000 0.000000
# 3 -0.001001 -0.007332 0.013314 0.000000 0.000000 0.000000
# 4 0.000000 0.000000 0.000000 0.021847 0.000000 0.000000
# 5 0.000000 0.000000 0.000000 0.000000 0.067449 0.000000
# 6 0.000000 0.000000 0.000000 0.000000 0.000000 0.062092
#
#
# Mechanical properties :
#
#
# Convention : Reuss Voigt Hill
#
# Bulk Modulus (GPa) = 51.24887 51.75751 51.50319
# Shear Modulus (GPa) = 21.83163 26.74467 24.28815
#
# Velocity S-wave (km/s) = 3.47650 3.84785 3.66688
# Velocity P-wave (km/s) = 6.66981 6.95661 6.81472
#
# Compressibility (1/GPa) = 0.01951262
#
# Stress axis : x y z
#
# Youngs Moduli (GPa) = 81.14032 50.79968 75.11123
#
# Poissons Ratio (x) = 0.23230 0.07518
# Poissons Ratio (y) = 0.37104 0.55068
# Poissons Ratio (z) = 0.08121 0.37244
#
# Static dielectric constant tensor:
#      x y z
#    x 3.654470 0.000000 0.000000 
#    y 0.000000 3.316250 0.000000 
#    z 0.000000 0.000000 3.546670 
# 
# 
# High freq. dielectric constant tensor:
#      x y z
#    x 1.702080 0.000000 0.000000 
#    y 0.000000 1.688280 0.000000 
#    z 0.000000 0.000000 1.672030 
# 
# From -- ./inp_files/32163.got.cif
#   From: 2010.06.25/outbox.cif.g09.slc.cpg/sg52_17_cif.got.tgz:32163.got - 2010.06.26 19:32:48.
