data_PCOD8215343
_publ_section_title
;
Structure prediction by ZEFSAII (Michael W. Deem and Ramdas Pophale) SiO2 
 PCOD8215343
Probable space group: P N N A
;
_chemical_formula_sum "Si O2"
_cell_formula_units_Z 64
_cell_length_a 13.188608
_cell_length_b 30.340345
_cell_length_c 7.837730
_cell_angle_alpha 90.000000
_cell_angle_beta 90.000000
_cell_angle_gamma 90.000000
_cell_volume 3136.243494
_symmetry_space_group_name_H-M "P N N A"
_symmetry_group_IT_number 52
_symmetry_cell_setting 'orthorhombic'
loop_
_space_group_symop_operation_xyz
x,y,z
1/2-x,-y,z
x,1/2-y,1/2-z
1/2-x,1/2+y,1/2-z
-x,-y,-z
1/2+x,y,-z
-x,1/2+y,1/2+z
1/2+x,1/2-y,1/2+z
loop_
_atom_site_type_symbol
_atom_site_label
_atom_site_fract_x
_atom_site_fract_y
_atom_site_fract_z
Si Si1 0.901661 0.882206 0.684166
Si Si2 0.832362 0.836131 0.154589
Si Si3 0.231717 0.949922 0.249863
Si Si4 0.470552 0.161338 0.981505
Si Si5 0.256869 0.175700 0.494429
Si Si6 0.686378 0.733191 0.441314
Si Si7 0.315568 0.409521 0.588864
Si Si8 0.895328 0.095885 0.454407
O O1 0.839649 0.924970 0.745165
O O2 0.966425 0.855846 0.820792
O O3 0.815322 0.847057 0.640669
O O4 0.981409 0.899620 0.539188
O O5 0.812286 0.817875 0.341009
O O6 0.776934 0.801998 0.024684
O O7 0.791872 0.886055 0.127963
O O8 0.953211 0.836661 0.139402
O O9 0.148968 0.931695 0.386683
O O10 0.250000 0.000000 0.301522
O O11 0.193856 0.948186 0.052027
O O12 0.422356 0.209872 0.966523
O O13 0.382725 0.126258 0.012535
O O14 0.297807 0.223978 0.435306
O O15 0.352911 0.145518 0.541667
O O16 0.686279 0.750000 0.250000
O O17 0.363303 0.425908 0.769745
#
# Coordination Sequence:
#
# PCOD8215343 Si02
#       8
#     8   8   8   8   8   8   8   8
#     4  10  20  38  61  83 112 159 200 233 307 375
#     4   9  17  32  55  78 107 151 191 230 286 341
#     4  11  23  39  62  89 120 149 195 261 302 360
#     4  10  19  33  60  80 110 156 193 243 288 351
#     4   9  19  35  55  79 116 153 190 241 290 342
#     4   9  18  32  50  78 116 146 190 240 283 333
#     4   9  19  38  58  83 116 150 194 241 295 359
#     4   9  21  39  59  85 117 160 195 238 303 364
#
# _framework density 20.406578
#
# number of rings (size 3 to 8) (size 9 to 14) (size 15 to 20)
#    0.000    2.500    1.250    2.250    1.750    3.000 
#    0.000    2.500    0.000    1.500    0.000    0.000 
#    0.000    0.000    0.000    0.000    0.000    0.000 
#
# Total GULP energy -792859.314504 kJ/mol
# GULP energy per Si atom -12388.426789 kJ/mol
# Density = 2.036013 g / cm^3
# Si number density = 20.406578 Si / 1000 Ang^3
#
#
#
# Elastic Constant Matrix: (Units=GPa)
#
#
# Indices 1 2 3 4 5 6 
#
# 1 81.5981 15.7305 12.8196 0.0000 0.0000 0.0000
# 2 15.7305 90.2937 24.6399 0.0000 0.0000 0.0000
# 3 12.8196 24.6399 53.1758 0.0000 0.0000 0.0000
# 4 0.0000 0.0000 0.0000 21.8930 0.0000 0.0000
# 5 0.0000 0.0000 0.0000 0.0000 18.9672 0.0000
# 6 0.0000 0.0000 0.0000 0.0000 0.0000 15.0885
#
#
#
# Elastic Compliance Matrix: (Units=1/GPa)
#
#
# Indices 1 2 3 4 5 6 
#
# 1 0.012938 -0.001606 -0.002375 0.000000 0.000000 0.000000
# 2 -0.001606 0.012877 -0.005580 0.000000 0.000000 0.000000
# 3 -0.002375 -0.005580 0.021964 0.000000 0.000000 0.000000
# 4 0.000000 0.000000 0.000000 0.045677 0.000000 0.000000
# 5 0.000000 0.000000 0.000000 0.000000 0.052723 0.000000
# 6 0.000000 0.000000 0.000000 0.000000 0.000000 0.066275
#
#
# Mechanical properties :
#
#
# Convention : Reuss Voigt Hill
#
# Bulk Modulus (GPa) = 34.89478 36.82752 35.86115
# Shear Modulus (GPa) = 20.73592 22.64826 21.69209
#
# Velocity S-wave (km/s) = 3.19115 3.33506 3.26390
# Velocity P-wave (km/s) = 5.54210 5.73726 5.64052
#
# Compressibility (1/GPa) = 0.02865758
#
# Stress axis : x y z
#
# Youngs Moduli (GPa) = 77.29241 77.65549 45.52990
#
# Poissons Ratio (x) = 0.12470 0.10813
# Poissons Ratio (y) = 0.12412 0.25405
# Poissons Ratio (z) = 0.18357 0.43330
#
# Static dielectric constant tensor:
#      x y z
#    x 4.098540 0.000000 0.000000 
#    y 0.000000 3.905120 0.000000 
#    z 0.000000 0.000000 3.562050 
# 
# 
# High freq. dielectric constant tensor:
#      x y z
#    x 1.802750 0.000000 0.000000 
#    y 0.000000 1.774350 0.000000 
#    z 0.000000 0.000000 1.785140 
# 
# From -- ./inp_files/9123.got.cif
#   From: 2010.06.25/outbox.cif.g09.slc.cpg/sg52_5_cif.got.tgz:9123.got - 2010.06.26 19:32:48.
