data_PCOD8215263
_publ_section_title
;
Structure prediction by ZEFSAII (Michael W. Deem and Ramdas Pophale) SiO2 
 PCOD8215263
Probable space group: P N N A
;
_chemical_formula_sum "Si O2"
_cell_formula_units_Z 60
_cell_length_a 25.853948
_cell_length_b 5.399963
_cell_length_c 28.229002
_cell_angle_alpha 90.000000
_cell_angle_beta 90.000000
_cell_angle_gamma 90.000000
_cell_volume 3941.061205
_symmetry_space_group_name_H-M "P N N A"
_symmetry_group_IT_number 52
_symmetry_cell_setting 'orthorhombic'
loop_
_space_group_symop_operation_xyz
x,y,z
1/2-x,-y,z
x,1/2-y,1/2-z
1/2-x,1/2+y,1/2-z
-x,-y,-z
1/2+x,y,-z
-x,1/2+y,1/2+z
1/2+x,1/2-y,1/2+z
loop_
_atom_site_type_symbol
_atom_site_label
_atom_site_fract_x
_atom_site_fract_y
_atom_site_fract_z
Si Si1 0.992155 0.220761 0.857431
Si Si2 0.307798 0.514514 0.660753
Si Si3 0.450987 0.246346 0.042171
Si Si4 0.343745 0.750000 0.750000
Si Si5 0.996167 0.255646 0.195962
Si Si6 0.896034 0.746950 0.106099
Si Si7 0.615950 0.632072 0.185352
Si Si8 0.433110 0.756879 0.504440
O O1 0.991135 0.475761 0.827266
O O2 0.048768 0.148666 0.877276
O O3 0.952625 0.248136 0.900959
O O4 0.974526 0.977414 0.828158
O O5 0.250000 0.500000 0.639688
O O6 0.307603 0.708324 0.704165
O O7 0.348277 0.574082 0.619091
O O8 0.328921 0.268318 0.685562
O O9 0.421579 0.498706 0.026944
O O10 0.421322 0.998550 0.023955
O O11 0.507770 0.253234 0.020248
O O12 0.383321 0.538108 0.767473
O O13 0.014890 0.250000 0.250000
O O14 0.934749 0.199527 0.191647
O O15 0.887498 0.492368 0.133699
O O16 0.895345 0.717606 0.049602
#
# Coordination Sequence:
#
# PCOD8215263 Si02
#       8
#     8   8   8   4   8   8   8   8
#     4  10  19  31  44  64  86 108 137 173 209 252
#     4  11  22  33  46  58  77 103 138 180 229 270
#     4   9  17  28  45  65  84 103 126 162 205 259
#     4  10  22  32  44  60  70 102 136 188 220 270
#     4  11  20  29  46  61  86 114 145 171 210 252
#     4   9  20  31  44  62  79 103 130 170 223 266
#     4  10  21  33  46  57  80 101 144 180 225 265
#     4   9  17  28  46  65  83 102 127 156 212 270
#
# _framework density 15.224326
#
# number of rings (size 3 to 8) (size 9 to 14) (size 15 to 20)
#    0.000    2.133    1.333    2.400    7.467    4.800 
#    0.000    0.000    0.000    0.000    0.000    0.000 
#    0.000    0.000    0.000    0.000    0.000    0.000 
#
# Total GULP energy -743389.047414 kJ/mol
# GULP energy per Si atom -12389.817457 kJ/mol
# Density = 1.518967 g / cm^3
# Si number density = 15.224326 Si / 1000 Ang^3
#
#
#
# Elastic Constant Matrix: (Units=GPa)
#
#
# Indices 1 2 3 4 5 6 
#
# 1 25.2805 13.4367 31.4125 0.0000 0.0000 0.0000
# 2 13.4367 108.6007 53.4062 0.0000 0.0000 0.0000
# 3 31.4125 53.4062 119.6463 0.0000 0.0000 0.0000
# 4 0.0000 0.0000 0.0000 22.8252 0.0000 0.0000
# 5 0.0000 0.0000 0.0000 0.0000 16.3794 0.0000
# 6 0.0000 0.0000 0.0000 0.0000 0.0000 10.4837
#
#
#
# Elastic Compliance Matrix: (Units=1/GPa)
#
#
# Indices 1 2 3 4 5 6 
#
# 1 0.058723 0.000405 -0.015598 0.000000 0.000000 0.000000
# 2 0.000405 0.011801 -0.005374 0.000000 0.000000 0.000000
# 3 -0.015598 -0.005374 0.014852 0.000000 0.000000 0.000000
# 4 0.000000 0.000000 0.000000 0.043811 0.000000 0.000000
# 5 0.000000 0.000000 0.000000 0.000000 0.061052 0.000000
# 6 0.000000 0.000000 0.000000 0.000000 0.000000 0.095386
#
#
# Mechanical properties :
#
#
# Convention : Reuss Voigt Hill
#
# Bulk Modulus (GPa) = 22.60325 50.00425 36.30375
# Shear Modulus (GPa) = 14.64109 20.28915 17.46512
#
# Velocity S-wave (km/s) = 3.10448 3.65455 3.39069
# Velocity P-wave (km/s) = 5.26587 7.12207 6.26312
#
# Compressibility (1/GPa) = 0.04424142
#
# Stress axis : x y z
#
# Youngs Moduli (GPa) = 17.02924 84.74190 67.33169
#
# Poissons Ratio (x) = -0.03433 1.05025
# Poissons Ratio (y) = -0.00690 0.36182
# Poissons Ratio (z) = 0.26562 0.45538
#
# Static dielectric constant tensor:
#      x y z
#    x 2.371100 0.000000 0.000000 
#    y 0.000000 3.161860 0.000000 
#    z 0.000000 0.000000 2.996280 
# 
# 
# High freq. dielectric constant tensor:
#      x y z
#    x 1.498070 0.000000 0.000000 
#    y 0.000000 1.604090 0.000000 
#    z 0.000000 0.000000 1.582180 
# 
# From -- ./inp_files/41214.got.cif
#   From: 2010.06.25/outbox.cif.g09.slc.cpg/sg52_21_cif.got.tgz:41214.got - 2010.06.26 19:32:48.
