data_PCOD8215807
_publ_section_title
;
Structure prediction by ZEFSAII (Michael W. Deem and Ramdas Pophale) SiO2 
 PCOD8215807
Probable space group: P N N A
;
_chemical_formula_sum "Si O2"
_cell_formula_units_Z 64
_cell_length_a 18.245656
_cell_length_b 12.494653
_cell_length_c 13.404030
_cell_angle_alpha 90.000000
_cell_angle_beta 90.000000
_cell_angle_gamma 90.000000
_cell_volume 3055.758814
_symmetry_space_group_name_H-M "P N N A"
_symmetry_group_IT_number 52
_symmetry_cell_setting 'orthorhombic'
loop_
_space_group_symop_operation_xyz
x,y,z
1/2-x,-y,z
x,1/2-y,1/2-z
1/2-x,1/2+y,1/2-z
-x,-y,-z
1/2+x,y,-z
-x,1/2+y,1/2+z
1/2+x,1/2-y,1/2+z
loop_
_atom_site_type_symbol
_atom_site_label
_atom_site_fract_x
_atom_site_fract_y
_atom_site_fract_z
Si Si1 0.368352 0.799066 0.349046
Si Si2 0.478198 0.925501 0.686228
Si Si3 0.091968 0.679599 0.049475
Si Si4 0.907887 0.890868 0.993973
Si Si5 0.447491 0.097733 0.099442
Si Si6 0.652615 0.258936 0.142597
Si Si7 0.745210 0.382861 0.989485
Si Si8 0.967101 0.162804 0.333351
O O1 0.332266 0.750000 0.250000
O O2 0.383523 0.704172 0.424362
O O3 0.311264 0.882416 0.396295
O O4 0.445376 0.855213 0.324967
O O5 0.543577 0.910420 0.605599
O O6 0.511672 0.922932 0.796714
O O7 0.419836 0.833049 0.657347
O O8 0.437486 0.041003 0.679318
O O9 0.094204 0.790501 0.110854
O O10 0.175528 0.646996 0.048655
O O11 0.060443 0.703390 0.939622
O O12 0.890660 0.003979 0.937885
O O13 0.869395 0.860053 0.100308
O O14 0.994763 0.889427 0.009365
O O15 0.690242 0.250000 0.250000
O O16 0.716510 0.305957 0.075235
O O17 0.750000 0.500000 0.035987
O O18 0.941158 0.250000 0.250000
#
# Coordination Sequence:
#
# PCOD8215807 Si02
#       8
#     8   8   8   8   8   8   8   8
#     4  10  20  40  61  87 118 164 202 242 307 371
#     4  12  22  37  66  96 119 157 206 261 313 368
#     4  12  23  40  59  94 128 156 206 262 303 361
#     4  10  20  37  61  91 126 155 195 255 314 364
#     4  11  21  36  63  96 122 154 199 259 316 357
#     4  11  21  42  64  88 121 170 211 249 310 377
#     4  11  25  42  60  85 125 170 202 249 303 365
#     4  11  23  38  63  92 122 156 205 259 312 366
#
# _framework density 20.944061999999999
#
# number of rings (size 3 to 8) (size 9 to 14) (size 15 to 20)
#    0.000    1.000    3.750    4.500    1.750    1.500 
#    0.000    3.750    0.000    0.000    0.000    0.000 
#    0.000    0.000    0.000    0.000    0.000    0.000 
#
# Total GULP energy -793075.800647 kJ/mol
# GULP energy per Si atom -12391.809385 kJ/mol
# Density = 2.089639 g / cm^3
# Si number density = 20.944062 Si / 1000 Ang^3
#
#
#
# Elastic Constant Matrix: (Units=GPa)
#
#
# Indices 1 2 3 4 5 6 
#
# 1 55.2610 -0.1859 1.0912 0.0000 0.0000 0.0000
# 2 -0.1859 98.0985 5.7592 0.0000 0.0000 0.0000
# 3 1.0912 5.7592 89.3529 0.0000 0.0000 0.0000
# 4 0.0000 0.0000 0.0000 30.6046 0.0000 0.0000
# 5 0.0000 0.0000 0.0000 0.0000 -9.0652 0.0000
# 6 0.0000 0.0000 0.0000 0.0000 0.0000 59.4774
#
#
#
# Elastic Compliance Matrix: (Units=1/GPa)
#
#
# Indices 1 2 3 4 5 6 
#
# 1 0.018101 0.000047 -0.000224 0.000000 0.000000 0.000000
# 2 0.000047 0.010233 -0.000660 0.000000 0.000000 0.000000
# 3 -0.000224 -0.000660 0.011237 0.000000 0.000000 0.000000
# 4 0.000000 0.000000 0.000000 0.032675 0.000000 0.000000
# 5 0.000000 0.000000 0.000000 0.000000 -0.110312 0.000000
# 6 0.000000 0.000000 0.000000 0.000000 0.000000 0.016813
#
#
# Mechanical properties :
#
#
# Convention : Reuss Voigt Hill
#
# Bulk Modulus (GPa) = 26.38761 28.44902 27.41832
# Shear Modulus (GPa) = -719.62019 31.93988 -343.84015
#
# Velocity S-wave (km/s) = -18.55633 3.90937 -12.82681
# Velocity P-wave (km/s) = 21.13031 5.83013 14.36140
#
# Compressibility (1/GPa) = 0.03789657
#
# Stress axis : x y z
#
# Youngs Moduli (GPa) = 55.24696 97.72615 88.99278
#
# Poissons Ratio (x) = -0.00464 0.01994
# Poissons Ratio (y) = -0.00262 0.05875
# Poissons Ratio (z) = 0.01238 0.06451
#
# Static dielectric constant tensor:
#      x y z
#    x 3.580020 0.000000 0.000000 
#    y 0.000000 4.234770 0.000000 
#    z 0.000000 0.000000 4.245720 
# 
# 
# High freq. dielectric constant tensor:
#      x y z
#    x 1.783190 0.000000 0.000000 
#    y 0.000000 1.829290 0.000000 
#    z 0.000000 0.000000 1.835330 
# 
# From -- ./inp_files/28315.got.cif
#   From: 2010.06.25/outbox.cif.g09.slc.cpg/sg52_15_cif.got.tgz:28315.got - 2010.06.26 19:32:48.
