data_PCOD8215864
_publ_section_title
;
Structure prediction by ZEFSAII (Michael W. Deem and Ramdas Pophale) SiO2 
 PCOD8215864
Probable space group: P N N A
;
_chemical_formula_sum "Si O2"
_cell_formula_units_Z 48
_cell_length_a 14.608858
_cell_length_b 15.732757
_cell_length_c 10.024689
_cell_angle_alpha 90.000000
_cell_angle_beta 90.000000
_cell_angle_gamma 90.000000
_cell_volume 2304.050590
_symmetry_space_group_name_H-M "P N N A"
_symmetry_group_IT_number 52
_symmetry_cell_setting 'orthorhombic'
loop_
_space_group_symop_operation_xyz
x,y,z
1/2-x,-y,z
x,1/2-y,1/2-z
1/2-x,1/2+y,1/2-z
-x,-y,-z
1/2+x,y,-z
-x,1/2+y,1/2+z
1/2+x,1/2-y,1/2+z
loop_
_atom_site_type_symbol
_atom_site_label
_atom_site_fract_x
_atom_site_fract_y
_atom_site_fract_z
Si Si1 0.096889 0.432098 0.250000
Si Si2 0.459743 0.913890 0.749999
Si Si3 0.414303 0.250000 0.250000
Si Si4 0.605547 0.250000 0.750000
Si Si5 0.190349 0.078303 0.969806
Si Si6 0.809650 0.578303 0.030193
Si Si7 0.259991 0.250000 0.035214
O O1 0.047854 0.337965 0.250000
O O2 0.162861 0.440677 0.377554
O O3 0.018314 0.500819 0.249998
O O4 0.162862 0.440676 0.122448
O O5 0.524995 0.833325 0.750000
O O6 0.400426 0.911547 0.616862
O O7 0.400426 0.911547 0.883136
O O8 0.353049 0.250000 0.118056
O O9 0.668421 0.250000 0.878877
O O10 0.253263 0.162856 0.950662
O O11 0.250000 0.000000 0.915340
O O12 0.750000 0.500000 0.084659
O O13 0.746737 0.662857 0.049338
#
# Coordination Sequence:
#
# PCOD8215864 Si02
#       7
#     8   8   4   4   8   8   8
#     4  10  20  38  62  87 115 160 206 241 283 349
#     4  12  24  37  58  94 126 149 189 258 307 333
#     4  11  22  40  64  89 114 154 206 247 288 354
#     4   7  16  34  58  83 110 144 196 245 276 330
#     4  11  22  40  61  86 121 161 197 238 294 360
#     4  11  22  40  61  86 121 161 197 238 294 360
#     4   9  19  37  62  84 107 154 206 238 279 350
#
# _framework density 20.832877
#
# number of rings (size 3 to 8) (size 9 to 14) (size 15 to 20)
#    0.000    1.667    0.000    6.000    0.000    0.000 
#    0.000    1.667    0.000    2.000    0.000    0.000 
#    0.000    0.000    0.000    0.000    0.000    0.000 
#
# Total GULP energy -595108.668280 kJ/mol
# GULP energy per Si atom -12398.097256 kJ/mol
# Density = 2.078546 g / cm^3
# Si number density = 20.832877 Si / 1000 Ang^3
#
#
#
# Elastic Constant Matrix: (Units=GPa)
#
#
# Indices 1 2 3 4 5 6 
#
# 1 119.2526 96.0708 36.5290 0.0000 0.0000 0.0000
# 2 96.0708 238.2703 28.4898 0.0000 0.0000 0.0000
# 3 36.5290 28.4898 76.1114 0.0000 0.0000 0.0000
# 4 0.0000 0.0000 0.0000 86.5214 0.0000 0.0000
# 5 0.0000 0.0000 0.0000 0.0000 56.5349 0.0000
# 6 0.0000 0.0000 0.0000 0.0000 0.0000 98.7387
#
#
#
# Elastic Compliance Matrix: (Units=1/GPa)
#
#
# Indices 1 2 3 4 5 6 
#
# 1 0.013910 -0.005036 -0.004791 0.000000 0.000000 0.000000
# 2 -0.005036 0.006217 0.000090 0.000000 0.000000 0.000000
# 3 -0.004791 0.000090 0.015404 0.000000 0.000000 0.000000
# 4 0.000000 0.000000 0.000000 0.011558 0.000000 0.000000
# 5 0.000000 0.000000 0.000000 0.000000 0.017688 0.000000
# 6 0.000000 0.000000 0.000000 0.000000 0.000000 0.010128
#
#
# Mechanical properties :
#
#
# Convention : Reuss Voigt Hill
#
# Bulk Modulus (GPa) = 62.27712 83.97927 73.12820
# Shear Modulus (GPa) = 50.13513 66.52864 58.33189
#
# Velocity S-wave (km/s) = 4.91097 5.65719 5.29724
# Velocity P-wave (km/s) = 7.88133 9.11428 8.52014
#
# Compressibility (1/GPa) = 0.01605726
#
# Stress axis : x y z
#
# Youngs Moduli (GPa) = 71.89155 160.86135 64.91655
#
# Poissons Ratio (x) = 0.81003 0.31101
# Poissons Ratio (y) = 0.36202 -0.00583
# Poissons Ratio (z) = 0.34443 -0.01445
#
# Static dielectric constant tensor:
#      x y z
#    x 3.470660 0.000000 0.000000 
#    y 0.000000 3.640100 0.000000 
#    z 0.000000 0.000000 3.618100 
# 
# 
# High freq. dielectric constant tensor:
#      x y z
#    x 1.794150 0.000000 0.000000 
#    y 0.000000 1.849420 0.000000 
#    z 0.000000 0.000000 1.805690 
# 
# From -- ./inp_files/19565.got.cif
#   From: 2010.06.25/outbox.cif.g09.slc.cpg/sg52_10_cif.got.tgz:19565.got - 2010.06.26 19:32:48.
