data_PCOD8215891
_publ_section_title
;
Structure prediction by ZEFSAII (Michael W. Deem and Ramdas Pophale) SiO2 
 PCOD8215891
Probable space group: P N N A
;
_chemical_formula_sum "Si O2"
_cell_formula_units_Z 48
_cell_length_a 25.492654
_cell_length_b 13.587138
_cell_length_c 6.470629
_cell_angle_alpha 90.000000
_cell_angle_beta 90.000000
_cell_angle_gamma 90.000000
_cell_volume 2241.246053
_symmetry_space_group_name_H-M "P N N A"
_symmetry_group_IT_number 52
_symmetry_cell_setting 'orthorhombic'
loop_
_space_group_symop_operation_xyz
x,y,z
1/2-x,-y,z
x,1/2-y,1/2-z
1/2-x,1/2+y,1/2-z
-x,-y,-z
1/2+x,y,-z
-x,1/2+y,1/2+z
1/2+x,1/2-y,1/2+z
loop_
_atom_site_type_symbol
_atom_site_label
_atom_site_fract_x
_atom_site_fract_y
_atom_site_fract_z
Si Si1 0.964919 0.846904 0.866360
Si Si2 0.231660 0.750000 0.750000
Si Si3 0.003078 0.750000 0.250000
Si Si4 0.039962 0.586111 0.951338
Si Si5 0.621499 0.013763 0.695057
Si Si6 0.186294 0.843517 0.130518
Si Si7 0.725753 0.398885 0.935566
O O1 0.944263 0.750000 0.750000
O O2 0.923393 0.933506 0.828526
O O3 0.023346 0.877351 0.778791
O O4 0.967870 0.823568 0.109790
O O5 0.194010 0.681494 0.610427
O O6 0.269221 0.816179 0.609432
O O7 0.037053 0.680334 0.102923
O O8 0.097843 0.540577 0.989316
O O9 0.000000 0.500000 0.000000
O O10 0.664509 0.091332 0.617382
O O11 0.647118 0.934769 0.849675
O O12 0.161762 0.750000 0.250000
O O13 0.242890 0.868983 0.229353
O O14 0.750000 0.500000 0.024251
#
# Coordination Sequence:
#
# PCOD8215891 Si02
#       7
#     8   4   4   8   8   8   8
#     4   9  20  40  62  90 124 164 206 255 314 375
#     4  10  20  40  63  86 124 168 204 250 315 368
#     4  10  20  40  63  84 128 168 198 260 321 360
#     4   9  20  38  61  87 121 157 206 255 311 370
#     4  10  20  38  65  90 123 162 210 261 311 375
#     4   9  20  39  61  87 129 161 202 261 313 367
#     4   9  20  39  60  87 125 162 200 259 314 367
#
# _framework density 21.416657000000001
#
# number of rings (size 3 to 8) (size 9 to 14) (size 15 to 20)
#    0.000    2.667    0.000    0.000    1.167    6.667 
#    0.000   35.000    7.333    0.000    0.000    0.000 
#    0.000    0.000    0.000    0.000    0.000    0.000 
#
# Total GULP energy -594912.091579 kJ/mol
# GULP energy per Si atom -12394.001908 kJ/mol
# Density = 2.136791 g / cm^3
# Si number density = 21.416657 Si / 1000 Ang^3
#
#
#
# Elastic Constant Matrix: (Units=GPa)
#
#
# Indices 1 2 3 4 5 6 
#
# 1 100.9232 39.9940 57.3796 0.0000 0.0000 0.0000
# 2 39.9940 105.5935 47.7037 0.0000 0.0000 0.0000
# 3 57.3796 47.7037 133.3055 0.0000 0.0000 0.0000
# 4 0.0000 0.0000 0.0000 35.2351 0.0000 0.0000
# 5 0.0000 0.0000 0.0000 0.0000 6.6700 0.0000
# 6 0.0000 0.0000 0.0000 0.0000 0.0000 31.7461
#
#
#
# Elastic Compliance Matrix: (Units=1/GPa)
#
#
# Indices 1 2 3 4 5 6 
#
# 1 0.013899 -0.003056 -0.004889 0.000000 0.000000 0.000000
# 2 -0.003056 0.011968 -0.002968 0.000000 0.000000 0.000000
# 3 -0.004889 -0.002968 0.010668 0.000000 0.000000 0.000000
# 4 0.000000 0.000000 0.000000 0.028381 0.000000 0.000000
# 5 0.000000 0.000000 0.000000 0.000000 0.149924 0.000000
# 6 0.000000 0.000000 0.000000 0.000000 0.000000 0.031500
#
#
# Mechanical properties :
#
#
# Convention : Reuss Voigt Hill
#
# Bulk Modulus (GPa) = 67.97842 69.99740 68.98791
# Shear Modulus (GPa) = 18.31039 27.71324 23.01182
#
# Velocity S-wave (km/s) = 2.92714 3.60113 3.28149
# Velocity P-wave (km/s) = 6.57526 7.07428 6.82933
#
# Compressibility (1/GPa) = 0.01471055
#
# Stress axis : x y z
#
# Youngs Moduli (GPa) = 71.94680 83.55425 93.73770
#
# Poissons Ratio (x) = 0.25530 0.45831
# Poissons Ratio (y) = 0.21984 0.27818
# Poissons Ratio (z) = 0.35177 0.24796
#
# Static dielectric constant tensor:
#      x y z
#    x 3.752630 0.000000 0.000000 
#    y 0.000000 4.336230 0.000000 
#    z 0.000000 0.000000 3.904560 
# 
# 
# High freq. dielectric constant tensor:
#      x y z
#    x 1.815170 0.000000 0.000000 
#    y 0.000000 1.867720 0.000000 
#    z 0.000000 0.000000 1.822360 
# 
# From -- ./inp_files/5827.got.cif
#   From: 2010.06.25/outbox.cif.g09.slc.cpg/sg52_3_cif.got.tgz:5827.got - 2010.06.26 19:32:48.
