data_PCOD8215163
_publ_section_title
;
Structure prediction by ZEFSAII (Michael W. Deem and Ramdas Pophale) SiO2 
 PCOD8215163
Probable space group: P N N A
;
_chemical_formula_sum "Si O2"
_cell_formula_units_Z 60
_cell_length_a 13.610257
_cell_length_b 15.699249
_cell_length_c 15.526694
_cell_angle_alpha 90.000000
_cell_angle_beta 90.000000
_cell_angle_gamma 90.000000
_cell_volume 3317.601339
_symmetry_space_group_name_H-M "P N N A"
_symmetry_group_IT_number 52
_symmetry_cell_setting 'orthorhombic'
loop_
_space_group_symop_operation_xyz
x,y,z
1/2-x,-y,z
x,1/2-y,1/2-z
1/2-x,1/2+y,1/2-z
-x,-y,-z
1/2+x,y,-z
-x,1/2+y,1/2+z
1/2+x,1/2-y,1/2+z
loop_
_atom_site_type_symbol
_atom_site_label
_atom_site_fract_x
_atom_site_fract_y
_atom_site_fract_z
Si Si1 0.014984 0.719860 0.849335
Si Si2 0.398955 0.250000 0.250000
Si Si3 0.626203 0.321009 0.522975
Si Si4 0.043232 0.640664 0.401759
Si Si5 0.172156 0.742937 0.984107
Si Si6 0.354918 0.530650 0.354642
Si Si7 0.177876 0.885693 0.373801
Si Si8 0.606727 0.061748 0.669065
O O1 0.015285 0.750000 0.750000
O O2 0.124341 0.732958 0.889060
O O3 0.937045 0.772375 0.905466
O O4 0.982974 0.620852 0.862922
O O5 0.466001 0.304369 0.314629
O O6 0.328340 0.185711 0.300223
O O7 0.563510 0.354594 0.443183
O O8 0.711600 0.262212 0.482334
O O9 0.668502 0.404811 0.568497
O O10 0.123733 0.678361 0.466213
O O11 0.071767 0.543392 0.384552
O O12 0.150954 0.654642 0.033996
O O13 0.250000 0.500000 0.319940
O O14 0.400622 0.575991 0.271607
O O15 0.290931 0.911883 0.374120
O O16 0.098765 0.961330 0.355361
#
# Coordination Sequence:
#
# PCOD8215163 Si02
#       8
#     8   4   8   8   8   8   8   8
#     4  11  23  38  60  86 113 155 201 242 295 356
#     4  10  18  34  54  78 118 140 188 240 282 356
#     4  11  22  37  58  81 118 155 194 244 293 356
#     4  10  21  35  55  86 112 152 190 234 299 355
#     4  10  22  38  56  85 116 149 195 241 290 345
#     4  12  19  32  56  90 120 146 192 250 304 344
#     4  10  20  32  56  87 113 147 186 240 301 343
#     4  11  20  32  57  89 114 149 190 241 300 351
#
# _framework density 18.085355
#
# number of rings (size 3 to 8) (size 9 to 14) (size 15 to 20)
#    0.000    1.333    6.667    0.400    2.800    0.533 
#    1.200    0.000    0.000    0.000    0.000    0.000 
#    0.000    0.000    0.000    0.000    0.000    0.000 
#
# Total GULP energy -743731.652918 kJ/mol
# GULP energy per Si atom -12395.527549 kJ/mol
# Density = 1.804419 g / cm^3
# Si number density = 18.085355 Si / 1000 Ang^3
#
#
#
# Elastic Constant Matrix: (Units=GPa)
#
#
# Indices 1 2 3 4 5 6 
#
# 1 81.3929 25.5217 46.3807 0.0000 0.0000 0.0000
# 2 25.5217 93.7825 29.9368 0.0000 0.0000 0.0000
# 3 46.3807 29.9368 83.1153 0.0000 0.0000 0.0000
# 4 0.0000 0.0000 0.0000 19.8515 0.0000 0.0000
# 5 0.0000 0.0000 0.0000 0.0000 23.9814 0.0000
# 6 0.0000 0.0000 0.0000 0.0000 0.0000 25.5889
#
#
#
# Elastic Compliance Matrix: (Units=1/GPa)
#
#
# Indices 1 2 3 4 5 6 
#
# 1 0.018323 -0.001946 -0.009524 0.000000 0.000000 0.000000
# 2 -0.001946 0.012255 -0.003328 0.000000 0.000000 0.000000
# 3 -0.009524 -0.003328 0.018545 0.000000 0.000000 0.000000
# 4 0.000000 0.000000 0.000000 0.050374 0.000000 0.000000
# 5 0.000000 0.000000 0.000000 0.000000 0.041699 0.000000
# 6 0.000000 0.000000 0.000000 0.000000 0.000000 0.039079
#
#
# Mechanical properties :
#
#
# Convention : Reuss Voigt Hill
#
# Bulk Modulus (GPa) = 51.21174 51.32989 51.27081
# Shear Modulus (GPa) = 23.10738 24.31447 23.71093
#
# Velocity S-wave (km/s) = 3.57835 3.67062 3.62478
# Velocity P-wave (km/s) = 6.74173 6.81236 6.77714
#
# Compressibility (1/GPa) = 0.01952677
#
# Stress axis : x y z
#
# Youngs Moduli (GPa) = 54.57475 81.59955 53.92342
#
# Poissons Ratio (x) = 0.15882 0.51357
# Poissons Ratio (y) = 0.10622 0.17946
# Poissons Ratio (z) = 0.51977 0.27156
#
# Static dielectric constant tensor:
#      x y z
#    x 3.100610 0.000000 0.000000 
#    y 0.000000 3.586910 0.000000 
#    z 0.000000 0.000000 3.348930 
# 
# 
# High freq. dielectric constant tensor:
#      x y z
#    x 1.671440 0.000000 0.000000 
#    y 0.000000 1.714940 0.000000 
#    z 0.000000 0.000000 1.694230 
# 
# From -- ./inp_files/27444.got.cif
#   From: 2010.06.25/outbox.cif.g09.slc.cpg/sg52_14_cif.got.tgz:27444.got - 2010.06.26 19:32:48.
