data_PCOD8215375
_publ_section_title
;
Structure prediction by ZEFSAII (Michael W. Deem and Ramdas Pophale) SiO2 
 PCOD8215375
Probable space group: P N N A
;
_chemical_formula_sum "Si O2"
_cell_formula_units_Z 32
_cell_length_a 16.305214
_cell_length_b 10.718834
_cell_length_c 8.576364
_cell_angle_alpha 90.000000
_cell_angle_beta 90.000000
_cell_angle_gamma 90.000000
_cell_volume 1498.915855
_symmetry_space_group_name_H-M "P N N A"
_symmetry_group_IT_number 52
_symmetry_cell_setting 'orthorhombic'
loop_
_space_group_symop_operation_xyz
x,y,z
1/2-x,-y,z
x,1/2-y,1/2-z
1/2-x,1/2+y,1/2-z
-x,-y,-z
1/2+x,y,-z
-x,1/2+y,1/2+z
1/2+x,1/2-y,1/2+z
loop_
_atom_site_type_symbol
_atom_site_label
_atom_site_fract_x
_atom_site_fract_y
_atom_site_fract_z
Si Si1 0.782388 0.629079 0.941885
Si Si2 0.283801 0.121163 0.100108
Si Si3 0.536206 0.127210 0.436389
Si Si4 0.473541 0.117161 0.099794
O O1 0.750000 0.500000 0.018205
O O2 0.731098 0.751707 0.998463
O O3 0.772973 0.623419 0.755002
O O4 0.874255 0.647351 0.996321
O O5 0.378528 0.106981 0.148435
O O6 0.250000 0.000000 0.004316
O O7 0.532614 0.117749 0.249606
O O8 0.485857 0.251003 0.490696
O O9 0.500000 0.000000 0.500000
O O10 0.500000 0.000000 0.000000
#
# Coordination Sequence:
#
# PCOD8215375 Si02
#       4
#     8   8   8   8
#     4  10  19  34  58  86 116 158 204 250 302 364
#     4  10  19  36  61  87 115 158 206 252 307 368
#     4  11  22  39  62  92 126 164 209 258 308 371
#     4  11  24  42  63  95 129 163 208 262 314 373
#
# _framework density 21.348762000000001
#
# number of rings (size 3 to 8) (size 9 to 14) (size 15 to 20)
#    0.000    1.500    0.000    9.000    0.000    3.000 
#    0.000    6.250    0.000    0.000    0.000    0.000 
#    0.000    0.000    0.000    0.000    0.000    0.000 
#
# Total GULP energy -396499.035578 kJ/mol
# GULP energy per Si atom -12390.594862 kJ/mol
# Density = 2.130017 g / cm^3
# Si number density = 21.348762 Si / 1000 Ang^3
#
#
#
# Elastic Constant Matrix: (Units=GPa)
#
#
# Indices 1 2 3 4 5 6 
#
# 1 160.9981 56.2024 51.2449 0.0000 0.0000 0.0000
# 2 56.2024 256.7583 44.6011 0.0000 0.0000 0.0000
# 3 51.2449 44.6011 53.4362 0.0000 0.0000 0.0000
# 4 0.0000 0.0000 0.0000 25.9175 0.0000 0.0000
# 5 0.0000 0.0000 0.0000 0.0000 34.1661 0.0000
# 6 0.0000 0.0000 0.0000 0.0000 0.0000 44.5344
#
#
#
# Elastic Compliance Matrix: (Units=1/GPa)
#
#
# Indices 1 2 3 4 5 6 
#
# 1 0.009006 -0.000551 -0.008177 0.000000 0.000000 0.000000
# 2 -0.000551 0.004589 -0.003302 0.000000 0.000000 0.000000
# 3 -0.008177 -0.003302 0.029312 0.000000 0.000000 0.000000
# 4 0.000000 0.000000 0.000000 0.038584 0.000000 0.000000
# 5 0.000000 0.000000 0.000000 0.000000 0.029269 0.000000
# 6 0.000000 0.000000 0.000000 0.000000 0.000000 0.022455
#
#
# Mechanical properties :
#
#
# Convention : Reuss Voigt Hill
#
# Bulk Modulus (GPa) = 53.05875 86.14326 69.60100
# Shear Modulus (GPa) = 30.57053 42.19987 36.38520
#
# Velocity S-wave (km/s) = 3.78823 4.45082 4.13282
# Velocity P-wave (km/s) = 6.63638 8.17625 7.44623
#
# Compressibility (1/GPa) = 0.01884703
#
# Stress axis : x y z
#
# Youngs Moduli (GPa) = 111.03303 217.91882 34.11622
#
# Poissons Ratio (x) = 0.12007 0.27897
# Poissons Ratio (y) = 0.06118 0.11264
# Poissons Ratio (z) = 0.90793 0.71952
#
# Static dielectric constant tensor:
#      x y z
#    x 3.999480 0.000000 0.000000 
#    y 0.000000 5.614890 0.000000 
#    z 0.000000 0.000000 3.374510 
# 
# 
# High freq. dielectric constant tensor:
#      x y z
#    x 1.840190 0.000000 0.000000 
#    y 0.000000 1.891610 0.000000 
#    z 0.000000 0.000000 1.773540 
# 
# From -- ./inp_files/9516.got.cif
#   From: 2010.06.25/outbox.cif.g09.slc.cpg/sg52_5_cif.got.tgz:9516.got - 2010.06.26 19:32:48.
