data_PCOD8215623
_publ_section_title
;
Structure prediction by ZEFSAII (Michael W. Deem and Ramdas Pophale) SiO2 
 PCOD8215623
Probable space group: P N N A
;
_chemical_formula_sum "Si O2"
_cell_formula_units_Z 64
_cell_length_a 21.056327
_cell_length_b 5.041667
_cell_length_c 30.565305
_cell_angle_alpha 90.000000
_cell_angle_beta 90.000000
_cell_angle_gamma 90.000000
_cell_volume 3244.781877
_symmetry_space_group_name_H-M "P N N A"
_symmetry_group_IT_number 52
_symmetry_cell_setting 'orthorhombic'
loop_
_space_group_symop_operation_xyz
x,y,z
1/2-x,-y,z
x,1/2-y,1/2-z
1/2-x,1/2+y,1/2-z
-x,-y,-z
1/2+x,y,-z
-x,1/2+y,1/2+z
1/2+x,1/2-y,1/2+z
loop_
_atom_site_type_symbol
_atom_site_label
_atom_site_fract_x
_atom_site_fract_y
_atom_site_fract_z
Si Si1 0.107969 0.984813 0.480805
Si Si2 0.176381 0.011948 0.048921
Si Si3 0.323242 0.418662 0.612093
Si Si4 0.705839 0.753871 0.203401
Si Si5 0.969669 0.539139 0.897815
Si Si6 0.892565 0.562585 0.079365
Si Si7 0.101593 0.547938 0.367241
Si Si8 0.677288 0.499586 0.720376
O O1 0.158744 0.186155 0.460607
O O2 0.047042 0.985908 0.448860
O O3 0.088351 0.087356 0.528580
O O4 0.138848 0.691494 0.482763
O O5 0.160313 0.938607 0.098990
O O6 0.250000 0.000000 0.039595
O O7 0.250000 0.500000 0.606352
O O8 0.338557 0.321378 0.661875
O O9 0.367471 0.661848 0.598592
O O10 0.338864 0.164798 0.582311
O O11 0.750000 0.500000 0.192467
O O12 0.667050 0.750000 0.250000
O O13 0.750000 0.000000 0.212032
O O14 0.934833 0.327406 0.866709
O O15 0.045427 0.518203 0.892939
O O16 0.949151 0.829084 0.882215
O O17 0.129541 0.489467 0.319968
O O18 0.750000 0.500000 0.703422
O O19 0.662587 0.250000 0.750000
O O20 0.662404 0.750000 0.750000
#
# Coordination Sequence:
#
# PCOD8215623 Si02
#       8
#     8   8   8   8   8   8   8   8
#     4  10  22  36  54  78 107 147 190 230 268 319
#     4  10  20  34  54  81 112 145 182 224 276 330
#     4  11  23  37  56  86 114 140 174 219 288 349
#     4   9  17  33  57  81 106 136 169 206 251 317
#     4  10  22  39  58  78 103 147 201 233 266 318
#     4  12  23  38  58  79 112 147 181 232 277 329
#     4  10  20  37  58  81 110 146 189 237 274 314
#     4  10  20  34  57  90 122 152 188 229 281 340
#
# _framework density 19.723976
#
# number of rings (size 3 to 8) (size 9 to 14) (size 15 to 20)
#    0.000    1.750    0.000    5.250    0.000    3.000 
#    0.000    8.750    0.000    7.500    0.000    0.875 
#    0.000    0.000    0.000    0.000    0.000    0.000 
#
# Total GULP energy -793476.834829 kJ/mol
# GULP energy per Si atom -12398.075544 kJ/mol
# Density = 1.967908 g / cm^3
# Si number density = 19.723976 Si / 1000 Ang^3
#
#
#
# Elastic Constant Matrix: (Units=GPa)
#
#
# Indices 1 2 3 4 5 6 
#
# 1 62.2208 9.4458 29.5717 0.0000 0.0000 0.0000
# 2 9.4458 110.2407 27.7083 0.0000 0.0000 0.0000
# 3 29.5717 27.7083 115.8392 0.0000 0.0000 0.0000
# 4 0.0000 0.0000 0.0000 40.0985 0.0000 0.0000
# 5 0.0000 0.0000 0.0000 0.0000 14.7520 0.0000
# 6 0.0000 0.0000 0.0000 0.0000 0.0000 23.4081
#
#
#
# Elastic Compliance Matrix: (Units=1/GPa)
#
#
# Indices 1 2 3 4 5 6 
#
# 1 0.018309 -0.000419 -0.004574 0.000000 0.000000 0.000000
# 2 -0.000419 0.009661 -0.002204 0.000000 0.000000 0.000000
# 3 -0.004574 -0.002204 0.010327 0.000000 0.000000 0.000000
# 4 0.000000 0.000000 0.000000 0.024939 0.000000 0.000000
# 5 0.000000 0.000000 0.000000 0.000000 0.067788 0.000000
# 6 0.000000 0.000000 0.000000 0.000000 0.000000 0.042720
#
#
# Mechanical properties :
#
#
# Convention : Reuss Voigt Hill
#
# Bulk Modulus (GPa) = 41.83411 46.86136 44.34774
# Shear Modulus (GPa) = 25.49647 30.42338 27.95993
#
# Velocity S-wave (km/s) = 3.59926 3.93167 3.76913
# Velocity P-wave (km/s) = 6.20715 6.66490 6.44010
#
# Compressibility (1/GPa) = 0.02390394
#
# Stress axis : x y z
#
# Youngs Moduli (GPa) = 54.61731 103.51006 96.82982
#
# Poissons Ratio (x) = 0.04339 0.44288
# Poissons Ratio (y) = 0.02290 0.21340
# Poissons Ratio (z) = 0.24981 0.22812
#
# Static dielectric constant tensor:
#      x y z
#    x 3.288430 0.000000 0.000000 
#    y 0.000000 3.766100 0.000000 
#    z 0.000000 0.000000 3.775170 
# 
# 
# High freq. dielectric constant tensor:
#      x y z
#    x 1.742860 0.000000 0.000000 
#    y 0.000000 1.792510 0.000000 
#    z 0.000000 0.000000 1.768060 
# 
# From -- ./inp_files/45162.got.cif
#   From: 2010.06.25/outbox.cif.g09.slc.cpg/sg52_23_cif.got.tgz:45162.got - 2010.06.26 19:32:48.
