data_PCOD8215190
_publ_section_title
;
Structure prediction by ZEFSAII (Michael W. Deem and Ramdas Pophale) SiO2 
 PCOD8215190
Probable space group: P N N A
;
_chemical_formula_sum "Si O2"
_cell_formula_units_Z 32
_cell_length_a 9.251452
_cell_length_b 16.989071
_cell_length_c 9.842795
_cell_angle_alpha 90.000000
_cell_angle_beta 90.000000
_cell_angle_gamma 90.000000
_cell_volume 1547.027277
_symmetry_space_group_name_H-M "P N N A"
_symmetry_group_IT_number 52
_symmetry_cell_setting 'orthorhombic'
loop_
_space_group_symop_operation_xyz
x,y,z
1/2-x,-y,z
x,1/2-y,1/2-z
1/2-x,1/2+y,1/2-z
-x,-y,-z
1/2+x,y,-z
-x,1/2+y,1/2+z
1/2+x,1/2-y,1/2+z
loop_
_atom_site_type_symbol
_atom_site_label
_atom_site_fract_x
_atom_site_fract_y
_atom_site_fract_z
Si Si1 0.438939 0.233150 0.895534
Si Si2 0.125652 0.181834 0.857557
Si Si3 0.839734 0.096055 0.457055
Si Si4 0.444658 0.949077 0.662692
O O1 0.515227 0.250000 0.750000
O O2 0.298961 0.177398 0.873193
O O3 0.382050 0.314080 0.955448
O O4 0.552956 0.194212 0.996443
O O5 0.081323 0.250000 0.750000
O O6 0.071041 0.096326 0.805358
O O7 0.666421 0.091093 0.446903
O O8 0.895073 0.061246 0.600861
O O9 0.905925 0.042522 0.332003
#
# Coordination Sequence:
#
# PCOD8215190 Si02
#       4
#     8   8   8   8
#     4  11  21  37  58  85 115 151 190 234 293 343
#     4  11  21  38  57  86 116 147 193 244 289 339
#     4  10  18  35  60  84 112 150 189 234 287 343
#     4  10  20  35  59  85 116 146 191 241 287 340
#
# _framework density 20.684833000000001
#
# number of rings (size 3 to 8) (size 9 to 14) (size 15 to 20)
#    0.000    1.500    7.500    0.000    0.000    1.000 
#    4.500    1.250    0.000    0.000    0.000    0.000 
#    0.000    0.000    0.000    0.000    0.000    0.000 
#
# Total GULP energy -396536.296438 kJ/mol
# GULP energy per Si atom -12391.759264 kJ/mol
# Density = 2.063775 g / cm^3
# Si number density = 20.684833 Si / 1000 Ang^3
#
#
#
# Elastic Constant Matrix: (Units=GPa)
#
#
# Indices 1 2 3 4 5 6 
#
# 1 60.1466 -3.4457 46.8216 0.0000 0.0000 0.0000
# 2 -3.4457 57.0714 11.7458 0.0000 0.0000 0.0000
# 3 46.8216 11.7458 124.9623 0.0000 0.0000 0.0000
# 4 0.0000 0.0000 0.0000 36.8752 0.0000 0.0000
# 5 0.0000 0.0000 0.0000 0.0000 38.1811 0.0000
# 6 0.0000 0.0000 0.0000 0.0000 0.0000 12.6078
#
#
#
# Elastic Compliance Matrix: (Units=1/GPa)
#
#
# Indices 1 2 3 4 5 6 
#
# 1 0.024095 0.003378 -0.009345 0.000000 0.000000 0.000000
# 2 0.003378 0.018341 -0.002990 0.000000 0.000000 0.000000
# 3 -0.009345 -0.002990 0.011785 0.000000 0.000000 0.000000
# 4 0.000000 0.000000 0.000000 0.027118 0.000000 0.000000
# 5 0.000000 0.000000 0.000000 0.000000 0.026191 0.000000
# 6 0.000000 0.000000 0.000000 0.000000 0.000000 0.079316
#
#
# Mechanical properties :
#
#
# Convention : Reuss Voigt Hill
#
# Bulk Modulus (GPa) = 27.54311 39.15818 33.35064
# Shear Modulus (GPa) = 23.05607 30.00339 26.52973
#
# Velocity S-wave (km/s) = 3.34224 3.81268 3.58518
# Velocity P-wave (km/s) = 5.31400 6.19306 5.77029
#
# Compressibility (1/GPa) = 0.03630672
#
# Stress axis : x y z
#
# Youngs Moduli (GPa) = 41.50309 54.52221 84.85352
#
# Poissons Ratio (x) = -0.18418 0.79299
# Poissons Ratio (y) = -0.14020 0.25369
# Poissons Ratio (z) = 0.38786 0.16300
#
# Static dielectric constant tensor:
#      x y z
#    x 3.873650 0.000000 0.000000 
#    y 0.000000 3.887700 0.000000 
#    z 0.000000 0.000000 3.578820 
# 
# 
# High freq. dielectric constant tensor:
#      x y z
#    x 1.800440 0.000000 0.000000 
#    y 0.000000 1.811200 0.000000 
#    z 0.000000 0.000000 1.772950 
# 
# From -- ./inp_files/7209.got.cif
#   From: 2010.06.25/outbox.cif.g09.slc.cpg/sg52_4_cif.got.tgz:7209.got - 2010.06.26 19:32:48.
