data_PCOD8215179
_publ_section_title
;
Structure prediction by ZEFSAII (Michael W. Deem and Ramdas Pophale) SiO2 
 PCOD8215179
Probable space group: P N N A
;
_chemical_formula_sum "Si O2"
_cell_formula_units_Z 40
_cell_length_a 8.405822
_cell_length_b 8.487105
_cell_length_c 25.885904
_cell_angle_alpha 90.000000
_cell_angle_beta 90.000000
_cell_angle_gamma 90.000000
_cell_volume 1846.728709
_symmetry_space_group_name_H-M "P N N A"
_symmetry_group_IT_number 52
_symmetry_cell_setting 'orthorhombic'
loop_
_space_group_symop_operation_xyz
x,y,z
1/2-x,-y,z
x,1/2-y,1/2-z
1/2-x,1/2+y,1/2-z
-x,-y,-z
1/2+x,y,-z
-x,1/2+y,1/2+z
1/2+x,1/2-y,1/2+z
loop_
_atom_site_type_symbol
_atom_site_label
_atom_site_fract_x
_atom_site_fract_y
_atom_site_fract_z
Si Si1 0.292673 0.673803 0.660145
Si Si2 0.708119 0.179236 0.539206
Si Si3 0.998866 0.620062 0.873043
Si Si4 0.954549 0.791426 0.430892
Si Si5 0.750000 0.500000 0.794071
Si Si6 0.526510 0.750000 0.750000
O O1 0.250000 0.500000 0.679906
O O2 0.142514 0.789892 0.654789
O O3 0.380396 0.656301 0.604955
O O4 0.415959 0.747532 0.700043
O O5 0.568764 0.227150 0.579322
O O6 0.657232 0.193682 0.480451
O O7 0.872338 0.270560 0.550954
O O8 0.750000 0.000000 0.552126
O O9 0.052598 0.452228 0.897096
O O10 0.860308 0.606944 0.830644
O O11 0.639847 0.599707 0.755685
#
# Coordination Sequence:
#
# PCOD8215179 Si02
#       6
#     8   8   8   8   4   4
#     4  12  28  44  66  99 141 181 228 281 343 409
#     4  10  18  34  68 104 134 174 229 282 330 393
#     4  11  21  43  70 100 136 174 227 288 337 402
#     4  11  20  40  65 103 137 179 233 276 335 401
#     4  12  26  48  74 102 134 176 230 292 350 404
#     4  12  30  48  70 100 130 180 232 288 352 402
#
# _framework density 21.659921000000001
#
# number of rings (size 3 to 8) (size 9 to 14) (size 15 to 20)
#    0.000    0.800    5.000    5.400    5.600    0.000 
#    0.000    4.000    0.000    0.000    0.000    0.000 
#    0.000    0.000    0.000    0.000    0.000    0.000 
#
# Total GULP energy -495919.309468 kJ/mol
# GULP energy per Si atom -12397.982737 kJ/mol
# Density = 2.161062 g / cm^3
# Si number density = 21.659921 Si / 1000 Ang^3
#
#
#
# Elastic Constant Matrix: (Units=GPa)
#
#
# Indices 1 2 3 4 5 6 
#
# 1 158.8378 38.0683 73.3807 0.0000 0.0000 0.0000
# 2 38.0683 50.5952 25.9441 0.0000 0.0000 0.0000
# 3 73.3807 25.9441 115.3964 0.0000 0.0000 0.0000
# 4 0.0000 0.0000 0.0000 25.3203 0.0000 0.0000
# 5 0.0000 0.0000 0.0000 0.0000 45.5004 0.0000
# 6 0.0000 0.0000 0.0000 0.0000 0.0000 28.6765
#
#
#
# Elastic Compliance Matrix: (Units=1/GPa)
#
#
# Indices 1 2 3 4 5 6 
#
# 1 0.009825 -0.004735 -0.005183 0.000000 0.000000 0.000000
# 2 -0.004735 0.024622 -0.002525 0.000000 0.000000 0.000000
# 3 -0.005183 -0.002525 0.012530 0.000000 0.000000 0.000000
# 4 0.000000 0.000000 0.000000 0.039494 0.000000 0.000000
# 5 0.000000 0.000000 0.000000 0.000000 0.021978 0.000000
# 6 0.000000 0.000000 0.000000 0.000000 0.000000 0.034872
#
#
# Mechanical properties :
#
#
# Convention : Reuss Voigt Hill
#
# Bulk Modulus (GPa) = 45.26774 66.62396 55.94585
# Shear Modulus (GPa) = 28.47881 32.39520 30.43700
#
# Velocity S-wave (km/s) = 3.62997 3.87153 3.75270
# Velocity P-wave (km/s) = 6.20593 7.12818 6.68298
#
# Compressibility (1/GPa) = 0.02209079
#
# Stress axis : x y z
#
# Youngs Moduli (GPa) = 101.78037 40.61446 79.81154
#
# Poissons Ratio (x) = 0.19229 0.41369
# Poissons Ratio (y) = 0.48189 0.20151
# Poissons Ratio (z) = 0.52756 0.10255
#
# Static dielectric constant tensor:
#      x y z
#    x 4.515700 0.000000 0.000000 
#    y 0.000000 3.418930 0.000000 
#    z 0.000000 0.000000 4.053520 
# 
# 
# High freq. dielectric constant tensor:
#      x y z
#    x 1.880430 0.000000 0.000000 
#    y 0.000000 1.795860 0.000000 
#    z 0.000000 0.000000 1.866650 
# 
# From -- ./inp_files/39283.got.cif
#   From: 2010.06.25/outbox.cif.g09.slc.cpg/sg52_20_cif.got.tgz:39283.got - 2010.06.26 19:32:48.
