data_PCOD8215354
_publ_section_title
;
Structure prediction by ZEFSAII (Michael W. Deem and Ramdas Pophale) SiO2 
 PCOD8215354
Probable space group: P N N A
;
_chemical_formula_sum "Si O2"
_cell_formula_units_Z 40
_cell_length_a 5.014304
_cell_length_b 13.832196
_cell_length_c 23.575340
_cell_angle_alpha 90.000000
_cell_angle_beta 90.000000
_cell_angle_gamma 90.000000
_cell_volume 1635.158134
_symmetry_space_group_name_H-M "P N N A"
_symmetry_group_IT_number 52
_symmetry_cell_setting 'orthorhombic'
loop_
_space_group_symop_operation_xyz
x,y,z
1/2-x,-y,z
x,1/2-y,1/2-z
1/2-x,1/2+y,1/2-z
-x,-y,-z
1/2+x,y,-z
-x,1/2+y,1/2+z
1/2+x,1/2-y,1/2+z
loop_
_atom_site_type_symbol
_atom_site_label
_atom_site_fract_x
_atom_site_fract_y
_atom_site_fract_z
Si Si1 0.993132 0.562592 0.938982
Si Si2 0.317258 0.202176 0.838274
Si Si3 0.880890 0.228767 0.031883
Si Si4 0.812647 0.148545 0.778879
Si Si5 0.960433 0.413971 0.185247
O O1 0.750000 0.500000 0.969726
O O2 0.250000 0.500000 0.925995
O O3 0.074037 0.655580 0.975387
O O4 0.889751 0.589895 0.875829
O O5 0.274000 0.204790 0.905738
O O6 0.600877 0.151276 0.830177
O O7 0.303843 0.310368 0.810001
O O8 0.101258 0.131050 0.807657
O O9 0.667135 0.186446 0.986723
O O10 0.817404 0.250000 0.750000
O O11 0.700719 0.074247 0.731235
O O12 0.750000 0.500000 0.195100
#
# Coordination Sequence:
#
# PCOD8215354 Si02
#       5
#     8   8   8   8   8
#     4  10  21  34  49  74 109 144 180 222 267 316
#     4  10  21  36  52  76 110 144 181 226 276 325
#     4  11  22  35  52  72  99 140 190 236 268 309
#     4  10  19  34  54  76 107 145 177 215 277 336
#     4   9  20  35  56  82 111 146 185 222 267 331
#
# _framework density 24.462467
#
# number of rings (size 3 to 8) (size 9 to 14) (size 15 to 20)
#    0.000    2.000    0.000    4.200    0.000   18.400 
#    0.000    0.000    0.000    0.000    0.000    0.000 
#    0.000   16.000    0.000    0.000    0.000    0.000 
#
# Total GULP energy -495602.713348 kJ/mol
# GULP energy per Si atom -12390.067834 kJ/mol
# Density = 2.440679 g / cm^3
# Si number density = 24.462467 Si / 1000 Ang^3
#
#
#
# Elastic Constant Matrix: (Units=GPa)
#
#
# Indices 1 2 3 4 5 6 
#
# 1 148.7437 3.1869 34.1045 0.0000 0.0000 0.0000
# 2 3.1869 27.4260 14.7864 0.0000 0.0000 0.0000
# 3 34.1045 14.7864 123.9553 0.0000 0.0000 0.0000
# 4 0.0000 0.0000 0.0000 37.9626 0.0000 0.0000
# 5 0.0000 0.0000 0.0000 0.0000 24.7701 0.0000
# 6 0.0000 0.0000 0.0000 0.0000 0.0000 28.9789
#
#
#
# Elastic Compliance Matrix: (Units=1/GPa)
#
#
# Indices 1 2 3 4 5 6 
#
# 1 0.007177 0.000246 -0.002004 0.000000 0.000000 0.000000
# 2 0.000246 0.038976 -0.004717 0.000000 0.000000 0.000000
# 3 -0.002004 -0.004717 0.009182 0.000000 0.000000 0.000000
# 4 0.000000 0.000000 0.000000 0.026342 0.000000 0.000000
# 5 0.000000 0.000000 0.000000 0.000000 0.040371 0.000000
# 6 0.000000 0.000000 0.000000 0.000000 0.000000 0.034508
#
#
# Mechanical properties :
#
#
# Convention : Reuss Voigt Hill
#
# Bulk Modulus (GPa) = 23.59301 44.92007 34.25654
# Shear Modulus (GPa) = 27.22805 34.87879 31.05342
#
# Velocity S-wave (km/s) = 3.33987 3.78008 3.56677
# Velocity P-wave (km/s) = 4.95363 6.12003 5.56746
#
# Compressibility (1/GPa) = 0.04238543
#
# Stress axis : x y z
#
# Youngs Moduli (GPa) = 139.33003 25.65656 108.91425
#
# Poissons Ratio (x) = -0.00632 0.21828
# Poissons Ratio (y) = -0.03434 0.51377
# Poissons Ratio (z) = 0.27923 0.12103
#
# Static dielectric constant tensor:
#      x y z
#    x 5.000430 0.000000 0.000000 
#    y 0.000000 3.850370 0.000000 
#    z 0.000000 0.000000 5.051100 
# 
# 
# High freq. dielectric constant tensor:
#      x y z
#    x 1.985140 0.000000 0.000000 
#    y 0.000000 1.911630 0.000000 
#    z 0.000000 0.000000 1.987940 
# 
# From -- ./inp_files/38658.got.cif
#   From: 2010.06.25/outbox.cif.g09.slc.cpg/sg52_20_cif.got.tgz:38658.got - 2010.06.26 19:32:48.
