data_PCOD8215063
_publ_section_title
;
Structure prediction by ZEFSAII (Michael W. Deem and Ramdas Pophale) SiO2 
 PCOD8215063
Probable space group: P N N A
;
_chemical_formula_sum "Si O2"
_cell_formula_units_Z 52
_cell_length_a 16.630101
_cell_length_b 8.975046
_cell_length_c 17.628106
_cell_angle_alpha 90.000000
_cell_angle_beta 90.000000
_cell_angle_gamma 90.000000
_cell_volume 2631.099205
_symmetry_space_group_name_H-M "P N N A"
_symmetry_group_IT_number 52
_symmetry_cell_setting 'orthorhombic'
loop_
_space_group_symop_operation_xyz
x,y,z
1/2-x,-y,z
x,1/2-y,1/2-z
1/2-x,1/2+y,1/2-z
-x,-y,-z
1/2+x,y,-z
-x,1/2+y,1/2+z
1/2+x,1/2-y,1/2+z
loop_
_atom_site_type_symbol
_atom_site_label
_atom_site_fract_x
_atom_site_fract_y
_atom_site_fract_z
Si Si1 0.335829 0.571448 0.380581
Si Si2 0.594524 0.250000 0.250000
Si Si3 0.770791 0.750000 0.750000
Si Si4 0.482044 0.163229 0.648387
Si Si5 0.750000 0.500000 0.856118
Si Si6 0.619476 0.151498 0.540141
Si Si7 0.485479 0.515401 0.298893
Si Si8 0.158738 0.045845 0.623832
O O1 0.250000 0.500000 0.397649
O O2 0.332062 0.677400 0.308107
O O3 0.357193 0.673091 0.452665
O O4 0.408105 0.464140 0.351222
O O5 0.541098 0.369489 0.296259
O O6 0.651857 0.167628 0.309905
O O7 0.718096 0.631143 0.798583
O O8 0.528793 0.130712 0.570089
O O9 0.473288 0.340908 0.660840
O O10 0.531889 0.072980 0.713308
O O11 0.391625 0.101447 0.644228
O O12 0.677929 0.452332 0.910247
O O13 0.622871 0.113764 0.452622
O O14 0.250000 0.000000 0.611978
#
# Coordination Sequence:
#
# PCOD8215063 Si02
#       8
#     8   4   4   8   4   8   8   8
#     4  10  19  32  52  87 131 164 188 230 286 356
#     4  10  24  41  62  87 108 150 206 264 309 352
#     4  10  18  29  48  83 122 162 200 214 273 338
#     4   9  19  37  64  84 118 157 188 242 305 357
#     4  10  18  32  54  82 120 162 190 232 266 348
#     4  10  20  38  58  85 122 157 198 236 293 367
#     4   9  18  38  58  88 121 153 197 241 292 365
#     4  11  23  43  63  86 111 147 208 264 310 361
#
# _framework density 19.763603
#
# number of rings (size 3 to 8) (size 9 to 14) (size 15 to 20)
#    0.000    2.154    1.538    3.231    0.000    3.077 
#    8.308    5.385    0.000    0.000    0.000    0.000 
#    0.000    0.000    0.000    0.000    0.000    0.000 
#
# Total GULP energy -644235.347502 kJ/mol
# GULP energy per Si atom -12389.141298 kJ/mol
# Density = 1.971862 g / cm^3
# Si number density = 19.763603 Si / 1000 Ang^3
#
#
#
# Elastic Constant Matrix: (Units=GPa)
#
#
# Indices 1 2 3 4 5 6 
#
# 1 88.7217 32.8213 25.9378 0.0000 0.0000 0.0000
# 2 32.8213 77.8792 33.3159 0.0000 0.0000 0.0000
# 3 25.9378 33.3159 97.6692 0.0000 0.0000 0.0000
# 4 0.0000 0.0000 0.0000 20.8475 0.0000 0.0000
# 5 0.0000 0.0000 0.0000 0.0000 21.1120 0.0000
# 6 0.0000 0.0000 0.0000 0.0000 0.0000 22.0895
#
#
#
# Elastic Compliance Matrix: (Units=1/GPa)
#
#
# Indices 1 2 3 4 5 6 
#
# 1 0.013663 -0.004924 -0.001949 0.000000 0.000000 0.000000
# 2 -0.004924 0.016809 -0.004426 0.000000 0.000000 0.000000
# 3 -0.001949 -0.004426 0.012266 0.000000 0.000000 0.000000
# 4 0.000000 0.000000 0.000000 0.047967 0.000000 0.000000
# 5 0.000000 0.000000 0.000000 0.000000 0.047367 0.000000
# 6 0.000000 0.000000 0.000000 0.000000 0.000000 0.045270
#
#
# Mechanical properties :
#
#
# Convention : Reuss Voigt Hill
#
# Bulk Modulus (GPa) = 49.65327 49.82447 49.73887
# Shear Modulus (GPa) = 23.51249 24.28946 23.90097
#
# Velocity S-wave (km/s) = 3.45292 3.50951 3.48133
# Velocity P-wave (km/s) = 6.40898 6.45656 6.43282
#
# Compressibility (1/GPa) = 0.02013966
#
# Stress axis : x y z
#
# Youngs Moduli (GPa) = 73.19272 59.49154 81.52698
#
# Poissons Ratio (x) = 0.29296 0.15886
# Poissons Ratio (y) = 0.36043 0.36084
# Poissons Ratio (z) = 0.14262 0.26331
#
# Static dielectric constant tensor:
#      x y z
#    x 3.386400 0.000000 0.000000 
#    y 0.000000 3.776700 0.000000 
#    z 0.000000 0.000000 3.560740 
# 
# 
# High freq. dielectric constant tensor:
#      x y z
#    x 1.756010 0.000000 0.000000 
#    y 0.000000 1.768910 0.000000 
#    z 0.000000 0.000000 1.761020 
# 
# From -- ./inp_files/33745.got.cif
#   From: 2010.06.25/outbox.cif.g09.slc.cpg/sg52_17_cif.got.tgz:33745.got - 2010.06.26 19:32:48.
