data_PCOD8215277
_publ_section_title
;
Structure prediction by ZEFSAII (Michael W. Deem and Ramdas Pophale) SiO2 
 PCOD8215277
Probable space group: P N N A
;
_chemical_formula_sum "Si O2"
_cell_formula_units_Z 64
_cell_length_a 26.487112
_cell_length_b 10.594405
_cell_length_c 11.566466
_cell_angle_alpha 90.000000
_cell_angle_beta 90.000000
_cell_angle_gamma 90.000000
_cell_volume 3245.726075
_symmetry_space_group_name_H-M "P N N A"
_symmetry_group_IT_number 52
_symmetry_cell_setting 'orthorhombic'
loop_
_space_group_symop_operation_xyz
x,y,z
1/2-x,-y,z
x,1/2-y,1/2-z
1/2-x,1/2+y,1/2-z
-x,-y,-z
1/2+x,y,-z
-x,1/2+y,1/2+z
1/2+x,1/2-y,1/2+z
loop_
_atom_site_type_symbol
_atom_site_label
_atom_site_fract_x
_atom_site_fract_y
_atom_site_fract_z
Si Si1 0.899046 0.303771 0.002570
Si Si2 0.190162 0.858194 0.659374
Si Si3 0.891089 0.664086 0.981761
Si Si4 0.806186 0.645849 0.156579
Si Si5 0.545444 0.007423 0.361033
Si Si6 0.942694 0.906576 0.908876
Si Si7 0.446938 0.424175 0.616797
Si Si8 0.572044 0.958223 0.685064
O O1 0.843877 0.347885 0.044184
O O2 0.943510 0.393024 0.052301
O O3 0.907708 0.164338 0.050009
O O4 0.906827 0.321623 0.862331
O O5 0.172073 0.750000 0.750000
O O6 0.247760 0.832343 0.624676
O O7 0.184460 0.003040 0.705731
O O8 0.835473 0.670140 0.036662
O O9 0.929952 0.635248 0.087655
O O10 0.903740 0.792372 0.914322
O O11 0.893609 0.557466 0.884376
O O12 0.823802 0.750000 0.250000
O O13 0.573565 0.968542 0.241217
O O14 0.486576 0.026938 0.345529
O O15 0.921209 0.016065 0.822193
O O16 0.997844 0.859939 0.864589
O O17 0.951553 0.952401 0.038828
#
# Coordination Sequence:
#
# PCOD8215277 Si02
#       8
#     8   8   8   8   8   8   8   8
#     4  11  19  32  57  79 105 145 190 220 282 344
#     4  10  20  37  57  84 116 148 184 237 302 362
#     4  11  20  33  55  78 104 149 183 230 287 344
#     4  10  22  36  56  87 118 141 183 243 304 353
#     4  10  19  31  52  79 110 136 188 226 276 333
#     4  10  22  35  50  75 118 148 190 227 281 327
#     4  10  21  34  50  81 111 152 180 235 279 339
#     4  10  20  35  50  77 105 150 187 229 261 334
#
# _framework density 19.718236999999998
#
# number of rings (size 3 to 8) (size 9 to 14) (size 15 to 20)
#    0.000    1.750    2.500    4.500    1.750    2.500 
#    0.000    3.750    0.000    0.000    9.750    0.000 
#    0.000    0.000    0.000    0.000    0.000    0.000 
#
# Total GULP energy -793071.558783 kJ/mol
# GULP energy per Si atom -12391.743106 kJ/mol
# Density = 1.967336 g / cm^3
# Si number density = 19.718237 Si / 1000 Ang^3
#
#
#
# Elastic Constant Matrix: (Units=GPa)
#
#
# Indices 1 2 3 4 5 6 
#
# 1 55.2899 13.3943 13.4451 0.0000 0.0000 0.0000
# 2 13.3943 54.9856 18.6965 0.0000 0.0000 0.0000
# 3 13.4451 18.6965 90.6458 0.0000 0.0000 0.0000
# 4 0.0000 0.0000 0.0000 30.2669 0.0000 0.0000
# 5 0.0000 0.0000 0.0000 0.0000 24.7717 0.0000
# 6 0.0000 0.0000 0.0000 0.0000 0.0000 21.0515
#
#
#
# Elastic Compliance Matrix: (Units=1/GPa)
#
#
# Indices 1 2 3 4 5 6 
#
# 1 0.019574 -0.004066 -0.002065 0.000000 0.000000 0.000000
# 2 -0.004066 0.020403 -0.003605 0.000000 0.000000 0.000000
# 3 -0.002065 -0.003605 0.012082 0.000000 0.000000 0.000000
# 4 0.000000 0.000000 0.000000 0.033039 0.000000 0.000000
# 5 0.000000 0.000000 0.000000 0.000000 0.040369 0.000000
# 6 0.000000 0.000000 0.000000 0.000000 0.000000 0.047503
#
#
# Mechanical properties :
#
#
# Convention : Reuss Voigt Hill
#
# Bulk Modulus (GPa) = 30.68747 32.44369 31.56558
# Shear Modulus (GPa) = 24.59387 25.57705 25.08546
#
# Velocity S-wave (km/s) = 3.53550 3.60547 3.57065
# Velocity P-wave (km/s) = 5.68006 5.81566 5.74826
#
# Compressibility (1/GPa) = 0.03258659
#
# Stress axis : x y z
#
# Youngs Moduli (GPa) = 51.08931 49.01263 82.76920
#
# Poissons Ratio (x) = 0.19929 0.17088
# Poissons Ratio (y) = 0.20773 0.29840
# Poissons Ratio (z) = 0.10548 0.17670
#
# Static dielectric constant tensor:
#      x y z
#    x 3.430680 0.000000 0.000000 
#    y 0.000000 3.656110 0.000000 
#    z 0.000000 0.000000 3.808650 
# 
# 
# High freq. dielectric constant tensor:
#      x y z
#    x 1.744670 0.000000 0.000000 
#    y 0.000000 1.766810 0.000000 
#    z 0.000000 0.000000 1.760380 
# 
# From -- ./inp_files/22941.got.cif
#   From: 2010.06.25/outbox.cif.g09.slc.cpg/sg52_12_cif.got.tgz:22941.got - 2010.06.26 19:32:48.
