data_PCOD8215170
_publ_section_title
;
Structure prediction by ZEFSAII (Michael W. Deem and Ramdas Pophale) SiO2 
 PCOD8215170
Probable space group: P N N A
;
_chemical_formula_sum "Si O2"
_cell_formula_units_Z 36
_cell_length_a 20.712489
_cell_length_b 10.287627
_cell_length_c 8.451341
_cell_angle_alpha 90.000000
_cell_angle_beta 90.000000
_cell_angle_gamma 90.000000
_cell_volume 1800.831695
_symmetry_space_group_name_H-M "P N N A"
_symmetry_group_IT_number 52
_symmetry_cell_setting 'orthorhombic'
loop_
_space_group_symop_operation_xyz
x,y,z
1/2-x,-y,z
x,1/2-y,1/2-z
1/2-x,1/2+y,1/2-z
-x,-y,-z
1/2+x,y,-z
-x,1/2+y,1/2+z
1/2+x,1/2-y,1/2+z
loop_
_atom_site_type_symbol
_atom_site_label
_atom_site_fract_x
_atom_site_fract_y
_atom_site_fract_z
Si Si1 0.148156 0.614413 0.834328
Si Si2 0.703181 0.716376 0.583723
Si Si3 0.011418 0.612822 0.707263
Si Si4 0.750000 0.000000 0.129253
Si Si5 0.434786 0.128042 0.144021
O O1 0.162150 0.750000 0.750000
O O2 0.072183 0.581986 0.824579
O O3 0.187359 0.500612 0.744305
O O4 0.176110 0.646456 0.009612
O O5 0.738213 0.750000 0.750000
O O6 0.752181 0.631839 0.476131
O O7 0.642036 0.623924 0.622357
O O8 0.978686 0.750000 0.750000
O O9 0.033809 0.629395 0.527652
O O10 0.958400 0.501863 0.733246
O O11 0.457375 0.250000 0.250000
#
# Coordination Sequence:
#
# PCOD8215170 Si02
#       5
#     8   8   8   4   8
#     4   9  17  35  56  78 105 152 186 227 290 343
#     4  10  20  37  57  80 112 148 190 238 296 342
#     4  10  18  36  58  81 117 150 189 231 278 350
#     4  10  18  34  60  74 104 146 194 230 274 354
#     4  10  20  34  57  84 114 153 184 232 290 340
#
# _framework density 19.990763000000001
#
# number of rings (size 3 to 8) (size 9 to 14) (size 15 to 20)
#    0.000    2.222    6.667    0.000    0.000    1.778 
#    0.000    4.444    0.000    0.000    0.000    0.000 
#    0.000    0.000    0.000    0.000    0.000    0.000 
#
# Total GULP energy -446015.165899 kJ/mol
# GULP energy per Si atom -12389.310164 kJ/mol
# Density = 1.994526 g / cm^3
# Si number density = 19.990763 Si / 1000 Ang^3
#
#
#
# Elastic Constant Matrix: (Units=GPa)
#
#
# Indices 1 2 3 4 5 6 
#
# 1 62.4215 52.2457 17.8477 0.0000 0.0000 0.0000
# 2 52.2457 111.1339 32.5811 0.0000 0.0000 0.0000
# 3 17.8477 32.5811 86.0848 0.0000 0.0000 0.0000
# 4 0.0000 0.0000 0.0000 39.2927 0.0000 0.0000
# 5 0.0000 0.0000 0.0000 0.0000 18.6154 0.0000
# 6 0.0000 0.0000 0.0000 0.0000 0.0000 35.4819
#
#
#
# Elastic Compliance Matrix: (Units=1/GPa)
#
#
# Indices 1 2 3 4 5 6 
#
# 1 0.026472 -0.012188 -0.000875 0.000000 0.000000 0.000000
# 2 -0.012188 0.015733 -0.003428 0.000000 0.000000 0.000000
# 3 -0.000875 -0.003428 0.013095 0.000000 0.000000 0.000000
# 4 0.000000 0.000000 0.000000 0.025450 0.000000 0.000000
# 5 0.000000 0.000000 0.000000 0.000000 0.053719 0.000000
# 6 0.000000 0.000000 0.000000 0.000000 0.000000 0.028183
#
#
# Mechanical properties :
#
#
# Convention : Reuss Voigt Hill
#
# Bulk Modulus (GPa) = 44.80777 51.66549 48.23663
# Shear Modulus (GPa) = 24.62165 29.14239 26.88202
#
# Velocity S-wave (km/s) = 3.51330 3.82225 3.67102
# Velocity P-wave (km/s) = 6.23863 6.73648 6.49233
#
# Compressibility (1/GPa) = 0.02231756
#
# Stress axis : x y z
#
# Youngs Moduli (GPa) = 37.77625 63.56137 76.36377
#
# Poissons Ratio (x) = 0.77469 0.06685
# Poissons Ratio (y) = 0.46042 0.26174
# Poissons Ratio (z) = 0.03307 0.21786
#
# Static dielectric constant tensor:
#      x y z
#    x 3.449570 0.000000 0.000000 
#    y 0.000000 3.921290 0.000000 
#    z 0.000000 0.000000 4.268410 
# 
# 
# High freq. dielectric constant tensor:
#      x y z
#    x 1.743080 0.000000 0.000000 
#    y 0.000000 1.756470 0.000000 
#    z 0.000000 0.000000 1.795510 
# 
# From -- ./inp_files/13088.got.cif
#   From: 2010.06.25/outbox.cif.g09.slc.cpg/sg52_7_cif.got.tgz:13088.got - 2010.06.26 19:32:48.
