data_PCOD8215528
_publ_section_title
;
Structure prediction by ZEFSAII (Michael W. Deem and Ramdas Pophale) SiO2 
 PCOD8215528
Probable space group: P N N A
;
_chemical_formula_sum "Si O2"
_cell_formula_units_Z 60
_cell_length_a 14.343948
_cell_length_b 22.133933
_cell_length_c 9.599352
_cell_angle_alpha 90.000000
_cell_angle_beta 90.000000
_cell_angle_gamma 90.000000
_cell_volume 3047.678914
_symmetry_space_group_name_H-M "P N N A"
_symmetry_group_IT_number 52
_symmetry_cell_setting 'orthorhombic'
loop_
_space_group_symop_operation_xyz
x,y,z
1/2-x,-y,z
x,1/2-y,1/2-z
1/2-x,1/2+y,1/2-z
-x,-y,-z
1/2+x,y,-z
-x,1/2+y,1/2+z
1/2+x,1/2-y,1/2+z
loop_
_atom_site_type_symbol
_atom_site_label
_atom_site_fract_x
_atom_site_fract_y
_atom_site_fract_z
Si Si1 0.841452 0.794512 0.637643
Si Si2 0.750000 0.000000 0.684650
Si Si3 0.358487 0.383421 0.477381
Si Si4 0.517613 0.573248 0.290645
Si Si5 0.324310 0.605228 0.348772
Si Si6 0.486405 0.353112 0.986500
Si Si7 0.068242 0.948377 0.299020
Si Si8 0.854260 0.249865 0.586943
O O1 0.891797 0.750000 0.750000
O O2 0.795545 0.848457 0.726551
O O3 0.756766 0.759469 0.562139
O O4 0.914018 0.818975 0.523407
O O5 0.687196 0.039603 0.785514
O O6 0.836728 0.034328 0.607817
O O7 0.392628 0.421664 0.610215
O O8 0.244691 0.385487 0.479192
O O9 0.395921 0.414498 0.337810
O O10 0.387663 0.312949 0.481709
O O11 0.434681 0.605353 0.382578
O O12 0.498008 0.504484 0.243291
O O13 0.536401 0.613423 0.156210
O O14 0.493103 0.402708 0.109036
O O15 0.406725 0.304390 0.011649
O O16 0.878914 0.250000 0.750000
#
# Coordination Sequence:
#
# PCOD8215528 Si02
#       8
#     8   4   8   8   8   8   8   8
#     4  10  20  37  59  88 117 160 202 246 295 370
#     4   8  16  30  62  84 110 152 206 240 276 356
#     4  11  20  35  62  85 117 160 205 248 299 366
#     4  10  23  36  59  90 122 155 200 257 304 354
#     4   9  17  34  55  82 113 154 198 236 292 359
#     4  11  23  37  64  91 122 159 205 251 310 362
#     4  10  19  39  60  91 120 161 207 249 303 369
#     4  11  20  37  61  87 118 161 207 246 303 371
#
# _framework density 19.687111000000002
#
# number of rings (size 3 to 8) (size 9 to 14) (size 15 to 20)
#    0.000    1.867    4.000    1.600    3.733    0.000 
#    0.000    1.333    2.933    6.400    0.000    0.000 
#    0.000    0.000    0.000    0.000    0.000    0.000 
#
# Total GULP energy -743322.290847 kJ/mol
# GULP energy per Si atom -12388.704847 kJ/mol
# Density = 1.964230 g / cm^3
# Si number density = 19.687111 Si / 1000 Ang^3
#
#
#
# Elastic Constant Matrix: (Units=GPa)
#
#
# Indices 1 2 3 4 5 6 
#
# 1 89.7028 48.0459 49.2574 0.0000 0.0000 0.0000
# 2 48.0459 124.1219 38.9702 0.0000 0.0000 0.0000
# 3 49.2574 38.9702 75.0960 0.0000 0.0000 0.0000
# 4 0.0000 0.0000 0.0000 21.5285 0.0000 0.0000
# 5 0.0000 0.0000 0.0000 0.0000 28.6376 0.0000
# 6 0.0000 0.0000 0.0000 0.0000 0.0000 32.6086
#
#
#
# Elastic Compliance Matrix: (Units=1/GPa)
#
#
# Indices 1 2 3 4 5 6 
#
# 1 0.019037 -0.004120 -0.010349 0.000000 0.000000 0.000000
# 2 -0.004120 0.010516 -0.002755 0.000000 0.000000 0.000000
# 3 -0.010349 -0.002755 0.021534 0.000000 0.000000 0.000000
# 4 0.000000 0.000000 0.000000 0.046450 0.000000 0.000000
# 5 0.000000 0.000000 0.000000 0.000000 0.034919 0.000000
# 6 0.000000 0.000000 0.000000 0.000000 0.000000 0.030667
#
#
# Mechanical properties :
#
#
# Convention : Reuss Voigt Hill
#
# Bulk Modulus (GPa) = 60.09638 62.38529 61.24084
# Shear Modulus (GPa) = 24.61613 26.73144 25.67379
#
# Velocity S-wave (km/s) = 3.53989 3.68885 3.61514
# Velocity P-wave (km/s) = 6.87748 7.06404 6.97139
#
# Compressibility (1/GPa) = 0.01663994
#
# Stress axis : x y z
#
# Youngs Moduli (GPa) = 52.52791 95.09036 46.43750
#
# Poissons Ratio (x) = 0.39176 0.48059
# Poissons Ratio (y) = 0.21641 0.12794
# Poissons Ratio (z) = 0.54362 0.26198
#
# Static dielectric constant tensor:
#      x y z
#    x 3.879330 0.000000 0.000000 
#    y 0.000000 3.972570 0.000000 
#    z 0.000000 0.000000 3.183110 
# 
# 
# High freq. dielectric constant tensor:
#      x y z
#    x 1.764270 0.000000 0.000000 
#    y 0.000000 1.799840 0.000000 
#    z 0.000000 0.000000 1.714600 
# 
# From -- ./inp_files/10967.got.cif
#   From: 2010.06.25/outbox.cif.g09.slc.cpg/sg52_6_cif.got.tgz:10967.got - 2010.06.26 19:32:48.
