data_PCOD8215429
_publ_section_title
;
Structure prediction by ZEFSAII (Michael W. Deem and Ramdas Pophale) SiO2 
 PCOD8215429
Probable space group: P N N A
;
_chemical_formula_sum "Si O2"
_cell_formula_units_Z 60
_cell_length_a 15.440920
_cell_length_b 13.259456
_cell_length_c 15.276687
_cell_angle_alpha 90.000000
_cell_angle_beta 90.000000
_cell_angle_gamma 90.000000
_cell_volume 3127.721388
_symmetry_space_group_name_H-M "P N N A"
_symmetry_group_IT_number 52
_symmetry_cell_setting 'orthorhombic'
loop_
_space_group_symop_operation_xyz
x,y,z
1/2-x,-y,z
x,1/2-y,1/2-z
1/2-x,1/2+y,1/2-z
-x,-y,-z
1/2+x,y,-z
-x,1/2+y,1/2+z
1/2+x,1/2-y,1/2+z
loop_
_atom_site_type_symbol
_atom_site_label
_atom_site_fract_x
_atom_site_fract_y
_atom_site_fract_z
Si Si1 0.685053 0.290380 0.564131
Si Si2 0.586250 0.588833 0.083849
Si Si3 0.415166 0.622684 0.972928
Si Si4 0.132601 0.740946 0.480333
Si Si5 0.510545 0.404443 0.556649
Si Si6 0.485268 0.558162 0.245257
Si Si7 0.364310 0.750000 0.250000
Si Si8 0.462214 0.164803 0.323185
O O1 0.661003 0.191026 0.510066
O O2 0.780376 0.326176 0.531482
O O3 0.611155 0.373528 0.550975
O O4 0.696202 0.268211 0.666865
O O5 0.625147 0.487472 0.042428
O O6 0.571436 0.578518 0.187797
O O7 0.492409 0.615163 0.042679
O O8 0.651330 0.678604 0.058230
O O9 0.449507 0.663315 0.879357
O O10 0.114235 0.802169 0.390013
O O11 0.050066 0.678577 0.512632
O O12 0.500000 0.500000 0.500000
O O13 0.483725 0.434797 0.654630
O O14 0.419563 0.649994 0.228189
O O15 0.445306 0.447195 0.219701
O O16 0.471948 0.250000 0.250000
#
# Coordination Sequence:
#
# PCOD8215429 Si02
#       8
#     8   8   8   8   8   8   4   8
#     4  11  22  38  61  89 123 159 196 257 307 374
#     4   9  16  34  58  87 113 148 197 241 308 361
#     4   9  17  33  59  83 117 154 190 242 301 364
#     4  11  23  37  63  89 121 161 201 259 309 374
#     4  11  23  42  63  86 120 172 210 245 311 372
#     4  10  19  35  67  85 119 162 205 260 305 379
#     4  10  20  36  54  92 124 152 196 250 322 380
#     4  10  20  36  59  91 119 158 205 253 309 370
#
# _framework density 19.183294
#
# number of rings (size 3 to 8) (size 9 to 14) (size 15 to 20)
#    0.000    1.867    4.000    2.400    0.933    1.067 
#    0.000    0.000    2.933    1.600    0.000    0.000 
#    0.000    0.000    0.000    0.000    0.000    0.000 
#
# Total GULP energy -743384.213381 kJ/mol
# GULP energy per Si atom -12389.736890 kJ/mol
# Density = 1.913963 g / cm^3
# Si number density = 19.183294 Si / 1000 Ang^3
#
#
#
# Elastic Constant Matrix: (Units=GPa)
#
#
# Indices 1 2 3 4 5 6 
#
# 1 72.7640 24.4701 37.9498 0.0000 0.0000 0.0000
# 2 24.4701 116.1629 52.9869 0.0000 0.0000 0.0000
# 3 37.9498 52.9869 114.9795 0.0000 0.0000 0.0000
# 4 0.0000 0.0000 0.0000 38.5003 0.0000 0.0000
# 5 0.0000 0.0000 0.0000 0.0000 17.9748 0.0000
# 6 0.0000 0.0000 0.0000 0.0000 0.0000 12.2574
#
#
#
# Elastic Compliance Matrix: (Units=1/GPa)
#
#
# Indices 1 2 3 4 5 6 
#
# 1 0.016748 -0.001274 -0.004941 0.000000 0.000000 0.000000
# 2 -0.001274 0.010997 -0.004647 0.000000 0.000000 0.000000
# 3 -0.004941 -0.004647 0.012469 0.000000 0.000000 0.000000
# 4 0.000000 0.000000 0.000000 0.025974 0.000000 0.000000
# 5 0.000000 0.000000 0.000000 0.000000 0.055634 0.000000
# 6 0.000000 0.000000 0.000000 0.000000 0.000000 0.081584
#
#
# Mechanical properties :
#
#
# Convention : Reuss Voigt Hill
#
# Bulk Modulus (GPa) = 54.08241 59.41334 56.74787
# Shear Modulus (GPa) = 21.61756 26.31312 23.96534
#
# Velocity S-wave (km/s) = 3.36057 3.70762 3.53835
# Velocity P-wave (km/s) = 6.58115 7.02618 6.80730
#
# Compressibility (1/GPa) = 0.01849030
#
# Stress axis : x y z
#
# Youngs Moduli (GPa) = 59.70714 90.93537 80.19609
#
# Poissons Ratio (x) = 0.11590 0.39622
# Poissons Ratio (y) = 0.07610 0.37268
# Poissons Ratio (z) = 0.29499 0.42259
#
# Static dielectric constant tensor:
#      x y z
#    x 13.965750 0.000000 0.000000 
#    y 0.000000 3.466080 0.000000 
#    z 0.000000 0.000000 3.755670 
# 
# 
# High freq. dielectric constant tensor:
#      x y z
#    x 1.700140 0.000000 0.000000 
#    y 0.000000 1.756900 0.000000 
#    z 0.000000 0.000000 1.758660 
# 
# From -- ./inp_files/27447.got.cif
#   From: 2010.06.25/outbox.cif.g09.slc.cpg/sg52_14_cif.got.tgz:27447.got - 2010.06.26 19:32:48.
