data_PCOD8215431
_publ_section_title
;
Structure prediction by ZEFSAII (Michael W. Deem and Ramdas Pophale) SiO2 
 PCOD8215431
Probable space group: P N N A
;
_chemical_formula_sum "Si O2"
_cell_formula_units_Z 32
_cell_length_a 11.959105
_cell_length_b 5.211990
_cell_length_c 28.208883
_cell_angle_alpha 90.000000
_cell_angle_beta 90.000000
_cell_angle_gamma 90.000000
_cell_volume 1758.280430
_symmetry_space_group_name_H-M "P N N A"
_symmetry_group_IT_number 52
_symmetry_cell_setting 'orthorhombic'
loop_
_space_group_symop_operation_xyz
x,y,z
1/2-x,-y,z
x,1/2-y,1/2-z
1/2-x,1/2+y,1/2-z
-x,-y,-z
1/2+x,y,-z
-x,1/2+y,1/2+z
1/2+x,1/2-y,1/2+z
loop_
_atom_site_type_symbol
_atom_site_label
_atom_site_fract_x
_atom_site_fract_y
_atom_site_fract_z
Si Si1 0.175923 0.250814 0.197077
Si Si2 0.086641 0.698399 0.449191
Si Si3 0.129533 0.580543 0.550751
Si Si4 0.562564 0.208935 0.602557
O O1 0.250000 0.500000 0.189539
O O2 0.123516 0.250000 0.250000
O O3 0.075441 0.266711 0.159186
O O4 0.250000 0.000000 0.188507
O O5 0.145029 0.726839 0.500417
O O6 0.131176 0.442006 0.422434
O O7 0.951429 0.667700 0.457222
O O8 0.113649 0.943981 0.416952
O O9 0.250000 0.500000 0.570943
O O10 0.069462 0.767769 0.589215
#
# Coordination Sequence:
#
# PCOD8215431 Si02
#       4
#     8   8   8   8
#     4  10  21  36  56  81 105 133 169 216 273 318
#     4   9  20  34  49  76 104 138 178 205 253 301
#     4   9  20  34  51  74 108 140 173 212 252 301
#     4  10  19  36  50  76 103 135 175 210 257 311
#
# _framework density 18.1996
#
# number of rings (size 3 to 8) (size 9 to 14) (size 15 to 20)
#    1.500    1.000    0.000    2.250    0.000    4.000 
#    0.000    0.000    0.000    0.000    6.500    0.000 
#    0.000    0.000    0.000    0.000    0.000    0.000 
#
# Total GULP energy -396487.826671 kJ/mol
# GULP energy per Si atom -12390.244583 kJ/mol
# Density = 1.815818 g / cm^3
# Si number density = 18.199600 Si / 1000 Ang^3
#
#
#
# Elastic Constant Matrix: (Units=GPa)
#
#
# Indices 1 2 3 4 5 6 
#
# 1 25.4667 14.1554 33.9711 0.0000 0.0000 0.0000
# 2 14.1554 133.1325 44.5730 0.0000 0.0000 0.0000
# 3 33.9711 44.5730 159.5873 0.0000 0.0000 0.0000
# 4 0.0000 0.0000 0.0000 26.6092 0.0000 0.0000
# 5 0.0000 0.0000 0.0000 0.0000 24.8819 0.0000
# 6 0.0000 0.0000 0.0000 0.0000 0.0000 6.9415
#
#
#
# Elastic Compliance Matrix: (Units=1/GPa)
#
#
# Indices 1 2 3 4 5 6 
#
# 1 0.055387 -0.002142 -0.011192 0.000000 0.000000 0.000000
# 2 -0.002142 0.008369 -0.001882 0.000000 0.000000 0.000000
# 3 -0.011192 -0.001882 0.009174 0.000000 0.000000 0.000000
# 4 0.000000 0.000000 0.000000 0.037581 0.000000 0.000000
# 5 0.000000 0.000000 0.000000 0.000000 0.040190 0.000000
# 6 0.000000 0.000000 0.000000 0.000000 0.000000 0.144061
#
#
# Mechanical properties :
#
#
# Convention : Reuss Voigt Hill
#
# Bulk Modulus (GPa) = 23.52984 55.95395 39.74189
# Shear Modulus (GPa) = 14.73365 26.71899 20.72632
#
# Velocity S-wave (km/s) = 2.84836 3.83575 3.37832
# Velocity P-wave (km/s) = 4.87590 7.10131 6.09110
#
# Compressibility (1/GPa) = 0.04249923
#
# Stress axis : x y z
#
# Youngs Moduli (GPa) = 18.05481 119.48868 109.00288
#
# Poissons Ratio (x) = 0.25594 1.21995
# Poissons Ratio (y) = 0.03867 0.20509
# Poissons Ratio (z) = 0.20207 0.22482
#
# Static dielectric constant tensor:
#      x y z
#    x 2.940500 0.000000 0.000000 
#    y 0.000000 3.324690 0.000000 
#    z 0.000000 0.000000 3.357790 
# 
# 
# High freq. dielectric constant tensor:
#      x y z
#    x 1.664920 0.000000 0.000000 
#    y 0.000000 1.713170 0.000000 
#    z 0.000000 0.000000 1.691860 
# 
# From -- ./inp_files/44669.got.cif
#   From: 2010.06.25/outbox.cif.g09.slc.cpg/sg52_23_cif.got.tgz:44669.got - 2010.06.26 19:32:48.
