data_PCOD8215414
_publ_section_title
;
Structure prediction by ZEFSAII (Michael W. Deem and Ramdas Pophale) SiO2 
 PCOD8215414
Probable space group: P N N A
;
_chemical_formula_sum "Si O2"
_cell_formula_units_Z 40
_cell_length_a 9.205851
_cell_length_b 8.592748
_cell_length_c 27.991513
_cell_angle_alpha 90.000000
_cell_angle_beta 90.000000
_cell_angle_gamma 90.000000
_cell_volume 2214.228266
_symmetry_space_group_name_H-M "P N N A"
_symmetry_group_IT_number 52
_symmetry_cell_setting 'orthorhombic'
loop_
_space_group_symop_operation_xyz
x,y,z
1/2-x,-y,z
x,1/2-y,1/2-z
1/2-x,1/2+y,1/2-z
-x,-y,-z
1/2+x,y,-z
-x,1/2+y,1/2+z
1/2+x,1/2-y,1/2+z
loop_
_atom_site_type_symbol
_atom_site_label
_atom_site_fract_x
_atom_site_fract_y
_atom_site_fract_z
Si Si1 0.052100 0.356242 0.467659
Si Si2 0.228408 0.822348 0.524429
Si Si3 0.175342 0.170025 0.882386
Si Si4 0.917668 0.982195 0.862730
Si Si5 0.652095 0.852054 0.204111
O O1 0.207204 0.294440 0.484966
O O2 0.069329 0.390254 0.412138
O O3 0.000000 0.500000 0.500000
O O4 0.941137 0.213264 0.472500
O O5 0.309795 0.788907 0.574352
O O6 0.250000 0.000000 0.509567
O O7 0.255685 0.242140 0.836047
O O8 0.250000 0.000000 0.893992
O O9 0.003775 0.145372 0.871304
O O10 0.996211 0.895474 0.818681
O O11 0.750000 0.000000 0.848215
O O12 0.619913 0.750000 0.250000
O O13 0.750000 0.000000 0.219006
#
# Coordination Sequence:
#
# PCOD8215414 Si02
#       5
#     8   8   8   8   8
#     4  12  21  37  59  81 114 165 204 225 283 356
#     4  12  23  35  52  87 123 151 190 250 296 335
#     4   9  17  37  57  79 108 150 201 230 270 358
#     4  10  19  35  60  86 109 147 204 238 271 351
#     4   9  19  37  62  85 111 141 197 241 291 344
#
# _framework density 18.064983999999999
#
# number of rings (size 3 to 8) (size 9 to 14) (size 15 to 20)
#    0.000    2.000    6.000    2.400    0.000    0.800 
#    0.000    4.000    0.000    1.200    0.000    0.000 
#    0.000    0.000    0.000    0.000    0.000    0.000 
#
# Total GULP energy -495748.410761 kJ/mol
# GULP energy per Si atom -12393.710269 kJ/mol
# Density = 1.802387 g / cm^3
# Si number density = 18.064984 Si / 1000 Ang^3
#
#
#
# Elastic Constant Matrix: (Units=GPa)
#
#
# Indices 1 2 3 4 5 6 
#
# 1 133.9611 15.1928 33.1061 0.0000 0.0000 0.0000
# 2 15.1928 58.2074 34.0884 0.0000 0.0000 0.0000
# 3 33.1061 34.0884 115.8927 0.0000 0.0000 0.0000
# 4 0.0000 0.0000 0.0000 26.7237 0.0000 0.0000
# 5 0.0000 0.0000 0.0000 0.0000 21.7392 0.0000
# 6 0.0000 0.0000 0.0000 0.0000 0.0000 21.8132
#
#
#
# Elastic Compliance Matrix: (Units=1/GPa)
#
#
# Indices 1 2 3 4 5 6 
#
# 1 0.008072 -0.000914 -0.002037 0.000000 0.000000 0.000000
# 2 -0.000914 0.020859 -0.005874 0.000000 0.000000 0.000000
# 3 -0.002037 -0.005874 0.010938 0.000000 0.000000 0.000000
# 4 0.000000 0.000000 0.000000 0.037420 0.000000 0.000000
# 5 0.000000 0.000000 0.000000 0.000000 0.046000 0.000000
# 6 0.000000 0.000000 0.000000 0.000000 0.000000 0.045844
#
#
# Mechanical properties :
#
#
# Convention : Reuss Voigt Hill
#
# Bulk Modulus (GPa) = 45.00726 52.53731 48.77229
# Shear Modulus (GPa) = 25.74807 29.10013 27.42410
#
# Velocity S-wave (km/s) = 3.77941 4.01790 3.90048
# Velocity P-wave (km/s) = 6.63426 7.11831 6.88054
#
# Compressibility (1/GPa) = 0.02221864
#
# Stress axis : x y z
#
# Youngs Moduli (GPa) = 123.88635 47.94167 91.42093
#
# Poissons Ratio (x) = 0.04381 0.18623
# Poissons Ratio (y) = 0.11322 0.53703
# Poissons Ratio (z) = 0.25236 0.28162
#
# Static dielectric constant tensor:
#      x y z
#    x 3.757450 0.000000 0.000000 
#    y 0.000000 2.944980 0.000000 
#    z 0.000000 0.000000 3.345450 
# 
# 
# High freq. dielectric constant tensor:
#      x y z
#    x 1.709070 0.000000 0.000000 
#    y 0.000000 1.660620 0.000000 
#    z 0.000000 0.000000 1.698410 
# 
# From -- ./inp_files/44211.got.cif
#   From: 2010.06.25/outbox.cif.g09.slc.cpg/sg52_23_cif.got.tgz:44211.got - 2010.06.26 19:32:48.
