data_PCOD8215821
_publ_section_title
;
Structure prediction by ZEFSAII (Michael W. Deem and Ramdas Pophale) SiO2 
 PCOD8215821
Probable space group: P N N A
;
_chemical_formula_sum "Si O2"
_cell_formula_units_Z 40
_cell_length_a 17.428914
_cell_length_b 11.491830
_cell_length_c 10.134271
_cell_angle_alpha 90.000000
_cell_angle_beta 90.000000
_cell_angle_gamma 90.000000
_cell_volume 2029.794322
_symmetry_space_group_name_H-M "P N N A"
_symmetry_group_IT_number 52
_symmetry_cell_setting 'orthorhombic'
loop_
_space_group_symop_operation_xyz
x,y,z
1/2-x,-y,z
x,1/2-y,1/2-z
1/2-x,1/2+y,1/2-z
-x,-y,-z
1/2+x,y,-z
-x,1/2+y,1/2+z
1/2+x,1/2-y,1/2+z
loop_
_atom_site_type_symbol
_atom_site_label
_atom_site_fract_x
_atom_site_fract_y
_atom_site_fract_z
Si Si1 0.052572 0.153852 0.344768
Si Si2 0.640916 0.415580 0.101357
Si Si3 0.696257 0.821111 0.378433
Si Si4 0.008877 0.915346 0.244286
Si Si5 0.567532 0.746872 0.957443
O O1 0.092874 0.250000 0.250000
O O2 0.108845 0.101464 0.454038
O O3 0.978948 0.211700 0.412274
O O4 0.022867 0.052234 0.248421
O O5 0.663363 0.548594 0.124266
O O6 0.711954 0.327116 0.110594
O O7 0.578406 0.382427 0.213439
O O8 0.673190 0.750000 0.250000
O O9 0.657218 0.748140 0.499038
O O10 0.031838 0.867308 0.099366
O O11 0.064576 0.853463 0.348349
#
# Coordination Sequence:
#
# PCOD8215821 Si02
#       5
#     8   8   8   8   8
#     4  11  21  39  60  91 124 162 208 254 304 375
#     4  10  22  41  59  88 126 161 204 258 313 374
#     4  11  22  39  62  89 124 162 202 262 320 363
#     4  10  20  38  65  90 119 165 213 251 309 369
#     4  10  20  37  63  89 121 158 208 255 303 368
#
# _framework density 19.706430999999998
#
# number of rings (size 3 to 8) (size 9 to 14) (size 15 to 20)
#    0.000    1.600    4.000    1.800    5.600    0.800 
#    3.600    0.000    0.000    0.000    0.000    0.000 
#    0.000    0.000    0.000    0.000    0.000    0.000 
#
# Total GULP energy -495767.394153 kJ/mol
# GULP energy per Si atom -12394.184854 kJ/mol
# Density = 1.966158 g / cm^3
# Si number density = 19.706431 Si / 1000 Ang^3
#
#
#
# Elastic Constant Matrix: (Units=GPa)
#
#
# Indices 1 2 3 4 5 6 
#
# 1 133.3337 46.3725 54.1990 0.0000 0.0000 0.0000
# 2 46.3725 119.1837 65.8819 0.0000 0.0000 0.0000
# 3 54.1990 65.8819 75.2489 0.0000 0.0000 0.0000
# 4 0.0000 0.0000 0.0000 46.7380 0.0000 0.0000
# 5 0.0000 0.0000 0.0000 0.0000 16.8417 0.0000
# 6 0.0000 0.0000 0.0000 0.0000 0.0000 25.2780
#
#
#
# Elastic Compliance Matrix: (Units=1/GPa)
#
#
# Indices 1 2 3 4 5 6 
#
# 1 0.010607 0.000186 -0.007803 0.000000 0.000000 0.000000
# 2 0.000186 0.016263 -0.014372 0.000000 0.000000 0.000000
# 3 -0.007803 -0.014372 0.031493 0.000000 0.000000 0.000000
# 4 0.000000 0.000000 0.000000 0.021396 0.000000 0.000000
# 5 0.000000 0.000000 0.000000 0.000000 0.059376 0.000000
# 6 0.000000 0.000000 0.000000 0.000000 0.000000 0.039560
#
#
# Mechanical properties :
#
#
# Convention : Reuss Voigt Hill
#
# Bulk Modulus (GPa) = 69.52061 73.40814 71.46438
# Shear Modulus (GPa) = 21.98113 28.52572 25.25343
#
# Velocity S-wave (km/s) = 3.34343 3.80877 3.58366
# Velocity P-wave (km/s) = 7.08939 7.52822 7.31210
#
# Compressibility (1/GPa) = 0.01438422
#
# Stress axis : x y z
#
# Youngs Moduli (GPa) = 94.27726 61.49039 31.75337
#
# Poissons Ratio (x) = -0.01145 0.24777
# Poissons Ratio (y) = -0.01756 0.45637
# Poissons Ratio (z) = 0.73563 0.88377
#
# Static dielectric constant tensor:
#      x y z
#    x 3.715050 0.000000 0.000000 
#    y 0.000000 3.675210 0.000000 
#    z 0.000000 0.000000 3.598340 
# 
# 
# High freq. dielectric constant tensor:
#      x y z
#    x 1.756540 0.000000 0.000000 
#    y 0.000000 1.770540 0.000000 
#    z 0.000000 0.000000 1.759250 
# 
# From -- ./inp_files/11590.got.cif
#   From: 2010.06.25/outbox.cif.g09.slc.cpg/sg52_6_cif.got.tgz:11590.got - 2010.06.26 19:32:48.
