data_PCOD8215698
_publ_section_title
;
Structure prediction by ZEFSAII (Michael W. Deem and Ramdas Pophale) SiO2 
 PCOD8215698
Probable space group: P N N A
;
_chemical_formula_sum "Si O2"
_cell_formula_units_Z 44
_cell_length_a 9.968093
_cell_length_b 23.842089
_cell_length_c 9.608394
_cell_angle_alpha 90.000000
_cell_angle_beta 90.000000
_cell_angle_gamma 90.000000
_cell_volume 2283.532460
_symmetry_space_group_name_H-M "P N N A"
_symmetry_group_IT_number 52
_symmetry_cell_setting 'orthorhombic'
loop_
_space_group_symop_operation_xyz
x,y,z
1/2-x,-y,z
x,1/2-y,1/2-z
1/2-x,1/2+y,1/2-z
-x,-y,-z
1/2+x,y,-z
-x,1/2+y,1/2+z
1/2+x,1/2-y,1/2+z
loop_
_atom_site_type_symbol
_atom_site_label
_atom_site_fract_x
_atom_site_fract_y
_atom_site_fract_z
Si Si1 0.558454 0.197703 0.424441
Si Si2 0.412936 0.825223 0.893603
Si Si3 0.697122 0.622130 0.579229
Si Si4 0.250000 0.500000 0.342778
Si Si5 0.122752 0.524881 0.077052
Si Si6 0.285579 0.351678 0.109032
O O1 0.601621 0.176999 0.272182
O O2 0.580833 0.262794 0.455085
O O3 0.396836 0.193302 0.438204
O O4 0.645007 0.160200 0.532124
O O5 0.539584 0.863688 0.939430
O O6 0.276942 0.850801 0.952797
O O7 0.733700 0.555909 0.565752
O O8 0.746899 0.647951 0.726381
O O9 0.121399 0.500651 0.236611
O O10 0.250000 0.500000 0.994829
O O11 0.136233 0.591346 0.071414
O O12 0.000000 0.500000 0.000000
#
# Coordination Sequence:
#
# PCOD8215698 Si02
#       6
#     8   8   8   4   8   8
#     4  10  21  37  56  87 111 150 193 244 282 352
#     4  10  22  38  58  79 119 152 194 233 293 343
#     4  10  21  40  59  83 115 160 187 241 289 350
#     4   8  20  36  60  82 118 150 198 234 288 356
#     4   9  17  32  55  84 114 148 184 241 285 342
#     4  10  20  35  61  82 117 146 193 238 298 334
#
# _framework density 19.268394000000001
#
# number of rings (size 3 to 8) (size 9 to 14) (size 15 to 20)
#    0.545    1.818    0.000    2.182    0.000    4.364 
#    0.000    0.000    2.000    0.000    0.000    0.000 
#    0.000    0.000    0.000    0.000    0.000    0.000 
#
# Total GULP energy -545089.237203 kJ/mol
# GULP energy per Si atom -12388.391755 kJ/mol
# Density = 1.922454 g / cm^3
# Si number density = 19.268394 Si / 1000 Ang^3
#
#
#
# Elastic Constant Matrix: (Units=GPa)
#
#
# Indices 1 2 3 4 5 6 
#
# 1 76.6485 22.2005 28.2472 0.0000 0.0000 0.0000
# 2 22.2005 89.3355 16.3958 0.0000 0.0000 0.0000
# 3 28.2472 16.3958 47.3670 0.0000 0.0000 0.0000
# 4 0.0000 0.0000 0.0000 24.7623 0.0000 0.0000
# 5 0.0000 0.0000 0.0000 0.0000 27.5568 0.0000
# 6 0.0000 0.0000 0.0000 0.0000 0.0000 23.9403
#
#
#
# Elastic Compliance Matrix: (Units=1/GPa)
#
#
# Indices 1 2 3 4 5 6 
#
# 1 0.017254 -0.002562 -0.009402 0.000000 0.000000 0.000000
# 2 -0.002562 0.012334 -0.002741 0.000000 0.000000 0.000000
# 3 -0.009402 -0.002741 0.027668 0.000000 0.000000 0.000000
# 4 0.000000 0.000000 0.000000 0.040384 0.000000 0.000000
# 5 0.000000 0.000000 0.000000 0.000000 0.036289 0.000000
# 6 0.000000 0.000000 0.000000 0.000000 0.000000 0.041771
#
#
# Mechanical properties :
#
#
# Convention : Reuss Voigt Hill
#
# Bulk Modulus (GPa) = 35.91500 38.55976 37.23738
# Shear Modulus (GPa) = 23.32190 25.01905 24.17047
#
# Velocity S-wave (km/s) = 3.48281 3.60731 3.54561
# Velocity P-wave (km/s) = 5.90365 6.11601 6.01077
#
# Compressibility (1/GPa) = 0.02784352
#
# Stress axis : x y z
#
# Youngs Moduli (GPa) = 57.95862 81.07959 36.14322
#
# Poissons Ratio (x) = 0.20773 0.33983
# Poissons Ratio (y) = 0.14849 0.09908
# Poissons Ratio (z) = 0.54495 0.22226
#
# Static dielectric constant tensor:
#      x y z
#    x 3.343570 0.000000 0.000000 
#    y 0.000000 3.636920 0.000000 
#    z 0.000000 0.000000 3.301570 
# 
# 
# High freq. dielectric constant tensor:
#      x y z
#    x 1.742830 0.000000 0.000000 
#    y 0.000000 1.763570 0.000000 
#    z 0.000000 0.000000 1.727460 
# 
# From -- ./inp_files/16886.got.cif
#   From: 2010.06.25/outbox.cif.g09.slc.cpg/sg52_9_cif.got.tgz:16886.got - 2010.06.26 19:32:48.
