data_PCOD8215714
_publ_section_title
;
Structure prediction by ZEFSAII (Michael W. Deem and Ramdas Pophale) SiO2 
 PCOD8215714
Probable space group: P N N A
;
_chemical_formula_sum "Si O2"
_cell_formula_units_Z 48
_cell_length_a 24.450004
_cell_length_b 14.332951
_cell_length_c 6.249655
_cell_angle_alpha 90.000000
_cell_angle_beta 90.000000
_cell_angle_gamma 90.000000
_cell_volume 2190.133531
_symmetry_space_group_name_H-M "P N N A"
_symmetry_group_IT_number 52
_symmetry_cell_setting 'orthorhombic'
loop_
_space_group_symop_operation_xyz
x,y,z
1/2-x,-y,z
x,1/2-y,1/2-z
1/2-x,1/2+y,1/2-z
-x,-y,-z
1/2+x,y,-z
-x,1/2+y,1/2+z
1/2+x,1/2-y,1/2+z
loop_
_atom_site_type_symbol
_atom_site_label
_atom_site_fract_x
_atom_site_fract_y
_atom_site_fract_z
Si Si1 0.966745 0.880883 0.585466
Si Si2 0.422870 0.750000 0.750000
Si Si3 0.583492 0.932641 0.422417
Si Si4 0.629733 0.166466 0.872851
Si Si5 0.250000 0.500000 0.929056
Si Si6 0.163347 0.990655 0.923801
Si Si7 0.683522 0.640614 0.795604
O O1 0.961134 0.822889 0.368812
O O2 0.930569 0.836223 0.770439
O O3 0.030676 0.871827 0.645246
O O4 0.942146 0.984320 0.561397
O O5 0.379426 0.691665 0.615939
O O6 0.606723 0.966985 0.194355
O O7 0.627411 0.876283 0.568790
O O8 0.663098 0.250000 0.750000
O O9 0.660456 0.067493 0.883096
O O10 0.201284 0.472314 0.768662
O O11 0.267112 0.410037 0.072949
O O12 0.183110 0.900354 0.054209
O O13 0.694116 0.750000 0.750000
#
# Coordination Sequence:
#
# PCOD8215714 Si02
#       7
#     8   4   8   8   4   8   8
#     4  10  20  37  58 100 134 182 230 265 321 393
#     4  10  20  36  56  90 142 174 224 276 306 384
#     4  10  22  37  66  95 134 180 225 265 331 400
#     4  10  21  37  63  94 137 175 222 269 325 389
#     4  10  26  46  74  94 124 166 224 280 344 408
#     4  11  22  46  68  91 131 172 215 283 338 394
#     4  11  25  48  71  98 134 170 223 279 342 411
#
# _framework density 21.916471999999999
#
# number of rings (size 3 to 8) (size 9 to 14) (size 15 to 20)
#    0.000    1.667    3.333    0.500    1.167    4.667 
#    6.000    8.333    0.000    0.000    0.000    0.000 
#    0.000    0.000    0.000    0.000    0.000    0.000 
#
# Total GULP energy -594653.206538 kJ/mol
# GULP energy per Si atom -12388.608470 kJ/mol
# Density = 2.186659 g / cm^3
# Si number density = 21.916472 Si / 1000 Ang^3
#
#
#
# Elastic Constant Matrix: (Units=GPa)
#
#
# Indices 1 2 3 4 5 6 
#
# 1 83.1529 48.6840 37.1209 0.0000 0.0000 0.0000
# 2 48.6840 148.5209 50.9913 0.0000 0.0000 0.0000
# 3 37.1209 50.9913 109.5488 0.0000 0.0000 0.0000
# 4 0.0000 0.0000 0.0000 40.8282 0.0000 0.0000
# 5 0.0000 0.0000 0.0000 0.0000 16.8317 0.0000
# 6 0.0000 0.0000 0.0000 0.0000 0.0000 23.4056
#
#
#
# Elastic Compliance Matrix: (Units=1/GPa)
#
#
# Indices 1 2 3 4 5 6 
#
# 1 0.015956 -0.004016 -0.003538 0.000000 0.000000 0.000000
# 2 -0.004016 0.009024 -0.002840 0.000000 0.000000 0.000000
# 3 -0.003538 -0.002840 0.011649 0.000000 0.000000 0.000000
# 4 0.000000 0.000000 0.000000 0.024493 0.000000 0.000000
# 5 0.000000 0.000000 0.000000 0.000000 0.059412 0.000000
# 6 0.000000 0.000000 0.000000 0.000000 0.000000 0.042725
#
#
# Mechanical properties :
#
#
# Convention : Reuss Voigt Hill
#
# Bulk Modulus (GPa) = 63.11837 68.31279 65.71558
# Shear Modulus (GPa) = 26.40936 29.84153 28.12545
#
# Velocity S-wave (km/s) = 3.47508 3.69399 3.58621
# Velocity P-wave (km/s) = 6.70549 7.03075 6.87004
#
# Compressibility (1/GPa) = 0.01584325
#
# Stress axis : x y z
#
# Youngs Moduli (GPa) = 62.67048 110.81080 85.84487
#
# Poissons Ratio (x) = 0.44500 0.30369
# Poissons Ratio (y) = 0.25167 0.24378
# Poissons Ratio (z) = 0.22171 0.31468
#
# Static dielectric constant tensor:
#      x y z
#    x 3.967490 0.000000 0.000000 
#    y 0.000000 4.088480 0.000000 
#    z 0.000000 0.000000 3.988030 
# 
# 
# High freq. dielectric constant tensor:
#      x y z
#    x 1.850130 0.000000 0.000000 
#    y 0.000000 1.864950 0.000000 
#    z 0.000000 0.000000 1.870240 
# 
# From -- ./inp_files/5851.got.cif
#   From: 2010.06.25/outbox.cif.g09.slc.cpg/sg52_3_cif.got.tgz:5851.got - 2010.06.26 19:32:48.
