data_PCOD8215267
_publ_section_title
;
Structure prediction by ZEFSAII (Michael W. Deem and Ramdas Pophale) SiO2 
 PCOD8215267
Probable space group: P N N A
;
_chemical_formula_sum "Si O2"
_cell_formula_units_Z 64
_cell_length_a 9.310529
_cell_length_b 24.838033
_cell_length_c 17.620501
_cell_angle_alpha 90.000000
_cell_angle_beta 90.000000
_cell_angle_gamma 90.000000
_cell_volume 4074.832951
_symmetry_space_group_name_H-M "P N N A"
_symmetry_group_IT_number 52
_symmetry_cell_setting 'orthorhombic'
loop_
_space_group_symop_operation_xyz
x,y,z
1/2-x,-y,z
x,1/2-y,1/2-z
1/2-x,1/2+y,1/2-z
-x,-y,-z
1/2+x,y,-z
-x,1/2+y,1/2+z
1/2+x,1/2-y,1/2+z
loop_
_atom_site_type_symbol
_atom_site_label
_atom_site_fract_x
_atom_site_fract_y
_atom_site_fract_z
Si Si1 0.695328 0.803056 0.799960
Si Si2 0.521254 0.638842 0.821278
Si Si3 0.693642 0.747771 0.077973
Si Si4 0.974199 0.255838 0.922789
Si Si5 0.864179 0.041444 0.423452
Si Si6 0.520836 0.803672 0.200298
Si Si7 0.807377 0.358127 0.177222
Si Si8 0.625477 0.965471 0.592314
O O1 0.699447 0.750000 0.750000
O O2 0.617145 0.850174 0.752937
O O3 0.602581 0.791224 0.874904
O O4 0.857787 0.820466 0.821347
O O5 0.537142 0.686568 0.881949
O O6 0.356145 0.632423 0.796518
O O7 0.573231 0.582906 0.855962
O O8 0.615316 0.795490 0.124420
O O9 0.682133 0.693966 0.125691
O O10 0.860788 0.761621 0.063309
O O11 0.609746 0.738355 0.000687
O O12 0.870680 0.093388 0.371083
O O13 0.824137 0.058219 0.510245
O O14 0.750000 0.000000 0.389030
O O15 0.013496 0.012126 0.422597
O O16 0.520052 0.750000 0.250000
O O17 0.594430 0.851519 0.248185
O O18 0.750000 0.000000 0.633146
#
# Coordination Sequence:
#
# PCOD8215267 Si02
#       8
#     8   8   8   8   8   8   8   8
#     4   9  18  31  46  66  91 118 152 192 231 274
#     4  10  19  32  46  66  92 126 159 191 234 274
#     4  10  19  31  47  69  94 122 155 189 230 279
#     4  10  19  31  48  68  94 123 153 191 230 278
#     4  10  19  34  46  64  93 126 160 198 232 266
#     4   9  18  31  46  67  90 118 153 191 230 277
#     4  10  19  31  48  65  91 127 159 190 233 277
#     4  10  21  32  46  66  93 124 162 201 232 267
#
# _framework density 15.706166
#
# number of rings (size 3 to 8) (size 9 to 14) (size 15 to 20)
#    0.000    2.250    1.250    2.250    1.750    4.000 
#    0.000    0.000    0.000    0.000    0.000    0.000 
#    0.000    2.000    0.000    0.125    0.000    0.125 
#
# Total GULP energy -793392.857074 kJ/mol
# GULP energy per Si atom -12396.763392 kJ/mol
# Density = 1.567042 g / cm^3
# Si number density = 15.706166 Si / 1000 Ang^3
#
#
#
# Elastic Constant Matrix: (Units=GPa)
#
#
# Indices 1 2 3 4 5 6 
#
# 1 130.2284 32.2198 39.4023 0.0000 0.0000 0.0000
# 2 32.2198 58.3776 17.2737 0.0000 0.0000 0.0000
# 3 39.4023 17.2737 29.4821 0.0000 0.0000 0.0000
# 4 0.0000 0.0000 0.0000 -7.5864 0.0000 0.0000
# 5 0.0000 0.0000 0.0000 0.0000 37.2268 0.0000
# 6 0.0000 0.0000 0.0000 0.0000 0.0000 23.3398
#
#
#
# Elastic Compliance Matrix: (Units=1/GPa)
#
#
# Indices 1 2 3 4 5 6 
#
# 1 0.013186 -0.002496 -0.016160 0.000000 0.000000 0.000000
# 2 -0.002496 0.021195 -0.009083 0.000000 0.000000 0.000000
# 3 -0.016160 -0.009083 0.060838 0.000000 0.000000 0.000000
# 4 0.000000 0.000000 0.000000 -0.131815 0.000000 0.000000
# 5 0.000000 0.000000 0.000000 0.000000 0.026862 0.000000
# 6 0.000000 0.000000 0.000000 0.000000 0.000000 0.042845
#
#
# Mechanical properties :
#
#
# Convention : Reuss Voigt Hill
#
# Bulk Modulus (GPa) = 25.16252 43.98661 34.57456
# Shear Modulus (GPa) = 49.09832 19.20886 34.15359
#
# Velocity S-wave (km/s) = 5.59718 3.50096 4.66825
# Velocity P-wave (km/s) = 7.60439 6.66401 7.14968
#
# Compressibility (1/GPa) = 0.03974165
#
# Stress axis : x y z
#
# Youngs Moduli (GPa) = 75.83918 47.18138 16.43700
#
# Poissons Ratio (x) = 0.11775 0.26563
# Poissons Ratio (y) = 0.18927 0.14929
# Poissons Ratio (z) = 1.22558 0.42853
#
# Static dielectric constant tensor:
#      x y z
#    x 3.292460 0.000000 0.000000 
#    y 0.000000 2.746060 0.000000 
#    z 0.000000 0.000000 2.937260 
# 
# 
# High freq. dielectric constant tensor:
#      x y z
#    x 1.627730 0.000000 0.000000 
#    y 0.000000 1.568600 0.000000 
#    z 0.000000 0.000000 1.582840 
# 
# From -- ./inp_files/31593.got.cif
#   From: 2010.06.25/outbox.cif.g09.slc.cpg/sg52_16_cif.got.tgz:31593.got - 2010.06.26 19:32:48.
