data_PCOD8215420
_publ_section_title
;
Structure prediction by ZEFSAII (Michael W. Deem and Ramdas Pophale) SiO2 
 PCOD8215420
Probable space group: P N N A
;
_chemical_formula_sum "Si O2"
_cell_formula_units_Z 40
_cell_length_a 22.736466
_cell_length_b 6.366008
_cell_length_c 13.717512
_cell_angle_alpha 90.000000
_cell_angle_beta 90.000000
_cell_angle_gamma 90.000000
_cell_volume 1985.479881
_symmetry_space_group_name_H-M "P N N A"
_symmetry_group_IT_number 52
_symmetry_cell_setting 'orthorhombic'
loop_
_space_group_symop_operation_xyz
x,y,z
1/2-x,-y,z
x,1/2-y,1/2-z
1/2-x,1/2+y,1/2-z
-x,-y,-z
1/2+x,y,-z
-x,1/2+y,1/2+z
1/2+x,1/2-y,1/2+z
loop_
_atom_site_type_symbol
_atom_site_label
_atom_site_fract_x
_atom_site_fract_y
_atom_site_fract_z
Si Si1 0.864699 0.197602 0.856497
Si Si2 0.684641 0.041266 0.021827
Si Si3 0.888741 0.576030 0.993559
Si Si4 0.408799 0.272934 0.639488
Si Si5 0.459248 0.859965 0.147563
O O1 0.840066 0.250000 0.750000
O O2 0.867043 0.414537 0.913156
O O3 0.929254 0.089243 0.852655
O O4 0.819744 0.038666 0.909836
O O5 0.639021 0.911532 0.085927
O O6 0.750000 0.000000 0.061993
O O7 0.667796 0.286746 0.027263
O O8 0.937560 0.726034 0.945364
O O9 0.914636 0.455425 0.087959
O O10 0.387643 0.250000 0.750000
O O11 0.471174 0.392188 0.635823
O O12 0.443448 0.750000 0.250000
#
# Coordination Sequence:
#
# PCOD8215420 Si02
#       5
#     8   8   8   8   8
#     4  10  20  37  61  94 125 161 195 241 312 382
#     4  10  24  44  59  87 120 162 215 260 301 357
#     4  10  21  38  64  86 126 158 199 252 311 363
#     4  10  23  40  59  92 120 161 213 252 312 370
#     4  10  19  35  61  93 129 159 197 246 312 387
#
# _framework density 20.146263999999999
#
# number of rings (size 3 to 8) (size 9 to 14) (size 15 to 20)
#    0.000    2.000    2.000    0.600    0.000   12.800 
#    7.200    0.000    0.000    0.000    0.000    0.000 
#    0.000    0.000    0.000    0.000    0.000    0.000 
#
# Total GULP energy -496037.805361 kJ/mol
# GULP energy per Si atom -12400.945134 kJ/mol
# Density = 2.010041 g / cm^3
# Si number density = 20.146264 Si / 1000 Ang^3
#
#
#
# Elastic Constant Matrix: (Units=GPa)
#
#
# Indices 1 2 3 4 5 6 
#
# 1 106.0857 39.8230 18.4872 0.0000 0.0000 0.0000
# 2 39.8230 102.9787 33.2966 0.0000 0.0000 0.0000
# 3 18.4872 33.2966 120.5627 0.0000 0.0000 0.0000
# 4 0.0000 0.0000 0.0000 24.8999 0.0000 0.0000
# 5 0.0000 0.0000 0.0000 0.0000 15.5215 0.0000
# 6 0.0000 0.0000 0.0000 0.0000 0.0000 22.7656
#
#
#
# Elastic Compliance Matrix: (Units=1/GPa)
#
#
# Indices 1 2 3 4 5 6 
#
# 1 0.011062 -0.004095 -0.000565 0.000000 0.000000 0.000000
# 2 -0.004095 0.012179 -0.002736 0.000000 0.000000 0.000000
# 3 -0.000565 -0.002736 0.009137 0.000000 0.000000 0.000000
# 4 0.000000 0.000000 0.000000 0.040161 0.000000 0.000000
# 5 0.000000 0.000000 0.000000 0.000000 0.064427 0.000000
# 6 0.000000 0.000000 0.000000 0.000000 0.000000 0.043926
#
#
# Mechanical properties :
#
#
# Convention : Reuss Voigt Hill
#
# Bulk Modulus (GPa) = 56.86442 56.98230 56.92336
# Shear Modulus (GPa) = 24.80836 28.50541 26.65689
#
# Velocity S-wave (km/s) = 3.51296 3.76563 3.64148
# Velocity P-wave (km/s) = 6.68891 6.87403 6.78210
#
# Compressibility (1/GPa) = 0.01758569
#
# Stress axis : x y z
#
# Youngs Moduli (GPa) = 90.39899 82.10960 109.44958
#
# Poissons Ratio (x) = 0.33624 0.06187
# Poissons Ratio (y) = 0.37019 0.29941
# Poissons Ratio (z) = 0.05110 0.22462
#
# Static dielectric constant tensor:
#      x y z
#    x 3.399120 0.000000 0.000000 
#    y 0.000000 3.795360 0.000000 
#    z 0.000000 0.000000 3.932910 
# 
# 
# High freq. dielectric constant tensor:
#      x y z
#    x 1.763360 0.000000 0.000000 
#    y 0.000000 1.792730 0.000000 
#    z 0.000000 0.000000 1.793700 
# 
# From -- ./inp_files/29014.got.cif
#   From: 2010.06.25/outbox.cif.g09.slc.cpg/sg52_15_cif.got.tgz:29014.got - 2010.06.26 19:32:48.
