data_PCOD8215211
_publ_section_title
;
Structure prediction by ZEFSAII (Michael W. Deem and Ramdas Pophale) SiO2 
 PCOD8215211
Probable space group: P N N A
;
_chemical_formula_sum "Si O2"
_cell_formula_units_Z 60
_cell_length_a 5.284483
_cell_length_b 16.556812
_cell_length_c 33.520376
_cell_angle_alpha 90.000000
_cell_angle_beta 90.000000
_cell_angle_gamma 90.000000
_cell_volume 2932.838199
_symmetry_space_group_name_H-M "P N N A"
_symmetry_group_IT_number 52
_symmetry_cell_setting 'orthorhombic'
loop_
_space_group_symop_operation_xyz
x,y,z
1/2-x,-y,z
x,1/2-y,1/2-z
1/2-x,1/2+y,1/2-z
-x,-y,-z
1/2+x,y,-z
-x,1/2+y,1/2+z
1/2+x,1/2-y,1/2+z
loop_
_atom_site_type_symbol
_atom_site_label
_atom_site_fract_x
_atom_site_fract_y
_atom_site_fract_z
Si Si1 0.865277 0.420732 0.166188
Si Si2 0.494300 0.949939 0.887948
Si Si3 0.412452 0.239672 0.703266
Si Si4 0.393317 0.908440 0.979016
Si Si5 0.854554 0.718225 0.020462
Si Si6 0.250000 0.500000 0.108075
Si Si7 0.599403 0.786628 0.842119
Si Si8 0.509688 0.153100 0.398689
O O1 0.750000 0.500000 0.188356
O O2 0.662260 0.376515 0.139087
O O3 0.968382 0.356185 0.197742
O O4 0.077853 0.447803 0.136462
O O5 0.443979 0.924355 0.933150
O O6 0.535553 0.873329 0.860090
O O7 0.750000 0.000000 0.885618
O O8 0.250000 0.000000 0.872343
O O9 0.400975 0.250000 0.750000
O O10 0.645448 0.290385 0.684422
O O11 0.143774 0.263803 0.684432
O O12 0.369565 0.813365 0.985579
O O13 0.618845 0.944264 0.007491
O O14 0.823394 0.692985 0.066567
O O15 0.614494 0.681222 0.997176
O O16 0.378227 0.427949 0.082290
O O17 0.660172 0.724503 0.878938
#
# Coordination Sequence:
#
# PCOD8215211 Si02
#       8
#     8   8   8   8   8   4   8   8
#     4   9  20  36  62  94 125 156 204 262 302 361
#     4  12  25  41  63  92 129 173 222 269 315 379
#     4  11  23  42  69  99 126 166 207 251 312 390
#     4  10  21  38  58  87 122 163 213 273 324 363
#     4  10  22  36  57  86 122 160 208 256 316 372
#     4  10  18  36  62  92 118 148 214 252 304 354
#     4  11  23  43  66  92 127 169 209 258 309 381
#     4  10  20  37  63  88 119 164 207 252 309 364
#
# _framework density 20.457998
#
# number of rings (size 3 to 8) (size 9 to 14) (size 15 to 20)
#    0.000    1.600    2.667    2.000    1.867    1.600 
#    0.000    2.667    0.000    0.000    0.000    0.000 
#    0.000    0.000    0.000    0.000    0.000    0.000 
#
# Total GULP energy -743527.447398 kJ/mol
# GULP energy per Si atom -12392.124123 kJ/mol
# Density = 2.041143 g / cm^3
# Si number density = 20.457998 Si / 1000 Ang^3
#
#
#
# Elastic Constant Matrix: (Units=GPa)
#
#
# Indices 1 2 3 4 5 6 
#
# 1 124.0192 44.3912 31.8511 0.0000 0.0000 0.0000
# 2 44.3912 51.9354 42.3596 0.0000 0.0000 0.0000
# 3 31.8511 42.3596 93.4973 0.0000 0.0000 0.0000
# 4 0.0000 0.0000 0.0000 18.5817 0.0000 0.0000
# 5 0.0000 0.0000 0.0000 0.0000 12.6656 0.0000
# 6 0.0000 0.0000 0.0000 0.0000 0.0000 6.6827
#
#
#
# Elastic Compliance Matrix: (Units=1/GPa)
#
#
# Indices 1 2 3 4 5 6 
#
# 1 0.011661 -0.010670 0.000862 0.000000 0.000000 0.000000
# 2 -0.010670 0.040303 -0.014625 0.000000 0.000000 0.000000
# 3 0.000862 -0.014625 0.017028 0.000000 0.000000 0.000000
# 4 0.000000 0.000000 0.000000 0.053816 0.000000 0.000000
# 5 0.000000 0.000000 0.000000 0.000000 0.078954 0.000000
# 6 0.000000 0.000000 0.000000 0.000000 0.000000 0.149640
#
#
# Mechanical properties :
#
#
# Convention : Reuss Voigt Hill
#
# Bulk Modulus (GPa) = 49.68754 56.29507 52.99131
# Shear Modulus (GPa) = 12.28569 17.64266 14.96418
#
# Velocity S-wave (km/s) = 2.45323 2.93982 2.70748
# Velocity P-wave (km/s) = 5.68901 6.25304 5.97768
#
# Compressibility (1/GPa) = 0.02012577
#
# Stress axis : x y z
#
# Youngs Moduli (GPa) = 85.75460 24.81212 58.72753
#
# Poissons Ratio (x) = 0.26474 -0.05060
# Poissons Ratio (y) = 0.91500 0.85887
# Poissons Ratio (z) = -0.07388 0.36287
#
# Static dielectric constant tensor:
#      x y z
#    x 4.288070 0.000000 0.000000 
#    y 0.000000 4.276570 0.000000 
#    z 0.000000 0.000000 3.376190 
# 
# 
# High freq. dielectric constant tensor:
#      x y z
#    x 1.813320 0.000000 0.000000 
#    y 0.000000 1.821870 0.000000 
#    z 0.000000 0.000000 1.768500 
# 
# From -- ./inp_files/41816.got.cif
#   From: 2010.06.25/outbox.cif.g09.slc.cpg/sg52_21_cif.got.tgz:41816.got - 2010.06.26 19:32:48.
