data_PCOD8215760
_publ_section_title
;
Structure prediction by ZEFSAII (Michael W. Deem and Ramdas Pophale) SiO2 
 PCOD8215760
Probable space group: P N N A
;
_chemical_formula_sum "Si O2"
_cell_formula_units_Z 40
_cell_length_a 23.053896
_cell_length_b 13.756425
_cell_length_c 6.592275
_cell_angle_alpha 90.000000
_cell_angle_beta 90.000000
_cell_angle_gamma 90.000000
_cell_volume 2090.668762
_symmetry_space_group_name_H-M "P N N A"
_symmetry_group_IT_number 52
_symmetry_cell_setting 'orthorhombic'
loop_
_space_group_symop_operation_xyz
x,y,z
1/2-x,-y,z
x,1/2-y,1/2-z
1/2-x,1/2+y,1/2-z
-x,-y,-z
1/2+x,y,-z
-x,1/2+y,1/2+z
1/2+x,1/2-y,1/2+z
loop_
_atom_site_type_symbol
_atom_site_label
_atom_site_fract_x
_atom_site_fract_y
_atom_site_fract_z
Si Si1 0.763419 0.155570 0.628431
Si Si2 0.342115 0.979666 0.278838
Si Si3 0.441747 0.750000 0.250000
Si Si4 0.047927 0.081288 0.524505
Si Si5 0.213141 0.250000 0.750000
Si Si6 0.615755 0.382084 0.421459
O O1 0.780462 0.250000 0.750000
O O2 0.705648 0.105171 0.712443
O O3 0.755421 0.193791 0.401600
O O4 0.817191 0.082525 0.650799
O O5 0.391874 0.956089 0.437823
O O6 0.367117 0.981065 0.045699
O O7 0.476785 0.825798 0.395088
O O8 0.401803 0.691907 0.403379
O O9 0.062823 0.104372 0.761117
O O10 0.000000 0.000000 0.500000
O O11 0.173210 0.337640 0.673549
#
# Coordination Sequence:
#
# PCOD8215760 Si02
#       6
#     8   8   4   8   4   8
#     4  11  22  38  59  93 125 164 210 266 323 379
#     4  10  23  39  59  91 131 158 214 270 316 391
#     4  10  20  36  63  90 118 159 220 270 310 380
#     4  11  23  40  63  93 126 166 220 269 327 390
#     4  12  18  34  67  90 116 169 216 254 312 380
#     4  11  19  38  65  90 119 163 213 267 315 379
#
# _framework density 19.132632999999998
#
# number of rings (size 3 to 8) (size 9 to 14) (size 15 to 20)
#    0.000    1.200    6.000    1.200    1.400    4.800 
#    0.000    5.000    0.000    0.000    0.000    0.000 
#    0.000    0.000    0.000    0.000    0.000    0.000 
#
# Total GULP energy -495573.663995 kJ/mol
# GULP energy per Si atom -12389.341600 kJ/mol
# Density = 1.908909 g / cm^3
# Si number density = 19.132633 Si / 1000 Ang^3
#
#
#
# Elastic Constant Matrix: (Units=GPa)
#
#
# Indices 1 2 3 4 5 6 
#
# 1 44.8557 36.2778 26.6853 0.0000 0.0000 0.0000
# 2 36.2778 112.8007 53.3717 0.0000 0.0000 0.0000
# 3 26.6853 53.3717 142.7190 0.0000 0.0000 0.0000
# 4 0.0000 0.0000 0.0000 39.1183 0.0000 0.0000
# 5 0.0000 0.0000 0.0000 0.0000 22.8136 0.0000
# 6 0.0000 0.0000 0.0000 0.0000 0.0000 30.2580
#
#
#
# Elastic Compliance Matrix: (Units=1/GPa)
#
#
# Indices 1 2 3 4 5 6 
#
# 1 0.030848 -0.008738 -0.002500 0.000000 0.000000 0.000000
# 2 -0.008738 0.013246 -0.003320 0.000000 0.000000 0.000000
# 3 -0.002500 -0.003320 0.008716 0.000000 0.000000 0.000000
# 4 0.000000 0.000000 0.000000 0.025564 0.000000 0.000000
# 5 0.000000 0.000000 0.000000 0.000000 0.043834 0.000000
# 6 0.000000 0.000000 0.000000 0.000000 0.000000 0.033049
#
#
# Mechanical properties :
#
#
# Convention : Reuss Voigt Hill
#
# Bulk Modulus (GPa) = 42.20479 59.22723 50.71601
# Shear Modulus (GPa) = 26.00503 30.70733 28.35618
#
# Velocity S-wave (km/s) = 3.69073 4.01056 3.85396
# Velocity P-wave (km/s) = 6.34578 7.24358 6.80949
#
# Compressibility (1/GPa) = 0.02369399
#
# Stress axis : x y z
#
# Youngs Moduli (GPa) = 32.41680 75.49340 114.73508
#
# Poissons Ratio (x) = 0.65967 0.28686
# Poissons Ratio (y) = 0.28326 0.38089
# Poissons Ratio (z) = 0.08105 0.25062
#
# Static dielectric constant tensor:
#      x y z
#    x 3.899460 0.000000 0.000000 
#    y 0.000000 3.744930 0.000000 
#    z 0.000000 0.000000 4.091090 
# 
# 
# High freq. dielectric constant tensor:
#      x y z
#    x 1.706660 0.000000 0.000000 
#    y 0.000000 1.743420 0.000000 
#    z 0.000000 0.000000 1.766390 
# 
# From -- ./inp_files/5045.got.cif
#   From: 2010.06.25/outbox.cif.g09.slc.cpg/sg52_3_cif.got.tgz:5045.got - 2010.06.26 19:32:48.
