data_PCOD8215664
_publ_section_title
;
Structure prediction by ZEFSAII (Michael W. Deem and Ramdas Pophale) SiO2 
 PCOD8215664
Probable space group: P N N A
;
_chemical_formula_sum "Si O2"
_cell_formula_units_Z 40
_cell_length_a 7.730913
_cell_length_b 7.983349
_cell_length_c 31.122006
_cell_angle_alpha 90.000000
_cell_angle_beta 90.000000
_cell_angle_gamma 90.000000
_cell_volume 1920.805910
_symmetry_space_group_name_H-M "P N N A"
_symmetry_group_IT_number 52
_symmetry_cell_setting 'orthorhombic'
loop_
_space_group_symop_operation_xyz
x,y,z
1/2-x,-y,z
x,1/2-y,1/2-z
1/2-x,1/2+y,1/2-z
-x,-y,-z
1/2+x,y,-z
-x,1/2+y,1/2+z
1/2+x,1/2-y,1/2+z
loop_
_atom_site_type_symbol
_atom_site_label
_atom_site_fract_x
_atom_site_fract_y
_atom_site_fract_z
Si Si1 0.936392 0.197275 0.796980
Si Si2 0.757257 0.804499 0.146273
Si Si3 0.947472 0.698844 0.702675
Si Si4 0.119294 0.372844 0.475367
Si Si5 0.698462 0.692775 0.053184
O O1 0.000054 0.250000 0.750000
O O2 0.744840 0.273029 0.806318
O O3 0.072764 0.273419 0.831068
O O4 0.935008 0.999082 0.800504
O O5 0.582750 0.726900 0.167559
O O6 0.778013 0.771181 0.095934
O O7 0.750000 0.000000 0.155143
O O8 0.012248 0.750000 0.750000
O O9 0.250000 0.500000 0.448900
O O10 0.223786 0.266282 0.509974
O O11 0.000000 0.500000 0.500000
O O12 0.007756 0.242063 0.446455
O O13 0.750000 0.500000 0.053646
#
# Coordination Sequence:
#
# PCOD8215664 Si02
#       5
#     8   8   8   8   8
#     4   9  18  33  53  77 107 150 189 240 291 345
#     4  10  20  35  53  80 113 152 194 236 288 357
#     4   9  18  33  52  77 108 145 195 237 287 349
#     4   9  19  39  63  83 108 155 192 226 287 364
#     4  11  22  38  59  89 120 146 191 248 300 348
#
# _framework density 20.824591999999999
#
# number of rings (size 3 to 8) (size 9 to 14) (size 15 to 20)
#    0.000    2.400    0.000    3.000    0.000    1.600 
#   14.400    0.000    0.000    0.000    0.000    0.000 
#    0.000    0.000    0.000    0.000    0.000    0.000 
#
# Total GULP energy -495538.354244 kJ/mol
# GULP energy per Si atom -12388.458856 kJ/mol
# Density = 2.077719 g / cm^3
# Si number density = 20.824592 Si / 1000 Ang^3
#
#
#
# Elastic Constant Matrix: (Units=GPa)
#
#
# Indices 1 2 3 4 5 6 
#
# 1 131.8909 37.2535 50.9831 0.0000 0.0000 0.0000
# 2 37.2535 32.7485 -1.1607 0.0000 0.0000 0.0000
# 3 50.9831 -1.1607 91.8300 0.0000 0.0000 0.0000
# 4 0.0000 0.0000 0.0000 25.6111 0.0000 0.0000
# 5 0.0000 0.0000 0.0000 0.0000 26.7387 0.0000
# 6 0.0000 0.0000 0.0000 0.0000 0.0000 27.6437
#
#
#
# Elastic Compliance Matrix: (Units=1/GPa)
#
#
# Indices 1 2 3 4 5 6 
#
# 1 0.016748 -0.019390 -0.009543 0.000000 0.000000 0.000000
# 2 -0.019390 0.052999 0.011435 0.000000 0.000000 0.000000
# 3 -0.009543 0.011435 0.016333 0.000000 0.000000 0.000000
# 4 0.000000 0.000000 0.000000 0.039046 0.000000 0.000000
# 5 0.000000 0.000000 0.000000 0.000000 0.037399 0.000000
# 6 0.000000 0.000000 0.000000 0.000000 0.000000 0.036175
#
#
# Mechanical properties :
#
#
# Convention : Reuss Voigt Hill
#
# Bulk Modulus (GPa) = 19.57625 47.84680 33.71153
# Shear Modulus (GPa) = 19.94236 27.29158 23.61697
#
# Velocity S-wave (km/s) = 3.09793 3.62407 3.37128
# Velocity P-wave (km/s) = 4.71351 6.36693 5.60156
#
# Compressibility (1/GPa) = 0.05108230
#
# Stress axis : x y z
#
# Youngs Moduli (GPa) = 59.70887 18.86845 61.22718
#
# Poissons Ratio (x) = 0.36586 0.58431
# Poissons Ratio (y) = 1.15776 -0.70014
# Poissons Ratio (z) = 0.56982 -0.21576
#
# Static dielectric constant tensor:
#      x y z
#    x 5.012600 0.000000 0.000000 
#    y 0.000000 3.688180 0.000000 
#    z 0.000000 0.000000 3.463190 
# 
# 
# High freq. dielectric constant tensor:
#      x y z
#    x 1.833410 0.000000 0.000000 
#    y 0.000000 1.799000 0.000000 
#    z 0.000000 0.000000 1.793250 
# 
# From -- ./inp_files/42120.got.cif
#   From: 2010.06.25/outbox.cif.g09.slc.cpg/sg52_22_cif.got.tgz:42120.got - 2010.06.26 19:32:48.
