data_PCOD8215573
_publ_section_title
;
Structure prediction by ZEFSAII (Michael W. Deem and Ramdas Pophale) SiO2 
 PCOD8215573
Probable space group: P N N A
;
_chemical_formula_sum "Si O2"
_cell_formula_units_Z 60
_cell_length_a 9.279271
_cell_length_b 14.402153
_cell_length_c 24.021477
_cell_angle_alpha 90.000000
_cell_angle_beta 90.000000
_cell_angle_gamma 90.000000
_cell_volume 3210.265754
_symmetry_space_group_name_H-M "P N N A"
_symmetry_group_IT_number 52
_symmetry_cell_setting 'orthorhombic'
loop_
_space_group_symop_operation_xyz
x,y,z
1/2-x,-y,z
x,1/2-y,1/2-z
1/2-x,1/2+y,1/2-z
-x,-y,-z
1/2+x,y,-z
-x,1/2+y,1/2+z
1/2+x,1/2-y,1/2+z
loop_
_atom_site_type_symbol
_atom_site_label
_atom_site_fract_x
_atom_site_fract_y
_atom_site_fract_z
Si Si1 0.999967 0.067270 0.425929
Si Si2 0.729398 0.841246 0.275362
Si Si3 0.309132 0.260283 0.315073
Si Si4 0.860333 0.428923 0.335612
Si Si5 0.750000 0.500000 0.997879
Si Si6 0.901371 0.045015 0.790414
Si Si7 0.493960 0.911387 0.669797
Si Si8 0.990658 0.240342 0.353573
O O1 0.859692 0.057625 0.464182
O O2 0.983964 0.171323 0.404884
O O3 0.149855 0.065604 0.459792
O O4 0.008748 0.988784 0.377754
O O5 0.809039 0.750000 0.250000
O O6 0.708023 0.913597 0.225660
O O7 0.573184 0.812092 0.299381
O O8 0.826634 0.879811 0.326271
O O9 0.281231 0.250000 0.250000
O O10 0.395440 0.356334 0.322249
O O11 0.399174 0.175243 0.342197
O O12 0.155166 0.268374 0.344188
O O13 0.750000 0.500000 0.367187
O O14 0.890701 0.331044 0.366598
O O15 0.013298 0.478562 0.331626
O O16 0.975523 0.047824 0.730373
O O17 0.750000 0.000000 0.778424
#
# Coordination Sequence:
#
# PCOD8215573 Si02
#       8
#     8   8   8   8   4   8   8   8
#     4  11  23  40  62  82 109 134 183 236 297 352
#     4  10  20  32  48  75 117 159 195 219 249 300
#     4  10  21  32  48  77 117 154 197 223 254 306
#     4  11  21  34  50  75 117 160 190 224 259 300
#     4  10  24  44  60  82 106 132 170 246 318 352
#     4  11  21  33  50  76 119 164 191 222 253 298
#     4  11  22  33  54  81 110 155 191 225 268 331
#     4  11  22  34  54  81 106 148 193 229 266 337
#
# _framework density 18.690042999999999
#
# number of rings (size 3 to 8) (size 9 to 14) (size 15 to 20)
#    0.000    1.333    2.667    4.800    8.400    0.000 
#    0.000    0.000    0.000    0.000    0.000    0.933 
#    0.000    0.000    0.000    0.000    0.000    0.000 
#
# Total GULP energy -743687.810958 kJ/mol
# GULP energy per Si atom -12394.796849 kJ/mol
# Density = 1.864750 g / cm^3
# Si number density = 18.690043 Si / 1000 Ang^3
#
#
#
# Elastic Constant Matrix: (Units=GPa)
#
#
# Indices 1 2 3 4 5 6 
#
# 1 104.6447 49.1528 36.0290 0.0000 0.0000 0.0000
# 2 49.1528 140.2940 50.0464 0.0000 0.0000 0.0000
# 3 36.0290 50.0464 62.6128 0.0000 0.0000 0.0000
# 4 0.0000 0.0000 0.0000 14.5390 0.0000 0.0000
# 5 0.0000 0.0000 0.0000 0.0000 12.5883 0.0000
# 6 0.0000 0.0000 0.0000 0.0000 0.0000 22.4694
#
#
#
# Elastic Compliance Matrix: (Units=1/GPa)
#
#
# Indices 1 2 3 4 5 6 
#
# 1 0.012534 -0.002544 -0.005179 0.000000 0.000000 0.000000
# 2 -0.002544 0.010487 -0.006919 0.000000 0.000000 0.000000
# 3 -0.005179 -0.006919 0.024481 0.000000 0.000000 0.000000
# 4 0.000000 0.000000 0.000000 0.068781 0.000000 0.000000
# 5 0.000000 0.000000 0.000000 0.000000 0.079439 0.000000
# 6 0.000000 0.000000 0.000000 0.000000 0.000000 0.044505
#
#
# Mechanical properties :
#
#
# Convention : Reuss Voigt Hill
#
# Bulk Modulus (GPa) = 54.88614 64.22309 59.55461
# Shear Modulus (GPa) = 18.14328 21.40754 19.77541
#
# Velocity S-wave (km/s) = 3.11906 3.38804 3.25633
# Velocity P-wave (km/s) = 6.51165 7.05280 6.78762
#
# Compressibility (1/GPa) = 0.01821954
#
# Stress axis : x y z
#
# Youngs Moduli (GPa) = 79.78155 95.35431 40.84723
#
# Poissons Ratio (x) = 0.24257 0.21155
# Poissons Ratio (y) = 0.20296 0.28261
# Poissons Ratio (z) = 0.41320 0.65972
#
# Static dielectric constant tensor:
#      x y z
#    x 3.682080 0.000000 0.000000 
#    y 0.000000 3.830210 0.000000 
#    z 0.000000 0.000000 3.026900 
# 
# 
# High freq. dielectric constant tensor:
#      x y z
#    x 1.750430 0.000000 0.000000 
#    y 0.000000 1.741130 0.000000 
#    z 0.000000 0.000000 1.656610 
# 
# From -- ./inp_files/39628.got.cif
#   From: 2010.06.25/outbox.cif.g09.slc.cpg/sg52_20_cif.got.tgz:39628.got - 2010.06.26 19:32:48.
