data_PCOD8215011
_publ_section_title
;
Structure prediction by ZEFSAII (Michael W. Deem and Ramdas Pophale) SiO2 
 PCOD8215011
Probable space group: P N N A
;
_chemical_formula_sum "Si O2"
_cell_formula_units_Z 32
_cell_length_a 9.008523
_cell_length_b 10.694776
_cell_length_c 15.294729
_cell_angle_alpha 90.000000
_cell_angle_beta 90.000000
_cell_angle_gamma 90.000000
_cell_volume 1473.557444
_symmetry_space_group_name_H-M "P N N A"
_symmetry_group_IT_number 52
_symmetry_cell_setting 'orthorhombic'
loop_
_space_group_symop_operation_xyz
x,y,z
1/2-x,-y,z
x,1/2-y,1/2-z
1/2-x,1/2+y,1/2-z
-x,-y,-z
1/2+x,y,-z
-x,1/2+y,1/2+z
1/2+x,1/2-y,1/2+z
loop_
_atom_site_type_symbol
_atom_site_label
_atom_site_fract_x
_atom_site_fract_y
_atom_site_fract_z
Si Si1 0.560866 0.818246 0.883808
Si Si2 0.259883 0.859027 0.964303
Si Si3 0.466794 0.916057 0.705631
Si Si4 0.139108 0.825079 0.671929
O O1 0.430392 0.819802 0.956252
O O2 0.526462 0.916883 0.805709
O O3 0.574285 0.676340 0.848368
O O4 0.711977 0.855327 0.933673
O O5 0.152703 0.761289 0.913476
O O6 0.250000 0.000000 0.926819
O O7 0.301210 0.861863 0.707716
O O8 0.463376 0.051623 0.658431
O O9 0.059729 0.750000 0.750000
#
# Coordination Sequence:
#
# PCOD8215011 Si02
#       4
#     8   8   8   8
#     4  10  20  36  59  82 117 151 197 246 297 350
#     4  11  21  34  56  89 113 147 192 251 293 348
#     4   9  18  35  58  80 110 163 200 234 295 367
#     4  10  17  31  58  83 108 146 209 242 276 357
#
# _framework density 21.716156000000002
#
# number of rings (size 3 to 8) (size 9 to 14) (size 15 to 20)
#    0.000    2.000    5.000    2.250    0.000    1.000 
#    0.000    0.000   16.500    0.000    0.000    0.000 
#    0.000    0.000    0.000    0.000    0.000    0.000 
#
# Total GULP energy -396572.910104 kJ/mol
# GULP energy per Si atom -12392.903441 kJ/mol
# Density = 2.166673 g / cm^3
# Si number density = 21.716156 Si / 1000 Ang^3
#
#
#
# Elastic Constant Matrix: (Units=GPa)
#
#
# Indices 1 2 3 4 5 6 
#
# 1 36.0247 6.7814 37.4411 0.0000 0.0000 0.0000
# 2 6.7814 160.8547 39.6452 0.0000 0.0000 0.0000
# 3 37.4411 39.6452 105.9905 0.0000 0.0000 0.0000
# 4 0.0000 0.0000 0.0000 27.8448 0.0000 0.0000
# 5 0.0000 0.0000 0.0000 0.0000 32.5804 0.0000
# 6 0.0000 0.0000 0.0000 0.0000 0.0000 9.3341
#
#
#
# Elastic Compliance Matrix: (Units=1/GPa)
#
#
# Indices 1 2 3 4 5 6 
#
# 1 0.044561 0.002204 -0.016565 0.000000 0.000000 0.000000
# 2 0.002204 0.006957 -0.003381 0.000000 0.000000 0.000000
# 3 -0.016565 -0.003381 0.016551 0.000000 0.000000 0.000000
# 4 0.000000 0.000000 0.000000 0.035913 0.000000 0.000000
# 5 0.000000 0.000000 0.000000 0.000000 0.030693 0.000000
# 6 0.000000 0.000000 0.000000 0.000000 0.000000 0.107134
#
#
# Mechanical properties :
#
#
# Convention : Reuss Voigt Hill
#
# Bulk Modulus (GPa) = 30.68941 52.28948 41.48945
# Shear Modulus (GPa) = 17.35177 28.55202 22.95189
#
# Velocity S-wave (km/s) = 2.82977 3.62993 3.25453
# Velocity P-wave (km/s) = 4.98393 6.45751 5.76797
#
# Compressibility (1/GPa) = 0.03258453
#
# Stress axis : x y z
#
# Youngs Moduli (GPa) = 22.44135 143.73713 60.41865
#
# Poissons Ratio (x) = -0.31683 1.00087
# Poissons Ratio (y) = -0.04947 0.20427
# Poissons Ratio (z) = 0.37175 0.48596
#
# Static dielectric constant tensor:
#      x y z
#    x 3.339340 0.000000 0.000000 
#    y 0.000000 4.287370 0.000000 
#    z 0.000000 0.000000 3.729820 
# 
# 
# High freq. dielectric constant tensor:
#      x y z
#    x 1.801180 0.000000 0.000000 
#    y 0.000000 1.864040 0.000000 
#    z 0.000000 0.000000 1.842760 
# 
# From -- ./inp_files/24065.got.cif
#   From: 2010.06.25/outbox.cif.g09.slc.cpg/sg52_13_cif.got.tgz:24065.got - 2010.06.26 19:32:48.
