data_PCOD8215109
_publ_section_title
;
Structure prediction by ZEFSAII (Michael W. Deem and Ramdas Pophale) SiO2 
 PCOD8215109
Probable space group: P N N A
;
_chemical_formula_sum "Si O2"
_cell_formula_units_Z 32
_cell_length_a 5.295328
_cell_length_b 36.800033
_cell_length_c 8.149900
_cell_angle_alpha 90.000000
_cell_angle_beta 90.000000
_cell_angle_gamma 90.000000
_cell_volume 1588.156711
_symmetry_space_group_name_H-M "P N N A"
_symmetry_group_IT_number 52
_symmetry_cell_setting 'orthorhombic'
loop_
_space_group_symop_operation_xyz
x,y,z
1/2-x,-y,z
x,1/2-y,1/2-z
1/2-x,1/2+y,1/2-z
-x,-y,-z
1/2+x,y,-z
-x,1/2+y,1/2+z
1/2+x,1/2-y,1/2+z
loop_
_atom_site_type_symbol
_atom_site_label
_atom_site_fract_x
_atom_site_fract_y
_atom_site_fract_z
Si Si1 0.257159 0.572185 0.192866
Si Si2 0.271202 0.359351 0.396379
Si Si3 0.744391 0.223213 0.898460
Si Si4 0.742830 0.457939 0.166795
O O1 0.250341 0.614677 0.238063
O O2 0.508714 0.553392 0.269869
O O3 0.010552 0.551740 0.268124
O O4 0.263384 0.566640 0.997255
O O5 0.537968 0.367303 0.482963
O O6 0.261092 0.318036 0.332495
O O7 0.790453 0.250000 0.750000
O O8 0.467882 0.230614 0.972285
O O9 0.750000 0.500000 0.116898
#
# Coordination Sequence:
#
# PCOD8215109 Si02
#       4
#     8   8   8   8
#     4  10  18  32  52  78 100 136 183 212 273 326
#     4  10  21  37  56  76 112 149 178 220 277 330
#     4  10  21  40  61  88 118 159 195 237 294 349
#     4  10  19  33  55  76 106 137 173 237 287 313
#
# _framework density 20.149144
#
# number of rings (size 3 to 8) (size 9 to 14) (size 15 to 20)
#    0.000    2.000    0.000    6.000    0.000    0.000 
#    9.000    0.000    0.000   25.500    0.000    0.000 
#    0.000    0.000    0.000    0.000    0.000    0.000 
#
# Total GULP energy -396600.241129 kJ/mol
# GULP energy per Si atom -12393.757535 kJ/mol
# Density = 2.010328 g / cm^3
# Si number density = 20.149144 Si / 1000 Ang^3
#
#
#
# Elastic Constant Matrix: (Units=GPa)
#
#
# Indices 1 2 3 4 5 6 
#
# 1 178.9739 33.9270 2.9342 0.0000 0.0000 0.0000
# 2 33.9270 147.9922 59.9608 0.0000 0.0000 0.0000
# 3 2.9342 59.9608 38.2309 0.0000 0.0000 0.0000
# 4 0.0000 0.0000 0.0000 28.9224 0.0000 0.0000
# 5 0.0000 0.0000 0.0000 0.0000 11.2626 0.0000
# 6 0.0000 0.0000 0.0000 0.0000 0.0000 27.3372
#
#
#
# Elastic Compliance Matrix: (Units=1/GPa)
#
#
# Indices 1 2 3 4 5 6 
#
# 1 0.006142 -0.003339 0.004765 0.000000 0.000000 0.000000
# 2 -0.003339 0.020350 -0.031661 0.000000 0.000000 0.000000
# 3 0.004765 -0.031661 0.075447 0.000000 0.000000 0.000000
# 4 0.000000 0.000000 0.000000 0.034575 0.000000 0.000000
# 5 0.000000 0.000000 0.000000 0.000000 0.088789 0.000000
# 6 0.000000 0.000000 0.000000 0.000000 0.000000 0.036580
#
#
# Mechanical properties :
#
#
# Convention : Reuss Voigt Hill
#
# Bulk Modulus (GPa) = 24.11340 62.09346 43.10343
# Shear Modulus (GPa) = 14.87309 31.39608 23.13458
#
# Velocity S-wave (km/s) = 2.71984 3.95167 3.39214
# Velocity P-wave (km/s) = 4.67513 7.19060 6.06471
#
# Compressibility (1/GPa) = 0.04147072
#
# Stress axis : x y z
#
# Youngs Moduli (GPa) = 162.80885 49.13944 13.25425
#
# Poissons Ratio (x) = 0.16406 -0.06315
# Poissons Ratio (y) = 0.54356 0.41964
# Poissons Ratio (z) = -0.77575 1.55579
#
# Static dielectric constant tensor:
#      x y z
#    x 5.528100 0.000000 0.000000 
#    y 0.000000 3.704220 0.000000 
#    z 0.000000 0.000000 2.977830 
# 
# 
# High freq. dielectric constant tensor:
#      x y z
#    x 1.834460 0.000000 0.000000 
#    y 0.000000 1.788770 0.000000 
#    z 0.000000 0.000000 1.726970 
# 
# From -- ./inp_files/6704.got.cif
#   From: 2010.06.25/outbox.cif.g09.slc.cpg/sg52_4_cif.got.tgz:6704.got - 2010.06.26 19:32:48.
