data_PCOD8215944
_publ_section_title
;
Structure prediction by ZEFSAII (Michael W. Deem and Ramdas Pophale) SiO2 
 PCOD8215944
Probable space group: P N N A
;
_chemical_formula_sum "Si O2"
_cell_formula_units_Z 48
_cell_length_a 15.608786
_cell_length_b 9.172440
_cell_length_c 15.691670
_cell_angle_alpha 90.000000
_cell_angle_beta 90.000000
_cell_angle_gamma 90.000000
_cell_volume 2246.586641
_symmetry_space_group_name_H-M "P N N A"
_symmetry_group_IT_number 52
_symmetry_cell_setting 'orthorhombic'
loop_
_space_group_symop_operation_xyz
x,y,z
1/2-x,-y,z
x,1/2-y,1/2-z
1/2-x,1/2+y,1/2-z
-x,-y,-z
1/2+x,y,-z
-x,1/2+y,1/2+z
1/2+x,1/2-y,1/2+z
loop_
_atom_site_type_symbol
_atom_site_label
_atom_site_fract_x
_atom_site_fract_y
_atom_site_fract_z
Si Si1 0.432176 0.729069 0.947762
Si Si2 0.984958 0.517118 0.194260
Si Si3 0.668317 0.588078 0.781108
Si Si4 0.557779 0.745378 0.414911
Si Si5 0.339499 0.037278 0.479220
Si Si6 0.149011 0.470430 0.663489
O O1 0.490114 0.640314 0.879671
O O2 0.364129 0.836523 0.902509
O O3 0.490216 0.817459 0.015501
O O4 0.394086 0.608270 0.010777
O O5 0.980318 0.354095 0.156773
O O6 0.900302 0.561765 0.248091
O O7 0.074148 0.527384 0.248483
O O8 0.750000 0.500000 0.742800
O O9 0.680955 0.750000 0.750000
O O10 0.670581 0.582611 0.882228
O O11 0.629278 0.827619 0.467348
O O12 0.602106 0.612448 0.369386
O O13 0.250000 0.000000 0.522152
O O14 0.250000 0.500000 0.678740
#
# Coordination Sequence:
#
# PCOD8215944 Si02
#       6
#     8   8   8   8   8   8
#     4  11  21  43  67  93 128 177 225 268 336 407
#     4  11  23  44  70  92 134 178 223 272 333 411
#     4  11  23  42  64  95 129 173 228 279 340 403
#     4  11  22  42  65  96 130 172 224 272 339 400
#     4  10  20  39  67  90 123 170 224 269 330 410
#     4  12  27  41  64 104 139 172 222 288 347 389
#
# _framework density 21.365743999999999
#
# number of rings (size 3 to 8) (size 9 to 14) (size 15 to 20)
#    0.000    1.000    3.333    4.500    0.000    6.667 
#    0.000    0.833    0.000    0.000    0.000    0.000 
#    0.000    0.000    0.000    0.000    0.000    0.000 
#
# Total GULP energy -594863.423963 kJ/mol
# GULP energy per Si atom -12392.987999 kJ/mol
# Density = 2.131712 g / cm^3
# Si number density = 21.365744 Si / 1000 Ang^3
#
#
#
# Elastic Constant Matrix: (Units=GPa)
#
#
# Indices 1 2 3 4 5 6 
#
# 1 140.8752 25.3211 31.8353 0.0000 0.0000 0.0000
# 2 25.3211 105.0332 28.0713 0.0000 0.0000 0.0000
# 3 31.8353 28.0713 73.4131 0.0000 0.0000 0.0000
# 4 0.0000 0.0000 0.0000 35.3563 0.0000 0.0000
# 5 0.0000 0.0000 0.0000 0.0000 36.1692 0.0000
# 6 0.0000 0.0000 0.0000 0.0000 0.0000 23.7600
#
#
#
# Elastic Compliance Matrix: (Units=1/GPa)
#
#
# Indices 1 2 3 4 5 6 
#
# 1 0.007985 -0.001113 -0.003037 0.000000 0.000000 0.000000
# 2 -0.001113 0.010760 -0.003631 0.000000 0.000000 0.000000
# 3 -0.003037 -0.003631 0.016327 0.000000 0.000000 0.000000
# 4 0.000000 0.000000 0.000000 0.028283 0.000000 0.000000
# 5 0.000000 0.000000 0.000000 0.000000 0.027648 0.000000
# 6 0.000000 0.000000 0.000000 0.000000 0.000000 0.042088
#
#
# Mechanical properties :
#
#
# Convention : Reuss Voigt Hill
#
# Bulk Modulus (GPa) = 51.26022 54.41966 52.83994
# Shear Modulus (GPa) = 32.22549 34.66335 33.44442
#
# Velocity S-wave (km/s) = 3.88787 4.03225 3.96072
# Velocity P-wave (km/s) = 6.64815 6.87055 6.76027
#
# Compressibility (1/GPa) = 0.01950830
#
# Stress axis : x y z
#
# Youngs Moduli (GPa) = 125.23668 92.93904 61.24803
#
# Poissons Ratio (x) = 0.10347 0.18600
# Poissons Ratio (y) = 0.13943 0.22242
# Poissons Ratio (z) = 0.38033 0.33750
#
# Static dielectric constant tensor:
#      x y z
#    x 3.280290 0.000000 0.000000 
#    y 0.000000 3.809630 0.000000 
#    z 0.000000 0.000000 3.954740 
# 
# 
# High freq. dielectric constant tensor:
#      x y z
#    x 1.851400 0.000000 0.000000 
#    y 0.000000 1.836450 0.000000 
#    z 0.000000 0.000000 1.835000 
# 
# From -- ./inp_files/28060.got.cif
#   From: 2010.06.25/outbox.cif.g09.slc.cpg/sg52_15_cif.got.tgz:28060.got - 2010.06.26 19:32:48.
