data_PCOD8215413
_publ_section_title
;
Structure prediction by ZEFSAII (Michael W. Deem and Ramdas Pophale) SiO2 
 PCOD8215413
Probable space group: P N N A
;
_chemical_formula_sum "Si O2"
_cell_formula_units_Z 56
_cell_length_a 16.394261
_cell_length_b 11.442712
_cell_length_c 14.446976
_cell_angle_alpha 90.000000
_cell_angle_beta 90.000000
_cell_angle_gamma 90.000000
_cell_volume 2710.177676
_symmetry_space_group_name_H-M "P N N A"
_symmetry_group_IT_number 52
_symmetry_cell_setting 'orthorhombic'
loop_
_space_group_symop_operation_xyz
x,y,z
1/2-x,-y,z
x,1/2-y,1/2-z
1/2-x,1/2+y,1/2-z
-x,-y,-z
1/2+x,y,-z
-x,1/2+y,1/2+z
1/2+x,1/2-y,1/2+z
loop_
_atom_site_type_symbol
_atom_site_label
_atom_site_fract_x
_atom_site_fract_y
_atom_site_fract_z
Si Si1 0.408134 0.874898 0.561201
Si Si2 0.656469 0.468902 0.248415
Si Si3 0.003965 0.885343 0.747730
Si Si4 0.903555 0.881433 0.060097
Si Si5 0.695841 0.618451 0.750912
Si Si6 0.576732 0.961448 0.897637
Si Si7 0.579137 0.962459 0.597282
O O1 0.370550 0.888688 0.662980
O O2 0.380304 0.747906 0.524349
O O3 0.376945 0.975876 0.490861
O O4 0.506907 0.877217 0.564695
O O5 0.750000 0.500000 0.236360
O O6 0.600054 0.584327 0.248630
O O7 0.643227 0.400560 0.343868
O O8 0.992485 0.750000 0.750000
O O9 0.960480 0.934093 0.656993
O O10 0.959106 0.933285 0.837650
O O11 0.001598 0.881097 0.071460
O O12 0.877284 0.980145 0.985626
O O13 0.750000 0.500000 0.746444
O O14 0.738396 0.750000 0.750000
O O15 0.638826 0.617574 0.660488
O O16 0.644454 0.612036 0.845442
#
# Coordination Sequence:
#
# PCOD8215413 Si02
#       7
#     8   8   8   8   8   8   8
#     4  10  19  35  60  83 108 148 194 240 287 337
#     4  10  22  35  48  77 115 152 195 235 283 342
#     4   9  17  32  54  77 107 145 189 248 303 346
#     4  10  19  35  60  83 108 148 194 240 287 337
#     4  11  24  41  61  88 123 159 191 233 293 358
#     4   9  20  36  57  86 112 141 190 242 290 346
#     4   9  20  36  57  86 112 141 190 242 290 346
#
# _framework density 20.662852000000001
#
# number of rings (size 3 to 8) (size 9 to 14) (size 15 to 20)
#    0.000    2.286    0.000    3.000    0.000    5.714 
#    0.000    1.429    0.000    0.000    0.000    0.000 
#    0.000    0.000    0.000    0.000    0.000    0.000 
#
# Total GULP energy -694095.318162 kJ/mol
# GULP energy per Si atom -12394.559253 kJ/mol
# Density = 2.061582 g / cm^3
# Si number density = 20.662852 Si / 1000 Ang^3
#
#
#
# Elastic Constant Matrix: (Units=GPa)
#
#
# Indices 1 2 3 4 5 6 
#
# 1 47.3144 11.3505 1.4792 0.0000 0.0000 0.0000
# 2 11.3505 116.2732 10.5030 0.0000 0.0000 0.0000
# 3 1.4792 10.5030 102.4477 0.0000 0.0000 0.0000
# 4 0.0000 0.0000 0.0000 15.4500 0.0000 0.0000
# 5 0.0000 0.0000 0.0000 0.0000 13.4311 0.0000
# 6 0.0000 0.0000 0.0000 0.0000 0.0000 17.2698
#
#
#
# Elastic Compliance Matrix: (Units=1/GPa)
#
#
# Indices 1 2 3 4 5 6 
#
# 1 0.021643 -0.002104 -0.000097 0.000000 0.000000 0.000000
# 2 -0.002104 0.008885 -0.000881 0.000000 0.000000 0.000000
# 3 -0.000097 -0.000881 0.009853 0.000000 0.000000 0.000000
# 4 0.000000 0.000000 0.000000 0.064725 0.000000 0.000000
# 5 0.000000 0.000000 0.000000 0.000000 0.074454 0.000000
# 6 0.000000 0.000000 0.000000 0.000000 0.000000 0.057905
#
#
# Mechanical properties :
#
#
# Convention : Reuss Voigt Hill
#
# Bulk Modulus (GPa) = 29.22407 34.74453 31.98430
# Shear Modulus (GPa) = 19.60526 25.41035 22.50780
#
# Velocity S-wave (km/s) = 3.08363 3.51060 3.30402
# Velocity P-wave (km/s) = 5.18192 5.76922 5.48344
#
# Compressibility (1/GPa) = 0.03421837
#
# Stress axis : x y z
#
# Youngs Moduli (GPa) = 46.20431 112.54459 101.49454
#
# Poissons Ratio (x) = 0.23680 0.00982
# Poissons Ratio (y) = 0.09722 0.08937
# Poissons Ratio (z) = 0.00447 0.09910
#
# Static dielectric constant tensor:
#      x y z
#    x 3.483420 0.000000 0.000000 
#    y 0.000000 3.587910 0.000000 
#    z 0.000000 0.000000 4.207200 
# 
# 
# High freq. dielectric constant tensor:
#      x y z
#    x 1.774790 0.000000 0.000000 
#    y 0.000000 1.805570 0.000000 
#    z 0.000000 0.000000 1.821950 
# 
# From -- ./inp_files/27255.got.cif
#   From: 2010.06.25/outbox.cif.g09.slc.cpg/sg52_14_cif.got.tgz:27255.got - 2010.06.26 19:32:48.
