data_PCOD8215001
_publ_section_title
;
Structure prediction by ZEFSAII (Michael W. Deem and Ramdas Pophale) SiO2 
 PCOD8215001
Probable space group: P N N A
;
_chemical_formula_sum "Si O2"
_cell_formula_units_Z 64
_cell_length_a 16.346157
_cell_length_b 16.788006
_cell_length_c 12.107803
_cell_angle_alpha 90.000000
_cell_angle_beta 90.000000
_cell_angle_gamma 90.000000
_cell_volume 3322.615814
_symmetry_space_group_name_H-M "P N N A"
_symmetry_group_IT_number 52
_symmetry_cell_setting 'orthorhombic'
loop_
_space_group_symop_operation_xyz
x,y,z
1/2-x,-y,z
x,1/2-y,1/2-z
1/2-x,1/2+y,1/2-z
-x,-y,-z
1/2+x,y,-z
-x,1/2+y,1/2+z
1/2+x,1/2-y,1/2+z
loop_
_atom_site_type_symbol
_atom_site_label
_atom_site_fract_x
_atom_site_fract_y
_atom_site_fract_z
Si Si1 0.913423 0.342164 0.224948
Si Si2 0.812127 0.367786 0.433801
Si Si3 0.999771 0.780408 0.129068
Si Si4 0.366947 0.304465 0.007829
Si Si5 0.648168 0.187678 0.996163
Si Si6 0.434613 0.453332 0.425128
Si Si7 0.725182 0.312923 0.843534
Si Si8 0.588594 0.402592 0.711635
O O1 0.929368 0.250000 0.250000
O O2 0.845349 0.376783 0.308782
O O3 0.876826 0.357239 0.102711
O O4 0.001295 0.384376 0.233288
O O5 0.829126 0.280773 0.480692
O O6 0.714313 0.373582 0.450450
O O7 0.853223 0.438180 0.503536
O O8 0.012479 0.750000 0.250000
O O9 0.033727 0.869103 0.116617
O O10 0.043207 0.713987 0.053471
O O11 0.905064 0.782413 0.098357
O O12 0.308050 0.348260 0.099103
O O13 0.679070 0.268366 0.941075
O O14 0.592986 0.142712 0.905523
O O15 0.500000 0.500000 0.500000
O O16 0.409201 0.503711 0.316601
O O17 0.752702 0.250000 0.750000
O O18 0.665328 0.379777 0.790622
#
# Coordination Sequence:
#
# PCOD8215001 Si02
#       8
#     8   8   8   8   8   8   8   8
#     4  10  17  30  54  82 113 157 196 237 294 365
#     4   9  19  32  52  86 119 148 193 249 305 351
#     4  11  22  36  56  82 116 157 196 246 310 364
#     4   9  18  33  53  79 116 151 198 249 294 351
#     4  10  19  33  52  85 118 152 196 252 297 364
#     4  11  20  38  59  87 122 151 193 251 309 373
#     4   9  18  31  53  84 118 149 197 253 299 355
#     4  11  19  33  58  86 118 155 200 242 306 365
#
# _framework density 19.261931000000001
#
# number of rings (size 3 to 8) (size 9 to 14) (size 15 to 20)
#    0.000    2.000    2.500    3.750    0.000    4.000 
#    0.000    0.000    0.000    3.000    0.000    8.750 
#    0.000    0.000    0.000    0.000    0.000    0.000 
#
# Total GULP energy -793147.953475 kJ/mol
# GULP energy per Si atom -12392.936773 kJ/mol
# Density = 1.921809 g / cm^3
# Si number density = 19.261931 Si / 1000 Ang^3
#
#
#
# Elastic Constant Matrix: (Units=GPa)
#
#
# Indices 1 2 3 4 5 6 
#
# 1 120.3830 31.8537 67.4703 0.0000 0.0000 0.0000
# 2 31.8537 60.6353 43.9652 0.0000 0.0000 0.0000
# 3 67.4703 43.9652 123.2471 0.0000 0.0000 0.0000
# 4 0.0000 0.0000 0.0000 29.4716 0.0000 0.0000
# 5 0.0000 0.0000 0.0000 0.0000 41.9955 0.0000
# 6 0.0000 0.0000 0.0000 0.0000 0.0000 15.1959
#
#
#
# Elastic Compliance Matrix: (Units=1/GPa)
#
#
# Indices 1 2 3 4 5 6 
#
# 1 0.012180 -0.002110 -0.005916 0.000000 0.000000 0.000000
# 2 -0.002110 0.022611 -0.006911 0.000000 0.000000 0.000000
# 3 -0.005916 -0.006911 0.013818 0.000000 0.000000 0.000000
# 4 0.000000 0.000000 0.000000 0.033931 0.000000 0.000000
# 5 0.000000 0.000000 0.000000 0.000000 0.023812 0.000000
# 6 0.000000 0.000000 0.000000 0.000000 0.000000 0.065807
#
#
# Mechanical properties :
#
#
# Convention : Reuss Voigt Hill
#
# Bulk Modulus (GPa) = 53.37071 65.64930 59.51000
# Shear Modulus (GPa) = 24.00638 28.06434 26.03536
#
# Velocity S-wave (km/s) = 3.53414 3.82119 3.68047
# Velocity P-wave (km/s) = 6.66495 7.32291 7.00167
#
# Compressibility (1/GPa) = 0.01873687
#
# Stress axis : x y z
#
# Youngs Moduli (GPa) = 82.09875 44.22551 72.37182
#
# Poissons Ratio (x) = 0.09330 0.42812
# Poissons Ratio (y) = 0.17319 0.50017
# Poissons Ratio (z) = 0.48566 0.30565
#
# Static dielectric constant tensor:
#      x y z
#    x 3.806430 0.000000 0.000000 
#    y 0.000000 3.217400 0.000000 
#    z 0.000000 0.000000 3.610740 
# 
# 
# High freq. dielectric constant tensor:
#      x y z
#    x 1.760390 0.000000 0.000000 
#    y 0.000000 1.706840 0.000000 
#    z 0.000000 0.000000 1.746780 
# 
# From -- ./inp_files/19865.got.cif
#   From: 2010.06.25/outbox.cif.g09.slc.cpg/sg52_10_cif.got.tgz:19865.got - 2010.06.26 19:32:48.
