data_PCOD8215597
_publ_section_title
;
Structure prediction by ZEFSAII (Michael W. Deem and Ramdas Pophale) SiO2 
 PCOD8215597
Probable space group: P N N A
;
_chemical_formula_sum "Si O2"
_cell_formula_units_Z 48
_cell_length_a 15.825002
_cell_length_b 18.042588
_cell_length_c 8.750520
_cell_angle_alpha 90.000000
_cell_angle_beta 90.000000
_cell_angle_gamma 90.000000
_cell_volume 2498.483395
_symmetry_space_group_name_H-M "P N N A"
_symmetry_group_IT_number 52
_symmetry_cell_setting 'orthorhombic'
loop_
_space_group_symop_operation_xyz
x,y,z
1/2-x,-y,z
x,1/2-y,1/2-z
1/2-x,1/2+y,1/2-z
-x,-y,-z
1/2+x,y,-z
-x,1/2+y,1/2+z
1/2+x,1/2-y,1/2+z
loop_
_atom_site_type_symbol
_atom_site_label
_atom_site_fract_x
_atom_site_fract_y
_atom_site_fract_z
Si Si1 0.988721 0.018066 0.176758
Si Si2 0.350343 0.750000 0.750000
Si Si3 0.164364 0.960897 0.629633
Si Si4 0.366663 0.250000 0.250000
Si Si5 0.399771 0.589225 0.087112
Si Si6 0.011681 0.140514 0.695509
Si Si7 0.755130 0.319450 0.989561
O O1 0.895659 0.048461 0.221323
O O2 0.059524 0.073882 0.246258
O O3 0.001365 0.942552 0.262129
O O4 0.000000 0.000000 0.000000
O O5 0.410726 0.820572 0.786153
O O6 0.291137 0.767612 0.609470
O O7 0.181658 0.878930 0.565464
O O8 0.250000 0.000000 0.686861
O O9 0.120274 0.011811 0.500138
O O10 0.425126 0.177935 0.251510
O O11 0.306686 0.258246 0.104195
O O12 0.313280 0.635210 0.112195
O O13 0.465292 0.639472 0.986164
#
# Coordination Sequence:
#
# PCOD8215597 Si02
#       7
#     8   4   8   4   8   8   8
#     4  11  21  33  55  83 107 133 169 225 274 307
#     4   9  20  36  54  71 104 144 174 207 254 320
#     4   9  18  36  58  76 101 139 181 217 258 315
#     4  11  20  32  54  79 104 134 176 221 254 308
#     4   9  18  36  56  73 102 142 180 212 256 321
#     4   9  19  37  54  72 101 144 179 202 254 326
#     4  10  20  33  53  80 105 140 177 216 263 306
#
# _framework density 19.211656000000001
#
# number of rings (size 3 to 8) (size 9 to 14) (size 15 to 20)
#    0.000    2.333    0.000    5.000    0.000    2.667 
#    0.000    4.167    0.000    5.000    0.000    0.000 
#    0.000    0.000    0.000    0.000    0.000    0.000 
#
# Total GULP energy -594747.022564 kJ/mol
# GULP energy per Si atom -12390.562970 kJ/mol
# Density = 1.916793 g / cm^3
# Si number density = 19.211656 Si / 1000 Ang^3
#
#
#
# Elastic Constant Matrix: (Units=GPa)
#
#
# Indices 1 2 3 4 5 6 
#
# 1 137.3620 40.7289 78.1720 0.0000 0.0000 0.0000
# 2 40.7289 69.2371 34.0974 0.0000 0.0000 0.0000
# 3 78.1720 34.0974 112.7090 0.0000 0.0000 0.0000
# 4 0.0000 0.0000 0.0000 21.8032 0.0000 0.0000
# 5 0.0000 0.0000 0.0000 0.0000 4.0703 0.0000
# 6 0.0000 0.0000 0.0000 0.0000 0.0000 23.4251
#
#
#
# Elastic Compliance Matrix: (Units=1/GPa)
#
#
# Indices 1 2 3 4 5 6 
#
# 1 0.012789 -0.003707 -0.007749 0.000000 0.000000 0.000000
# 2 -0.003707 0.018046 -0.002888 0.000000 0.000000 0.000000
# 3 -0.007749 -0.002888 0.015120 0.000000 0.000000 0.000000
# 4 0.000000 0.000000 0.000000 0.045865 0.000000 0.000000
# 5 0.000000 0.000000 0.000000 0.000000 0.245683 0.000000
# 6 0.000000 0.000000 0.000000 0.000000 0.000000 0.042689
#
#
# Mechanical properties :
#
#
# Convention : Reuss Voigt Hill
#
# Bulk Modulus (GPa) = 57.91198 69.47831 63.69514
# Shear Modulus (GPa) = 12.05875 20.94703 16.50289
#
# Velocity S-wave (km/s) = 2.50807 3.30560 2.93406
# Velocity P-wave (km/s) = 6.21264 7.12829 6.68615
#
# Compressibility (1/GPa) = 0.01726758
#
# Stress axis : x y z
#
# Youngs Moduli (GPa) = 78.19300 55.41315 66.13604
#
# Poissons Ratio (x) = 0.20542 0.51246
# Poissons Ratio (y) = 0.28987 0.19102
# Poissons Ratio (z) = 0.60588 0.16005
#
# Static dielectric constant tensor:
#      x y z
#    x 4.791060 0.000000 0.000000 
#    y 0.000000 3.648040 0.000000 
#    z 0.000000 0.000000 -66.113170 
# 
# 
# High freq. dielectric constant tensor:
#      x y z
#    x 1.768180 0.000000 0.000000 
#    y 0.000000 1.745630 0.000000 
#    z 0.000000 0.000000 1.709440 
# 
# From -- ./inp_files/12319.got.cif
#   From: 2010.06.25/outbox.cif.g09.slc.cpg/sg52_7_cif.got.tgz:12319.got - 2010.06.26 19:32:48.
