data_PCOD8215712
_publ_section_title
;
Structure prediction by ZEFSAII (Michael W. Deem and Ramdas Pophale) SiO2 
 PCOD8215712
Probable space group: P N N A
;
_chemical_formula_sum "Si O2"
_cell_formula_units_Z 52
_cell_length_a 7.672025
_cell_length_b 11.629969
_cell_length_c 26.598996
_cell_angle_alpha 90.000000
_cell_angle_beta 90.000000
_cell_angle_gamma 90.000000
_cell_volume 2373.306401
_symmetry_space_group_name_H-M "P N N A"
_symmetry_group_IT_number 52
_symmetry_cell_setting 'orthorhombic'
loop_
_space_group_symop_operation_xyz
x,y,z
1/2-x,-y,z
x,1/2-y,1/2-z
1/2-x,1/2+y,1/2-z
-x,-y,-z
1/2+x,y,-z
-x,1/2+y,1/2+z
1/2+x,1/2-y,1/2+z
loop_
_atom_site_type_symbol
_atom_site_label
_atom_site_fract_x
_atom_site_fract_y
_atom_site_fract_z
Si Si1 0.750000 0.500000 0.238626
Si Si2 0.390507 0.290936 0.828712
Si Si3 0.302769 0.624373 0.333043
Si Si4 0.053880 0.173477 0.797485
Si Si5 0.988438 0.263030 0.980036
Si Si6 0.685143 0.626145 0.065618
Si Si7 0.684148 0.120071 0.946124
O O1 0.650369 0.598480 0.206386
O O2 0.901859 0.547672 0.275065
O O3 0.551959 0.210806 0.808087
O O4 0.218207 0.214167 0.829688
O O5 0.425313 0.331064 0.886053
O O6 0.250000 0.500000 0.307315
O O7 0.376954 0.601502 0.388825
O O8 0.114364 0.685348 0.333163
O O9 0.011911 0.250000 0.750000
O O10 0.025742 0.158926 0.018812
O O11 0.934920 0.371546 0.015573
O O12 0.147974 0.292604 0.943908
O O13 0.829194 0.220911 0.946064
O O14 0.750000 0.500000 0.077805
O O15 0.750000 0.000000 0.968483
#
# Coordination Sequence:
#
# PCOD8215712 Si02
#       7
#     4   8   8   8   8   8   8
#     4  10  22  44  68  92 124 170 214 274 342 404
#     4  11  22  42  67  92 130 169 212 274 329 401
#     4  11  23  39  62  91 126 161 208 263 324 389
#     4  10  23  40  62  90 119 157 209 260 326 396
#     4  10  21  36  59  86 124 164 211 256 311 379
#     4  11  21  38  61  89 126 169 216 264 322 382
#     4  10  20  36  56  86 119 158 202 252 308 372
#
# _framework density 21.910361000000002
#
# number of rings (size 3 to 8) (size 9 to 14) (size 15 to 20)
#    0.000    1.538    2.308    2.769    0.000    3.077 
#    0.000    2.308    0.000    0.000    0.000    0.000 
#    0.000    0.000    0.000    0.000    0.000    0.000 
#
# Total GULP energy -644285.284612 kJ/mol
# GULP energy per Si atom -12390.101627 kJ/mol
# Density = 2.186049 g / cm^3
# Si number density = 21.910361 Si / 1000 Ang^3
#
#
#
# Elastic Constant Matrix: (Units=GPa)
#
#
# Indices 1 2 3 4 5 6 
#
# 1 108.8130 35.3639 2.7286 0.0000 0.0000 0.0000
# 2 35.3639 117.3231 16.4503 0.0000 0.0000 0.0000
# 3 2.7286 16.4503 49.4373 0.0000 0.0000 0.0000
# 4 0.0000 0.0000 0.0000 -12.9138 0.0000 0.0000
# 5 0.0000 0.0000 0.0000 0.0000 76.2038 0.0000
# 6 0.0000 0.0000 0.0000 0.0000 0.0000 33.3527
#
#
#
# Elastic Compliance Matrix: (Units=1/GPa)
#
#
# Indices 1 2 3 4 5 6 
#
# 1 0.010199 -0.003142 0.000483 0.000000 0.000000 0.000000
# 2 -0.003142 0.009908 -0.003124 0.000000 0.000000 0.000000
# 3 0.000483 -0.003124 0.021240 0.000000 0.000000 0.000000
# 4 0.000000 0.000000 0.000000 -0.077437 0.000000 0.000000
# 5 0.000000 0.000000 0.000000 0.000000 0.013123 0.000000
# 6 0.000000 0.000000 0.000000 0.000000 0.000000 0.029983
#
#
# Mechanical properties :
#
#
# Convention : Reuss Voigt Hill
#
# Bulk Modulus (GPa) = 33.57736 42.73990 38.15863
# Shear Modulus (GPa) = 175.37814 34.06393 104.72104
#
# Velocity S-wave (km/s) = 8.95641 3.94724 6.92091
# Velocity P-wave (km/s) = 11.05959 6.35006 9.01770
#
# Compressibility (1/GPa) = 0.02978198
#
# Stress axis : x y z
#
# Youngs Moduli (GPa) = 98.04804 100.92356 47.08009
#
# Poissons Ratio (x) = 0.31709 -0.02272
# Poissons Ratio (y) = 0.30806 0.14706
# Poissons Ratio (z) = -0.04731 0.31525
#
# Static dielectric constant tensor:
#      x y z
#    x 3.914330 0.000000 0.000000 
#    y 0.000000 4.011420 0.000000 
#    z 0.000000 0.000000 3.750200 
# 
# 
# High freq. dielectric constant tensor:
#      x y z
#    x 1.857500 0.000000 0.000000 
#    y 0.000000 1.864900 0.000000 
#    z 0.000000 0.000000 1.852510 
# 
# From -- ./inp_files/42287.got.cif
#   From: 2010.06.25/outbox.cif.g09.slc.cpg/sg52_22_cif.got.tgz:42287.got - 2010.06.26 19:32:48.
