data_PCOD8215511
_publ_section_title
;
Structure prediction by ZEFSAII (Michael W. Deem and Ramdas Pophale) SiO2 
 PCOD8215511
Probable space group: P N N A
;
_chemical_formula_sum "Si O2"
_cell_formula_units_Z 48
_cell_length_a 14.762437
_cell_length_b 15.423290
_cell_length_c 10.288908
_cell_angle_alpha 90.000000
_cell_angle_beta 90.000000
_cell_angle_gamma 90.000000
_cell_volume 2342.633588
_symmetry_space_group_name_H-M "P N N A"
_symmetry_group_IT_number 52
_symmetry_cell_setting 'orthorhombic'
loop_
_space_group_symop_operation_xyz
x,y,z
1/2-x,-y,z
x,1/2-y,1/2-z
1/2-x,1/2+y,1/2-z
-x,-y,-z
1/2+x,y,-z
-x,1/2+y,1/2+z
1/2+x,1/2-y,1/2+z
loop_
_atom_site_type_symbol
_atom_site_label
_atom_site_fract_x
_atom_site_fract_y
_atom_site_fract_z
Si Si1 0.385844 0.750000 0.250000
Si Si2 0.025069 0.096009 0.834228
Si Si3 0.738223 0.796997 0.556048
Si Si4 0.022983 0.410792 0.373545
Si Si5 0.597195 0.750000 0.750000
Si Si6 0.653326 0.681788 0.346925
Si Si7 0.293960 0.907812 0.678201
O O1 0.328409 0.760666 0.379814
O O2 0.440235 0.660893 0.273573
O O3 0.100540 0.095047 0.719418
O O4 0.966392 0.183428 0.827579
O O5 0.066199 0.095465 0.981381
O O6 0.964250 0.008295 0.817287
O O7 0.660953 0.815447 0.664704
O O8 0.687232 0.722265 0.479194
O O9 0.771466 0.878120 0.469489
O O10 0.914165 0.396163 0.382180
O O11 0.602537 0.750000 0.250000
O O12 0.744835 0.655712 0.275728
O O13 0.250000 0.000000 0.696788
#
# Coordination Sequence:
#
# PCOD8215511 Si02
#       7
#     4   8   8   8   4   8   8
#     4  11  24  42  65  94 126 166 213 258 324 387
#     4  11  25  41  66  97 127 169 219 262 324 382
#     4  10  24  42  63  90 125 171 209 258 324 379
#     4  11  22  41  65  96 127 166 211 263 314 384
#     4  11  24  44  65  88 132 170 213 266 318 383
#     4  10  19  38  63  88 125 161 202 254 313 373
#     4  11  23  40  63  96 127 164 214 266 321 385
#
# _framework density 20.48976
#
# number of rings (size 3 to 8) (size 9 to 14) (size 15 to 20)
#    0.000    1.333    4.167    1.000    5.833    1.333 
#    0.000    4.167    0.000    0.000    0.000    0.000 
#    0.000    0.000    0.000    0.000    0.000    0.000 
#
# Total GULP energy -594725.300308 kJ/mol
# GULP energy per Si atom -12390.110423 kJ/mol
# Density = 2.044312 g / cm^3
# Si number density = 20.489760 Si / 1000 Ang^3
#
#
#
# Elastic Constant Matrix: (Units=GPa)
#
#
# Indices 1 2 3 4 5 6 
#
# 1 79.1080 30.9835 32.4907 0.0000 0.0000 0.0000
# 2 30.9835 108.1465 21.5909 0.0000 0.0000 0.0000
# 3 32.4907 21.5909 85.1751 0.0000 0.0000 0.0000
# 4 0.0000 0.0000 0.0000 24.7887 0.0000 0.0000
# 5 0.0000 0.0000 0.0000 0.0000 39.0309 0.0000
# 6 0.0000 0.0000 0.0000 0.0000 0.0000 35.8699
#
#
#
# Elastic Compliance Matrix: (Units=1/GPa)
#
#
# Indices 1 2 3 4 5 6 
#
# 1 0.016214 -0.003592 -0.005274 0.000000 0.000000 0.000000
# 2 -0.003592 0.010535 -0.001300 0.000000 0.000000 0.000000
# 3 -0.005274 -0.001300 0.014082 0.000000 0.000000 0.000000
# 4 0.000000 0.000000 0.000000 0.040341 0.000000 0.000000
# 5 0.000000 0.000000 0.000000 0.000000 0.025621 0.000000
# 6 0.000000 0.000000 0.000000 0.000000 0.000000 0.027879
#
#
# Mechanical properties :
#
#
# Convention : Reuss Voigt Hill
#
# Bulk Modulus (GPa) = 48.78590 49.17331 48.97960
# Shear Modulus (GPa) = 30.89496 32.42886 31.66191
#
# Velocity S-wave (km/s) = 3.88728 3.98261 3.93524
# Velocity P-wave (km/s) = 6.63397 6.72305 6.67866
#
# Compressibility (1/GPa) = 0.02049773
#
# Stress axis : x y z
#
# Youngs Moduli (GPa) = 61.67441 94.91727 71.01206
#
# Poissons Ratio (x) = 0.34097 0.37455
# Poissons Ratio (y) = 0.22155 0.09234
# Poissons Ratio (z) = 0.32530 0.12342
#
# Static dielectric constant tensor:
#      x y z
#    x 3.750190 0.000000 0.000000 
#    y 0.000000 3.627120 0.000000 
#    z 0.000000 0.000000 3.458120 
# 
# 
# High freq. dielectric constant tensor:
#      x y z
#    x 1.793960 0.000000 0.000000 
#    y 0.000000 1.801780 0.000000 
#    z 0.000000 0.000000 1.803750 
# 
# From -- ./inp_files/19572.got.cif
#   From: 2010.06.25/outbox.cif.g09.slc.cpg/sg52_10_cif.got.tgz:19572.got - 2010.06.26 19:32:48.
