data_PCOD8215284
_publ_section_title
;
Structure prediction by ZEFSAII (Michael W. Deem and Ramdas Pophale) SiO2 
 PCOD8215284
Probable space group: P N N A
;
_chemical_formula_sum "Si O2"
_cell_formula_units_Z 64
_cell_length_a 5.162868
_cell_length_b 25.233083
_cell_length_c 23.689702
_cell_angle_alpha 90.000000
_cell_angle_beta 90.000000
_cell_angle_gamma 90.000000
_cell_volume 3086.177747
_symmetry_space_group_name_H-M "P N N A"
_symmetry_group_IT_number 52
_symmetry_cell_setting 'orthorhombic'
loop_
_space_group_symop_operation_xyz
x,y,z
1/2-x,-y,z
x,1/2-y,1/2-z
1/2-x,1/2+y,1/2-z
-x,-y,-z
1/2+x,y,-z
-x,1/2+y,1/2+z
1/2+x,1/2-y,1/2+z
loop_
_atom_site_type_symbol
_atom_site_label
_atom_site_fract_x
_atom_site_fract_y
_atom_site_fract_z
Si Si1 0.090525 0.186770 0.028997
Si Si2 0.318170 0.061229 0.471482
Si Si3 0.092091 0.439557 0.466126
Si Si4 0.002420 0.533904 0.147757
Si Si5 0.574488 0.418687 0.268400
Si Si6 0.586864 0.194035 0.850171
Si Si7 0.591033 0.295775 0.290458
Si Si8 0.932034 0.929785 0.837705
O O1 0.088809 0.123513 0.031984
O O2 0.015086 0.213465 0.087788
O O3 0.875476 0.207358 0.985896
O O4 0.539869 0.087233 0.512199
O O5 0.408207 0.069294 0.406248
O O6 0.250000 0.000000 0.484176
O O7 0.363659 0.461083 0.492336
O O8 0.063882 0.457587 0.400029
O O9 0.750000 0.500000 0.129166
O O10 0.927619 0.567794 0.202394
O O11 0.250000 0.500000 0.166108
O O12 0.578258 0.354937 0.265890
O O13 0.332347 0.442668 0.303749
O O14 0.823720 0.445726 0.298393
O O15 0.380953 0.221032 0.808383
O O16 0.538802 0.132001 0.846985
O O17 0.885870 0.207672 0.841041
O O18 0.490019 0.250000 0.250000
#
# Coordination Sequence:
#
# PCOD8215284 Si02
#       8
#     8   8   8   8   8   8   8   8
#     4   9  15  23  37  59  86 114 143 179 234 290
#     4   9  16  28  47  72 100 127 156 195 240 282
#     4   9  15  23  38  61  89 119 152 192 236 281
#     4  11  21  33  51  76 105 132 162 201 245 298
#     4  10  20  33  48  70 101 131 160 197 245 295
#     4   9  17  28  43  65  90 118 152 193 237 277
#     4  10  19  32  49  68  92 125 166 203 236 275
#     4   9  17  29  44  64  97 130 154 193 241 285
#
# _framework density 20.737625999999999
#
# number of rings (size 3 to 8) (size 9 to 14) (size 15 to 20)
#    0.000    2.500    0.000    4.500    0.000    6.000 
#    0.000    0.000    0.000    0.000    0.000    5.250 
#    0.000   37.000    0.000    0.000    0.000    0.000 
#
# Total GULP energy -792924.022526 kJ/mol
# GULP energy per Si atom -12389.437852 kJ/mol
# Density = 2.069043 g / cm^3
# Si number density = 20.737626 Si / 1000 Ang^3
#
#
#
# Elastic Constant Matrix: (Units=GPa)
#
#
# Indices 1 2 3 4 5 6 
#
# 1 161.8205 21.1131 71.7953 0.0000 0.0000 0.0000
# 2 21.1131 16.5327 17.4100 0.0000 0.0000 0.0000
# 3 71.7953 17.4100 167.9078 0.0000 0.0000 0.0000
# 4 0.0000 0.0000 0.0000 9.2657 0.0000 0.0000
# 5 0.0000 0.0000 0.0000 0.0000 -127.1625 0.0000
# 6 0.0000 0.0000 0.0000 0.0000 0.0000 9.6324
#
#
#
# Elastic Compliance Matrix: (Units=1/GPa)
#
#
# Indices 1 2 3 4 5 6 
#
# 1 0.008443 -0.007836 -0.002798 0.000000 0.000000 0.000000
# 2 -0.007836 0.075173 -0.004444 0.000000 0.000000 0.000000
# 3 -0.002798 -0.004444 0.007613 0.000000 0.000000 0.000000
# 4 0.000000 0.000000 0.000000 0.107925 0.000000 0.000000
# 5 0.000000 0.000000 0.000000 0.000000 -0.007864 0.000000
# 6 0.000000 0.000000 0.000000 0.000000 0.000000 0.103816
#
#
# Mechanical properties :
#
#
# Convention : Reuss Voigt Hill
#
# Bulk Modulus (GPa) = 16.37373 62.98866 39.68119
# Shear Modulus (GPa) = 14.46672 -5.92338 4.27167
#
# Velocity S-wave (km/s) = 2.64409 -1.69191 1.43678
# Velocity P-wave (km/s) = 4.15144 5.15978 4.68283
#
# Compressibility (1/GPa) = 0.06107345
#
# Stress axis : x y z
#
# Youngs Moduli (GPa) = 118.43544 13.30258 131.35932
#
# Poissons Ratio (x) = 0.10425 0.36751
# Poissons Ratio (y) = 0.92812 0.58374
# Poissons Ratio (z) = 0.33135 0.05911
#
# Static dielectric constant tensor:
#      x y z
#    x 4.174190 0.000000 0.000000 
#    y 0.000000 3.214610 0.000000 
#    z 0.000000 0.000000 3.865260 
# 
# 
# High freq. dielectric constant tensor:
#      x y z
#    x 1.839550 0.000000 0.000000 
#    y 0.000000 1.743700 0.000000 
#    z 0.000000 0.000000 1.819500 
# 
# From -- ./inp_files/35331.got.cif
#   From: 2010.06.25/outbox.cif.g09.slc.cpg/sg52_18_cif.got.tgz:35331.got - 2010.06.26 19:32:48.
