data_PCOD8215376
_publ_section_title
;
Structure prediction by ZEFSAII (Michael W. Deem and Ramdas Pophale) SiO2 
 PCOD8215376
Probable space group: P N N A
;
_chemical_formula_sum "Si O2"
_cell_formula_units_Z 64
_cell_length_a 21.766915
_cell_length_b 16.750453
_cell_length_c 9.105479
_cell_angle_alpha 90.000000
_cell_angle_beta 90.000000
_cell_angle_gamma 90.000000
_cell_volume 3319.909423
_symmetry_space_group_name_H-M "P N N A"
_symmetry_group_IT_number 52
_symmetry_cell_setting 'orthorhombic'
loop_
_space_group_symop_operation_xyz
x,y,z
1/2-x,-y,z
x,1/2-y,1/2-z
1/2-x,1/2+y,1/2-z
-x,-y,-z
1/2+x,y,-z
-x,1/2+y,1/2+z
1/2+x,1/2-y,1/2+z
loop_
_atom_site_type_symbol
_atom_site_label
_atom_site_fract_x
_atom_site_fract_y
_atom_site_fract_z
Si Si1 0.601379 0.673665 0.347084
Si Si2 0.636011 0.779254 0.595128
Si Si3 0.830388 0.917694 0.362836
Si Si4 0.971074 0.395441 0.880777
Si Si5 0.071808 0.336635 0.677831
Si Si6 0.925623 0.567703 0.897147
Si Si7 0.964459 0.670037 0.653071
Si Si8 0.806329 0.397285 0.127023
O O1 0.589087 0.750000 0.250000
O O2 0.630723 0.698227 0.502072
O O3 0.533919 0.634930 0.366589
O O4 0.651414 0.619720 0.267542
O O5 0.664227 0.750000 0.750000
O O6 0.567622 0.814363 0.612024
O O7 0.676771 0.847052 0.517932
O O8 0.868712 0.891093 0.218690
O O9 0.869142 0.896261 0.509008
O O10 0.764839 0.874049 0.347499
O O11 0.817122 0.009980 0.389700
O O12 0.925823 0.471819 0.877202
O O13 0.013564 0.387316 0.736889
O O14 0.011145 0.402380 0.028147
O O15 0.077794 0.250000 0.750000
O O16 0.066943 0.320352 0.505139
O O17 0.923332 0.604089 0.735044
O O18 0.961656 0.750000 0.750000
#
# Coordination Sequence:
#
# PCOD8215376 Si02
#       8
#     8   8   8   8   8   8   8   8
#     4   9  19  33  59  85 115 151 193 241 288 351
#     4  11  20  36  60  91 117 149 194 252 305 347
#     4  10  22  42  62  80 114 164 203 247 291 360
#     4  10  19  34  58  87 123 155 192 234 295 365
#     4  11  23  38  59  89 122 160 197 242 303 366
#     4  10  20  34  59  87 118 157 195 238 292 356
#     4  11  21  36  57  90 126 154 190 244 307 358
#     4  10  21  41  62  82 111 157 211 243 295 355
#
# _framework density 19.277633999999999
#
# number of rings (size 3 to 8) (size 9 to 14) (size 15 to 20)
#    0.000    1.750    1.250    5.625    3.500    2.000 
#    2.250    3.125    0.000    3.000    0.000    0.000 
#    0.000    0.000    0.000    0.000    0.000    0.000 
#
# Total GULP energy -793200.512809 kJ/mol
# GULP energy per Si atom -12393.758013 kJ/mol
# Density = 1.923376 g / cm^3
# Si number density = 19.277634 Si / 1000 Ang^3
#
#
#
# Elastic Constant Matrix: (Units=GPa)
#
#
# Indices 1 2 3 4 5 6 
#
# 1 121.5171 25.6410 47.4351 0.0000 0.0000 0.0000
# 2 25.6410 51.0496 35.2987 0.0000 0.0000 0.0000
# 3 47.4351 35.2987 148.0199 0.0000 0.0000 0.0000
# 4 0.0000 0.0000 0.0000 31.5253 0.0000 0.0000
# 5 0.0000 0.0000 0.0000 0.0000 13.8757 0.0000
# 6 0.0000 0.0000 0.0000 0.0000 0.0000 21.7459
#
#
#
# Elastic Compliance Matrix: (Units=1/GPa)
#
#
# Indices 1 2 3 4 5 6 
#
# 1 0.009852 -0.003311 -0.002368 0.000000 0.000000 0.000000
# 2 -0.003311 0.024570 -0.004798 0.000000 0.000000 0.000000
# 3 -0.002368 -0.004798 0.008659 0.000000 0.000000 0.000000
# 4 0.000000 0.000000 0.000000 0.031721 0.000000 0.000000
# 5 0.000000 0.000000 0.000000 0.000000 0.072068 0.000000
# 6 0.000000 0.000000 0.000000 0.000000 0.000000 0.045986
#
#
# Mechanical properties :
#
#
# Convention : Reuss Voigt Hill
#
# Bulk Modulus (GPa) = 45.19448 59.70402 52.44925
# Shear Modulus (GPa) = 22.60553 27.57685 25.09119
#
# Velocity S-wave (km/s) = 3.42808 3.78631 3.61164
# Velocity P-wave (km/s) = 6.25811 7.08186 6.68269
#
# Compressibility (1/GPa) = 0.02212659
#
# Stress axis : x y z
#
# Youngs Moduli (GPa) = 101.49974 40.70064 115.48984
#
# Poissons Ratio (x) = 0.13478 0.27343
# Poissons Ratio (y) = 0.33611 0.55412
# Poissons Ratio (z) = 0.24031 0.19528
#
# Static dielectric constant tensor:
#      x y z
#    x 3.680760 0.000000 0.000000 
#    y 0.000000 3.335980 0.000000 
#    z 0.000000 0.000000 2.930710 
# 
# 
# High freq. dielectric constant tensor:
#      x y z
#    x 1.735560 0.000000 0.000000 
#    y 0.000000 1.746720 0.000000 
#    z 0.000000 0.000000 1.744030 
# 
# From -- ./inp_files/14562.got.cif
#   From: 2010.06.25/outbox.cif.g09.slc.cpg/sg52_8_cif.got.tgz:14562.got - 2010.06.26 19:32:48.
