data_PCOD8215481
_publ_section_title
;
Structure prediction by ZEFSAII (Michael W. Deem and Ramdas Pophale) SiO2 
 PCOD8215481
Probable space group: P N N A
;
_chemical_formula_sum "Si O2"
_cell_formula_units_Z 56
_cell_length_a 20.636909
_cell_length_b 14.433009
_cell_length_c 9.184648
_cell_angle_alpha 90.000000
_cell_angle_beta 90.000000
_cell_angle_gamma 90.000000
_cell_volume 2735.672144
_symmetry_space_group_name_H-M "P N N A"
_symmetry_group_IT_number 52
_symmetry_cell_setting 'orthorhombic'
loop_
_space_group_symop_operation_xyz
x,y,z
1/2-x,-y,z
x,1/2-y,1/2-z
1/2-x,1/2+y,1/2-z
-x,-y,-z
1/2+x,y,-z
-x,1/2+y,1/2+z
1/2+x,1/2-y,1/2+z
loop_
_atom_site_type_symbol
_atom_site_label
_atom_site_fract_x
_atom_site_fract_y
_atom_site_fract_z
Si Si1 0.581103 0.358011 0.553073
Si Si2 0.416249 0.508404 0.189348
Si Si3 0.273636 0.599974 0.423482
Si Si4 0.614273 0.336705 0.027747
Si Si5 0.240778 0.728181 0.915896
Si Si6 0.287653 0.083310 0.371832
Si Si7 0.988025 0.850826 0.238595
O O1 0.559792 0.415291 0.694606
O O2 0.653360 0.392321 0.518844
O O3 0.585198 0.246190 0.573879
O O4 0.529013 0.381000 0.426461
O O5 0.402203 0.563379 0.040686
O O6 0.349465 0.452974 0.222413
O O7 0.471122 0.429800 0.178745
O O8 0.250000 0.500000 0.470937
O O9 0.230750 0.674275 0.507334
O O10 0.264127 0.620435 0.250045
O O11 0.689556 0.319542 0.059985
O O12 0.580743 0.336257 0.183875
O O13 0.221957 0.750000 0.750000
O O14 0.192702 0.657841 0.003527
O O15 0.250000 0.000000 0.453341
O O16 0.024326 0.750000 0.250000
#
# Coordination Sequence:
#
# PCOD8215481 Si02
#       7
#     8   8   8   8   8   8   8
#     4  10  19  37  61  88 115 151 203 255 296 356
#     4  12  21  37  63  89 118 159 201 255 304 363
#     4  10  19  37  60  88 119 156 203 252 303 363
#     4  10  20  38  61  85 114 154 207 252 300 360
#     4  11  22  37  60  87 121 161 198 254 309 361
#     4  11  21  38  58  92 123 156 203 248 308 376
#     4  10  23  39  57  87 123 160 200 250 314 369
#
# _framework density 20.470289999999999
#
# number of rings (size 3 to 8) (size 9 to 14) (size 15 to 20)
#    0.000    1.429    4.286    3.857    0.000    4.000 
#    2.571    0.000    0.000    0.000    0.000    0.000 
#    0.000    0.000    0.000    0.000    0.000    0.000 
#
# Total GULP energy -693796.784046 kJ/mol
# GULP energy per Si atom -12389.228287 kJ/mol
# Density = 2.042370 g / cm^3
# Si number density = 20.470290 Si / 1000 Ang^3
#
#
#
# Elastic Constant Matrix: (Units=GPa)
#
#
# Indices 1 2 3 4 5 6 
#
# 1 49.7997 22.5367 9.3000 0.0000 0.0000 0.0000
# 2 22.5367 124.6976 44.2553 0.0000 0.0000 0.0000
# 3 9.3000 44.2553 88.7371 0.0000 0.0000 0.0000
# 4 0.0000 0.0000 0.0000 30.2181 0.0000 0.0000
# 5 0.0000 0.0000 0.0000 0.0000 20.5986 0.0000
# 6 0.0000 0.0000 0.0000 0.0000 0.0000 28.6742
#
#
#
# Elastic Compliance Matrix: (Units=1/GPa)
#
#
# Indices 1 2 3 4 5 6 
#
# 1 0.021880 -0.003816 -0.000390 0.000000 0.000000 0.000000
# 2 -0.003816 0.010410 -0.004792 0.000000 0.000000 0.000000
# 3 -0.000390 -0.004792 0.013700 0.000000 0.000000 0.000000
# 4 0.000000 0.000000 0.000000 0.033093 0.000000 0.000000
# 5 0.000000 0.000000 0.000000 0.000000 0.048547 0.000000
# 6 0.000000 0.000000 0.000000 0.000000 0.000000 0.034875
#
#
# Mechanical properties :
#
#
# Convention : Reuss Voigt Hill
#
# Bulk Modulus (GPa) = 35.72142 46.15759 40.93950
# Shear Modulus (GPa) = 26.33926 28.37433 27.35680
#
# Velocity S-wave (km/s) = 3.59096 3.72711 3.65967
# Velocity P-wave (km/s) = 5.88911 6.41243 6.15633
#
# Compressibility (1/GPa) = 0.02799441
#
# Stress axis : x y z
#
# Youngs Moduli (GPa) = 45.70343 96.06512 72.99379
#
# Poissons Ratio (x) = 0.36659 0.02847
# Poissons Ratio (y) = 0.17440 0.34976
# Poissons Ratio (z) = 0.01782 0.46030
#
# Static dielectric constant tensor:
#      x y z
#    x 3.399390 0.000000 0.000000 
#    y 0.000000 4.173370 0.000000 
#    z 0.000000 0.000000 3.549820 
# 
# 
# High freq. dielectric constant tensor:
#      x y z
#    x 1.766090 0.000000 0.000000 
#    y 0.000000 1.820580 0.000000 
#    z 0.000000 0.000000 1.786050 
# 
# From -- ./inp_files/13470.got.cif
#   From: 2010.06.25/outbox.cif.g09.slc.cpg/sg52_7_cif.got.tgz:13470.got - 2010.06.26 19:32:48.
