data_PCOD8215937
_publ_section_title
;
Structure prediction by ZEFSAII (Michael W. Deem and Ramdas Pophale) SiO2 
 PCOD8215937
Probable space group: P N N A
;
_chemical_formula_sum "Si O2"
_cell_formula_units_Z 48
_cell_length_a 8.801295
_cell_length_b 25.845942
_cell_length_c 9.285361
_cell_angle_alpha 90.000000
_cell_angle_beta 90.000000
_cell_angle_gamma 90.000000
_cell_volume 2112.213122
_symmetry_space_group_name_H-M "P N N A"
_symmetry_group_IT_number 52
_symmetry_cell_setting 'orthorhombic'
loop_
_space_group_symop_operation_xyz
x,y,z
1/2-x,-y,z
x,1/2-y,1/2-z
1/2-x,1/2+y,1/2-z
-x,-y,-z
1/2+x,y,-z
-x,1/2+y,1/2+z
1/2+x,1/2-y,1/2+z
loop_
_atom_site_type_symbol
_atom_site_label
_atom_site_fract_x
_atom_site_fract_y
_atom_site_fract_z
Si Si1 0.133510 0.784626 0.595676
Si Si2 0.838001 0.662604 0.318720
Si Si3 0.846104 0.341566 0.821936
Si Si4 0.185371 0.949413 0.186646
Si Si5 0.336247 0.550103 0.615584
Si Si6 0.842716 0.781619 0.905688
O O1 0.205170 0.799911 0.752383
O O2 0.147435 0.835570 0.494807
O O3 0.210402 0.740017 0.504974
O O4 0.965004 0.763515 0.625290
O O5 0.786673 0.602786 0.302117
O O6 0.890657 0.671809 0.485893
O O7 0.987149 0.674669 0.227854
O O8 0.802228 0.400497 0.790801
O O9 0.723919 0.303079 0.745867
O O10 0.015720 0.958210 0.129721
O O11 0.250000 0.000000 0.271281
O O12 0.295896 0.942377 0.051026
O O13 0.250000 0.500000 0.682015
#
# Coordination Sequence:
#
# PCOD8215937 Si02
#       6
#     8   8   8   8   8   8
#     4  12  26  44  65  97 136 174 221 274 328 392
#     4  11  24  45  66  96 136 173 221 275 329 394
#     4  11  24  45  66  97 134 175 222 272 331 395
#     4  10  20  39  65  96 132 167 216 277 328 391
#     4  10  20  39  65  97 130 167 219 276 326 391
#     4  12  24  44  67  93 130 180 221 267 326 393
#
# _framework density 22.724979999999999
#
# number of rings (size 3 to 8) (size 9 to 14) (size 15 to 20)
#    0.000    1.000    5.000    3.000    0.000    2.667 
#    9.000    0.833    0.000    4.000    0.000    0.000 
#    0.000    0.000    0.000    0.000    0.000    0.000 
#
# Total GULP energy -594841.724625 kJ/mol
# GULP energy per Si atom -12392.535930 kJ/mol
# Density = 2.267326 g / cm^3
# Si number density = 22.724980 Si / 1000 Ang^3
#
#
#
# Elastic Constant Matrix: (Units=GPa)
#
#
# Indices 1 2 3 4 5 6 
#
# 1 95.6154 70.7728 37.0447 0.0000 0.0000 0.0000
# 2 70.7728 157.5643 44.5366 0.0000 0.0000 0.0000
# 3 37.0447 44.5366 127.5828 0.0000 0.0000 0.0000
# 4 0.0000 0.0000 0.0000 31.1500 0.0000 0.0000
# 5 0.0000 0.0000 0.0000 0.0000 30.6982 0.0000
# 6 0.0000 0.0000 0.0000 0.0000 0.0000 40.2778
#
#
#
# Elastic Compliance Matrix: (Units=1/GPa)
#
#
# Indices 1 2 3 4 5 6 
#
# 1 0.016313 -0.006644 -0.002417 0.000000 0.000000 0.000000
# 2 -0.006644 0.009747 -0.001473 0.000000 0.000000 0.000000
# 3 -0.002417 -0.001473 0.009054 0.000000 0.000000 0.000000
# 4 0.000000 0.000000 0.000000 0.032103 0.000000 0.000000
# 5 0.000000 0.000000 0.000000 0.000000 0.032575 0.000000
# 6 0.000000 0.000000 0.000000 0.000000 0.000000 0.024828
#
#
# Mechanical properties :
#
#
# Convention : Reuss Voigt Hill
#
# Bulk Modulus (GPa) = 71.19950 76.16340 73.68145
# Shear Modulus (GPa) = 33.25108 35.65243 34.45176
#
# Velocity S-wave (km/s) = 3.82932 3.96519 3.89785
# Velocity P-wave (km/s) = 7.13797 7.38591 7.26300
#
# Compressibility (1/GPa) = 0.01404504
#
# Stress axis : x y z
#
# Youngs Moduli (GPa) = 61.30143 102.59207 110.44489
#
# Poissons Ratio (x) = 0.68161 0.26698
# Poissons Ratio (y) = 0.40728 0.16274
# Poissons Ratio (z) = 0.14818 0.15117
#
# Static dielectric constant tensor:
#      x y z
#    x 4.104130 0.000000 0.000000 
#    y 0.000000 4.552340 0.000000 
#    z 0.000000 0.000000 4.430580 
# 
# 
# High freq. dielectric constant tensor:
#      x y z
#    x 1.905960 0.000000 0.000000 
#    y 0.000000 1.908240 0.000000 
#    z 0.000000 0.000000 1.884210 
# 
# From -- ./inp_files/7715.got.cif
#   From: 2010.06.25/outbox.cif.g09.slc.cpg/sg52_4_cif.got.tgz:7715.got - 2010.06.26 19:32:48.
