data_PCOD8215931
_publ_section_title
;
Structure prediction by ZEFSAII (Michael W. Deem and Ramdas Pophale) SiO2 
 PCOD8215931
Probable space group: P N N A
;
_chemical_formula_sum "Si O2"
_cell_formula_units_Z 48
_cell_length_a 9.075500
_cell_length_b 9.100829
_cell_length_c 28.804784
_cell_angle_alpha 90.000000
_cell_angle_beta 90.000000
_cell_angle_gamma 90.000000
_cell_volume 2379.118852
_symmetry_space_group_name_H-M "P N N A"
_symmetry_group_IT_number 52
_symmetry_cell_setting 'orthorhombic'
loop_
_space_group_symop_operation_xyz
x,y,z
1/2-x,-y,z
x,1/2-y,1/2-z
1/2-x,1/2+y,1/2-z
-x,-y,-z
1/2+x,y,-z
-x,1/2+y,1/2+z
1/2+x,1/2-y,1/2+z
loop_
_atom_site_type_symbol
_atom_site_label
_atom_site_fract_x
_atom_site_fract_y
_atom_site_fract_z
Si Si1 0.403282 0.076868 0.759425
Si Si2 0.862310 0.630962 0.466350
Si Si3 0.075262 0.492093 0.173082
Si Si4 0.337313 0.649083 0.885244
Si Si5 0.433697 0.193440 0.852876
Si Si6 0.604827 0.062250 0.935559
O O1 0.388312 0.250000 0.750000
O O2 0.449653 0.065771 0.813692
O O3 0.250000 0.000000 0.747884
O O4 0.523974 0.995955 0.726976
O O5 0.750000 0.500000 0.451539
O O6 0.849917 0.778219 0.435874
O O7 0.846673 0.669226 0.521485
O O8 0.029071 0.578752 0.458660
O O9 0.250000 0.500000 0.168836
O O10 0.992477 0.615436 0.141183
O O11 0.036979 0.330498 0.156561
O O12 0.250000 0.500000 0.893002
O O13 0.238177 0.758579 0.853824
O O14 0.487370 0.134442 0.901858
O O15 0.750000 0.000000 0.909159
#
# Coordination Sequence:
#
# PCOD8215931 Si02
#       6
#     8   8   8   8   8   8
#     4  10  21  40  62  87 117 156 200 243 290 357
#     4  10  20  39  64  85 119 161 200 250 303 359
#     4  10  22  40  59  86 125 155 191 253 308 353
#     4  10  21  40  64  87 117 160 205 245 296 366
#     4  10  21  39  61  86 118 159 206 244 289 366
#     4  10  22  36  58  91 123 152 202 255 302 350
#
# _framework density 20.175538
#
# number of rings (size 3 to 8) (size 9 to 14) (size 15 to 20)
#    0.000    2.000    1.667    2.500    4.667    0.667 
#    0.000   11.667    0.000    0.000    0.000    0.000 
#    0.000    0.000    0.000    0.000    0.000    0.000 
#
# Total GULP energy -594724.593999 kJ/mol
# GULP energy per Si atom -12390.095708 kJ/mol
# Density = 2.012962 g / cm^3
# Si number density = 20.175538 Si / 1000 Ang^3
#
#
#
# Elastic Constant Matrix: (Units=GPa)
#
#
# Indices 1 2 3 4 5 6 
#
# 1 153.3197 28.2878 52.9438 0.0000 0.0000 0.0000
# 2 28.2878 41.0396 43.6962 0.0000 0.0000 0.0000
# 3 52.9438 43.6962 141.4278 0.0000 0.0000 0.0000
# 4 0.0000 0.0000 0.0000 24.5286 0.0000 0.0000
# 5 0.0000 0.0000 0.0000 0.0000 30.3520 0.0000
# 6 0.0000 0.0000 0.0000 0.0000 0.0000 20.4427
#
#
#
# Elastic Compliance Matrix: (Units=1/GPa)
#
#
# Indices 1 2 3 4 5 6 
#
# 1 0.007792 -0.003376 -0.001874 0.000000 0.000000 0.000000
# 2 -0.003376 0.037774 -0.010407 0.000000 0.000000 0.000000
# 3 -0.001874 -0.010407 0.010988 0.000000 0.000000 0.000000
# 4 0.000000 0.000000 0.000000 0.040769 0.000000 0.000000
# 5 0.000000 0.000000 0.000000 0.000000 0.032947 0.000000
# 6 0.000000 0.000000 0.000000 0.000000 0.000000 0.048917
#
#
# Mechanical properties :
#
#
# Convention : Reuss Voigt Hill
#
# Bulk Modulus (GPa) = 39.61896 65.07142 52.34519
# Shear Modulus (GPa) = 22.83993 29.12193 25.98093
#
# Velocity S-wave (km/s) = 3.36826 3.80337 3.59241
# Velocity P-wave (km/s) = 5.89972 7.18402 6.57331
#
# Compressibility (1/GPa) = 0.02524044
#
# Stress axis : x y z
#
# Youngs Moduli (GPa) = 128.33200 26.47296 91.00999
#
# Poissons Ratio (x) = 0.08936 0.17056
# Poissons Ratio (y) = 0.43320 0.94717
# Poissons Ratio (z) = 0.24051 0.27551
#
# Static dielectric constant tensor:
#      x y z
#    x 3.706130 0.000000 0.000000 
#    y 0.000000 3.543910 0.000000 
#    z 0.000000 0.000000 4.104010 
# 
# 
# High freq. dielectric constant tensor:
#      x y z
#    x 1.791160 0.000000 0.000000 
#    y 0.000000 1.760150 0.000000 
#    z 0.000000 0.000000 1.797870 
# 
# From -- ./inp_files/44382.got.cif
#   From: 2010.06.25/outbox.cif.g09.slc.cpg/sg52_23_cif.got.tgz:44382.got - 2010.06.26 19:32:48.
