data_PCOD8215289
_publ_section_title
;
Structure prediction by ZEFSAII (Michael W. Deem and Ramdas Pophale) SiO2 
 PCOD8215289
Probable space group: P N N A
;
_chemical_formula_sum "Si O2"
_cell_formula_units_Z 40
_cell_length_a 36.760500
_cell_length_b 7.414659
_cell_length_c 7.100795
_cell_angle_alpha 90.000000
_cell_angle_beta 90.000000
_cell_angle_gamma 90.000000
_cell_volume 1935.439353
_symmetry_space_group_name_H-M "P N N A"
_symmetry_group_IT_number 52
_symmetry_cell_setting 'orthorhombic'
loop_
_space_group_symop_operation_xyz
x,y,z
1/2-x,-y,z
x,1/2-y,1/2-z
1/2-x,1/2+y,1/2-z
-x,-y,-z
1/2+x,y,-z
-x,1/2+y,1/2+z
1/2+x,1/2-y,1/2+z
loop_
_atom_site_type_symbol
_atom_site_label
_atom_site_fract_x
_atom_site_fract_y
_atom_site_fract_z
Si Si1 0.824813 0.750000 0.975164
Si Si2 0.958849 0.056327 0.531326
Si Si3 0.292564 0.033486 0.750000
Si Si4 0.958849 0.056327 0.968674
Si Si5 0.091527 0.250000 0.026968
O O1 0.818544 0.750000 0.750000
O O2 0.866883 0.749999 0.035075
O O3 0.808028 0.566538 0.063255
O O4 0.808028 0.933462 0.063255
O O5 0.950769 0.068369 0.750000
O O6 0.952666 0.250000 0.434813
O O7 0.929687 0.921054 0.439523
O O8 0.000000 0.000000 0.500000
O O9 0.301552 0.250000 0.750000
O O10 0.250000 0.000000 0.750002
O O11 0.929687 0.921054 0.060477
O O12 0.000000 0.000000 0.000000
O O13 0.088070 0.250000 0.250000
#
# Coordination Sequence:
#
# PCOD8215289 Si02
#       5
#     8   8   8   8   8
#     4  10  23  43  70 101 133 179 223 263 337 402
#     4  10  19  32  52  77 109 152 202 254 307 364
#     4  11  23  46  69 101 144 169 211 282 331 397
#     4  10  19  32  52  77 109 152 202 254 307 364
#     4   9  19  37  57  80 119 154 200 269 312 373
#
# _framework density 20.667141999999998
#
# number of rings (size 3 to 8) (size 9 to 14) (size 15 to 20)
#    0.000    2.000    4.000    0.000    0.000    3.200 
#    7.200    4.000    0.000    0.000    0.000    0.000 
#    0.000    0.000    0.000    0.000    0.000    0.000 
#
# Total GULP energy -495577.470338 kJ/mol
# GULP energy per Si atom -12389.436758 kJ/mol
# Density = 2.062010 g / cm^3
# Si number density = 20.667142 Si / 1000 Ang^3
#
#
#
# Elastic Constant Matrix: (Units=GPa)
#
#
# Indices 1 2 3 4 5 6 
#
# 1 189.0098 96.8419 27.9056 0.0000 0.0000 0.0000
# 2 96.8419 234.9251 39.9133 0.0000 0.0000 0.0000
# 3 27.9056 39.9133 103.8053 0.0000 0.0000 0.0000
# 4 0.0000 0.0000 0.0000 19.5072 0.0000 0.0000
# 5 0.0000 0.0000 0.0000 0.0000 25.1094 0.0000
# 6 0.0000 0.0000 0.0000 0.0000 0.0000 40.3576
#
#
#
# Elastic Compliance Matrix: (Units=1/GPa)
#
#
# Indices 1 2 3 4 5 6 
#
# 1 0.006769 -0.002655 -0.000799 0.000000 0.000000 0.000000
# 2 -0.002655 0.005595 -0.001438 0.000000 0.000000 0.000000
# 3 -0.000799 -0.001438 0.010401 0.000000 0.000000 0.000000
# 4 0.000000 0.000000 0.000000 0.051263 0.000000 0.000000
# 5 0.000000 0.000000 0.000000 0.000000 0.039826 0.000000
# 6 0.000000 0.000000 0.000000 0.000000 0.000000 0.024778
#
#
# Mechanical properties :
#
#
# Convention : Reuss Voigt Hill
#
# Bulk Modulus (GPa) = 77.02658 95.22907 86.12782
# Shear Modulus (GPa) = 32.73489 41.20014 36.96751
#
# Velocity S-wave (km/s) = 3.98415 4.46972 4.23390
# Velocity P-wave (km/s) = 7.64955 8.53319 8.10343
#
# Compressibility (1/GPa) = 0.01298253
#
# Stress axis : x y z
#
# Youngs Moduli (GPa) = 147.73740 178.72459 96.14441
#
# Poissons Ratio (x) = 0.47443 0.07682
# Poissons Ratio (y) = 0.39217 0.13823
# Poissons Ratio (z) = 0.11804 0.25696
#
# Static dielectric constant tensor:
#      x y z
#    x 3.786520 0.000000 0.000000 
#    y 0.000000 4.522130 0.000000 
#    z 0.000000 0.000000 3.625170 
# 
# 
# High freq. dielectric constant tensor:
#      x y z
#    x 1.805560 0.000000 0.000000 
#    y 0.000000 1.824350 0.000000 
#    z 0.000000 0.000000 1.810310 
# 
# From -- ./inp_files/14833.got.cif
#   From: 2010.06.25/outbox.cif.g09.slc.cpg/sg52_8_cif.got.tgz:14833.got - 2010.06.26 19:32:48.
