data_PCOD8215861
_publ_section_title
;
Structure prediction by ZEFSAII (Michael W. Deem and Ramdas Pophale) SiO2 
 PCOD8215861
Probable space group: P N N A
;
_chemical_formula_sum "Si O2"
_cell_formula_units_Z 60
_cell_length_a 9.047729
_cell_length_b 27.099492
_cell_length_c 11.477565
_cell_angle_alpha 90.000000
_cell_angle_beta 90.000000
_cell_angle_gamma 90.000000
_cell_volume 2814.171074
_symmetry_space_group_name_H-M "P N N A"
_symmetry_group_IT_number 52
_symmetry_cell_setting 'orthorhombic'
loop_
_space_group_symop_operation_xyz
x,y,z
1/2-x,-y,z
x,1/2-y,1/2-z
1/2-x,1/2+y,1/2-z
-x,-y,-z
1/2+x,y,-z
-x,1/2+y,1/2+z
1/2+x,1/2-y,1/2+z
loop_
_atom_site_type_symbol
_atom_site_label
_atom_site_fract_x
_atom_site_fract_y
_atom_site_fract_z
Si Si1 0.591120 0.810465 0.879640
Si Si2 0.861683 0.303466 0.878056
Si Si3 0.880073 0.403250 0.229249
Si Si4 0.648410 0.750000 0.250000
Si Si5 0.473125 0.818902 0.405543
Si Si6 0.149976 0.453727 0.920578
Si Si7 0.092990 0.016062 0.327709
Si Si8 0.770195 0.836161 0.100347
O O1 0.572915 0.751634 0.879982
O O2 0.636532 0.827493 0.749810
O O3 0.445153 0.840574 0.914347
O O4 0.715109 0.825853 0.970916
O O5 0.696258 0.306039 0.924783
O O6 0.963276 0.334263 0.967633
O O7 0.742478 0.408993 0.137354
O O8 0.806287 0.386000 0.350688
O O9 0.995232 0.362532 0.184294
O O10 0.982123 0.451833 0.253454
O O11 0.547916 0.769140 0.356294
O O12 0.748049 0.792903 0.195626
O O13 0.250000 0.500000 0.891480
O O14 0.988850 0.464855 0.863992
O O15 0.127600 0.448767 0.059654
O O16 0.250000 0.000000 0.268773
#
# Coordination Sequence:
#
# PCOD8215861 Si02
#       8
#     8   8   8   4   8   8   8   8
#     4  11  24  41  63  80 120 171 229 262 309 365
#     4  11  24  39  61  87 120 173 220 259 314 366
#     4  10  23  36  57  92 131 162 201 262 322 380
#     4  10  20  38  62  78 124 168 210 260 318 362
#     4  11  24  37  57  90 129 163 208 262 312 373
#     4   8  16  34  57  86 128 166 201 247 325 397
#     4   9  17  35  61  90 122 165 201 252 321 402
#     4  11  24  40  60  87 121 166 218 267 315 371
#
# _framework density 21.320664000000001
#
# number of rings (size 3 to 8) (size 9 to 14) (size 15 to 20)
#    0.000    1.867    1.333    3.200    9.333    0.000 
#    2.400    0.000    0.000    0.000    0.000   12.133 
#    0.000    0.000    0.000    0.000    0.000    0.000 
#
# Total GULP energy -743758.947443 kJ/mol
# GULP energy per Si atom -12395.982457 kJ/mol
# Density = 2.127214 g / cm^3
# Si number density = 21.320664 Si / 1000 Ang^3
#
#
#
# Elastic Constant Matrix: (Units=GPa)
#
#
# Indices 1 2 3 4 5 6 
#
# 1 117.1013 9.9274 22.9280 0.0000 0.0000 0.0000
# 2 9.9274 38.9141 4.2188 0.0000 0.0000 0.0000
# 3 22.9280 4.2188 106.7937 0.0000 0.0000 0.0000
# 4 0.0000 0.0000 0.0000 25.0133 0.0000 0.0000
# 5 0.0000 0.0000 0.0000 0.0000 23.4336 0.0000
# 6 0.0000 0.0000 0.0000 0.0000 0.0000 29.2760
#
#
#
# Elastic Compliance Matrix: (Units=1/GPa)
#
#
# Indices 1 2 3 4 5 6 
#
# 1 0.009084 -0.002115 -0.001867 0.000000 0.000000 0.000000
# 2 -0.002115 0.026301 -0.000585 0.000000 0.000000 0.000000
# 3 -0.001867 -0.000585 0.009788 0.000000 0.000000 0.000000
# 4 0.000000 0.000000 0.000000 0.039979 0.000000 0.000000
# 5 0.000000 0.000000 0.000000 0.000000 0.042674 0.000000
# 6 0.000000 0.000000 0.000000 0.000000 0.000000 0.034158
#
#
# Mechanical properties :
#
#
# Convention : Reuss Voigt Hill
#
# Bulk Modulus (GPa) = 27.74760 37.43970 32.59365
# Shear Modulus (GPa) = 27.30305 30.59357 28.94831
#
# Velocity S-wave (km/s) = 3.58242 3.79215 3.68877
# Velocity P-wave (km/s) = 5.49129 6.06402 5.78475
#
# Compressibility (1/GPa) = 0.03603915
#
# Stress axis : x y z
#
# Youngs Moduli (GPa) = 110.07826 38.02192 102.16856
#
# Poissons Ratio (x) = 0.08042 0.19073
# Poissons Ratio (y) = 0.23283 0.05976
# Poissons Ratio (z) = 0.20550 0.02224
#
# Static dielectric constant tensor:
#      x y z
#    x 4.072080 0.000000 0.000000 
#    y 0.000000 3.657290 0.000000 
#    z 0.000000 0.000000 3.746080 
# 
# 
# High freq. dielectric constant tensor:
#      x y z
#    x 1.854840 0.000000 0.000000 
#    y 0.000000 1.801710 0.000000 
#    z 0.000000 0.000000 1.808350 
# 
# From -- ./inp_files/17158.got.cif
#   From: 2010.06.25/outbox.cif.g09.slc.cpg/sg52_9_cif.got.tgz:17158.got - 2010.06.26 19:32:48.
