data_PCOD8215075
_publ_section_title
;
Structure prediction by ZEFSAII (Michael W. Deem and Ramdas Pophale) SiO2 
 PCOD8215075
Probable space group: P N N A
;
_chemical_formula_sum "Si O2"
_cell_formula_units_Z 48
_cell_length_a 8.766011
_cell_length_b 17.239935
_cell_length_c 16.511358
_cell_angle_alpha 90.000000
_cell_angle_beta 90.000000
_cell_angle_gamma 90.000000
_cell_volume 2495.286570
_symmetry_space_group_name_H-M "P N N A"
_symmetry_group_IT_number 52
_symmetry_cell_setting 'orthorhombic'
loop_
_space_group_symop_operation_xyz
x,y,z
1/2-x,-y,z
x,1/2-y,1/2-z
1/2-x,1/2+y,1/2-z
-x,-y,-z
1/2+x,y,-z
-x,1/2+y,1/2+z
1/2+x,1/2-y,1/2+z
loop_
_atom_site_type_symbol
_atom_site_label
_atom_site_fract_x
_atom_site_fract_y
_atom_site_fract_z
Si Si1 0.778450 0.318120 0.634490
Si Si2 0.528217 0.878741 0.174228
Si Si3 0.017823 0.448342 0.642132
Si Si4 0.725653 0.082276 0.293211
Si Si5 0.946954 0.723814 0.161948
Si Si6 0.285607 0.656956 0.552014
O O1 0.618652 0.322583 0.682646
O O2 0.877531 0.392201 0.662270
O O3 0.749844 0.323722 0.539435
O O4 0.868467 0.237688 0.657726
O O5 0.613218 0.880334 0.262192
O O6 0.629513 0.845984 0.101527
O O7 0.466969 0.962623 0.142620
O O8 0.142645 0.437249 0.710560
O O9 0.109829 0.421436 0.560513
O O10 0.618699 0.136691 0.349584
O O11 0.750000 0.000000 0.340321
O O12 0.884094 0.750000 0.250000
O O13 0.883711 0.773400 0.088576
#
# Coordination Sequence:
#
# PCOD8215075 Si02
#       6
#     8   8   8   8   8   8
#     4  11  21  30  49  81 113 142 175 229 276 324
#     4  10  18  30  49  80 109 144 188 213 255 343
#     4   9  18  31  49  73 116 150 173 213 272 327
#     4   9  18  36  58  77 100 145 194 229 273 334
#     4  11  19  39  56  72 109 150 180 227 290 323
#     4  10  20  32  50  77 110 149 186 211 266 333
#
# _framework density 19.236267999999999
#
# number of rings (size 3 to 8) (size 9 to 14) (size 15 to 20)
#    0.000    2.000    5.000    4.000    0.000    4.000 
#    3.000    0.000    0.000    1.000    0.000    0.000 
#    0.000    0.000    0.000    0.000    0.000    0.000 
#
# Total GULP energy -594673.594999 kJ/mol
# GULP energy per Si atom -12389.033229 kJ/mol
# Density = 1.919249 g / cm^3
# Si number density = 19.236268 Si / 1000 Ang^3
#
#
#
# Elastic Constant Matrix: (Units=GPa)
#
#
# Indices 1 2 3 4 5 6 
#
# 1 127.8376 49.6299 0.7982 0.0000 0.0000 0.0000
# 2 49.6299 98.5740 20.0935 0.0000 0.0000 0.0000
# 3 0.7982 20.0935 16.0510 0.0000 0.0000 0.0000
# 4 0.0000 0.0000 0.0000 5.7268 0.0000 0.0000
# 5 0.0000 0.0000 0.0000 0.0000 -1.6957 0.0000
# 6 0.0000 0.0000 0.0000 0.0000 0.0000 34.7786
#
#
#
# Elastic Compliance Matrix: (Units=1/GPa)
#
#
# Indices 1 2 3 4 5 6 
#
# 1 0.010462 -0.006929 0.008154 0.000000 0.000000 0.000000
# 2 -0.006929 0.018210 -0.022452 0.000000 0.000000 0.000000
# 3 0.008154 -0.022452 0.090003 0.000000 0.000000 0.000000
# 4 0.000000 0.000000 0.000000 0.174618 0.000000 0.000000
# 5 0.000000 0.000000 0.000000 0.000000 -0.589740 0.000000
# 6 0.000000 0.000000 0.000000 0.000000 0.000000 0.028753
#
#
# Mechanical properties :
#
#
# Convention : Reuss Voigt Hill
#
# Bulk Modulus (GPa) = 13.11981 42.61175 27.86578
# Shear Modulus (GPa) = -25.02092 19.22467 -2.89813
#
# Velocity S-wave (km/s) = -3.61046 3.16475 -1.22877
# Velocity P-wave (km/s) = 3.24736 5.96272 3.53615
#
# Compressibility (1/GPa) = 0.07622059
#
# Stress axis : x y z
#
# Youngs Moduli (GPa) = 95.58664 54.91442 11.11079
#
# Poissons Ratio (x) = 0.38053 -0.09060
# Poissons Ratio (y) = 0.66236 0.24946
# Poissons Ratio (z) = -0.77946 1.23293
#
# Static dielectric constant tensor:
#      x y z
#    x 4.069550 0.000000 0.000000 
#    y 0.000000 4.692190 0.000000 
#    z 0.000000 0.000000 3.116960 
# 
# 
# High freq. dielectric constant tensor:
#      x y z
#    x 1.762300 0.000000 0.000000 
#    y 0.000000 1.729850 0.000000 
#    z 0.000000 0.000000 1.698090 
# 
# From -- ./inp_files/36097.got.cif
#   From: 2010.06.25/outbox.cif.g09.slc.cpg/sg52_19_cif.got.tgz:36097.got - 2010.06.26 19:32:48.
