data_PCOD8215468
_publ_section_title
;
Structure prediction by ZEFSAII (Michael W. Deem and Ramdas Pophale) SiO2 
 PCOD8215468
Probable space group: P N N A
;
_chemical_formula_sum "Si O2"
_cell_formula_units_Z 48
_cell_length_a 16.584990
_cell_length_b 19.323977
_cell_length_c 7.709541
_cell_angle_alpha 90.000000
_cell_angle_beta 90.000000
_cell_angle_gamma 90.000000
_cell_volume 2470.815109
_symmetry_space_group_name_H-M "P N N A"
_symmetry_group_IT_number 52
_symmetry_cell_setting 'orthorhombic'
loop_
_space_group_symop_operation_xyz
x,y,z
1/2-x,-y,z
x,1/2-y,1/2-z
1/2-x,1/2+y,1/2-z
-x,-y,-z
1/2+x,y,-z
-x,1/2+y,1/2+z
1/2+x,1/2-y,1/2+z
loop_
_atom_site_type_symbol
_atom_site_label
_atom_site_fract_x
_atom_site_fract_y
_atom_site_fract_z
Si Si1 0.261187 0.173309 0.270160
Si Si2 0.608133 0.821055 0.033119
Si Si3 0.672341 0.042979 0.841536
Si Si4 0.867397 0.330809 0.082178
Si Si5 0.051469 0.950998 0.386070
Si Si6 0.973016 0.924401 0.052544
O O1 0.222963 0.250000 0.250000
O O2 0.196804 0.112612 0.257477
O O3 0.286523 0.169658 0.470275
O O4 0.335980 0.160625 0.134123
O O5 0.584410 0.740090 0.035300
O O6 0.655040 0.837119 0.213975
O O7 0.525923 0.865379 0.041956
O O8 0.750000 0.000000 0.910445
O O9 0.622580 0.991887 0.715092
O O10 0.621224 0.075179 0.001702
O O11 0.918424 0.395720 0.022778
O O12 0.989145 0.913596 0.255630
O O13 0.000000 0.000000 0.500000
O O14 0.000000 0.000000 0.000000
#
# Coordination Sequence:
#
# PCOD8215468 Si02
#       6
#     8   8   8   8   8   8
#     4  10  20  39  63  88 125 164 197 249 312 372
#     4  10  20  37  65  92 116 162 206 253 299 369
#     4  11  21  39  61  87 125 164 200 254 317 364
#     4  10  19  36  65  90 119 156 212 242 305 367
#     4  11  22  39  61  88 122 160 209 260 301 372
#     4  10  20  37  59  86 120 154 201 250 305 357
#
# _framework density 19.426787000000001
#
# number of rings (size 3 to 8) (size 9 to 14) (size 15 to 20)
#    0.000    1.667    3.333    3.000    0.000    0.000 
#    9.000    0.833    3.667    0.000    0.000    0.000 
#    0.000    0.000    0.000    0.000    0.000    0.000 
#
# Total GULP energy -594629.291354 kJ/mol
# GULP energy per Si atom -12388.110237 kJ/mol
# Density = 1.938257 g / cm^3
# Si number density = 19.426787 Si / 1000 Ang^3
#
#
#
# Elastic Constant Matrix: (Units=GPa)
#
#
# Indices 1 2 3 4 5 6 
#
# 1 87.2409 41.8787 31.8892 0.0000 0.0000 0.0000
# 2 41.8787 122.0752 24.4719 0.0000 0.0000 0.0000
# 3 31.8892 24.4719 98.5134 0.0000 0.0000 0.0000
# 4 0.0000 0.0000 0.0000 29.9716 0.0000 0.0000
# 5 0.0000 0.0000 0.0000 0.0000 18.9676 0.0000
# 6 0.0000 0.0000 0.0000 0.0000 0.0000 27.4735
#
#
#
# Elastic Compliance Matrix: (Units=1/GPa)
#
#
# Indices 1 2 3 4 5 6 
#
# 1 0.014930 -0.004371 -0.003747 0.000000 0.000000 0.000000
# 2 -0.004371 0.009900 -0.001045 0.000000 0.000000 0.000000
# 3 -0.003747 -0.001045 0.011623 0.000000 0.000000 0.000000
# 4 0.000000 0.000000 0.000000 0.033365 0.000000 0.000000
# 5 0.000000 0.000000 0.000000 0.000000 0.052721 0.000000
# 6 0.000000 0.000000 0.000000 0.000000 0.000000 0.036399
#
#
# Mechanical properties :
#
#
# Convention : Reuss Voigt Hill
#
# Bulk Modulus (GPa) = 55.16007 56.03434 55.59720
# Shear Modulus (GPa) = 27.27656 29.25518 28.26587
#
# Velocity S-wave (km/s) = 3.75116 3.88483 3.81858
# Velocity P-wave (km/s) = 6.87146 7.00207 6.93708
#
# Compressibility (1/GPa) = 0.01812906
#
# Stress axis : x y z
#
# Youngs Moduli (GPa) = 66.97755 101.00515 86.03333
#
# Poissons Ratio (x) = 0.44147 0.32239
# Poissons Ratio (y) = 0.29274 0.08987
# Poissons Ratio (z) = 0.25098 0.10551
#
# Static dielectric constant tensor:
#      x y z
#    x 3.414530 0.000000 0.000000 
#    y 0.000000 3.686650 0.000000 
#    z 0.000000 0.000000 3.913670 
# 
# 
# High freq. dielectric constant tensor:
#      x y z
#    x 1.720410 0.000000 0.000000 
#    y 0.000000 1.780730 0.000000 
#    z 0.000000 0.000000 1.761220 
# 
# From -- ./inp_files/12308.got.cif
#   From: 2010.06.25/outbox.cif.g09.slc.cpg/sg52_7_cif.got.tgz:12308.got - 2010.06.26 19:32:48.
