data_PCOD8215738
_publ_section_title
;
Structure prediction by ZEFSAII (Michael W. Deem and Ramdas Pophale) SiO2 
 PCOD8215738
Probable space group: P N N A
;
_chemical_formula_sum "Si O2"
_cell_formula_units_Z 32
_cell_length_a 8.335090
_cell_length_b 14.099469
_cell_length_c 9.680324
_cell_angle_alpha 90.000000
_cell_angle_beta 90.000000
_cell_angle_gamma 90.000000
_cell_volume 1137.634997
_symmetry_space_group_name_H-M "P N N A"
_symmetry_group_IT_number 52
_symmetry_cell_setting 'orthorhombic'
loop_
_space_group_symop_operation_xyz
x,y,z
1/2-x,-y,z
x,1/2-y,1/2-z
1/2-x,1/2+y,1/2-z
-x,-y,-z
1/2+x,y,-z
-x,1/2+y,1/2+z
1/2+x,1/2-y,1/2+z
loop_
_atom_site_type_symbol
_atom_site_label
_atom_site_fract_x
_atom_site_fract_y
_atom_site_fract_z
Si Si1 0.907866 0.088554 0.846670
Si Si2 0.684938 0.331316 0.862016
Si Si3 0.107311 0.932855 0.720449
Si Si4 0.714124 0.322805 0.432716
O O1 0.832413 0.105561 0.694316
O O2 0.026415 0.172377 0.895171
O O3 0.760217 0.094287 0.955402
O O4 0.009597 0.991613 0.838941
O O5 0.644631 0.250000 0.750000
O O6 0.524108 0.394678 0.888761
O O7 0.739807 0.283427 0.006615
O O8 0.183902 0.840968 0.794591
O O9 0.250000 0.000000 0.655740
#
# Coordination Sequence:
#
# PCOD8215738 Si02
#       4
#     8   8   8   8
#     4  10  20  36  62  93 124 164 213 264 318 388
#     4  10  21  37  58  95 133 162 203 272 335 378
#     4  10  21  39  64  95 126 164 217 269 319 391
#     4  10  20  36  59  93 129 164 205 269 330 375
#
# _framework density 28.128530000000001
#
# number of rings (size 3 to 8) (size 9 to 14) (size 15 to 20)
#    0.000    2.000    0.000    4.500    0.000    8.000 
#    0.000   35.000    0.000    0.000    0.000  192.500 
#    0.000    0.000    0.000    0.000    0.000    0.000 
#
# Total GULP energy -396553.280753 kJ/mol
# GULP energy per Si atom -12392.290024 kJ/mol
# Density = 2.806451 g / cm^3
# Si number density = 28.128530 Si / 1000 Ang^3
#
#
#
# Elastic Constant Matrix: (Units=GPa)
#
#
# Indices 1 2 3 4 5 6 
#
# 1 188.8514 53.1790 43.0794 0.0000 0.0000 0.0000
# 2 53.1790 64.4699 10.5134 0.0000 0.0000 0.0000
# 3 43.0794 10.5134 59.1239 0.0000 0.0000 0.0000
# 4 0.0000 0.0000 0.0000 15.7082 0.0000 0.0000
# 5 0.0000 0.0000 0.0000 0.0000 18.8763 0.0000
# 6 0.0000 0.0000 0.0000 0.0000 0.0000 46.8173
#
#
#
# Elastic Compliance Matrix: (Units=1/GPa)
#
#
# Indices 1 2 3 4 5 6 
#
# 1 0.008041 -0.005847 -0.004819 0.000000 0.000000 0.000000
# 2 -0.005847 0.020226 0.000664 0.000000 0.000000 0.000000
# 3 -0.004819 0.000664 0.020307 0.000000 0.000000 0.000000
# 4 0.000000 0.000000 0.000000 0.063661 0.000000 0.000000
# 5 0.000000 0.000000 0.000000 0.000000 0.052976 0.000000
# 6 0.000000 0.000000 0.000000 0.000000 0.000000 0.021360
#
#
# Mechanical properties :
#
#
# Convention : Reuss Voigt Hill
#
# Bulk Modulus (GPa) = 35.00304 58.44319 46.72312
# Shear Modulus (GPa) = 23.13763 29.99194 26.56478
#
# Velocity S-wave (km/s) = 2.87116 3.26889 3.07645
# Velocity P-wave (km/s) = 4.84380 5.92197 5.40981
#
# Compressibility (1/GPa) = 0.02856894
#
# Stress axis : x y z
#
# Youngs Moduli (GPa) = 124.36461 49.44208 49.24411
#
# Poissons Ratio (x) = 0.28908 0.23731
# Poissons Ratio (y) = 0.72713 -0.03268
# Poissons Ratio (z) = 0.59933 -0.03281
#
# Static dielectric constant tensor:
#      x y z
#    x 5.561440 0.000000 0.000000 
#    y 0.000000 4.935820 0.000000 
#    z 0.000000 0.000000 4.522560 
# 
# 
# High freq. dielectric constant tensor:
#      x y z
#    x 2.161840 0.000000 0.000000 
#    y 0.000000 2.127900 0.000000 
#    z 0.000000 0.000000 2.088660 
# 
# From -- ./inp_files/16503.got.cif
#   From: 2010.06.25/outbox.cif.g09.slc.cpg/sg52_9_cif.got.tgz:16503.got - 2010.06.26 19:32:48.
