data_PCOD8215229
_publ_section_title
;
Structure prediction by ZEFSAII (Michael W. Deem and Ramdas Pophale) SiO2 
 PCOD8215229
Probable space group: P N N A
;
_chemical_formula_sum "Si O2"
_cell_formula_units_Z 52
_cell_length_a 10.751283
_cell_length_b 16.720477
_cell_length_c 15.312475
_cell_angle_alpha 90.000000
_cell_angle_beta 90.000000
_cell_angle_gamma 90.000000
_cell_volume 2752.671264
_symmetry_space_group_name_H-M "P N N A"
_symmetry_group_IT_number 52
_symmetry_cell_setting 'orthorhombic'
loop_
_space_group_symop_operation_xyz
x,y,z
1/2-x,-y,z
x,1/2-y,1/2-z
1/2-x,1/2+y,1/2-z
-x,-y,-z
1/2+x,y,-z
-x,1/2+y,1/2+z
1/2+x,1/2-y,1/2+z
loop_
_atom_site_type_symbol
_atom_site_label
_atom_site_fract_x
_atom_site_fract_y
_atom_site_fract_z
Si Si1 0.010509 0.144611 0.829899
Si Si2 0.308063 0.915235 0.967754
Si Si3 0.792177 0.088944 0.720763
Si Si4 0.366143 0.665276 0.363746
Si Si5 0.132343 0.724209 0.593688
Si Si6 0.297827 0.750000 0.750000
Si Si7 0.654555 0.779436 0.589508
O O1 0.066116 0.097630 0.912341
O O2 0.121046 0.169769 0.764389
O O3 0.911045 0.085906 0.785272
O O4 0.946843 0.227700 0.858336
O O5 0.202382 0.851992 0.944953
O O6 0.250000 0.000000 0.946555
O O7 0.347197 0.908552 0.069190
O O8 0.680114 0.137722 0.767923
O O9 0.834836 0.132614 0.631727
O O10 0.750000 0.000000 0.696663
O O11 0.507418 0.694371 0.359561
O O12 0.289406 0.739922 0.401014
O O13 0.214250 0.769407 0.665699
O O14 0.112002 0.784982 0.512092
#
# Coordination Sequence:
#
# PCOD8215229 Si02
#       7
#     8   8   8   8   8   4   8
#     4  10  18  38  58  81 117 160 201 232 296 377
#     4  10  21  33  54  86 123 156 179 234 312 366
#     4  11  23  35  60  87 117 159 198 253 301 346
#     4  10  20  36  55  89 118 147 196 243 299 354
#     4  10  22  35  59  87 114 151 198 240 288 354
#     4  10  20  36  60  88 104 158 200 244 290 346
#     4  10  20  39  60  81 113 162 198 240 292 365
#
# _framework density 18.890740000000001
#
# number of rings (size 3 to 8) (size 9 to 14) (size 15 to 20)
#    0.000    1.846    3.077    1.846    4.308    0.615 
#    0.000    0.000    0.000    7.385    0.000    0.000 
#    0.000    0.000    0.000    0.000    0.000    0.000 
#
# Total GULP energy -644806.491784 kJ/mol
# GULP energy per Si atom -12400.124842 kJ/mol
# Density = 1.884774 g / cm^3
# Si number density = 18.890740 Si / 1000 Ang^3
#
#
#
# Elastic Constant Matrix: (Units=GPa)
#
#
# Indices 1 2 3 4 5 6 
#
# 1 109.4095 30.6034 36.6744 0.0000 0.0000 0.0000
# 2 30.6034 80.7889 38.8423 0.0000 0.0000 0.0000
# 3 36.6744 38.8423 103.1920 0.0000 0.0000 0.0000
# 4 0.0000 0.0000 0.0000 22.3509 0.0000 0.0000
# 5 0.0000 0.0000 0.0000 0.0000 20.7654 0.0000
# 6 0.0000 0.0000 0.0000 0.0000 0.0000 22.8899
#
#
#
# Elastic Compliance Matrix: (Units=1/GPa)
#
#
# Indices 1 2 3 4 5 6 
#
# 1 0.010857 -0.002756 -0.002821 0.000000 0.000000 0.000000
# 2 -0.002756 0.015813 -0.004972 0.000000 0.000000 0.000000
# 3 -0.002821 -0.004972 0.012565 0.000000 0.000000 0.000000
# 4 0.000000 0.000000 0.000000 0.044741 0.000000 0.000000
# 5 0.000000 0.000000 0.000000 0.000000 0.048157 0.000000
# 6 0.000000 0.000000 0.000000 0.000000 0.000000 0.043687
#
#
# Mechanical properties :
#
#
# Convention : Reuss Voigt Hill
#
# Bulk Modulus (GPa) = 55.14244 56.18119 55.66182
# Shear Modulus (GPa) = 24.63495 25.68594 25.16045
#
# Velocity S-wave (km/s) = 3.61512 3.69143 3.65347
# Velocity P-wave (km/s) = 6.83220 6.92629 6.87941
#
# Compressibility (1/GPa) = 0.01813485
#
# Stress axis : x y z
#
# Youngs Moduli (GPa) = 92.11055 63.24026 79.58677
#
# Poissons Ratio (x) = 0.17431 0.22451
# Poissons Ratio (y) = 0.25388 0.39574
# Poissons Ratio (z) = 0.25984 0.31446
#
# Static dielectric constant tensor:
#      x y z
#    x 3.636530 0.000000 0.000000 
#    y 0.000000 3.057820 0.000000 
#    z 0.000000 0.000000 3.619020 
# 
# 
# High freq. dielectric constant tensor:
#      x y z
#    x 1.748990 0.000000 0.000000 
#    y 0.000000 1.691730 0.000000 
#    z 0.000000 0.000000 1.732530 
# 
# From -- ./inp_files/26282.got.cif
#   From: 2010.06.25/outbox.cif.g09.slc.cpg/sg52_14_cif.got.tgz:26282.got - 2010.06.26 19:32:48.
