data_PCOD8215904
_publ_section_title
;
Structure prediction by ZEFSAII (Michael W. Deem and Ramdas Pophale) SiO2 
 PCOD8215904
Probable space group: P N N A
;
_chemical_formula_sum "Si O2"
_cell_formula_units_Z 56
_cell_length_a 15.390952
_cell_length_b 19.097251
_cell_length_c 8.686808
_cell_angle_alpha 90.000000
_cell_angle_beta 90.000000
_cell_angle_gamma 90.000000
_cell_volume 2553.268942
_symmetry_space_group_name_H-M "P N N A"
_symmetry_group_IT_number 52
_symmetry_cell_setting 'orthorhombic'
loop_
_space_group_symop_operation_xyz
x,y,z
1/2-x,-y,z
x,1/2-y,1/2-z
1/2-x,1/2+y,1/2-z
-x,-y,-z
1/2+x,y,-z
-x,1/2+y,1/2+z
1/2+x,1/2-y,1/2+z
loop_
_atom_site_type_symbol
_atom_site_label
_atom_site_fract_x
_atom_site_fract_y
_atom_site_fract_z
Si Si1 0.106241 0.575335 0.676200
Si Si2 0.049457 0.325369 0.699221
Si Si3 0.665504 0.954375 0.842076
Si Si4 0.998277 0.030255 0.670247
Si Si5 0.957391 0.678223 0.667973
Si Si6 0.260361 0.677838 0.321930
Si Si7 0.247351 0.177359 0.814143
O O1 0.113422 0.566345 0.494576
O O2 0.085134 0.499266 0.746274
O O3 0.022872 0.620068 0.729711
O O4 0.193131 0.612212 0.742884
O O5 0.013034 0.250000 0.750000
O O6 0.000152 0.385874 0.796908
O O7 0.150284 0.333877 0.746908
O O8 0.035483 0.325500 0.516543
O O9 0.595462 0.995053 0.737281
O O10 0.699922 0.884254 0.756882
O O11 0.750000 0.000000 0.884883
O O12 0.000000 0.000000 0.500000
O O13 0.986873 0.750000 0.750000
O O14 0.859822 0.661806 0.723622
O O15 0.227223 0.750000 0.250000
O O16 0.249902 0.682007 0.503505
O O17 0.286207 0.250000 0.750000
#
# Coordination Sequence:
#
# PCOD8215904 Si02
#       7
#     8   8   8   8   8   8   8
#     4  11  23  40  69  93 131 168 228 278 334 411
#     4  10  23  44  65  91 136 177 221 275 343 411
#     4  11  24  44  67  94 131 179 226 280 343 417
#     4  12  28  45  64  99 138 183 227 290 351 413
#     4  10  20  38  68 100 128 172 219 280 337 405
#     4   9  20  37  63  94 126 167 213 269 333 394
#     4   9  20  39  62  95 125 170 219 267 332 410
#
# _framework density 21.932668
#
# number of rings (size 3 to 8) (size 9 to 14) (size 15 to 20)
#    0.000    1.714    1.429    1.714    8.000    1.714 
#    7.714    0.000    0.000    0.000    0.000    0.000 
#    0.000    0.000    0.000    0.000    0.000    0.000 
#
# Total GULP energy -694065.600643 kJ/mol
# GULP energy per Si atom -12394.028583 kJ/mol
# Density = 2.188275 g / cm^3
# Si number density = 21.932668 Si / 1000 Ang^3
#
#
#
# Elastic Constant Matrix: (Units=GPa)
#
#
# Indices 1 2 3 4 5 6 
#
# 1 93.2470 40.0253 21.6935 0.0000 0.0000 0.0000
# 2 40.0253 120.6222 30.1098 0.0000 0.0000 0.0000
# 3 21.6935 30.1098 50.2373 0.0000 0.0000 0.0000
# 4 0.0000 0.0000 0.0000 40.4005 0.0000 0.0000
# 5 0.0000 0.0000 0.0000 0.0000 20.2707 0.0000
# 6 0.0000 0.0000 0.0000 0.0000 0.0000 45.1478
#
#
#
# Elastic Compliance Matrix: (Units=1/GPa)
#
#
# Indices 1 2 3 4 5 6 
#
# 1 0.013028 -0.003432 -0.003569 0.000000 0.000000 0.000000
# 2 -0.003432 0.010653 -0.004903 0.000000 0.000000 0.000000
# 3 -0.003569 -0.004903 0.024385 0.000000 0.000000 0.000000
# 4 0.000000 0.000000 0.000000 0.024752 0.000000 0.000000
# 5 0.000000 0.000000 0.000000 0.000000 0.049332 0.000000
# 6 0.000000 0.000000 0.000000 0.000000 0.000000 0.022149
#
#
# Mechanical properties :
#
#
# Convention : Reuss Voigt Hill
#
# Bulk Modulus (GPa) = 41.22241 49.75152 45.48696
# Shear Modulus (GPa) = 28.37797 32.64898 30.51348
#
# Velocity S-wave (km/s) = 3.60094 3.86242 3.73397
# Velocity P-wave (km/s) = 6.01039 6.52871 6.27491
#
# Compressibility (1/GPa) = 0.02425865
#
# Stress axis : x y z
#
# Youngs Moduli (GPa) = 76.76011 93.86979 41.00873
#
# Poissons Ratio (x) = 0.32217 0.14634
# Poissons Ratio (y) = 0.26345 0.20106
# Poissons Ratio (z) = 0.27392 0.46023
#
# Static dielectric constant tensor:
#      x y z
#    x 4.217310 0.000000 0.000000 
#    y 0.000000 4.305120 0.000000 
#    z 0.000000 0.000000 3.607360 
# 
# 
# High freq. dielectric constant tensor:
#      x y z
#    x 1.873600 0.000000 0.000000 
#    y 0.000000 1.873140 0.000000 
#    z 0.000000 0.000000 1.831850 
# 
# From -- ./inp_files/10830.got.cif
#   From: 2010.06.25/outbox.cif.g09.slc.cpg/sg52_6_cif.got.tgz:10830.got - 2010.06.26 19:32:48.
