data_PCOD8215247
_publ_section_title
;
Structure prediction by ZEFSAII (Michael W. Deem and Ramdas Pophale) SiO2 
 PCOD8215247
Probable space group: P N N A
;
_chemical_formula_sum "Si O2"
_cell_formula_units_Z 48
_cell_length_a 19.274744
_cell_length_b 14.967758
_cell_length_c 8.639469
_cell_angle_alpha 90.000000
_cell_angle_beta 90.000000
_cell_angle_gamma 90.000000
_cell_volume 2492.484247
_symmetry_space_group_name_H-M "P N N A"
_symmetry_group_IT_number 52
_symmetry_cell_setting 'orthorhombic'
loop_
_space_group_symop_operation_xyz
x,y,z
1/2-x,-y,z
x,1/2-y,1/2-z
1/2-x,1/2+y,1/2-z
-x,-y,-z
1/2+x,y,-z
-x,1/2+y,1/2+z
1/2+x,1/2-y,1/2+z
loop_
_atom_site_type_symbol
_atom_site_label
_atom_site_fract_x
_atom_site_fract_y
_atom_site_fract_z
Si Si1 0.297839 0.194253 0.599857
Si Si2 0.922455 0.248287 0.928665
Si Si3 0.825928 0.486481 0.252914
Si Si4 0.525563 0.168475 0.633751
Si Si5 0.038091 0.572645 0.598654
Si Si6 0.141285 0.177886 0.620899
O O1 0.322168 0.250000 0.750000
O O2 0.340531 0.237230 0.457856
O O3 0.315197 0.088998 0.620089
O O4 0.216997 0.210872 0.565822
O O5 0.938901 0.250000 0.750000
O O6 0.958224 0.160975 0.997203
O O7 0.961260 0.329242 0.014974
O O8 0.750000 0.500000 0.332938
O O9 0.881955 0.454053 0.375956
O O10 0.854693 0.579377 0.189671
O O11 0.530143 0.250000 0.750000
O O12 0.507273 0.083364 0.742962
O O13 0.595475 0.168000 0.533136
O O14 0.000000 0.500000 0.500000
O O15 0.113103 0.250000 0.750000
#
# Coordination Sequence:
#
# PCOD8215247 Si02
#       6
#     8   8   8   8   8   8
#     4  10  18  41  62  85 121 166 205 247 305 371
#     4  11  22  38  62  88 121 164 208 249 308 375
#     4  10  21  39  64  89 118 160 209 245 300 372
#     4  10  22  40  58  83 128 159 196 256 308 362
#     4  11  24  40  61  91 124 164 207 257 319 366
#     4  10  23  36  64  92 120 161 207 252 308 370
#
# _framework density 19.257895000000001
#
# number of rings (size 3 to 8) (size 9 to 14) (size 15 to 20)
#    0.000    1.667    3.333    1.000    7.000    2.667 
#    0.000    1.667    0.000    0.000    0.000    0.000 
#    0.000    0.000    0.000    0.000    0.000    0.000 
#
# Total GULP energy -594851.233880 kJ/mol
# GULP energy per Si atom -12392.734039 kJ/mol
# Density = 1.921406 g / cm^3
# Si number density = 19.257895 Si / 1000 Ang^3
#
#
#
# Elastic Constant Matrix: (Units=GPa)
#
#
# Indices 1 2 3 4 5 6 
#
# 1 116.5407 28.9131 69.8934 0.0000 0.0000 0.0000
# 2 28.9131 88.3461 48.5806 0.0000 0.0000 0.0000
# 3 69.8934 48.5806 137.3996 0.0000 0.0000 0.0000
# 4 0.0000 0.0000 0.0000 25.4983 0.0000 0.0000
# 5 0.0000 0.0000 0.0000 0.0000 28.9961 0.0000
# 6 0.0000 0.0000 0.0000 0.0000 0.0000 28.6797
#
#
#
# Elastic Compliance Matrix: (Units=1/GPa)
#
#
# Indices 1 2 3 4 5 6 
#
# 1 0.012386 -0.000731 -0.006042 0.000000 0.000000 0.000000
# 2 -0.000731 0.014094 -0.004611 0.000000 0.000000 0.000000
# 3 -0.006042 -0.004611 0.011982 0.000000 0.000000 0.000000
# 4 0.000000 0.000000 0.000000 0.039218 0.000000 0.000000
# 5 0.000000 0.000000 0.000000 0.000000 0.034487 0.000000
# 6 0.000000 0.000000 0.000000 0.000000 0.000000 0.034868
#
#
# Mechanical properties :
#
#
# Convention : Reuss Voigt Hill
#
# Bulk Modulus (GPa) = 63.72296 70.78450 67.25373
# Shear Modulus (GPa) = 28.56570 29.62809 29.09690
#
# Velocity S-wave (km/s) = 3.85557 3.92662 3.89126
# Velocity P-wave (km/s) = 7.27885 7.57586 7.42884
#
# Compressibility (1/GPa) = 0.01569293
#
# Stress axis : x y z
#
# Youngs Moduli (GPa) = 80.73891 70.95147 83.45888
#
# Poissons Ratio (x) = 0.05187 0.50425
# Poissons Ratio (y) = 0.05902 0.38486
# Poissons Ratio (z) = 0.48782 0.32719
#
# Static dielectric constant tensor:
#      x y z
#    x 3.941400 0.000000 0.000000 
#    y 0.000000 3.704340 0.000000 
#    z 0.000000 0.000000 3.397420 
# 
# 
# High freq. dielectric constant tensor:
#      x y z
#    x 1.764600 0.000000 0.000000 
#    y 0.000000 1.755260 0.000000 
#    z 0.000000 0.000000 1.723340 
# 
# From -- ./inp_files/13303.got.cif
#   From: 2010.06.25/outbox.cif.g09.slc.cpg/sg52_7_cif.got.tgz:13303.got - 2010.06.26 19:32:48.
