data_PCOD8215979
_publ_section_title
;
Structure prediction by ZEFSAII (Michael W. Deem and Ramdas Pophale) SiO2 
 PCOD8215979
Probable space group: P N N A
;
_chemical_formula_sum "Si O2"
_cell_formula_units_Z 56
_cell_length_a 5.483406
_cell_length_b 27.186419
_cell_length_c 14.456649
_cell_angle_alpha 90.000000
_cell_angle_beta 90.000000
_cell_angle_gamma 90.000000
_cell_volume 2155.112995
_symmetry_space_group_name_H-M "P N N A"
_symmetry_group_IT_number 52
_symmetry_cell_setting 'orthorhombic'
loop_
_space_group_symop_operation_xyz
x,y,z
1/2-x,-y,z
x,1/2-y,1/2-z
1/2-x,1/2+y,1/2-z
-x,-y,-z
1/2+x,y,-z
-x,1/2+y,1/2+z
1/2+x,1/2-y,1/2+z
loop_
_atom_site_type_symbol
_atom_site_label
_atom_site_fract_x
_atom_site_fract_y
_atom_site_fract_z
Si Si1 0.393242 0.750000 0.750000
Si Si2 0.819479 0.107726 0.447750
Si Si3 0.364464 0.563631 0.777210
Si Si4 0.126566 0.652002 0.277502
Si Si5 0.977238 0.837142 0.025163
Si Si6 0.214317 0.722521 0.944045
Si Si7 0.996960 0.908372 0.865479
Si Si8 0.250000 0.000000 0.205142
O O1 0.584700 0.705229 0.765530
O O2 0.231723 0.751732 0.844469
O O3 0.577800 0.095157 0.506182
O O4 0.822902 0.069270 0.361508
O O5 0.805485 0.164881 0.418624
O O6 0.548217 0.609775 0.794365
O O7 0.241323 0.570061 0.677091
O O8 0.514851 0.512124 0.771440
O O9 0.952136 0.648930 0.368486
O O10 0.404367 0.639875 0.306975
O O11 0.232570 0.807044 0.006402
O O12 0.025045 0.888712 0.969976
O O13 0.465095 0.736194 0.000184
O O14 0.795556 0.952192 0.858917
#
# Coordination Sequence:
#
# PCOD8215979 Si02
#       8
#     4   8   8   8   8   8   8   4
#     4  12  24  46  70 108 150 198 244 312 380 430
#     4  10  23  42  70  97 132 184 234 292 356 424
#     4  11  21  44  69  96 137 184 229 291 361 436
#     4  10  23  40  65  98 137 188 240 284 352 422
#     4  10  20  40  65  97 136 184 235 285 344 418
#     4  10  24  45  67 104 146 188 250 305 361 444
#     4  10  22  41  70  97 141 188 232 294 360 433
#     4  10  24  40  70 108 134 180 234 296 362 444
#
# _framework density 25.984718000000001
#
# number of rings (size 3 to 8) (size 9 to 14) (size 15 to 20)
#    0.000    1.714    2.857    0.429    4.000    4.000 
#    2.571    7.143    0.000    0.000    0.000    0.000 
#    0.000    0.000    0.000    0.000    0.000    0.000 
#
# Total GULP energy -693816.605303 kJ/mol
# GULP energy per Si atom -12389.582238 kJ/mol
# Density = 2.592558 g / cm^3
# Si number density = 25.984718 Si / 1000 Ang^3
#
#
#
# Elastic Constant Matrix: (Units=GPa)
#
#
# Indices 1 2 3 4 5 6 
#
# 1 104.5132 19.0079 14.5957 0.0000 0.0000 0.0000
# 2 19.0079 92.4681 18.9201 0.0000 0.0000 0.0000
# 3 14.5957 18.9201 90.5501 0.0000 0.0000 0.0000
# 4 0.0000 0.0000 0.0000 32.5960 0.0000 0.0000
# 5 0.0000 0.0000 0.0000 0.0000 31.6523 0.0000
# 6 0.0000 0.0000 0.0000 0.0000 0.0000 39.2659
#
#
#
# Elastic Compliance Matrix: (Units=1/GPa)
#
#
# Indices 1 2 3 4 5 6 
#
# 1 0.010072 -0.001816 -0.001244 0.000000 0.000000 0.000000
# 2 -0.001816 0.011625 -0.002136 0.000000 0.000000 0.000000
# 3 -0.001244 -0.002136 0.011691 0.000000 0.000000 0.000000
# 4 0.000000 0.000000 0.000000 0.030679 0.000000 0.000000
# 5 0.000000 0.000000 0.000000 0.000000 0.031593 0.000000
# 6 0.000000 0.000000 0.000000 0.000000 0.000000 0.025467
#
#
# Mechanical properties :
#
#
# Convention : Reuss Voigt Hill
#
# Bulk Modulus (GPa) = 43.48758 43.61984 43.55371
# Shear Modulus (GPa) = 35.92355 36.37002 36.14678
#
# Velocity S-wave (km/s) = 3.72222 3.74527 3.73376
# Velocity P-wave (km/s) = 5.93678 5.96036 5.94858
#
# Compressibility (1/GPa) = 0.02299507
#
# Stress axis : x y z
#
# Youngs Moduli (GPa) = 99.28345 86.02208 85.53942
#
# Poissons Ratio (x) = 0.15621 0.10642
# Poissons Ratio (y) = 0.18029 0.18274
# Poissons Ratio (z) = 0.12352 0.18377
#
# Static dielectric constant tensor:
#      x y z
#    x 4.977090 0.000000 0.000000 
#    y 0.000000 4.731270 0.000000 
#    z 0.000000 0.000000 4.521430 
# 
# 
# High freq. dielectric constant tensor:
#      x y z
#    x 2.056650 0.000000 0.000000 
#    y 0.000000 2.046620 0.000000 
#    z 0.000000 0.000000 2.016350 
# 
# From -- ./inp_files/23788.got.cif
#   From: 2010.06.25/outbox.cif.g09.slc.cpg/sg52_12_cif.got.tgz:23788.got - 2010.06.26 19:32:48.
