data_PCOD8215336
_publ_section_title
;
Structure prediction by ZEFSAII (Michael W. Deem and Ramdas Pophale) SiO2 
 PCOD8215336
Probable space group: P N N A
;
_chemical_formula_sum "Si O2"
_cell_formula_units_Z 60
_cell_length_a 18.806169
_cell_length_b 10.906754
_cell_length_c 15.544563
_cell_angle_alpha 90.000000
_cell_angle_beta 90.000000
_cell_angle_gamma 90.000000
_cell_volume 3188.411521
_symmetry_space_group_name_H-M "P N N A"
_symmetry_group_IT_number 52
_symmetry_cell_setting 'orthorhombic'
loop_
_space_group_symop_operation_xyz
x,y,z
1/2-x,-y,z
x,1/2-y,1/2-z
1/2-x,1/2+y,1/2-z
-x,-y,-z
1/2+x,y,-z
-x,1/2+y,1/2+z
1/2+x,1/2-y,1/2+z
loop_
_atom_site_type_symbol
_atom_site_label
_atom_site_fract_x
_atom_site_fract_y
_atom_site_fract_z
Si Si1 0.042279 0.798592 0.344860
Si Si2 0.983422 0.250000 0.250000
Si Si3 0.938191 0.847032 0.036854
Si Si4 0.563108 0.885706 0.089471
Si Si5 0.835057 0.306246 0.553048
Si Si6 0.321676 0.766379 0.429094
Si Si7 0.175330 0.471309 0.327848
Si Si8 0.084065 0.058659 0.329032
O O1 0.027241 0.750000 0.250000
O O2 0.121378 0.760596 0.372414
O O3 0.981707 0.742113 0.403000
O O4 0.038194 0.944581 0.363266
O O5 0.936042 0.163673 0.187635
O O6 0.031009 0.170692 0.314684
O O7 0.917471 0.970433 0.088337
O O8 0.866404 0.776771 0.011505
O O9 0.983989 0.875424 0.950974
O O10 0.621951 0.808162 0.036597
O O11 0.761101 0.232115 0.541882
O O12 0.827783 0.447267 0.585088
O O13 0.329592 0.671127 0.351127
O O14 0.352195 0.896272 0.392784
O O15 0.250000 0.500000 0.280975
O O16 0.113228 0.497260 0.260673
#
# Coordination Sequence:
#
# PCOD8215336 Si02
#       8
#     8   4   8   8   8   8   8   8
#     4  11  23  36  55  83 119 158 194 232 294 351
#     4  12  22  38  60  88 108 148 200 250 290 340
#     4  10  20  38  59  83 114 152 191 238 285 352
#     4  10  20  37  61  84 114 146 195 243 289 339
#     4  10  22  37  60  86 115 156 193 236 292 360
#     4  11  21  36  58  89 114 150 197 239 292 349
#     4  10  19  33  56  84 119 149 184 232 288 359
#     4  12  22  34  54  86 123 152 191 243 292 350
#
# _framework density 18.818148999999998
#
# number of rings (size 3 to 8) (size 9 to 14) (size 15 to 20)
#    0.000    1.333    5.333    0.800    3.733    0.533 
#    0.000    0.000    1.467    0.000    0.000    0.000 
#    0.000    0.000    0.000    0.000    0.000    0.000 
#
# Total GULP energy -743918.264916 kJ/mol
# GULP energy per Si atom -12398.637749 kJ/mol
# Density = 1.877532 g / cm^3
# Si number density = 18.818149 Si / 1000 Ang^3
#
#
#
# Elastic Constant Matrix: (Units=GPa)
#
#
# Indices 1 2 3 4 5 6 
#
# 1 79.9279 14.9508 34.9887 0.0000 0.0000 0.0000
# 2 14.9508 94.6368 28.1078 0.0000 0.0000 0.0000
# 3 34.9887 28.1078 74.3659 0.0000 0.0000 0.0000
# 4 0.0000 0.0000 0.0000 28.5918 0.0000 0.0000
# 5 0.0000 0.0000 0.0000 0.0000 21.8227 0.0000
# 6 0.0000 0.0000 0.0000 0.0000 0.0000 21.2734
#
#
#
# Elastic Compliance Matrix: (Units=1/GPa)
#
#
# Indices 1 2 3 4 5 6 
#
# 1 0.015765 -0.000324 -0.007295 0.000000 0.000000 0.000000
# 2 -0.000324 0.011910 -0.004349 0.000000 0.000000 0.000000
# 3 -0.007295 -0.004349 0.018523 0.000000 0.000000 0.000000
# 4 0.000000 0.000000 0.000000 0.034975 0.000000 0.000000
# 5 0.000000 0.000000 0.000000 0.000000 0.045824 0.000000
# 6 0.000000 0.000000 0.000000 0.000000 0.000000 0.047007
#
#
# Mechanical properties :
#
#
# Convention : Reuss Voigt Hill
#
# Bulk Modulus (GPa) = 44.91961 45.00278 44.96120
# Shear Modulus (GPa) = 24.34741 25.72979 25.03860
#
# Velocity S-wave (km/s) = 3.60088 3.70169 3.65164
# Velocity P-wave (km/s) = 6.41955 6.49896 6.45938
#
# Compressibility (1/GPa) = 0.02226199
#
# Stress axis : x y z
#
# Youngs Moduli (GPa) = 63.43046 83.96600 53.98675
#
# Poissons Ratio (x) = 0.02720 0.39384
# Poissons Ratio (y) = 0.02055 0.23479
# Poissons Ratio (z) = 0.46273 0.36517
#
# Static dielectric constant tensor:
#      x y z
#    x 3.420070 0.000000 0.000000 
#    y 0.000000 3.493520 0.000000 
#    z 0.000000 0.000000 3.169530 
# 
# 
# High freq. dielectric constant tensor:
#      x y z
#    x 1.717040 0.000000 0.000000 
#    y 0.000000 1.735010 0.000000 
#    z 0.000000 0.000000 1.703570 
# 
# From -- ./inp_files/28272.got.cif
#   From: 2010.06.25/outbox.cif.g09.slc.cpg/sg52_15_cif.got.tgz:28272.got - 2010.06.26 19:32:48.
