data_PCOD8215751
_publ_section_title
;
Structure prediction by ZEFSAII (Michael W. Deem and Ramdas Pophale) SiO2 
 PCOD8215751
Probable space group: P N N A
;
_chemical_formula_sum "Si O2"
_cell_formula_units_Z 56
_cell_length_a 15.030766
_cell_length_b 11.637686
_cell_length_c 15.720358
_cell_angle_alpha 90.000000
_cell_angle_beta 90.000000
_cell_angle_gamma 90.000000
_cell_volume 2749.857450
_symmetry_space_group_name_H-M "P N N A"
_symmetry_group_IT_number 52
_symmetry_cell_setting 'orthorhombic'
loop_
_space_group_symop_operation_xyz
x,y,z
1/2-x,-y,z
x,1/2-y,1/2-z
1/2-x,1/2+y,1/2-z
-x,-y,-z
1/2+x,y,-z
-x,1/2+y,1/2+z
1/2+x,1/2-y,1/2+z
loop_
_atom_site_type_symbol
_atom_site_label
_atom_site_fract_x
_atom_site_fract_y
_atom_site_fract_z
Si Si1 0.167943 0.222739 0.010045
Si Si2 0.669311 0.339731 0.316825
Si Si3 0.988513 0.619662 0.953212
Si Si4 0.136812 0.593892 0.667691
Si Si5 0.353547 0.991032 0.128403
Si Si6 0.034600 0.370864 0.240640
Si Si7 0.367525 0.193584 0.011637
O O1 0.111201 0.333785 0.035710
O O2 0.131435 0.112273 0.061386
O O3 0.271243 0.250877 0.030067
O O4 0.153359 0.206280 0.910582
O O5 0.627262 0.250000 0.250000
O O6 0.773119 0.355587 0.292894
O O7 0.621319 0.461553 0.306832
O O8 0.999087 0.595250 0.852947
O O9 0.000000 0.500000 0.000000
O O10 0.059777 0.709305 0.992247
O O11 0.143803 0.605561 0.566322
O O12 0.051783 0.659722 0.702413
O O13 0.405706 0.970008 0.216704
O O14 0.250000 0.000000 0.150006
O O15 0.392708 0.110784 0.090740
O O16 0.088926 0.250000 0.250000
#
# Coordination Sequence:
#
# PCOD8215751 Si02
#       7
#     8   8   8   8   8   8   8
#     4  10  21  40  66  93 128 167 216 269 326 383
#     4  10  21  34  57  95 135 163 202 264 318 381
#     4  12  28  45  61  95 137 174 220 265 338 403
#     4  10  20  36  61  94 125 164 217 250 315 389
#     4  10  21  42  69  99 119 165 233 277 320 382
#     4  12  23  41  67  93 128 167 216 269 321 391
#     4  10  21  42  70  94 125 169 222 273 319 390
#
# _framework density 20.364692000000002
#
# number of rings (size 3 to 8) (size 9 to 14) (size 15 to 20)
#    0.000    1.429    4.286    0.429    6.000    1.714 
#    2.571    0.714    0.000    0.000    0.000    0.000 
#    0.000    0.000    0.000    0.000    0.000    0.000 
#
# Total GULP energy -694294.020779 kJ/mol
# GULP energy per Si atom -12398.107514 kJ/mol
# Density = 2.031834 g / cm^3
# Si number density = 20.364692 Si / 1000 Ang^3
#
#
#
# Elastic Constant Matrix: (Units=GPa)
#
#
# Indices 1 2 3 4 5 6 
#
# 1 92.0050 48.1586 38.4661 0.0000 0.0000 0.0000
# 2 48.1586 121.9042 43.2474 0.0000 0.0000 0.0000
# 3 38.4661 43.2474 86.5454 0.0000 0.0000 0.0000
# 4 0.0000 0.0000 0.0000 32.8151 0.0000 0.0000
# 5 0.0000 0.0000 0.0000 0.0000 21.3254 0.0000
# 6 0.0000 0.0000 0.0000 0.0000 0.0000 25.2426
#
#
#
# Elastic Compliance Matrix: (Units=1/GPa)
#
#
# Indices 1 2 3 4 5 6 
#
# 1 0.015024 -0.004335 -0.004512 0.000000 0.000000 0.000000
# 2 -0.004335 0.011221 -0.003681 0.000000 0.000000 0.000000
# 3 -0.004512 -0.003681 0.015399 0.000000 0.000000 0.000000
# 4 0.000000 0.000000 0.000000 0.030474 0.000000 0.000000
# 5 0.000000 0.000000 0.000000 0.000000 0.046892 0.000000
# 6 0.000000 0.000000 0.000000 0.000000 0.000000 0.039616
#
#
# Mechanical properties :
#
#
# Convention : Reuss Voigt Hill
#
# Bulk Modulus (GPa) = 60.27535 62.24429 61.25982
# Shear Modulus (GPa) = 26.42553 27.24880 26.83716
#
# Velocity S-wave (km/s) = 3.60615 3.66189 3.63413
# Velocity P-wave (km/s) = 6.85575 6.96494 6.91056
#
# Compressibility (1/GPa) = 0.01659053
#
# Stress axis : x y z
#
# Youngs Moduli (GPa) = 66.55939 89.11503 64.93866
#
# Poissons Ratio (x) = 0.38630 0.29297
# Poissons Ratio (y) = 0.28852 0.23903
# Poissons Ratio (z) = 0.30028 0.32801
#
# Static dielectric constant tensor:
#      x y z
#    x 3.662780 0.000000 0.000000 
#    y 0.000000 3.588950 0.000000 
#    z 0.000000 0.000000 3.649340 
# 
# 
# High freq. dielectric constant tensor:
#      x y z
#    x 1.791720 0.000000 0.000000 
#    y 0.000000 1.788890 0.000000 
#    z 0.000000 0.000000 1.790960 
# 
# From -- ./inp_files/27254.got.cif
#   From: 2010.06.25/outbox.cif.g09.slc.cpg/sg52_14_cif.got.tgz:27254.got - 2010.06.26 19:32:48.
