data_PCOD8215008
_publ_section_title
;
Structure prediction by ZEFSAII (Michael W. Deem and Ramdas Pophale) SiO2 
 PCOD8215008
Probable space group: P N N A
;
_chemical_formula_sum "Si O2"
_cell_formula_units_Z 48
_cell_length_a 8.735343
_cell_length_b 25.157116
_cell_length_c 11.756507
_cell_angle_alpha 90.000000
_cell_angle_beta 90.000000
_cell_angle_gamma 90.000000
_cell_volume 2583.563389
_symmetry_space_group_name_H-M "P N N A"
_symmetry_group_IT_number 52
_symmetry_cell_setting 'orthorhombic'
loop_
_space_group_symop_operation_xyz
x,y,z
1/2-x,-y,z
x,1/2-y,1/2-z
1/2-x,1/2+y,1/2-z
-x,-y,-z
1/2+x,y,-z
-x,1/2+y,1/2+z
1/2+x,1/2-y,1/2+z
loop_
_atom_site_type_symbol
_atom_site_label
_atom_site_fract_x
_atom_site_fract_y
_atom_site_fract_z
Si Si1 0.396612 0.286231 0.646999
Si Si2 0.325052 0.761721 0.472522
Si Si3 0.893541 0.969194 0.648431
Si Si4 0.431831 0.164821 0.454994
Si Si5 0.103133 0.435444 0.897605
Si Si6 0.893906 0.118460 0.300138
O O1 0.338990 0.250000 0.750000
O O2 0.286238 0.278463 0.539108
O O3 0.572450 0.271780 0.615398
O O4 0.382838 0.347464 0.685253
O O5 0.429684 0.793761 0.562928
O O6 0.222636 0.807190 0.407582
O O7 0.839005 0.945636 0.526340
O O8 0.957555 0.919277 0.718934
O O9 0.750000 0.000000 0.705511
O O10 0.035682 0.009423 0.644640
O O11 0.468595 0.109260 0.393593
O O12 0.414261 0.157241 0.591604
O O13 0.243315 0.417598 0.818938
#
# Coordination Sequence:
#
# PCOD8215008 Si02
#       6
#     8   8   8   8   8   8
#     4  11  21  38  57  78 113 153 194 237 283 331
#     4  10  20  34  54  81 111 150 192 235 279 328
#     4  10  20  30  49  82 117 139 181 230 285 353
#     4  10  17  31  52  76 112 146 178 220 283 341
#     4  10  18  30  51  81 114 150 175 219 288 362
#     4  11  20  33  54  73 110 155 180 218 282 343
#
# _framework density 18.578990000000001
#
# number of rings (size 3 to 8) (size 9 to 14) (size 15 to 20)
#    0.000    1.667    5.000    3.500    2.333    0.000 
#    0.000   10.000    0.000    0.000    0.000    8.167 
#    0.000    0.000    0.000    0.000    0.000    0.000 
#
# Total GULP energy -594933.969934 kJ/mol
# GULP energy per Si atom -12394.457707 kJ/mol
# Density = 1.853670 g / cm^3
# Si number density = 18.578990 Si / 1000 Ang^3
#
#
#
# Elastic Constant Matrix: (Units=GPa)
#
#
# Indices 1 2 3 4 5 6 
#
# 1 90.4982 29.9601 11.3035 0.0000 0.0000 0.0000
# 2 29.9601 92.5327 23.2701 0.0000 0.0000 0.0000
# 3 11.3035 23.2701 27.9483 0.0000 0.0000 0.0000
# 4 0.0000 0.0000 0.0000 25.8021 0.0000 0.0000
# 5 0.0000 0.0000 0.0000 0.0000 22.1532 0.0000
# 6 0.0000 0.0000 0.0000 0.0000 0.0000 36.6132
#
#
#
# Elastic Compliance Matrix: (Units=1/GPa)
#
#
# Indices 1 2 3 4 5 6 
#
# 1 0.012476 -0.003504 -0.002128 0.000000 0.000000 0.000000
# 2 -0.003504 0.014653 -0.010783 0.000000 0.000000 0.000000
# 3 -0.002128 -0.010783 0.045619 0.000000 0.000000 0.000000
# 4 0.000000 0.000000 0.000000 0.038756 0.000000 0.000000
# 5 0.000000 0.000000 0.000000 0.000000 0.045140 0.000000
# 6 0.000000 0.000000 0.000000 0.000000 0.000000 0.027313
#
#
# Mechanical properties :
#
#
# Convention : Reuss Voigt Hill
#
# Bulk Modulus (GPa) = 25.05183 37.78297 31.41740
# Shear Modulus (GPa) = 21.73017 26.67675 24.20346
#
# Velocity S-wave (km/s) = 3.42367 3.79338 3.61325
# Velocity P-wave (km/s) = 5.39832 6.29022 5.86126
#
# Compressibility (1/GPa) = 0.03991725
#
# Stress axis : x y z
#
# Youngs Moduli (GPa) = 80.15483 68.24366 21.92052
#
# Poissons Ratio (x) = 0.23914 0.04665
# Poissons Ratio (y) = 0.28088 0.23638
# Poissons Ratio (z) = 0.17058 0.73589
#
# Static dielectric constant tensor:
#      x y z
#    x 3.597650 0.000000 0.000000 
#    y 0.000000 3.614700 0.000000 
#    z 0.000000 0.000000 2.719180 
# 
# 
# High freq. dielectric constant tensor:
#      x y z
#    x 1.741630 0.000000 0.000000 
#    y 0.000000 1.735670 0.000000 
#    z 0.000000 0.000000 1.625920 
# 
# From -- ./inp_files/17041.got.cif
#   From: 2010.06.25/outbox.cif.g09.slc.cpg/sg52_9_cif.got.tgz:17041.got - 2010.06.26 19:32:48.
