data_PCOD8215955
_publ_section_title
;
Structure prediction by ZEFSAII (Michael W. Deem and Ramdas Pophale) SiO2 
 PCOD8215955
Probable space group: P N N A
;
_chemical_formula_sum "Si O2"
_cell_formula_units_Z 48
_cell_length_a 21.050785
_cell_length_b 13.228682
_cell_length_c 8.532692
_cell_angle_alpha 90.000000
_cell_angle_beta 90.000000
_cell_angle_gamma 90.000000
_cell_volume 2376.134072
_symmetry_space_group_name_H-M "P N N A"
_symmetry_group_IT_number 52
_symmetry_cell_setting 'orthorhombic'
loop_
_space_group_symop_operation_xyz
x,y,z
1/2-x,-y,z
x,1/2-y,1/2-z
1/2-x,1/2+y,1/2-z
-x,-y,-z
1/2+x,y,-z
-x,1/2+y,1/2+z
1/2+x,1/2-y,1/2+z
loop_
_atom_site_type_symbol
_atom_site_label
_atom_site_fract_x
_atom_site_fract_y
_atom_site_fract_z
Si Si1 0.798533 0.750000 0.250000
Si Si2 0.875134 0.647595 0.985066
Si Si3 0.274744 0.114150 0.987907
Si Si4 0.007574 0.763978 0.432503
Si Si5 0.215590 0.250000 0.250000
Si Si6 0.908505 0.349335 0.353415
Si Si7 0.565559 0.950390 0.455655
O O1 0.843332 0.683760 0.142923
O O2 0.756506 0.831775 0.160430
O O3 0.878886 0.525304 0.986717
O O4 0.944946 0.698247 0.975819
O O5 0.831138 0.674887 0.840335
O O6 0.349767 0.112822 0.957712
O O7 0.250000 0.000000 0.008747
O O8 0.259923 0.180821 0.141452
O O9 0.992889 0.750000 0.250000
O O10 0.032710 0.665186 0.524575
O O11 0.066274 0.843563 0.452867
O O12 0.892436 0.250000 0.250000
O O13 0.928548 0.437117 0.232200
O O14 0.500000 0.000000 0.500000
#
# Coordination Sequence:
#
# PCOD8215955 Si02
#       7
#     4   8   8   8   4   8   8
#     4  10  20  40  66  90 118 166 214 266 310 398
#     4  10  20  40  60  86 123 155 213 251 331 362
#     4  11  23  43  64  91 128 167 220 263 324 375
#     4  10  21  36  61  90 122 160 199 264 318 383
#     4  10  26  40  62  90 122 170 208 276 304 396
#     4  10  21  39  62  89 126 163 206 259 321 388
#     4   9  20  36  60  90 120 158 204 249 317 391
#
# _framework density 20.200880999999999
#
# number of rings (size 3 to 8) (size 9 to 14) (size 15 to 20)
#    0.000    2.000    1.667    1.000    7.000    1.333 
#    3.000    5.000    0.000    0.000    0.000    0.000 
#    0.000    0.000    0.000    0.000    0.000    0.000 
#
# Total GULP energy -594956.903572 kJ/mol
# GULP energy per Si atom -12394.935491 kJ/mol
# Density = 2.015490 g / cm^3
# Si number density = 20.200881 Si / 1000 Ang^3
#
#
#
# Elastic Constant Matrix: (Units=GPa)
#
#
# Indices 1 2 3 4 5 6 
#
# 1 94.4502 30.1541 47.5246 0.0000 0.0000 0.0000
# 2 30.1541 84.4073 40.0150 0.0000 0.0000 0.0000
# 3 47.5246 40.0150 115.6456 0.0000 0.0000 0.0000
# 4 0.0000 0.0000 0.0000 21.1582 0.0000 0.0000
# 5 0.0000 0.0000 0.0000 0.0000 23.8918 0.0000
# 6 0.0000 0.0000 0.0000 0.0000 0.0000 25.5437
#
#
#
# Elastic Compliance Matrix: (Units=1/GPa)
#
#
# Indices 1 2 3 4 5 6 
#
# 1 0.013840 -0.002689 -0.004757 0.000000 0.000000 0.000000
# 2 -0.002689 0.014695 -0.003979 0.000000 0.000000 0.000000
# 3 -0.004757 -0.003979 0.011979 0.000000 0.000000 0.000000
# 4 0.000000 0.000000 0.000000 0.047263 0.000000 0.000000
# 5 0.000000 0.000000 0.000000 0.000000 0.041855 0.000000
# 6 0.000000 0.000000 0.000000 0.000000 0.000000 0.039149
#
#
# Mechanical properties :
#
#
# Convention : Reuss Voigt Hill
#
# Bulk Modulus (GPa) = 56.61805 58.87672 57.74738
# Shear Modulus (GPa) = 25.31410 25.90602 25.61006
#
# Velocity S-wave (km/s) = 3.54378 3.58497 3.56444
# Velocity P-wave (km/s) = 6.69574 6.80771 6.75196
#
# Compressibility (1/GPa) = 0.01766221
#
# Stress axis : x y z
#
# Youngs Moduli (GPa) = 72.25618 68.05266 83.47983
#
# Poissons Ratio (x) = 0.18299 0.39711
# Poissons Ratio (y) = 0.19430 0.33220
# Poissons Ratio (z) = 0.34372 0.27081
#
# Static dielectric constant tensor:
#      x y z
#    x 3.656340 0.000000 0.000000 
#    y 0.000000 4.170200 0.000000 
#    z 0.000000 0.000000 3.584480 
# 
# 
# High freq. dielectric constant tensor:
#      x y z
#    x 1.786340 0.000000 0.000000 
#    y 0.000000 1.788590 0.000000 
#    z 0.000000 0.000000 1.790810 
# 
# From -- ./inp_files/12166.got.cif
#   From: 2010.06.25/outbox.cif.g09.slc.cpg/sg52_7_cif.got.tgz:12166.got - 2010.06.26 19:32:48.
