data_PCOD8215178
_publ_section_title
;
Structure prediction by ZEFSAII (Michael W. Deem and Ramdas Pophale) SiO2 
 PCOD8215178
Probable space group: P N N A
;
_chemical_formula_sum "Si O2"
_cell_formula_units_Z 52
_cell_length_a 14.978317
_cell_length_b 29.049200
_cell_length_c 5.229010
_cell_angle_alpha 90.000000
_cell_angle_beta 90.000000
_cell_angle_gamma 90.000000
_cell_volume 2275.184743
_symmetry_space_group_name_H-M "P N N A"
_symmetry_group_IT_number 52
_symmetry_cell_setting 'orthorhombic'
loop_
_space_group_symop_operation_xyz
x,y,z
1/2-x,-y,z
x,1/2-y,1/2-z
1/2-x,1/2+y,1/2-z
-x,-y,-z
1/2+x,y,-z
-x,1/2+y,1/2+z
1/2+x,1/2-y,1/2+z
loop_
_atom_site_type_symbol
_atom_site_label
_atom_site_fract_x
_atom_site_fract_y
_atom_site_fract_z
Si Si1 0.814419 0.347625 0.396645
Si Si2 0.148575 0.750000 0.750000
Si Si3 0.532395 0.750000 0.750000
Si Si4 0.750000 0.500000 0.341209
Si Si5 0.447087 0.605556 0.050965
Si Si6 0.490050 0.657367 0.558751
Si Si7 0.134367 0.569513 0.949822
Si Si8 0.721172 0.080919 0.822352
O O1 0.791585 0.295514 0.305918
O O2 0.902208 0.345982 0.577196
O O3 0.832523 0.381914 0.163359
O O4 0.728376 0.368487 0.545669
O O5 0.090903 0.763916 0.499651
O O6 0.467503 0.709090 0.651020
O O7 0.828918 0.475971 0.184625
O O8 0.695418 0.460926 0.493660
O O9 0.459196 0.644747 0.271082
O O10 0.526943 0.568164 0.059001
O O11 0.352083 0.581091 0.097227
O O12 0.443211 0.624366 0.763668
O O13 0.177893 0.568800 0.230983
#
# Coordination Sequence:
#
# PCOD8215178 Si02
#       8
#     8   4   4   4   8   8   8   8
#     4   9  20  37  64  91 134 171 220 266 325 383
#     4  10  20  32  63 102 123 176 226 260 319 390
#     4  10  18  34  63  90 133 170 224 268 319 382
#     4  10  24  42  66  96 124 166 218 274 344 394
#     4  11  24  39  68  94 128 174 220 260 337 396
#     4  10  20  39  61  96 125 174 219 266 320 387
#     4  10  21  43  65  91 131 169 212 274 329 399
#     4  11  23  42  66  93 130 174 216 278 330 395
#
# _framework density 22.855288999999999
#
# number of rings (size 3 to 8) (size 9 to 14) (size 15 to 20)
#    0.000    1.846    1.538    3.231    6.462    0.615 
#    0.000    3.846    3.385    0.000    0.000    0.000 
#    0.000    0.000    0.000    0.000    0.000    0.000 
#
# Total GULP energy -644312.847498 kJ/mol
# GULP energy per Si atom -12390.631683 kJ/mol
# Density = 2.280327 g / cm^3
# Si number density = 22.855289 Si / 1000 Ang^3
#
#
#
# Elastic Constant Matrix: (Units=GPa)
#
#
# Indices 1 2 3 4 5 6 
#
# 1 64.3836 7.7618 -2.6354 0.0000 0.0000 0.0000
# 2 7.7618 117.8335 13.8273 0.0000 0.0000 0.0000
# 3 -2.6354 13.8273 82.2067 0.0000 0.0000 0.0000
# 4 0.0000 0.0000 0.0000 17.1329 0.0000 0.0000
# 5 0.0000 0.0000 0.0000 0.0000 24.0152 0.0000
# 6 0.0000 0.0000 0.0000 0.0000 0.0000 15.6871
#
#
#
# Elastic Compliance Matrix: (Units=1/GPa)
#
#
# Indices 1 2 3 4 5 6 
#
# 1 0.015695 -0.001115 0.000691 0.000000 0.000000 0.000000
# 2 -0.001115 0.008737 -0.001505 0.000000 0.000000 0.000000
# 3 0.000691 -0.001505 0.012440 0.000000 0.000000 0.000000
# 4 0.000000 0.000000 0.000000 0.058367 0.000000 0.000000
# 5 0.000000 0.000000 0.000000 0.000000 0.041640 0.000000
# 6 0.000000 0.000000 0.000000 0.000000 0.000000 0.063747
#
#
# Mechanical properties :
#
#
# Convention : Reuss Voigt Hill
#
# Bulk Modulus (GPa) = 30.29195 33.59237 31.94216
# Shear Modulus (GPa) = 23.20313 27.73170 25.46741
#
# Velocity S-wave (km/s) = 3.18971 3.48711 3.34172
# Velocity P-wave (km/s) = 5.18153 5.56264 5.37546
#
# Compressibility (1/GPa) = 0.03301207
#
# Stress axis : x y z
#
# Youngs Moduli (GPa) = 63.71623 114.46067 80.38721
#
# Poissons Ratio (x) = 0.12761 -0.05552
# Poissons Ratio (y) = 0.07103 0.12100
# Poissons Ratio (z) = -0.04401 0.17229
#
# Static dielectric constant tensor:
#      x y z
#    x 3.864030 0.000000 0.000000 
#    y 0.000000 4.275940 0.000000 
#    z 0.000000 0.000000 4.180720 
# 
# 
# High freq. dielectric constant tensor:
#      x y z
#    x 1.868210 0.000000 0.000000 
#    y 0.000000 1.902570 0.000000 
#    z 0.000000 0.000000 1.912420 
# 
# From -- ./inp_files/3641.got.cif
#   From: 2010.06.25/outbox.cif.g09.slc.cpg/sg52_2_cif.got.tgz:3641.got - 2010.06.26 19:32:48.
