data_PCOD8215089
_publ_section_title
;
Structure prediction by ZEFSAII (Michael W. Deem and Ramdas Pophale) SiO2 
 PCOD8215089
Probable space group: P N N A
;
_chemical_formula_sum "Si O2"
_cell_formula_units_Z 64
_cell_length_a 24.882616
_cell_length_b 16.086013
_cell_length_c 8.919637
_cell_angle_alpha 90.000000
_cell_angle_beta 90.000000
_cell_angle_gamma 90.000000
_cell_volume 3570.192498
_symmetry_space_group_name_H-M "P N N A"
_symmetry_group_IT_number 52
_symmetry_cell_setting 'orthorhombic'
loop_
_space_group_symop_operation_xyz
x,y,z
1/2-x,-y,z
x,1/2-y,1/2-z
1/2-x,1/2+y,1/2-z
-x,-y,-z
1/2+x,y,-z
-x,1/2+y,1/2+z
1/2+x,1/2-y,1/2+z
loop_
_atom_site_type_symbol
_atom_site_label
_atom_site_fract_x
_atom_site_fract_y
_atom_site_fract_z
Si Si1 0.660809 0.615888 0.097992
Si Si2 0.454304 0.334086 0.834188
Si Si3 0.353040 0.157714 0.271979
Si Si4 0.234323 0.341078 0.715711
Si Si5 0.522754 0.663488 0.821044
Si Si6 0.213414 0.930473 0.031529
Si Si7 0.851760 0.971711 0.211623
Si Si8 0.470417 0.507077 0.659762
O O1 0.610486 0.673739 0.148020
O O2 0.715925 0.639856 0.176384
O O3 0.642048 0.521866 0.132646
O O4 0.671583 0.621298 0.922609
O O5 0.473668 0.250000 0.750000
O O6 0.472238 0.416753 0.742024
O O7 0.481821 0.334911 0.998441
O O8 0.330589 0.250000 0.250000
O O9 0.416638 0.155248 0.265384
O O10 0.332651 0.101498 0.137695
O O11 0.215310 0.250000 0.750000
O O12 0.250958 0.355999 0.541176
O O13 0.178911 0.387997 0.752820
O O14 0.499082 0.750000 0.750000
O O15 0.494558 0.579994 0.762549
O O16 0.250000 0.000000 0.115263
O O17 0.186934 0.974125 0.890465
O O18 0.909328 0.962154 0.131711
O O19 0.500000 0.500000 0.500000
#
# Coordination Sequence:
#
# PCOD8215089 Si02
#       8
#     8   8   8   8   8   8   8   8
#     4   9  18  31  51  75 101 130 164 206 256 305
#     4  10  20  35  54  79 106 132 170 219 266 314
#     4  10  19  31  50  78 103 127 163 210 254 299
#     4  10  18  31  50  71  98 133 168 206 246 298
#     4  10  21  35  53  79 107 135 173 218 264 313
#     4   9  18  32  48  69  99 130 163 202 250 304
#     4   9  20  34  49  72  99 132 173 209 249 306
#     4  11  21  35  56  77 103 141 178 220 270 315
#
# _framework density 17.926205
#
# number of rings (size 3 to 8) (size 9 to 14) (size 15 to 20)
#    0.000    2.250    0.000    4.125    0.000    8.500 
#    0.000    0.000    0.000    0.000    0.000    8.750 
#    0.000    0.000    0.000    0.000    0.000    0.000 
#
# Total GULP energy -793084.961750 kJ/mol
# GULP energy per Si atom -12391.952527 kJ/mol
# Density = 1.788540 g / cm^3
# Si number density = 17.926205 Si / 1000 Ang^3
#
#
#
# Elastic Constant Matrix: (Units=GPa)
#
#
# Indices 1 2 3 4 5 6 
#
# 1 59.1794 40.4132 23.4649 0.0000 0.0000 0.0000
# 2 40.4132 133.5348 52.8707 0.0000 0.0000 0.0000
# 3 23.4649 52.8707 85.1134 0.0000 0.0000 0.0000
# 4 0.0000 0.0000 0.0000 23.2466 0.0000 0.0000
# 5 0.0000 0.0000 0.0000 0.0000 26.7294 0.0000
# 6 0.0000 0.0000 0.0000 0.0000 0.0000 28.9074
#
#
#
# Elastic Compliance Matrix: (Units=1/GPa)
#
#
# Indices 1 2 3 4 5 6 
#
# 1 0.021701 -0.005568 -0.002524 0.000000 0.000000 0.000000
# 2 -0.005568 0.011360 -0.005521 0.000000 0.000000 0.000000
# 3 -0.002524 -0.005521 0.015875 0.000000 0.000000 0.000000
# 4 0.000000 0.000000 0.000000 0.043017 0.000000 0.000000
# 5 0.000000 0.000000 0.000000 0.000000 0.037412 0.000000
# 6 0.000000 0.000000 0.000000 0.000000 0.000000 0.034593
#
#
# Mechanical properties :
#
#
# Convention : Reuss Voigt Hill
#
# Bulk Modulus (GPa) = 46.06505 56.81393 51.43949
# Shear Modulus (GPa) = 25.19888 26.51527 25.85707
#
# Velocity S-wave (km/s) = 3.75333 3.85012 3.80204
# Velocity P-wave (km/s) = 6.67354 7.17821 6.93047
#
# Compressibility (1/GPa) = 0.02170843
#
# Stress axis : x y z
#
# Youngs Moduli (GPa) = 46.08064 88.02783 62.99353
#
# Poissons Ratio (x) = 0.49018 0.15898
# Poissons Ratio (y) = 0.25660 0.34782
# Poissons Ratio (z) = 0.11630 0.48604
#
# Static dielectric constant tensor:
#      x y z
#    x 3.291190 0.000000 0.000000 
#    y 0.000000 3.647010 0.000000 
#    z 0.000000 0.000000 3.333650 
# 
# 
# High freq. dielectric constant tensor:
#      x y z
#    x 1.682300 0.000000 0.000000 
#    y 0.000000 1.699760 0.000000 
#    z 0.000000 0.000000 1.689700 
# 
# From -- ./inp_files/14480.got.cif
#   From: 2010.06.25/outbox.cif.g09.slc.cpg/sg52_8_cif.got.tgz:14480.got - 2010.06.26 19:32:48.
