data_PCOD8215187
_publ_section_title
;
Structure prediction by ZEFSAII (Michael W. Deem and Ramdas Pophale) SiO2 
 PCOD8215187
Probable space group: P N N A
;
_chemical_formula_sum "Si O2"
_cell_formula_units_Z 44
_cell_length_a 14.341957
_cell_length_b 19.842071
_cell_length_c 8.622865
_cell_angle_alpha 90.000000
_cell_angle_beta 90.000000
_cell_angle_gamma 90.000000
_cell_volume 2453.844297
_symmetry_space_group_name_H-M "P N N A"
_symmetry_group_IT_number 52
_symmetry_cell_setting 'orthorhombic'
loop_
_space_group_symop_operation_xyz
x,y,z
1/2-x,-y,z
x,1/2-y,1/2-z
1/2-x,1/2+y,1/2-z
-x,-y,-z
1/2+x,y,-z
-x,1/2+y,1/2+z
1/2+x,1/2-y,1/2+z
loop_
_atom_site_type_symbol
_atom_site_label
_atom_site_fract_x
_atom_site_fract_y
_atom_site_fract_z
Si Si1 0.734579 0.390893 0.425634
Si Si2 0.926553 0.096120 0.953830
Si Si3 0.928195 0.671531 0.259521
Si Si4 0.585317 0.452386 0.658824
Si Si5 0.750000 0.500000 0.184320
Si Si6 0.921032 0.943000 0.494731
O O1 0.828768 0.365303 0.509617
O O2 0.674584 0.334610 0.336441
O O3 0.666167 0.427881 0.544748
O O4 0.777892 0.439532 0.296631
O O5 0.991241 0.150468 0.875259
O O6 0.908523 0.033621 0.837273
O O7 0.981345 0.068619 0.105138
O O8 0.946167 0.750000 0.250000
O O9 0.939803 0.626010 0.103166
O O10 0.601957 0.421249 0.829161
O O11 0.835193 0.518059 0.076764
O O12 0.000000 0.000000 0.500000
#
# Coordination Sequence:
#
# PCOD8215187 Si02
#       6
#     8   8   8   8   4   8
#     4  10  19  36  57  81 115 150 194 234 297 357
#     4  10  18  35  59  81 111 156 193 232 302 353
#     4  10  23  41  56  80 124 162 189 238 302 360
#     4  10  19  31  58  89 112 140 192 258 289 343
#     4  10  20  30  54  86 116 142 178 246 306 340
#     4  11  21  34  55  88 113 139 193 253 291 332
#
# _framework density 17.931048000000001
#
# number of rings (size 3 to 8) (size 9 to 14) (size 15 to 20)
#    0.000    1.818    3.636    1.091    2.545    0.000 
#    0.000   10.909    0.000    0.000    0.000    0.000 
#    0.000    0.000    0.000    0.000    0.000    0.000 
#
# Total GULP energy -545173.167569 kJ/mol
# GULP energy per Si atom -12390.299263 kJ/mol
# Density = 1.789024 g / cm^3
# Si number density = 17.931048 Si / 1000 Ang^3
#
#
#
# Elastic Constant Matrix: (Units=GPa)
#
#
# Indices 1 2 3 4 5 6 
#
# 1 102.0326 17.9248 35.1269 0.0000 0.0000 0.0000
# 2 17.9248 85.0199 40.4963 0.0000 0.0000 0.0000
# 3 35.1269 40.4963 99.3657 0.0000 0.0000 0.0000
# 4 0.0000 0.0000 0.0000 5.9806 0.0000 0.0000
# 5 0.0000 0.0000 0.0000 0.0000 -40.3988 0.0000
# 6 0.0000 0.0000 0.0000 0.0000 0.0000 9.0855
#
#
#
# Elastic Compliance Matrix: (Units=1/GPa)
#
#
# Indices 1 2 3 4 5 6 
#
# 1 0.011183 -0.000589 -0.003713 0.000000 0.000000 0.000000
# 2 -0.000589 0.014626 -0.005753 0.000000 0.000000 0.000000
# 3 -0.003713 -0.005753 0.013721 0.000000 0.000000 0.000000
# 4 0.000000 0.000000 0.000000 0.167207 0.000000 0.000000
# 5 0.000000 0.000000 0.000000 0.000000 -0.024753 0.000000
# 6 0.000000 0.000000 0.000000 0.000000 0.000000 0.110066
#
#
# Mechanical properties :
#
#
# Convention : Reuss Voigt Hill
#
# Bulk Modulus (GPa) = 51.49288 52.61269 52.05278
# Shear Modulus (GPa) = 15.69206 7.79147 11.74177
#
# Velocity S-wave (km/s) = 2.96147 2.08679 2.56174
# Velocity P-wave (km/s) = 6.36186 5.93394 6.15162
#
# Compressibility (1/GPa) = 0.01942016
#
# Stress axis : x y z
#
# Youngs Moduli (GPa) = 89.42478 68.37043 72.88133
#
# Poissons Ratio (x) = 0.04027 0.27062
# Poissons Ratio (y) = 0.05267 0.41926
# Poissons Ratio (z) = 0.33204 0.39331
#
# Static dielectric constant tensor:
#      x y z
#    x 5.292980 0.000000 0.000000 
#    y 0.000000 2.927420 0.000000 
#    z 0.000000 0.000000 3.689170 
# 
# 
# High freq. dielectric constant tensor:
#      x y z
#    x 1.712020 0.000000 0.000000 
#    y 0.000000 1.652440 0.000000 
#    z 0.000000 0.000000 1.700580 
# 
# From -- ./inp_files/10363.got.cif
#   From: 2010.06.25/outbox.cif.g09.slc.cpg/sg52_6_cif.got.tgz:10363.got - 2010.06.26 19:32:48.
