data_PCOD8215534
_publ_section_title
;
Structure prediction by ZEFSAII (Michael W. Deem and Ramdas Pophale) SiO2 
 PCOD8215534
Probable space group: P N N A
;
_chemical_formula_sum "Si O2"
_cell_formula_units_Z 48
_cell_length_a 9.034409
_cell_length_b 13.342834
_cell_length_c 20.028236
_cell_angle_alpha 90.000000
_cell_angle_beta 90.000000
_cell_angle_gamma 90.000000
_cell_volume 2414.296089
_symmetry_space_group_name_H-M "P N N A"
_symmetry_group_IT_number 52
_symmetry_cell_setting 'orthorhombic'
loop_
_space_group_symop_operation_xyz
x,y,z
1/2-x,-y,z
x,1/2-y,1/2-z
1/2-x,1/2+y,1/2-z
-x,-y,-z
1/2+x,y,-z
-x,1/2+y,1/2+z
1/2+x,1/2-y,1/2+z
loop_
_atom_site_type_symbol
_atom_site_label
_atom_site_fract_x
_atom_site_fract_y
_atom_site_fract_z
Si Si1 0.469436 0.657630 0.078985
Si Si2 0.357493 0.300384 0.051033
Si Si3 0.074236 0.003930 0.790043
Si Si4 0.583066 0.963693 0.656757
Si Si5 0.410119 0.812619 0.188373
Si Si6 0.654104 0.590437 0.610133
O O1 0.311604 0.669282 0.045028
O O2 0.493796 0.550374 0.113279
O O3 0.489523 0.746233 0.132250
O O4 0.585441 0.665861 0.020131
O O5 0.423684 0.360825 0.114345
O O6 0.383796 0.180467 0.059098
O O7 0.013359 0.057941 0.723144
O O8 0.998663 0.052604 0.856078
O O9 0.250000 0.000000 0.796247
O O10 0.032030 0.888172 0.784846
O O11 0.750000 0.000000 0.675357
O O12 0.350753 0.750000 0.250000
O O13 0.261775 0.868009 0.166723
O O14 0.750000 0.500000 0.574921
#
# Coordination Sequence:
#
# PCOD8215534 Si02
#       6
#     8   8   8   8   8   8
#     4  10  21  37  60  86 119 155 199 244 299 354
#     4  10  22  37  58  89 116 159 198 241 301 357
#     4  11  23  37  56  92 122 151 193 258 311 340
#     4  10  20  37  60  84 119 161 201 236 292 374
#     4  10  19  39  64  82 112 159 203 240 291 360
#     4   9  21  39  62  84 116 156 209 241 289 366
#
# _framework density 19.88157
#
# number of rings (size 3 to 8) (size 9 to 14) (size 15 to 20)
#    0.000    2.000    1.667    2.000    4.667    2.667 
#    3.000    8.333    0.000    0.000    0.000    0.000 
#    0.000    0.000    0.000    0.000    0.000    0.000 
#
# Total GULP energy -595032.387727 kJ/mol
# GULP energy per Si atom -12396.508078 kJ/mol
# Density = 1.983632 g / cm^3
# Si number density = 19.881570 Si / 1000 Ang^3
#
#
#
# Elastic Constant Matrix: (Units=GPa)
#
#
# Indices 1 2 3 4 5 6 
#
# 1 55.4735 12.0482 14.2616 0.0000 0.0000 0.0000
# 2 12.0482 91.1853 0.2043 0.0000 0.0000 0.0000
# 3 14.2616 0.2043 50.2643 0.0000 0.0000 0.0000
# 4 0.0000 0.0000 0.0000 23.2188 0.0000 0.0000
# 5 0.0000 0.0000 0.0000 0.0000 28.9013 0.0000
# 6 0.0000 0.0000 0.0000 0.0000 0.0000 -12.5923
#
#
#
# Elastic Compliance Matrix: (Units=1/GPa)
#
#
# Indices 1 2 3 4 5 6 
#
# 1 0.020060 -0.002638 -0.005681 0.000000 0.000000 0.000000
# 2 -0.002638 0.011314 0.000702 0.000000 0.000000 0.000000
# 3 -0.005681 0.000702 0.021504 0.000000 0.000000 0.000000
# 4 0.000000 0.000000 0.000000 0.043069 0.000000 0.000000
# 5 0.000000 0.000000 0.000000 0.000000 0.034601 0.000000
# 6 0.000000 0.000000 0.000000 0.000000 0.000000 -0.079413
#
#
# Mechanical properties :
#
#
# Convention : Reuss Voigt Hill
#
# Bulk Modulus (GPa) = 26.56402 27.77237 27.16820
# Shear Modulus (GPa) = 63.35993 19.26614 41.31303
#
# Velocity S-wave (km/s) = 5.65136 3.11633 4.56341
# Velocity P-wave (km/s) = 7.48157 5.19114 6.43901
#
# Compressibility (1/GPa) = 0.03764491
#
# Stress axis : x y z
#
# Youngs Moduli (GPa) = 49.85033 88.38898 46.50329
#
# Poissons Ratio (x) = 0.23315 0.26418
# Poissons Ratio (y) = 0.13149 -0.03267
# Poissons Ratio (z) = 0.28320 -0.06209
#
# Static dielectric constant tensor:
#      x y z
#    x 3.410740 0.000000 0.000000 
#    y 0.000000 4.411230 0.000000 
#    z 0.000000 0.000000 3.463610 
# 
# 
# High freq. dielectric constant tensor:
#      x y z
#    x 1.755930 0.000000 0.000000 
#    y 0.000000 1.790480 0.000000 
#    z 0.000000 0.000000 1.767260 
# 
# From -- ./inp_files/31218.got.cif
#   From: 2010.06.25/outbox.cif.g09.slc.cpg/sg52_16_cif.got.tgz:31218.got - 2010.06.26 19:32:48.
