data_PCOD8215524
_publ_section_title
;
Structure prediction by ZEFSAII (Michael W. Deem and Ramdas Pophale) SiO2 
 PCOD8215524
Probable space group: P N N A
;
_chemical_formula_sum "Si O2"
_cell_formula_units_Z 60
_cell_length_a 11.672824
_cell_length_b 24.478644
_cell_length_c 8.875417
_cell_angle_alpha 90.000000
_cell_angle_beta 90.000000
_cell_angle_gamma 90.000000
_cell_volume 2536.016417
_symmetry_space_group_name_H-M "P N N A"
_symmetry_group_IT_number 52
_symmetry_cell_setting 'orthorhombic'
loop_
_space_group_symop_operation_xyz
x,y,z
1/2-x,-y,z
x,1/2-y,1/2-z
1/2-x,1/2+y,1/2-z
-x,-y,-z
1/2+x,y,-z
-x,1/2+y,1/2+z
1/2+x,1/2-y,1/2+z
loop_
_atom_site_type_symbol
_atom_site_label
_atom_site_fract_x
_atom_site_fract_y
_atom_site_fract_z
Si Si1 0.750000 0.500000 0.415797
Si Si2 0.994881 0.810306 0.716361
Si Si3 0.605812 0.420566 0.207248
Si Si4 0.860245 0.299927 0.933412
Si Si5 0.681782 0.391325 0.887688
Si Si6 0.382072 0.317024 0.500474
Si Si7 0.939748 0.806824 0.210377
Si Si8 0.353283 0.427456 0.341520
O O1 0.689013 0.457855 0.304418
O O2 0.656567 0.527396 0.526968
O O3 0.941120 0.750000 0.750000
O O4 0.907435 0.861300 0.723678
O O5 0.036946 0.811419 0.546444
O O6 0.107529 0.822538 0.819083
O O7 0.638477 0.357549 0.244398
O O8 0.475164 0.432452 0.256939
O O9 0.625003 0.426178 0.026186
O O10 0.760155 0.343217 0.955379
O O11 0.811208 0.238051 0.955631
O O12 0.928637 0.308465 0.777197
O O13 0.754764 0.433789 0.786009
O O14 0.520570 0.310063 0.463274
O O15 0.328160 0.370091 0.424381
O O16 0.875402 0.750000 0.250000
#
# Coordination Sequence:
#
# PCOD8215524 Si02
#       8
#     4   8   8   8   8   8   8   8
#     4  12  30  52  78 102 132 196 254 300 380 416
#     4  10  22  36  61 103 147 191 233 277 347 439
#     4  11  25  51  71 106 144 185 241 305 353 433
#     4  10  19  39  60 105 152 186 226 281 347 442
#     4  12  23  40  74 105 142 191 239 279 371 434
#     4   9  20  38  65  96 150 190 219 295 349 405
#     4   9  17  38  66  96 146 183 215 285 356 408
#     4  11  26  49  74 104 144 180 249 311 355 418
#
# _framework density 23.659153
#
# number of rings (size 3 to 8) (size 9 to 14) (size 15 to 20)
#    0.000    1.600    4.000    0.400    7.467    0.533 
#    2.400    1.333    0.000    0.000    0.000    0.000 
#    0.000    0.000    0.000    0.000    0.000    0.000 
#
# Total GULP energy -743338.441591 kJ/mol
# GULP energy per Si atom -12388.974027 kJ/mol
# Density = 2.360530 g / cm^3
# Si number density = 23.659153 Si / 1000 Ang^3
#
#
#
# Elastic Constant Matrix: (Units=GPa)
#
#
# Indices 1 2 3 4 5 6 
#
# 1 64.9994 26.2042 32.2782 0.0000 0.0000 0.0000
# 2 26.2042 101.4162 41.6631 0.0000 0.0000 0.0000
# 3 32.2782 41.6631 100.0541 0.0000 0.0000 0.0000
# 4 0.0000 0.0000 0.0000 38.9458 0.0000 0.0000
# 5 0.0000 0.0000 0.0000 0.0000 32.2076 0.0000
# 6 0.0000 0.0000 0.0000 0.0000 0.0000 32.5860
#
#
#
# Elastic Compliance Matrix: (Units=1/GPa)
#
#
# Indices 1 2 3 4 5 6 
#
# 1 0.018994 -0.002884 -0.004927 0.000000 0.000000 0.000000
# 2 -0.002884 0.012333 -0.004205 0.000000 0.000000 0.000000
# 3 -0.004927 -0.004205 0.013335 0.000000 0.000000 0.000000
# 4 0.000000 0.000000 0.000000 0.025677 0.000000 0.000000
# 5 0.000000 0.000000 0.000000 0.000000 0.031049 0.000000
# 6 0.000000 0.000000 0.000000 0.000000 0.000000 0.030688
#
#
# Mechanical properties :
#
#
# Convention : Reuss Voigt Hill
#
# Bulk Modulus (GPa) = 48.47176 51.86229 50.16702
# Shear Modulus (GPa) = 30.67792 31.83616 31.25704
#
# Velocity S-wave (km/s) = 3.60483 3.67225 3.63869
# Velocity P-wave (km/s) = 6.15292 6.32050 6.23727
#
# Compressibility (1/GPa) = 0.02063057
#
# Stress axis : x y z
#
# Youngs Moduli (GPa) = 52.64847 81.08307 74.99005
#
# Poissons Ratio (x) = 0.23382 0.36946
# Poissons Ratio (y) = 0.15182 0.31535
# Poissons Ratio (z) = 0.25939 0.34097
#
# Static dielectric constant tensor:
#      x y z
#    x 3.767280 0.000000 0.000000 
#    y 0.000000 4.271310 0.000000 
#    z 0.000000 0.000000 4.496440 
# 
# 
# High freq. dielectric constant tensor:
#      x y z
#    x 1.903850 0.000000 0.000000 
#    y 0.000000 1.924170 0.000000 
#    z 0.000000 0.000000 1.962400 
# 
# From -- ./inp_files/9030.got.cif
#   From: 2010.06.25/outbox.cif.g09.slc.cpg/sg52_5_cif.got.tgz:9030.got - 2010.06.26 19:32:48.
