data_PCOD8215711
_publ_section_title
;
Structure prediction by ZEFSAII (Michael W. Deem and Ramdas Pophale) SiO2 
 PCOD8215711
Probable space group: P N N A
;
_chemical_formula_sum "Si O2"
_cell_formula_units_Z 44
_cell_length_a 22.976993
_cell_length_b 8.729649
_cell_length_c 10.718044
_cell_angle_alpha 90.000000
_cell_angle_beta 90.000000
_cell_angle_gamma 90.000000
_cell_volume 2149.836884
_symmetry_space_group_name_H-M "P N N A"
_symmetry_group_IT_number 52
_symmetry_cell_setting 'orthorhombic'
loop_
_space_group_symop_operation_xyz
x,y,z
1/2-x,-y,z
x,1/2-y,1/2-z
1/2-x,1/2+y,1/2-z
-x,-y,-z
1/2+x,y,-z
-x,1/2+y,1/2+z
1/2+x,1/2-y,1/2+z
loop_
_atom_site_type_symbol
_atom_site_label
_atom_site_fract_x
_atom_site_fract_y
_atom_site_fract_z
Si Si1 0.424017 0.081823 0.712385
Si Si2 0.186740 0.477894 0.086361
Si Si3 0.693891 0.085733 0.305047
Si Si4 0.540401 0.975826 0.812852
Si Si5 0.113071 0.250000 0.250000
Si Si6 0.920146 0.327635 0.936881
O O1 0.406191 0.250000 0.750000
O O2 0.443151 0.097701 0.566232
O O3 0.366740 0.985499 0.736636
O O4 0.471454 0.010472 0.808302
O O5 0.250000 0.500000 0.151194
O O6 0.152112 0.351972 0.161991
O O7 0.149825 0.638177 0.075482
O O8 0.198486 0.404323 0.953075
O O9 0.696531 0.250000 0.250000
O O10 0.750000 0.000000 0.248853
O O11 0.562027 0.852772 0.917831
O O12 0.549852 0.917672 0.673670
O O13 0.573310 0.137155 0.834923
#
# Coordination Sequence:
#
# PCOD8215711 Si02
#       6
#     8   8   8   8   4   8
#     4  11  22  37  57  87 115 153 199 236 290 350
#     4   9  20  39  60  84 113 152 192 235 293 351
#     4  10  22  41  62  85 117 152 193 241 290 347
#     4  10  20  38  55  82 118 155 192 236 295 343
#     4  10  20  36  56  86 118 144 196 252 282 348
#     4   9  21  37  57  78 118 154 189 239 290 349
#
# _framework density 20.466669
#
# number of rings (size 3 to 8) (size 9 to 14) (size 15 to 20)
#    0.000    2.182    0.909    1.091    2.545    5.091 
#    0.000    0.909    0.000    0.000    0.000    0.000 
#    0.000    0.000    0.000    0.000    0.000    0.000 
#
# Total GULP energy -545147.874381 kJ/mol
# GULP energy per Si atom -12389.724418 kJ/mol
# Density = 2.042009 g / cm^3
# Si number density = 20.466669 Si / 1000 Ang^3
#
#
#
# Elastic Constant Matrix: (Units=GPa)
#
#
# Indices 1 2 3 4 5 6 
#
# 1 176.0282 85.4864 34.7170 0.0000 0.0000 0.0000
# 2 85.4864 147.6757 34.8272 0.0000 0.0000 0.0000
# 3 34.7170 34.8272 40.8023 0.0000 0.0000 0.0000
# 4 0.0000 0.0000 0.0000 29.9746 0.0000 0.0000
# 5 0.0000 0.0000 0.0000 0.0000 17.5043 0.0000
# 6 0.0000 0.0000 0.0000 0.0000 0.0000 26.3014
#
#
#
# Elastic Compliance Matrix: (Units=1/GPa)
#
#
# Indices 1 2 3 4 5 6 
#
# 1 0.008331 -0.003945 -0.003721 0.000000 0.000000 0.000000
# 2 -0.003945 0.010346 -0.005475 0.000000 0.000000 0.000000
# 3 -0.003721 -0.005475 0.032347 0.000000 0.000000 0.000000
# 4 0.000000 0.000000 0.000000 0.033362 0.000000 0.000000
# 5 0.000000 0.000000 0.000000 0.000000 0.057129 0.000000
# 6 0.000000 0.000000 0.000000 0.000000 0.000000 0.038021
#
#
# Mechanical properties :
#
#
# Convention : Reuss Voigt Hill
#
# Bulk Modulus (GPa) = 40.41504 74.95196 57.68350
# Shear Modulus (GPa) = 23.35750 28.72112 26.03931
#
# Velocity S-wave (km/s) = 3.38190 3.75014 3.57077
# Velocity P-wave (km/s) = 5.91940 7.44664 6.72650
#
# Compressibility (1/GPa) = 0.02474326
#
# Stress axis : x y z
#
# Youngs Moduli (GPa) = 120.04012 96.65283 30.91440
#
# Poissons Ratio (x) = 0.38128 0.11503
# Poissons Ratio (y) = 0.47354 0.16925
# Poissons Ratio (z) = 0.44666 0.52914
#
# Static dielectric constant tensor:
#      x y z
#    x 3.907840 0.000000 0.000000 
#    y 0.000000 4.003680 0.000000 
#    z 0.000000 0.000000 3.685830 
# 
# 
# High freq. dielectric constant tensor:
#      x y z
#    x 1.812380 0.000000 0.000000 
#    y 0.000000 1.801580 0.000000 
#    z 0.000000 0.000000 1.785400 
# 
# From -- ./inp_files/22232.got.cif
#   From: 2010.06.25/outbox.cif.g09.slc.cpg/sg52_12_cif.got.tgz:22232.got - 2010.06.26 19:32:48.
