data_PCOD8215307
_publ_section_title
;
Structure prediction by ZEFSAII (Michael W. Deem and Ramdas Pophale) SiO2 
 PCOD8215307
Probable space group: P N N A
;
_chemical_formula_sum "Si O2"
_cell_formula_units_Z 56
_cell_length_a 21.481876
_cell_length_b 9.668267
_cell_length_c 14.787220
_cell_angle_alpha 90.000000
_cell_angle_beta 90.000000
_cell_angle_gamma 90.000000
_cell_volume 3071.194880
_symmetry_space_group_name_H-M "P N N A"
_symmetry_group_IT_number 52
_symmetry_cell_setting 'orthorhombic'
loop_
_space_group_symop_operation_xyz
x,y,z
1/2-x,-y,z
x,1/2-y,1/2-z
1/2-x,1/2+y,1/2-z
-x,-y,-z
1/2+x,y,-z
-x,1/2+y,1/2+z
1/2+x,1/2-y,1/2+z
loop_
_atom_site_type_symbol
_atom_site_label
_atom_site_fract_x
_atom_site_fract_y
_atom_site_fract_z
Si Si1 0.477100 0.392823 0.208887
Si Si2 0.584667 0.925886 0.090674
Si Si3 0.310051 0.410213 0.734557
Si Si4 0.072322 0.279661 0.514913
Si Si5 0.601971 0.472981 0.114538
Si Si6 0.956894 0.860223 0.826034
Si Si7 0.064926 0.808681 0.471458
O O1 0.501906 0.250000 0.250000
O O2 0.537906 0.472000 0.171648
O O3 0.443964 0.487429 0.284986
O O4 0.425225 0.356750 0.132318
O O5 0.647368 0.918482 0.146308
O O6 0.528984 0.848989 0.143783
O O7 0.592465 0.843881 0.995108
O O8 0.564518 0.083097 0.074336
O O9 0.250000 0.500000 0.711551
O O10 0.292595 0.250000 0.750000
O O11 0.342488 0.480704 0.820614
O O12 0.119657 0.174889 0.566258
O O13 0.088282 0.325142 0.411741
O O14 0.009350 0.190390 0.514155
O O15 0.598574 0.583975 0.035686
O O16 0.941701 0.750000 0.750000
#
# Coordination Sequence:
#
# PCOD8215307 Si02
#       7
#     8   8   8   8   8   8   8
#     4  11  19  28  50  80 113 148 185 217 262 335
#     4  11  20  36  52  74 113 150 188 230 280 319
#     4  12  27  42  61  80 106 151 201 242 275 324
#     4  10  21  30  51  79 108 152 183 223 268 348
#     4  11  21  36  52  74 112 151 189 226 278 321
#     4  11  18  30  50  77 114 149 186 212 267 335
#     4  10  19  33  49  75 109 151 190 214 274 338
#
# _framework density 18.233944999999999
#
# number of rings (size 3 to 8) (size 9 to 14) (size 15 to 20)
#    0.000    1.143    2.857    9.000    2.000    0.000 
#    0.000    0.000    0.000    0.000    0.000    0.000 
#    0.000   17.143    0.000    0.000    0.000    0.000 
#
# Total GULP energy -694144.933743 kJ/mol
# GULP energy per Si atom -12395.445245 kJ/mol
# Density = 1.819244 g / cm^3
# Si number density = 18.233945 Si / 1000 Ang^3
#
#
#
# Elastic Constant Matrix: (Units=GPa)
#
#
# Indices 1 2 3 4 5 6 
#
# 1 43.7818 14.1657 24.3281 0.0000 0.0000 0.0000
# 2 14.1657 114.0511 34.9580 0.0000 0.0000 0.0000
# 3 24.3281 34.9580 90.8897 0.0000 0.0000 0.0000
# 4 0.0000 0.0000 0.0000 44.7283 0.0000 0.0000
# 5 0.0000 0.0000 0.0000 0.0000 9.5731 0.0000
# 6 0.0000 0.0000 0.0000 0.0000 0.0000 19.0031
#
#
#
# Elastic Compliance Matrix: (Units=1/GPa)
#
#
# Indices 1 2 3 4 5 6 
#
# 1 0.026998 -0.001290 -0.006730 0.000000 0.000000 0.000000
# 2 -0.001290 0.010001 -0.003501 0.000000 0.000000 0.000000
# 3 -0.006730 -0.003501 0.014150 0.000000 0.000000 0.000000
# 4 0.000000 0.000000 0.000000 0.022357 0.000000 0.000000
# 5 0.000000 0.000000 0.000000 0.000000 0.104459 0.000000
# 6 0.000000 0.000000 0.000000 0.000000 0.000000 0.052623
#
#
# Mechanical properties :
#
#
# Convention : Reuss Voigt Hill
#
# Bulk Modulus (GPa) = 35.57960 43.95847 39.76904
# Shear Modulus (GPa) = 19.01129 26.34562 22.67845
#
# Velocity S-wave (km/s) = 3.23248 3.80526 3.53051
# Velocity P-wave (km/s) = 5.78681 6.59296 6.20299
#
# Compressibility (1/GPa) = 0.02810599
#
# Stress axis : x y z
#
# Youngs Moduli (GPa) = 37.04012 99.98511 70.66909
#
# Poissons Ratio (x) = 0.12902 0.47561
# Poissons Ratio (y) = 0.04780 0.24744
# Poissons Ratio (z) = 0.24928 0.35009
#
# Static dielectric constant tensor:
#      x y z
#    x 2.713050 0.000000 0.000000 
#    y 0.000000 3.727220 0.000000 
#    z 0.000000 0.000000 3.921810 
# 
# 
# High freq. dielectric constant tensor:
#      x y z
#    x 1.613060 0.000000 0.000000 
#    y 0.000000 1.738390 0.000000 
#    z 0.000000 0.000000 1.726720 
# 
# From -- ./inp_files/28763.got.cif
#   From: 2010.06.25/outbox.cif.g09.slc.cpg/sg52_15_cif.got.tgz:28763.got - 2010.06.26 19:32:48.
