data_PCOD8215962
_publ_section_title
;
Structure prediction by ZEFSAII (Michael W. Deem and Ramdas Pophale) SiO2 
 PCOD8215962
Probable space group: P N N A
;
_chemical_formula_sum "Si O2"
_cell_formula_units_Z 36
_cell_length_a 20.343481
_cell_length_b 12.940251
_cell_length_c 6.578196
_cell_angle_alpha 90.000000
_cell_angle_beta 90.000000
_cell_angle_gamma 90.000000
_cell_volume 1731.708455
_symmetry_space_group_name_H-M "P N N A"
_symmetry_group_IT_number 52
_symmetry_cell_setting 'orthorhombic'
loop_
_space_group_symop_operation_xyz
x,y,z
1/2-x,-y,z
x,1/2-y,1/2-z
1/2-x,1/2+y,1/2-z
-x,-y,-z
1/2+x,y,-z
-x,1/2+y,1/2+z
1/2+x,1/2-y,1/2+z
loop_
_atom_site_type_symbol
_atom_site_label
_atom_site_fract_x
_atom_site_fract_y
_atom_site_fract_z
Si Si1 0.518260 0.138185 0.796736
Si Si2 0.647757 0.397892 0.947973
Si Si3 0.919318 0.966946 0.160047
Si Si4 0.313496 0.053598 0.125344
Si Si5 0.252423 0.750000 0.250000
O O1 0.484815 0.250000 0.750000
O O2 0.581573 0.138504 0.656655
O O3 0.469119 0.046082 0.728584
O O4 0.540177 0.119989 0.032895
O O5 0.631078 0.413040 0.184955
O O6 0.674583 0.503846 0.848914
O O7 0.702235 0.308461 0.916252
O O8 0.878089 0.037857 0.006561
O O9 0.297404 0.173967 0.136403
O O10 0.250000 0.000000 0.022324
#
# Coordination Sequence:
#
# PCOD8215962 Si02
#       5
#     8   8   8   8   4
#     4  10  21  40  59  90 121 155 207 256 305 361
#     4  10  20  40  62  87 120 163 201 252 299 359
#     4  10  22  39  63  88 124 159 203 256 306 364
#     4   9  21  39  57  89 126 154 198 257 297 359
#     4  10  20  40  66  86 130 160 198 252 306 362
#
# _framework density 20.788719
#
# number of rings (size 3 to 8) (size 9 to 14) (size 15 to 20)
#    0.000    2.222    1.111    0.667    0.000    5.333 
#    0.000    6.667    0.000    0.000    0.000    0.000 
#    0.000    0.000    0.000    0.000    0.000    0.000 
#
# Total GULP energy -446250.570986 kJ/mol
# GULP energy per Si atom -12395.849194 kJ/mol
# Density = 2.074140 g / cm^3
# Si number density = 20.788719 Si / 1000 Ang^3
#
#
#
# Elastic Constant Matrix: (Units=GPa)
#
#
# Indices 1 2 3 4 5 6 
#
# 1 51.3641 28.5890 17.4212 0.0000 0.0000 0.0000
# 2 28.5890 147.3435 46.4550 0.0000 0.0000 0.0000
# 3 17.4212 46.4550 85.0603 0.0000 0.0000 0.0000
# 4 0.0000 0.0000 0.0000 17.1942 0.0000 0.0000
# 5 0.0000 0.0000 0.0000 0.0000 5.7775 0.0000
# 6 0.0000 0.0000 0.0000 0.0000 0.0000 28.9694
#
#
#
# Elastic Compliance Matrix: (Units=1/GPa)
#
#
# Indices 1 2 3 4 5 6 
#
# 1 0.022315 -0.003490 -0.002664 0.000000 0.000000 0.000000
# 2 -0.003490 0.008744 -0.004061 0.000000 0.000000 0.000000
# 3 -0.002664 -0.004061 0.014520 0.000000 0.000000 0.000000
# 4 0.000000 0.000000 0.000000 0.058159 0.000000 0.000000
# 5 0.000000 0.000000 0.000000 0.000000 0.173087 0.000000
# 6 0.000000 0.000000 0.000000 0.000000 0.000000 0.034519
#
#
# Mechanical properties :
#
#
# Convention : Reuss Voigt Hill
#
# Bulk Modulus (GPa) = 39.76299 52.07758 45.92028
# Shear Modulus (GPa) = 14.69908 23.14172 18.92040
#
# Velocity S-wave (km/s) = 2.66196 3.34006 3.02011
# Velocity P-wave (km/s) = 5.34947 6.32297 5.85648
#
# Compressibility (1/GPa) = 0.02514901
#
# Stress axis : x y z
#
# Youngs Moduli (GPa) = 44.81309 114.36015 68.87098
#
# Poissons Ratio (x) = 0.39908 0.18350
# Poissons Ratio (y) = 0.15638 0.27968
# Poissons Ratio (z) = 0.11940 0.46441
#
# Static dielectric constant tensor:
#      x y z
#    x 3.896790 0.000000 0.000000 
#    y 0.000000 3.889050 0.000000 
#    z 0.000000 0.000000 3.549080 
# 
# 
# High freq. dielectric constant tensor:
#      x y z
#    x 1.824540 0.000000 0.000000 
#    y 0.000000 1.812560 0.000000 
#    z 0.000000 0.000000 1.783920 
# 
# From -- ./inp_files/4889.got.cif
#   From: 2010.06.25/outbox.cif.g09.slc.cpg/sg52_3_cif.got.tgz:4889.got - 2010.06.26 19:32:48.
