data_PCOD8215824
_publ_section_title
;
Structure prediction by ZEFSAII (Michael W. Deem and Ramdas Pophale) SiO2 
 PCOD8215824
Probable space group: P N N A
;
_chemical_formula_sum "Si O2"
_cell_formula_units_Z 56
_cell_length_a 14.708966
_cell_length_b 11.988893
_cell_length_c 15.747271
_cell_angle_alpha 90.000000
_cell_angle_beta 90.000000
_cell_angle_gamma 90.000000
_cell_volume 2776.940214
_symmetry_space_group_name_H-M "P N N A"
_symmetry_group_IT_number 52
_symmetry_cell_setting 'orthorhombic'
loop_
_space_group_symop_operation_xyz
x,y,z
1/2-x,-y,z
x,1/2-y,1/2-z
1/2-x,1/2+y,1/2-z
-x,-y,-z
1/2+x,y,-z
-x,1/2+y,1/2+z
1/2+x,1/2-y,1/2+z
loop_
_atom_site_type_symbol
_atom_site_label
_atom_site_fract_x
_atom_site_fract_y
_atom_site_fract_z
Si Si1 0.713156 0.124577 0.499537
Si Si2 0.327358 0.090394 0.872993
Si Si3 0.515413 0.663399 0.673046
Si Si4 0.492061 0.916948 0.215728
Si Si5 0.547390 0.201076 0.612412
Si Si6 0.330661 0.741713 0.652503
Si Si7 0.392138 0.267068 0.491505
O O1 0.641591 0.158429 0.572618
O O2 0.666333 0.146935 0.406554
O O3 0.797917 0.203686 0.511979
O O4 0.750000 0.000000 0.507725
O O5 0.398928 0.071715 0.797785
O O6 0.272290 0.201939 0.852313
O O7 0.380079 0.113022 0.961159
O O8 0.250000 0.000000 0.882147
O O9 0.520342 0.750000 0.750000
O O10 0.548266 0.540150 0.700534
O O11 0.414954 0.659679 0.625817
O O12 0.585162 0.709461 0.604918
O O13 0.478039 0.884582 0.313128
O O14 0.446021 0.826381 0.152209
O O15 0.469009 0.195653 0.540929
O O16 0.356480 0.750000 0.750000
#
# Coordination Sequence:
#
# PCOD8215824 Si02
#       7
#     8   8   8   8   8   8   8
#     4  11  25  43  67  96 132 179 226 278 338 409
#     4  10  20  37  64  97 126 162 222 274 337 395
#     4  11  23  41  62  97 133 175 220 278 338 399
#     4  10  23  41  68  94 135 183 215 286 340 395
#     4  10  23  46  66  98 135 174 232 271 342 414
#     4  10  22  38  59  96 135 162 218 277 336 398
#     4  10  24  41  66  93 129 173 221 273 333 408
#
# _framework density 20.166080999999998
#
# number of rings (size 3 to 8) (size 9 to 14) (size 15 to 20)
#    0.000    1.714    2.857    0.000    8.000    8.000 
#    2.571    0.000    0.000    0.000    0.000    0.000 
#    0.000    0.000    0.000    0.000    0.000    0.000 
#
# Total GULP energy -693735.872619 kJ/mol
# GULP energy per Si atom -12388.140582 kJ/mol
# Density = 2.012018 g / cm^3
# Si number density = 20.166081 Si / 1000 Ang^3
#
#
#
# Elastic Constant Matrix: (Units=GPa)
#
#
# Indices 1 2 3 4 5 6 
#
# 1 108.2304 50.4727 68.1155 0.0000 0.0000 0.0000
# 2 50.4727 117.7411 69.1228 0.0000 0.0000 0.0000
# 3 68.1155 69.1228 143.1484 0.0000 0.0000 0.0000
# 4 0.0000 0.0000 0.0000 25.6477 0.0000 0.0000
# 5 0.0000 0.0000 0.0000 0.0000 31.0949 0.0000
# 6 0.0000 0.0000 0.0000 0.0000 0.0000 34.9332
#
#
#
# Elastic Compliance Matrix: (Units=1/GPa)
#
#
# Indices 1 2 3 4 5 6 
#
# 1 0.013859 -0.002888 -0.005200 0.000000 0.000000 0.000000
# 2 -0.002888 0.012455 -0.004640 0.000000 0.000000 0.000000
# 3 -0.005200 -0.004640 0.011701 0.000000 0.000000 0.000000
# 4 0.000000 0.000000 0.000000 0.038990 0.000000 0.000000
# 5 0.000000 0.000000 0.000000 0.000000 0.032160 0.000000
# 6 0.000000 0.000000 0.000000 0.000000 0.000000 0.028626
#
#
# Mechanical properties :
#
#
# Convention : Reuss Voigt Hill
#
# Bulk Modulus (GPa) = 79.62715 82.72687 81.17701
# Shear Modulus (GPa) = 29.86255 30.42907 30.14581
#
# Velocity S-wave (km/s) = 3.85233 3.88870 3.87056
# Velocity P-wave (km/s) = 7.70446 7.82780 7.76638
#
# Compressibility (1/GPa) = 0.01255853
#
# Stress axis : x y z
#
# Youngs Moduli (GPa) = 72.15444 80.28649 85.46492
#
# Poissons Ratio (x) = 0.23189 0.44442
# Poissons Ratio (y) = 0.20840 0.39656
# Poissons Ratio (z) = 0.37521 0.37253
#
# Static dielectric constant tensor:
#      x y z
#    x 4.023060 0.000000 0.000000 
#    y 0.000000 4.361790 0.000000 
#    z 0.000000 0.000000 3.955380 
# 
# 
# High freq. dielectric constant tensor:
#      x y z
#    x 1.791590 0.000000 0.000000 
#    y 0.000000 1.778650 0.000000 
#    z 0.000000 0.000000 1.788990 
# 
# From -- ./inp_files/27305.got.cif
#   From: 2010.06.25/outbox.cif.g09.slc.cpg/sg52_14_cif.got.tgz:27305.got - 2010.06.26 19:32:48.
