data_PCOD8215827
_publ_section_title
;
Structure prediction by ZEFSAII (Michael W. Deem and Ramdas Pophale) SiO2 
 PCOD8215827
Probable space group: P N N A
;
_chemical_formula_sum "Si O2"
_cell_formula_units_Z 48
_cell_length_a 28.487781
_cell_length_b 9.797778
_cell_length_c 8.991454
_cell_angle_alpha 90.000000
_cell_angle_beta 90.000000
_cell_angle_gamma 90.000000
_cell_volume 2509.667252
_symmetry_space_group_name_H-M "P N N A"
_symmetry_group_IT_number 52
_symmetry_cell_setting 'orthorhombic'
loop_
_space_group_symop_operation_xyz
x,y,z
1/2-x,-y,z
x,1/2-y,1/2-z
1/2-x,1/2+y,1/2-z
-x,-y,-z
1/2+x,y,-z
-x,1/2+y,1/2+z
1/2+x,1/2-y,1/2+z
loop_
_atom_site_type_symbol
_atom_site_label
_atom_site_fract_x
_atom_site_fract_y
_atom_site_fract_z
Si Si1 0.390367 0.242678 0.082879
Si Si2 0.103465 0.231869 0.572284
Si Si3 0.450850 0.497764 0.077071
Si Si4 0.701963 0.159691 0.393763
Si Si5 0.696075 0.656551 0.106581
Si Si6 0.550614 0.021115 0.924790
O O1 0.371995 0.250000 0.250000
O O2 0.433483 0.344207 0.062963
O O3 0.412324 0.097805 0.036718
O O4 0.344856 0.282409 0.991871
O O5 0.099684 0.250000 0.750000
O O6 0.083740 0.088009 0.520393
O O7 0.158220 0.228866 0.518706
O O8 0.073755 0.344773 0.489931
O O9 0.455370 0.542353 0.248684
O O10 0.500000 0.500000 0.000000
O O11 0.709602 0.250000 0.250000
O O12 0.752665 0.166417 0.476862
O O13 0.687921 0.002950 0.352988
O O14 0.696015 0.750000 0.250000
O O15 0.500000 0.000000 0.000000
#
# Coordination Sequence:
#
# PCOD8215827 Si02
#       6
#     8   8   8   8   8   8
#     4  10  23  40  58  85 121 155 193 246 302 355
#     4  11  22  38  60  88 121 156 197 248 300 355
#     4  11  22  40  62  85 117 157 200 250 303 358
#     4   9  20  37  60  92 123 152 198 252 297 347
#     4  10  20  37  65  89 118 158 203 245 297 356
#     4  11  24  40  60  88 121 157 201 248 299 362
#
# _framework density 19.126041000000001
#
# number of rings (size 3 to 8) (size 9 to 14) (size 15 to 20)
#    0.000    1.667    1.667    2.500    4.667    2.667 
#    0.000    1.667    0.000    0.000    0.000    0.000 
#    0.000    0.000    0.000    0.000    0.000    0.000 
#
# Total GULP energy -594749.568858 kJ/mol
# GULP energy per Si atom -12390.616018 kJ/mol
# Density = 1.908251 g / cm^3
# Si number density = 19.126041 Si / 1000 Ang^3
#
#
#
# Elastic Constant Matrix: (Units=GPa)
#
#
# Indices 1 2 3 4 5 6 
#
# 1 159.0834 22.1307 56.0545 0.0000 0.0000 0.0000
# 2 22.1307 65.9108 23.4047 0.0000 0.0000 0.0000
# 3 56.0545 23.4047 84.3658 0.0000 0.0000 0.0000
# 4 0.0000 0.0000 0.0000 29.5264 0.0000 0.0000
# 5 0.0000 0.0000 0.0000 0.0000 26.5379 0.0000
# 6 0.0000 0.0000 0.0000 0.0000 0.0000 64.4650
#
#
#
# Elastic Compliance Matrix: (Units=1/GPa)
#
#
# Indices 1 2 3 4 5 6 
#
# 1 0.008257 -0.000914 -0.005232 0.000000 0.000000 0.000000
# 2 -0.000914 0.016931 -0.004089 0.000000 0.000000 0.000000
# 3 -0.005232 -0.004089 0.016464 0.000000 0.000000 0.000000
# 4 0.000000 0.000000 0.000000 0.033868 0.000000 0.000000
# 5 0.000000 0.000000 0.000000 0.000000 0.037682 0.000000
# 6 0.000000 0.000000 0.000000 0.000000 0.000000 0.015512
#
#
# Mechanical properties :
#
#
# Convention : Reuss Voigt Hill
#
# Bulk Modulus (GPa) = 47.21501 56.94887 52.08194
# Shear Modulus (GPa) = 32.00059 37.95718 34.97889
#
# Velocity S-wave (km/s) = 4.09484 4.45970 4.28116
# Velocity P-wave (km/s) = 6.86271 7.50725 7.19220
#
# Compressibility (1/GPa) = 0.02117971
#
# Stress axis : x y z
#
# Youngs Moduli (GPa) = 121.11086 59.06253 60.73795
#
# Poissons Ratio (x) = 0.05401 0.31781
# Poissons Ratio (y) = 0.11074 0.24839
# Poissons Ratio (z) = 0.63370 0.24154
#
# Static dielectric constant tensor:
#      x y z
#    x 10.786670 0.000000 0.000000 
#    y 0.000000 1.250410 0.000000 
#    z 0.000000 0.000000 3.255080 
# 
# 
# High freq. dielectric constant tensor:
#      x y z
#    x 1.771670 0.000000 0.000000 
#    y 0.000000 1.762330 0.000000 
#    z 0.000000 0.000000 1.718430 
# 
# From -- ./inp_files/15506.got.cif
#   From: 2010.06.25/outbox.cif.g09.slc.cpg/sg52_8_cif.got.tgz:15506.got - 2010.06.26 19:32:48.
