data_PCOD8215039
_publ_section_title
;
Structure prediction by ZEFSAII (Michael W. Deem and Ramdas Pophale) SiO2 
 PCOD8215039
Probable space group: P N N A
;
_chemical_formula_sum "Si O2"
_cell_formula_units_Z 60
_cell_length_a 8.304941
_cell_length_b 23.160138
_cell_length_c 16.865622
_cell_angle_alpha 90.000000
_cell_angle_beta 90.000000
_cell_angle_gamma 90.000000
_cell_volume 3243.994108
_symmetry_space_group_name_H-M "P N N A"
_symmetry_group_IT_number 52
_symmetry_cell_setting 'orthorhombic'
loop_
_space_group_symop_operation_xyz
x,y,z
1/2-x,-y,z
x,1/2-y,1/2-z
1/2-x,1/2+y,1/2-z
-x,-y,-z
1/2+x,y,-z
-x,1/2+y,1/2+z
1/2+x,1/2-y,1/2+z
loop_
_atom_site_type_symbol
_atom_site_label
_atom_site_fract_x
_atom_site_fract_y
_atom_site_fract_z
Si Si1 0.938642 0.489329 0.587340
Si Si2 0.589151 0.125668 0.132852
Si Si3 0.795708 0.250000 0.250000
Si Si4 0.806513 0.196280 0.805357
Si Si5 0.098510 0.236030 0.425102
Si Si6 0.967921 0.651116 0.790101
Si Si7 0.352243 0.447338 0.720514
Si Si8 0.739773 0.268441 0.421038
O O1 0.750000 0.500000 0.596535
O O2 0.000000 0.500000 0.500000
O O3 0.972310 0.421815 0.596869
O O4 0.035026 0.528091 0.650475
O O5 0.478219 0.166967 0.185444
O O6 0.728797 0.098763 0.185756
O O7 0.672320 0.166319 0.065716
O O8 0.691473 0.248407 0.331136
O O9 0.910704 0.305535 0.253719
O O10 0.833920 0.250000 0.750000
O O11 0.728487 0.220684 0.886350
O O12 0.691704 0.149323 0.763222
O O13 0.073848 0.174841 0.378720
O O14 0.160247 0.224712 0.514934
O O15 0.930729 0.269374 0.429538
O O16 0.043236 0.586097 0.788199
O O17 0.250000 0.500000 0.759505
#
# Coordination Sequence:
#
# PCOD8215039 Si02
#       8
#     8   8   4   8   8   8   8   8
#     4  11  24  40  53  75 106 149 198 240 282 331
#     4  11  22  33  55  78 108 149 188 235 279 336
#     4  10  18  36  60  76 114 150 180 226 304 346
#     4  10  19  32  53  83 112 149 189 228 287 351
#     4  10  21  34  53  82 115 151 189 229 290 347
#     4  10  17  38  56  77 115 151 190 237 287 342
#     4  10  21  36  56  79 108 152 203 238 282 347
#     4  11  21  35  52  82 113 144 183 226 289 348
#
# _framework density 18.495718
#
# number of rings (size 3 to 8) (size 9 to 14) (size 15 to 20)
#    0.000    1.600    4.667    2.800    0.933    5.333 
#    0.000    0.000    0.000    0.000    0.000    3.733 
#    0.000    0.000    0.000    3.733    0.000    0.000 
#
# Total GULP energy -743510.815688 kJ/mol
# GULP energy per Si atom -12391.846928 kJ/mol
# Density = 1.845362 g / cm^3
# Si number density = 18.495718 Si / 1000 Ang^3
#
#
#
# Elastic Constant Matrix: (Units=GPa)
#
#
# Indices 1 2 3 4 5 6 
#
# 1 104.9026 48.7015 40.5927 0.0000 0.0000 0.0000
# 2 48.7015 72.3982 29.2897 0.0000 0.0000 0.0000
# 3 40.5927 29.2897 114.9728 0.0000 0.0000 0.0000
# 4 0.0000 0.0000 0.0000 18.9963 0.0000 0.0000
# 5 0.0000 0.0000 0.0000 0.0000 22.5856 0.0000
# 6 0.0000 0.0000 0.0000 0.0000 0.0000 39.7245
#
#
#
# Elastic Compliance Matrix: (Units=1/GPa)
#
#
# Indices 1 2 3 4 5 6 
#
# 1 0.014725 -0.008699 -0.002983 0.000000 0.000000 0.000000
# 2 -0.008699 0.020538 -0.002161 0.000000 0.000000 0.000000
# 3 -0.002983 -0.002161 0.010301 0.000000 0.000000 0.000000
# 4 0.000000 0.000000 0.000000 0.052642 0.000000 0.000000
# 5 0.000000 0.000000 0.000000 0.000000 0.044276 0.000000
# 6 0.000000 0.000000 0.000000 0.000000 0.000000 0.025173
#
#
# Mechanical properties :
#
#
# Convention : Reuss Voigt Hill
#
# Bulk Modulus (GPa) = 55.92949 58.82681 57.37815
# Shear Modulus (GPa) = 24.83836 27.84061 26.33948
#
# Velocity S-wave (km/s) = 3.66857 3.88396 3.77780
# Velocity P-wave (km/s) = 6.94617 7.21028 7.07946
#
# Compressibility (1/GPa) = 0.01787965
#
# Stress axis : x y z
#
# Youngs Moduli (GPa) = 67.91000 48.68948 97.07428
#
# Poissons Ratio (x) = 0.42354 0.28957
# Poissons Ratio (y) = 0.59074 0.20977
# Poissons Ratio (z) = 0.20257 0.10522
#
# Static dielectric constant tensor:
#      x y z
#    x 3.636360 0.000000 0.000000 
#    y 0.000000 3.469070 0.000000 
#    z 0.000000 0.000000 3.421070 
# 
# 
# High freq. dielectric constant tensor:
#      x y z
#    x 1.739670 0.000000 0.000000 
#    y 0.000000 1.699600 0.000000 
#    z 0.000000 0.000000 1.693020 
# 
# From -- ./inp_files/25081.got.cif
#   From: 2010.06.25/outbox.cif.g09.slc.cpg/sg52_13_cif.got.tgz:25081.got - 2010.06.26 19:32:48.
