data_PCOD8215056
_publ_section_title
;
Structure prediction by ZEFSAII (Michael W. Deem and Ramdas Pophale) SiO2 
 PCOD8215056
Probable space group: P N N A
;
_chemical_formula_sum "Si O2"
_cell_formula_units_Z 56
_cell_length_a 9.471199
_cell_length_b 18.252198
_cell_length_c 20.231288
_cell_angle_alpha 90.000000
_cell_angle_beta 90.000000
_cell_angle_gamma 90.000000
_cell_volume 3497.386792
_symmetry_space_group_name_H-M "P N N A"
_symmetry_group_IT_number 52
_symmetry_cell_setting 'orthorhombic'
loop_
_space_group_symop_operation_xyz
x,y,z
1/2-x,-y,z
x,1/2-y,1/2-z
1/2-x,1/2+y,1/2-z
-x,-y,-z
1/2+x,y,-z
-x,1/2+y,1/2+z
1/2+x,1/2-y,1/2+z
loop_
_atom_site_type_symbol
_atom_site_label
_atom_site_fract_x
_atom_site_fract_y
_atom_site_fract_z
Si Si1 0.655459 0.282678 0.680514
Si Si2 0.127916 0.086321 0.623982
Si Si3 0.182429 0.074812 0.250894
Si Si4 0.774238 0.668320 0.003611
Si Si5 0.843369 0.155073 0.636283
Si Si6 0.430529 0.427242 0.839973
Si Si7 0.519370 0.713138 0.077496
O O1 0.602567 0.250000 0.750000
O O2 0.698478 0.367078 0.691045
O O3 0.791685 0.237494 0.653896
O O4 0.523325 0.276269 0.629816
O O5 0.180971 0.100170 0.549242
O O6 0.264444 0.091647 0.672873
O O7 0.012170 0.146790 0.646192
O O8 0.058788 0.005933 0.624247
O O9 0.267430 0.097160 0.316397
O O10 0.016761 0.068317 0.270984
O O11 0.250000 0.000000 0.223673
O O12 0.691436 0.636939 0.940046
O O13 0.909158 0.715986 0.983027
O O14 0.675054 0.722790 0.047583
O O15 0.500918 0.365713 0.886702
#
# Coordination Sequence:
#
# PCOD8215056 Si02
#       7
#     8   8   8   8   8   8   8
#     4   9  18  32  52  67  93 122 170 207 226 287
#     4  10  20  30  42  67 107 131 160 191 234 280
#     4  11  19  33  55  68  91 129 167 205 243 280
#     4  10  18  29  44  71 101 129 163 193 227 293
#     4  10  18  32  49  70  96 130 162 199 235 279
#     4  10  19  31  42  68 101 136 163 189 230 279
#     4  10  18  31  46  67  97 130 160 198 237 272
#
# _framework density 16.011953999999999
#
# number of rings (size 3 to 8) (size 9 to 14) (size 15 to 20)
#    0.000    2.000    7.143    0.000    0.000    0.571 
#   10.286    0.000   18.857    0.000    0.000    4.000 
#    0.000    0.000    0.000    0.000    0.000    0.000 
#
# Total GULP energy -694021.379428 kJ/mol
# GULP energy per Si atom -12393.238918 kJ/mol
# Density = 1.597551 g / cm^3
# Si number density = 16.011954 Si / 1000 Ang^3
#
#
#
# Elastic Constant Matrix: (Units=GPa)
#
#
# Indices 1 2 3 4 5 6 
#
# 1 89.2588 35.6971 31.3860 0.0000 0.0000 0.0000
# 2 35.6971 95.0133 41.8101 0.0000 0.0000 0.0000
# 3 31.3860 41.8101 52.2458 0.0000 0.0000 0.0000
# 4 0.0000 0.0000 0.0000 21.7720 0.0000 0.0000
# 5 0.0000 0.0000 0.0000 0.0000 13.0688 0.0000
# 6 0.0000 0.0000 0.0000 0.0000 0.0000 17.8157
#
#
#
# Elastic Compliance Matrix: (Units=1/GPa)
#
#
# Indices 1 2 3 4 5 6 
#
# 1 0.014580 -0.002506 -0.006753 0.000000 0.000000 0.000000
# 2 -0.002506 0.016677 -0.011840 0.000000 0.000000 0.000000
# 3 -0.006753 -0.011840 0.032672 0.000000 0.000000 0.000000
# 4 0.000000 0.000000 0.000000 0.045931 0.000000 0.000000
# 5 0.000000 0.000000 0.000000 0.000000 0.076518 0.000000
# 6 0.000000 0.000000 0.000000 0.000000 0.000000 0.056130
#
#
# Mechanical properties :
#
#
# Convention : Reuss Voigt Hill
#
# Bulk Modulus (GPa) = 46.01892 50.47822 48.24857
# Shear Modulus (GPa) = 17.12620 19.03962 18.08291
#
# Velocity S-wave (km/s) = 3.27400 3.45206 3.36421
# Velocity P-wave (km/s) = 6.56467 6.89077 6.72969
#
# Compressibility (1/GPa) = 0.02173019
#
# Stress axis : x y z
#
# Youngs Moduli (GPa) = 68.58549 59.96451 30.60692
#
# Poissons Ratio (x) = 0.15028 0.20670
# Poissons Ratio (y) = 0.17188 0.36239
# Poissons Ratio (z) = 0.46319 0.70998
#
# Static dielectric constant tensor:
#      x y z
#    x 3.303810 0.000000 0.000000 
#    y 0.000000 2.848240 0.000000 
#    z 0.000000 0.000000 2.925460 
# 
# 
# High freq. dielectric constant tensor:
#      x y z
#    x 1.628020 0.000000 0.000000 
#    y 0.000000 1.576320 0.000000 
#    z 0.000000 0.000000 1.586970 
# 
# From -- ./inp_files/36128.got.cif
#   From: 2010.06.25/outbox.cif.g09.slc.cpg/sg52_19_cif.got.tgz:36128.got - 2010.06.26 19:32:48.
