data_PCOD8215360
_publ_section_title
;
Structure prediction by ZEFSAII (Michael W. Deem and Ramdas Pophale) SiO2 
 PCOD8215360
Probable space group: P N N A
;
_chemical_formula_sum "Si O2"
_cell_formula_units_Z 64
_cell_length_a 14.104095
_cell_length_b 9.005376
_cell_length_c 28.354449
_cell_angle_alpha 90.000000
_cell_angle_beta 90.000000
_cell_angle_gamma 90.000000
_cell_volume 3601.374518
_symmetry_space_group_name_H-M "P N N A"
_symmetry_group_IT_number 52
_symmetry_cell_setting 'orthorhombic'
loop_
_space_group_symop_operation_xyz
x,y,z
1/2-x,-y,z
x,1/2-y,1/2-z
1/2-x,1/2+y,1/2-z
-x,-y,-z
1/2+x,y,-z
-x,1/2+y,1/2+z
1/2+x,1/2-y,1/2+z
loop_
_atom_site_type_symbol
_atom_site_label
_atom_site_fract_x
_atom_site_fract_y
_atom_site_fract_z
Si Si1 0.403946 0.825270 0.624363
Si Si2 0.750000 0.828680 0.799510
Si Si3 0.250000 0.824481 0.551409
Si Si4 0.903946 0.174730 0.375637
Si Si5 0.250000 0.828403 0.700371
Si Si6 0.395747 0.174978 0.121991
Si Si7 0.250000 0.822815 0.444450
Si Si8 0.604253 0.174978 0.878009
O O1 0.344655 0.771729 0.578598
O O2 0.343681 0.786548 0.670906
O O3 0.497524 0.727964 0.626244
O O4 0.428462 1.000000 0.621949
O O5 0.750000 0.750000 0.750000
O O6 0.657004 0.784133 0.829300
O O7 0.842996 0.784133 0.829300
O O8 0.750000 0.000000 0.787743
O O9 0.155345 0.771729 0.578598
O O10 0.250000 0.765151 0.498270
O O11 0.250000 0.000000 0.553317
O O12 0.843681 0.213452 0.329094
O O13 0.997524 0.272036 0.373756
O O14 0.250000 0.750000 0.750000
O O15 0.250000 0.000000 0.711461
O O16 0.344819 0.259478 0.079177
O O17 0.390089 1.000000 0.111994
O O18 0.344819 0.759478 0.420823
O O19 0.250000 0.000000 0.441107
#
# Coordination Sequence:
#
# PCOD8215360 Si02
#       8
#     8   8   8   8   8   8   8   8
#     4   9  18  35  55  75 100 135 174 210 248 298
#     4   9  20  36  52  70  98 131 165 205 248 293
#     4   8  17  34  55  77 101 129 172 218 247 283
#     4   9  18  35  55  75 100 135 174 210 248 298
#     4   9  19  34  53  76 104 135 171 213 255 299
#     4  10  21  36  51  75 108 135 162 207 258 304
#     4  10  19  34  56  77  98 133 173 210 250 297
#     4  10  21  36  51  75 108 135 162 207 258 304
#
# _framework density 17.770993000000001
#
# number of rings (size 3 to 8) (size 9 to 14) (size 15 to 20)
#    0.000    2.750    0.000    3.375    0.000    6.000 
#    0.000   14.375    0.000    0.000    0.000    0.000 
#    0.000    0.000    0.000    0.000    0.000    0.000 
#
# Total GULP energy -793511.638018 kJ/mol
# GULP energy per Si atom -12398.619344 kJ/mol
# Density = 1.773055 g / cm^3
# Si number density = 17.770993 Si / 1000 Ang^3
#
#
#
# Elastic Constant Matrix: (Units=GPa)
#
#
# Indices 1 2 3 4 5 6 
#
# 1 153.3290 54.0767 79.6737 0.0000 0.0000 0.0000
# 2 54.0767 65.9356 62.7729 0.0000 0.0000 0.0000
# 3 79.6737 62.7729 179.5799 0.0000 0.0000 0.0000
# 4 0.0000 0.0000 0.0000 28.1191 0.0000 0.0000
# 5 0.0000 0.0000 0.0000 0.0000 9.5321 0.0000
# 6 0.0000 0.0000 0.0000 0.0000 0.0000 30.3911
#
#
#
# Elastic Compliance Matrix: (Units=1/GPa)
#
#
# Indices 1 2 3 4 5 6 
#
# 1 0.009771 -0.005825 -0.002299 0.000000 0.000000 0.000000
# 2 -0.005825 0.026203 -0.006575 0.000000 0.000000 0.000000
# 3 -0.002299 -0.006575 0.008887 0.000000 0.000000 0.000000
# 4 0.000000 0.000000 0.000000 0.035563 0.000000 0.000000
# 5 0.000000 0.000000 0.000000 0.000000 0.104909 0.000000
# 6 0.000000 0.000000 0.000000 0.000000 0.000000 0.032904
#
#
# Mechanical properties :
#
#
# Convention : Reuss Voigt Hill
#
# Bulk Modulus (GPa) = 64.66985 87.98788 76.32887
# Shear Modulus (GPa) = 19.77933 27.09654 23.43793
#
# Velocity S-wave (km/s) = 3.33980 3.90906 3.63559
# Velocity P-wave (km/s) = 7.16534 8.36623 7.78896
#
# Compressibility (1/GPa) = 0.01546316
#
# Stress axis : x y z
#
# Youngs Moduli (GPa) = 102.34561 38.16313 112.52548
#
# Poissons Ratio (x) = 0.22229 0.25868
# Poissons Ratio (y) = 0.59615 0.73988
# Poissons Ratio (z) = 0.23528 0.25093
#
# Static dielectric constant tensor:
#      x y z
#    x 3.559710 0.000000 0.000000 
#    y 0.000000 3.150360 0.000000 
#    z 0.000000 0.000000 3.038640 
# 
# 
# High freq. dielectric constant tensor:
#      x y z
#    x 1.693130 0.000000 0.000000 
#    y 0.000000 1.678900 0.000000 
#    z 0.000000 0.000000 1.692520 
# 
# From -- ./inp_files/45076.got.cif
#   From: 2010.06.25/outbox.cif.g09.slc.cpg/sg52_23_cif.got.tgz:45076.got - 2010.06.26 19:32:48.
