data_PCOD8215394
_publ_section_title
;
Structure prediction by ZEFSAII (Michael W. Deem and Ramdas Pophale) SiO2 
 PCOD8215394
Probable space group: P N N A
;
_chemical_formula_sum "Si O2"
_cell_formula_units_Z 48
_cell_length_a 16.977220
_cell_length_b 13.876779
_cell_length_c 10.397470
_cell_angle_alpha 90.000000
_cell_angle_beta 90.000000
_cell_angle_gamma 90.000000
_cell_volume 2449.530911
_symmetry_space_group_name_H-M "P N N A"
_symmetry_group_IT_number 52
_symmetry_cell_setting 'orthorhombic'
loop_
_space_group_symop_operation_xyz
x,y,z
1/2-x,-y,z
x,1/2-y,1/2-z
1/2-x,1/2+y,1/2-z
-x,-y,-z
1/2+x,y,-z
-x,1/2+y,1/2+z
1/2+x,1/2-y,1/2+z
loop_
_atom_site_type_symbol
_atom_site_label
_atom_site_fract_x
_atom_site_fract_y
_atom_site_fract_z
Si Si1 0.704383 0.092156 0.207784
Si Si2 0.250000 0.000000 0.206798
Si Si3 0.836433 0.315488 0.133265
Si Si4 0.592464 0.444309 0.848838
Si Si5 0.369985 0.750000 0.250000
Si Si6 0.425291 0.509766 0.869629
Si Si7 0.743360 0.188329 0.959933
O O1 0.753225 0.137388 0.325555
O O2 0.750000 0.000000 0.152545
O O3 0.618450 0.060602 0.252553
O O4 0.694873 0.164611 0.089538
O O5 0.173450 0.009707 0.297359
O O6 0.267237 0.092990 0.118945
O O7 0.869665 0.250000 0.250000
O O8 0.898966 0.399084 0.103084
O O9 0.820203 0.250524 0.004963
O O10 0.577036 0.344958 0.769405
O O11 0.516618 0.512713 0.826646
O O12 0.594360 0.428663 0.002676
O O13 0.313993 0.747426 0.125438
#
# Coordination Sequence:
#
# PCOD8215394 Si02
#       7
#     8   4   8   8   4   8   8
#     4   9  17  33  58  84 112 141 186 237 285 335
#     4  10  22  38  58  76 122 156 194 234 290 362
#     4   9  19  32  59  88 113 144 190 241 284 337
#     4  10  23  39  56  84 114 153 197 236 298 354
#     4  10  22  36  56  78 116 152 184 236 288 352
#     4  10  21  37  60  85 114 149 194 248 290 345
#     4  10  19  35  55  86 108 150 194 231 283 354
#
# _framework density 19.595589
#
# number of rings (size 3 to 8) (size 9 to 14) (size 15 to 20)
#    0.000    2.333    0.833    1.000    9.333    0.000 
#    0.000    5.000    0.000    4.000    0.000    0.000 
#    0.000    0.000    0.000    0.000    0.000    0.000 
#
# Total GULP energy -594927.882450 kJ/mol
# GULP energy per Si atom -12394.330884 kJ/mol
# Density = 1.955099 g / cm^3
# Si number density = 19.595589 Si / 1000 Ang^3
#
#
#
# Elastic Constant Matrix: (Units=GPa)
#
#
# Indices 1 2 3 4 5 6 
#
# 1 107.1239 21.7482 45.4029 0.0000 0.0000 0.0000
# 2 21.7482 61.7531 13.3130 0.0000 0.0000 0.0000
# 3 45.4029 13.3130 74.6039 0.0000 0.0000 0.0000
# 4 0.0000 0.0000 0.0000 32.4427 0.0000 0.0000
# 5 0.0000 0.0000 0.0000 0.0000 12.6880 0.0000
# 6 0.0000 0.0000 0.0000 0.0000 0.0000 21.4251
#
#
#
# Elastic Compliance Matrix: (Units=1/GPa)
#
#
# Indices 1 2 3 4 5 6 
#
# 1 0.013097 -0.003010 -0.007433 0.000000 0.000000 0.000000
# 2 -0.003010 0.017533 -0.001297 0.000000 0.000000 0.000000
# 3 -0.007433 -0.001297 0.018159 0.000000 0.000000 0.000000
# 4 0.000000 0.000000 0.000000 0.030824 0.000000 0.000000
# 5 0.000000 0.000000 0.000000 0.000000 0.078815 0.000000
# 6 0.000000 0.000000 0.000000 0.000000 0.000000 0.046674
#
#
# Mechanical properties :
#
#
# Convention : Reuss Voigt Hill
#
# Bulk Modulus (GPa) = 39.51199 44.93433 42.22316
# Shear Modulus (GPa) = 21.09542 24.17892 22.63717
#
# Velocity S-wave (km/s) = 3.28463 3.51650 3.40254
# Velocity P-wave (km/s) = 5.88154 6.28238 6.08526
#
# Compressibility (1/GPa) = 0.02530878
#
# Stress axis : x y z
#
# Youngs Moduli (GPa) = 76.35611 57.03482 55.06794
#
# Poissons Ratio (x) = 0.17166 0.40934
# Poissons Ratio (y) = 0.22982 0.07143
# Poissons Ratio (z) = 0.56758 0.07398
#
# Static dielectric constant tensor:
#      x y z
#    x 3.286330 0.000000 0.000000 
#    y 0.000000 3.870120 0.000000 
#    z 0.000000 0.000000 3.547360 
# 
# 
# High freq. dielectric constant tensor:
#      x y z
#    x 1.734730 0.000000 0.000000 
#    y 0.000000 1.772100 0.000000 
#    z 0.000000 0.000000 1.763730 
# 
# From -- ./inp_files/12136.got.cif
#   From: 2010.06.25/outbox.cif.g09.slc.cpg/sg52_7_cif.got.tgz:12136.got - 2010.06.26 19:32:48.
