data_PCOD8215625
_publ_section_title
;
Structure prediction by ZEFSAII (Michael W. Deem and Ramdas Pophale) SiO2 
 PCOD8215625
Probable space group: P N N A
;
_chemical_formula_sum "Si O2"
_cell_formula_units_Z 64
_cell_length_a 21.166492
_cell_length_b 5.113948
_cell_length_c 30.070978
_cell_angle_alpha 90.000000
_cell_angle_beta 90.000000
_cell_angle_gamma 90.000000
_cell_volume 3255.013150
_symmetry_space_group_name_H-M "P N N A"
_symmetry_group_IT_number 52
_symmetry_cell_setting 'orthorhombic'
loop_
_space_group_symop_operation_xyz
x,y,z
1/2-x,-y,z
x,1/2-y,1/2-z
1/2-x,1/2+y,1/2-z
-x,-y,-z
1/2+x,y,-z
-x,1/2+y,1/2+z
1/2+x,1/2-y,1/2+z
loop_
_atom_site_type_symbol
_atom_site_label
_atom_site_fract_x
_atom_site_fract_y
_atom_site_fract_z
Si Si1 0.110842 0.940720 0.483828
Si Si2 0.177953 0.060757 0.046045
Si Si3 0.325167 0.479162 0.621914
Si Si4 0.674888 0.000208 0.224003
Si Si5 0.966301 0.452943 0.898069
Si Si6 0.892531 0.522329 0.085340
Si Si7 0.103196 0.451702 0.368042
Si Si8 0.678009 0.500072 0.720597
O O1 0.165370 0.145882 0.470562
O O2 0.051803 0.979243 0.450339
O O3 0.089859 0.993307 0.533804
O O4 0.136439 0.645636 0.481609
O O5 0.161810 0.033791 0.098010
O O6 0.250000 0.000000 0.037508
O O7 0.250000 0.500000 0.617324
O O8 0.347605 0.503457 0.673030
O O9 0.358249 0.702656 0.593125
O O10 0.345904 0.200054 0.603066
O O11 0.647585 0.750000 0.250000
O O12 0.750000 0.000000 0.225637
O O13 0.647451 0.250000 0.250000
O O14 0.948650 0.168022 0.880072
O O15 0.040558 0.490615 0.889751
O O16 0.929494 0.669385 0.869559
O O17 0.129905 0.504477 0.319749
O O18 0.750000 0.500000 0.702928
O O19 0.663864 0.250000 0.750000
O O20 0.663596 0.750000 0.750000
#
# Coordination Sequence:
#
# PCOD8215625 Si02
#       8
#     8   8   8   8   8   8   8   8
#     4  10  22  36  55  80 108 148 191 231 268 320
#     4  10  20  34  54  82 113 146 184 225 278 331
#     4  11  24  38  58  89 115 142 177 220 289 349
#     4   9  17  33  57  80 104 134 168 206 248 309
#     4  10  22  39  59  79 103 148 202 233 268 320
#     4  12  23  39  59  80 115 148 181 232 277 332
#     4  10  20  37  58  81 111 146 189 240 276 316
#     4  10  20  34  57  89 120 152 190 231 284 343
#
# _framework density 19.661978999999999
#
# number of rings (size 3 to 8) (size 9 to 14) (size 15 to 20)
#    0.000    1.750    0.000    4.500    0.000    5.000 
#    0.000    8.750    0.000   15.000    0.000    0.000 
#    0.000    0.000    0.000    0.000    0.000    0.000 
#
# Total GULP energy -793821.285441 kJ/mol
# GULP energy per Si atom -12403.457585 kJ/mol
# Density = 1.961723 g / cm^3
# Si number density = 19.661979 Si / 1000 Ang^3
#
#
#
# Elastic Constant Matrix: (Units=GPa)
#
#
# Indices 1 2 3 4 5 6 
#
# 1 79.5316 6.1254 23.4573 0.0000 0.0000 0.0000
# 2 6.1254 101.2900 22.5592 0.0000 0.0000 0.0000
# 3 23.4573 22.5592 103.0122 0.0000 0.0000 0.0000
# 4 0.0000 0.0000 0.0000 39.6080 0.0000 0.0000
# 5 0.0000 0.0000 0.0000 0.0000 16.0145 0.0000
# 6 0.0000 0.0000 0.0000 0.0000 0.0000 21.9867
#
#
#
# Elastic Compliance Matrix: (Units=1/GPa)
#
#
# Indices 1 2 3 4 5 6 
#
# 1 0.013481 -0.000138 -0.003039 0.000000 0.000000 0.000000
# 2 -0.000138 0.010380 -0.002242 0.000000 0.000000 0.000000
# 3 -0.003039 -0.002242 0.010891 0.000000 0.000000 0.000000
# 4 0.000000 0.000000 0.000000 0.025247 0.000000 0.000000
# 5 0.000000 0.000000 0.000000 0.000000 0.062444 0.000000
# 6 0.000000 0.000000 0.000000 0.000000 0.000000 0.045482
#
#
# Mechanical properties :
#
#
# Convention : Reuss Voigt Hill
#
# Bulk Modulus (GPa) = 41.81883 43.12418 42.47151
# Shear Modulus (GPa) = 26.77598 30.96796 28.87197
#
# Velocity S-wave (km/s) = 3.69428 3.97295 3.83615
# Velocity P-wave (km/s) = 6.28586 6.55944 6.42410
#
# Compressibility (1/GPa) = 0.02391267
#
# Stress axis : x y z
#
# Youngs Moduli (GPa) = 74.17992 96.33644 91.82191
#
# Poissons Ratio (x) = 0.01332 0.27909
# Poissons Ratio (y) = 0.01026 0.20584
# Poissons Ratio (z) = 0.22547 0.21596
#
# Static dielectric constant tensor:
#      x y z
#    x 3.282670 0.000000 0.000000 
#    y 0.000000 3.812380 0.000000 
#    z 0.000000 0.000000 3.566000 
# 
# 
# High freq. dielectric constant tensor:
#      x y z
#    x 1.746490 0.000000 0.000000 
#    y 0.000000 1.787640 0.000000 
#    z 0.000000 0.000000 1.765780 
# 
# From -- ./inp_files/45161.got.cif
#   From: 2010.06.25/outbox.cif.g09.slc.cpg/sg52_23_cif.got.tgz:45161.got - 2010.06.26 19:32:48.
