data_PCOD8215025
_publ_section_title
;
Structure prediction by ZEFSAII (Michael W. Deem and Ramdas Pophale) SiO2 
 PCOD8215025
Probable space group: P N N A
;
_chemical_formula_sum "Si O2"
_cell_formula_units_Z 44
_cell_length_a 16.437661
_cell_length_b 15.512559
_cell_length_c 8.937837
_cell_angle_alpha 90.000000
_cell_angle_beta 90.000000
_cell_angle_gamma 90.000000
_cell_volume 2279.060720
_symmetry_space_group_name_H-M "P N N A"
_symmetry_group_IT_number 52
_symmetry_cell_setting 'orthorhombic'
loop_
_space_group_symop_operation_xyz
x,y,z
1/2-x,-y,z
x,1/2-y,1/2-z
1/2-x,1/2+y,1/2-z
-x,-y,-z
1/2+x,y,-z
-x,1/2+y,1/2+z
1/2+x,1/2-y,1/2+z
loop_
_atom_site_type_symbol
_atom_site_label
_atom_site_fract_x
_atom_site_fract_y
_atom_site_fract_z
Si Si1 0.813806 0.187438 0.391084
Si Si2 0.137321 0.213026 0.527160
Si Si3 0.072074 0.133093 0.815281
Si Si4 0.541090 0.250000 0.750000
Si Si5 0.661865 0.539875 0.323691
Si Si6 0.927396 0.177225 0.012892
O O1 0.800231 0.250000 0.250000
O O2 0.728971 0.178318 0.478852
O O3 0.839313 0.092610 0.333406
O O4 0.881833 0.229580 0.501046
O O5 0.081087 0.161496 0.643945
O O6 0.134662 0.313713 0.578018
O O7 0.098385 0.197918 0.364744
O O8 0.092537 0.032677 0.823394
O O9 0.979605 0.153710 0.866628
O O10 0.485441 0.181757 0.839963
O O11 0.750000 0.500000 0.353410
O O12 0.639737 0.603318 0.460747
#
# Coordination Sequence:
#
# PCOD8215025 Si02
#       6
#     8   8   8   4   8   8
#     4  10  17  34  57  84 114 159 200 238 296 365
#     4  10  19  36  57  84 112 153 203 243 300 360
#     4  10  19  33  57  88 113 146 204 250 292 356
#     4  10  20  36  58  82 114 154 192 256 302 348
#     4  11  18  31  59  91 114 159 199 246 294 371
#     4  10  20  35  57  85 121 156 199 250 297 360
#
# _framework density 19.3062
#
# number of rings (size 3 to 8) (size 9 to 14) (size 15 to 20)
#    0.000    1.818    6.364    1.636    0.000    0.000 
#    0.000    4.545    0.000    0.000   47.273    0.000 
#    0.000    0.000    0.000    0.000    0.000    0.000 
#
# Total GULP energy -545396.028512 kJ/mol
# GULP energy per Si atom -12395.364284 kJ/mol
# Density = 1.926226 g / cm^3
# Si number density = 19.306200 Si / 1000 Ang^3
#
#
#
# Elastic Constant Matrix: (Units=GPa)
#
#
# Indices 1 2 3 4 5 6 
#
# 1 140.7213 45.9709 50.6222 0.0000 0.0000 0.0000
# 2 45.9709 95.4297 15.2056 0.0000 0.0000 0.0000
# 3 50.6222 15.2056 78.7900 0.0000 0.0000 0.0000
# 4 0.0000 0.0000 0.0000 16.7633 0.0000 0.0000
# 5 0.0000 0.0000 0.0000 0.0000 36.6026 0.0000
# 6 0.0000 0.0000 0.0000 0.0000 0.0000 37.4365
#
#
#
# Elastic Compliance Matrix: (Units=1/GPa)
#
#
# Indices 1 2 3 4 5 6 
#
# 1 0.010635 -0.004162 -0.006030 0.000000 0.000000 0.000000
# 2 -0.004162 0.012441 0.000273 0.000000 0.000000 0.000000
# 3 -0.006030 0.000273 0.016513 0.000000 0.000000 0.000000
# 4 0.000000 0.000000 0.000000 0.059654 0.000000 0.000000
# 5 0.000000 0.000000 0.000000 0.000000 0.027320 0.000000
# 6 0.000000 0.000000 0.000000 0.000000 0.000000 0.026712
#
#
# Mechanical properties :
#
#
# Convention : Reuss Voigt Hill
#
# Bulk Modulus (GPa) = 50.62903 59.83758 55.23331
# Shear Modulus (GPa) = 27.82469 31.70331 29.76400
#
# Velocity S-wave (km/s) = 3.80047 4.05672 3.93068
# Velocity P-wave (km/s) = 6.74828 7.28038 7.01937
#
# Compressibility (1/GPa) = 0.01975151
#
# Stress axis : x y z
#
# Youngs Moduli (GPa) = 94.02807 80.38261 60.55742
#
# Poissons Ratio (x) = 0.33459 0.36514
# Poissons Ratio (y) = 0.39139 -0.01656
# Poissons Ratio (z) = 0.56696 -0.02198
#
# Static dielectric constant tensor:
#      x y z
#    x 3.733780 0.000000 0.000000 
#    y 0.000000 3.637720 0.000000 
#    z 0.000000 0.000000 3.248360 
# 
# 
# High freq. dielectric constant tensor:
#      x y z
#    x 1.761370 0.000000 0.000000 
#    y 0.000000 1.739090 0.000000 
#    z 0.000000 0.000000 1.711220 
# 
# From -- ./inp_files/11935.got.cif
#   From: 2010.06.25/outbox.cif.g09.slc.cpg/sg52_6_cif.got.tgz:11935.got - 2010.06.26 19:32:48.
