data_PCOD8215082
_publ_section_title
;
Structure prediction by ZEFSAII (Michael W. Deem and Ramdas Pophale) SiO2 
 PCOD8215082
Probable space group: P N N A
;
_chemical_formula_sum "Si O2"
_cell_formula_units_Z 52
_cell_length_a 11.264647
_cell_length_b 9.266902
_cell_length_c 25.339244
_cell_angle_alpha 90.000000
_cell_angle_beta 90.000000
_cell_angle_gamma 90.000000
_cell_volume 2645.122627
_symmetry_space_group_name_H-M "P N N A"
_symmetry_group_IT_number 52
_symmetry_cell_setting 'orthorhombic'
loop_
_space_group_symop_operation_xyz
x,y,z
1/2-x,-y,z
x,1/2-y,1/2-z
1/2-x,1/2+y,1/2-z
-x,-y,-z
1/2+x,y,-z
-x,1/2+y,1/2+z
1/2+x,1/2-y,1/2+z
loop_
_atom_site_type_symbol
_atom_site_label
_atom_site_fract_x
_atom_site_fract_y
_atom_site_fract_z
Si Si1 0.413622 0.184479 0.830544
Si Si2 0.560599 0.116176 0.420935
Si Si3 0.750000 0.500000 0.258498
Si Si4 0.537861 0.491558 0.193011
Si Si5 0.654578 0.604170 0.996048
Si Si6 0.734984 0.833235 0.068536
Si Si7 0.861849 0.592234 0.727108
O O1 0.419125 0.345110 0.810221
O O2 0.376192 0.181566 0.891693
O O3 0.541955 0.108708 0.820416
O O4 0.310159 0.114186 0.796843
O O5 0.450195 0.151654 0.458045
O O6 0.644455 0.255221 0.411305
O O7 0.511459 0.075354 0.363674
O O8 0.623548 0.980918 0.449460
O O9 0.649871 0.417774 0.222780
O O10 0.417313 0.490322 0.226934
O O11 0.750000 0.500000 0.966014
O O12 0.707395 0.757223 0.012950
O O13 0.750000 0.000000 0.056127
O O14 0.750000 0.500000 0.705538
O O15 0.825378 0.750000 0.750000
#
# Coordination Sequence:
#
# PCOD8215082 Si02
#       7
#     8   8   4   8   8   8   8
#     4  10  19  35  56  84 122 158 190 246 296 359
#     4  10  20  36  60  86 112 150 199 246 296 349
#     4  10  18  30  52  90 122 146 186 230 306 358
#     4  10  19  33  58  83 113 156 198 240 287 354
#     4   9  20  38  61  85 111 150 196 250 296 355
#     4  11  21  36  60  88 121 151 192 249 312 368
#     4   9  20  38  55  79 117 167 199 241 290 352
#
# _framework density 19.658823999999999
#
# number of rings (size 3 to 8) (size 9 to 14) (size 15 to 20)
#    0.000    2.154    2.308    2.308    1.077    1.231 
#    2.769    3.077    0.000    0.923    0.000    0.000 
#    0.000    0.000    0.000    0.000    0.000    0.000 
#
# Total GULP energy -644390.723884 kJ/mol
# GULP energy per Si atom -12392.129305 kJ/mol
# Density = 1.961408 g / cm^3
# Si number density = 19.658824 Si / 1000 Ang^3
#
#
#
# Elastic Constant Matrix: (Units=GPa)
#
#
# Indices 1 2 3 4 5 6 
#
# 1 126.7454 52.3192 42.3811 0.0000 0.0000 0.0000
# 2 52.3192 88.6089 26.5576 0.0000 0.0000 0.0000
# 3 42.3811 26.5576 66.3211 0.0000 0.0000 0.0000
# 4 0.0000 0.0000 0.0000 18.1821 0.0000 0.0000
# 5 0.0000 0.0000 0.0000 0.0000 34.1605 0.0000
# 6 0.0000 0.0000 0.0000 0.0000 0.0000 30.1909
#
#
#
# Elastic Compliance Matrix: (Units=1/GPa)
#
#
# Indices 1 2 3 4 5 6 
#
# 1 0.011956 -0.005420 -0.005470 0.000000 0.000000 0.000000
# 2 -0.005420 0.015282 -0.002656 0.000000 0.000000 0.000000
# 3 -0.005470 -0.002656 0.019637 0.000000 0.000000 0.000000
# 4 0.000000 0.000000 0.000000 0.054999 0.000000 0.000000
# 5 0.000000 0.000000 0.000000 0.000000 0.029274 0.000000
# 6 0.000000 0.000000 0.000000 0.000000 0.000000 0.033123
#
#
# Mechanical properties :
#
#
# Convention : Reuss Voigt Hill
#
# Bulk Modulus (GPa) = 50.54746 58.24347 54.39547
# Shear Modulus (GPa) = 25.25802 27.20119 26.22960
#
# Velocity S-wave (km/s) = 3.58832 3.72380 3.65669
# Velocity P-wave (km/s) = 6.55258 6.94121 6.74969
#
# Compressibility (1/GPa) = 0.01978339
#
# Stress axis : x y z
#
# Youngs Moduli (GPa) = 83.63812 65.43694 50.92392
#
# Poissons Ratio (x) = 0.35468 0.27855
# Poissons Ratio (y) = 0.45333 0.13525
# Poissons Ratio (z) = 0.45750 0.17379
#
# Static dielectric constant tensor:
#      x y z
#    x 3.543570 0.000000 0.000000 
#    y 0.000000 3.478640 0.000000 
#    z 0.000000 0.000000 3.570040 
# 
# 
# High freq. dielectric constant tensor:
#      x y z
#    x 1.765610 0.000000 0.000000 
#    y 0.000000 1.757160 0.000000 
#    z 0.000000 0.000000 1.748050 
# 
# From -- ./inp_files/42722.got.cif
#   From: 2010.06.25/outbox.cif.g09.slc.cpg/sg52_22_cif.got.tgz:42722.got - 2010.06.26 19:32:48.
