data_PCOD8215621
_publ_section_title
;
Structure prediction by ZEFSAII (Michael W. Deem and Ramdas Pophale) SiO2 
 PCOD8215621
Probable space group: P N N A
;
_chemical_formula_sum "Si O2"
_cell_formula_units_Z 64
_cell_length_a 9.263904
_cell_length_b 14.908174
_cell_length_c 24.636181
_cell_angle_alpha 90.000000
_cell_angle_beta 90.000000
_cell_angle_gamma 90.000000
_cell_volume 3402.451043
_symmetry_space_group_name_H-M "P N N A"
_symmetry_group_IT_number 52
_symmetry_cell_setting 'orthorhombic'
loop_
_space_group_symop_operation_xyz
x,y,z
1/2-x,-y,z
x,1/2-y,1/2-z
1/2-x,1/2+y,1/2-z
-x,-y,-z
1/2+x,y,-z
-x,1/2+y,1/2+z
1/2+x,1/2-y,1/2+z
loop_
_atom_site_type_symbol
_atom_site_label
_atom_site_fract_x
_atom_site_fract_y
_atom_site_fract_z
Si Si1 0.870478 0.070961 0.671012
Si Si2 0.399664 0.459493 0.779692
Si Si3 0.016676 0.382266 0.325214
Si Si4 0.069459 0.584379 0.556593
Si Si5 0.306711 0.336751 0.280621
Si Si6 0.705547 0.726433 0.191559
Si Si7 0.394960 0.875724 0.959798
Si Si8 0.996221 0.747574 0.364240
O O1 0.830907 0.090985 0.733543
O O2 0.899074 0.162224 0.634850
O O3 0.750000 0.000000 0.647086
O O4 0.023023 0.020632 0.675224
O O5 0.250000 0.500000 0.760635
O O6 0.488740 0.450421 0.724117
O O7 0.377076 0.366700 0.810121
O O8 0.979447 0.424535 0.381970
O O9 0.920205 0.294851 0.321147
O O10 0.186872 0.363691 0.324398
O O11 0.223260 0.635316 0.548313
O O12 0.070236 0.479908 0.544423
O O13 0.954061 0.642487 0.521060
O O14 0.246519 0.250000 0.250000
O O15 0.451084 0.316943 0.315323
O O16 0.775243 0.750000 0.250000
O O17 0.832629 0.723989 0.147880
O O18 0.487702 0.809731 0.920018
#
# Coordination Sequence:
#
# PCOD8215621 Si02
#       8
#     8   8   8   8   8   8   8   8
#     4  11  22  37  52  85 124 162 197 243 285 360
#     4  11  22  33  55  82 120 154 197 235 285 349
#     4  11  22  35  56  81 115 160 193 235 291 350
#     4  10  23  40  62  83 116 144 197 243 297 348
#     4  10  22  35  51  80 123 158 193 231 284 354
#     4  10  20  34  53  82 117 152 195 240 283 357
#     4  10  23  42  58  87 113 148 192 253 293 353
#     4  11  22  37  58  81 118 162 201 241 303 351
#
# _framework density 18.80997
#
# number of rings (size 3 to 8) (size 9 to 14) (size 15 to 20)
#    0.000    1.500    3.750    2.250    8.750    0.000 
#    0.000    0.000    0.000    0.000    0.000    4.375 
#    0.000    0.000    0.000    0.000    0.000    0.000 
#
# Total GULP energy -792861.312765 kJ/mol
# GULP energy per Si atom -12388.458012 kJ/mol
# Density = 1.876716 g / cm^3
# Si number density = 18.809970 Si / 1000 Ang^3
#
#
#
# Elastic Constant Matrix: (Units=GPa)
#
#
# Indices 1 2 3 4 5 6 
#
# 1 83.9216 19.5994 21.5582 0.0000 0.0000 0.0000
# 2 19.5994 60.2604 11.3627 0.0000 0.0000 0.0000
# 3 21.5582 11.3627 54.7133 0.0000 0.0000 0.0000
# 4 0.0000 0.0000 0.0000 25.8402 0.0000 0.0000
# 5 0.0000 0.0000 0.0000 0.0000 28.8828 0.0000
# 6 0.0000 0.0000 0.0000 0.0000 0.0000 -12.8635
#
#
#
# Elastic Compliance Matrix: (Units=1/GPa)
#
#
# Indices 1 2 3 4 5 6 
#
# 1 0.013990 -0.003654 -0.004754 0.000000 0.000000 0.000000
# 2 -0.003654 0.018225 -0.002345 0.000000 0.000000 0.000000
# 3 -0.004754 -0.002345 0.020637 0.000000 0.000000 0.000000
# 4 0.000000 0.000000 0.000000 0.038699 0.000000 0.000000
# 5 0.000000 0.000000 0.000000 0.000000 0.034623 0.000000
# 6 0.000000 0.000000 0.000000 0.000000 0.000000 -0.077740
#
#
# Mechanical properties :
#
#
# Convention : Reuss Voigt Hill
#
# Bulk Modulus (GPa) = 31.90081 33.77064 32.83573
# Shear Modulus (GPa) = 62.19661 18.13023 40.16342
#
# Velocity S-wave (km/s) = 5.75652 3.10798 4.62586
# Velocity P-wave (km/s) = 7.82175 5.55625 6.78424
#
# Compressibility (1/GPa) = 0.03134717
#
# Stress axis : x y z
#
# Youngs Moduli (GPa) = 71.47764 54.86882 48.45619
#
# Poissons Ratio (x) = 0.20049 0.23034
# Poissons Ratio (y) = 0.26118 0.11364
# Poissons Ratio (z) = 0.33978 0.12868
#
# Static dielectric constant tensor:
#      x y z
#    x 3.537740 0.000000 0.000000 
#    y 0.000000 3.578700 0.000000 
#    z 0.000000 0.000000 3.514160 
# 
# 
# High freq. dielectric constant tensor:
#      x y z
#    x 1.743390 0.000000 0.000000 
#    y 0.000000 1.731520 0.000000 
#    z 0.000000 0.000000 1.689280 
# 
# From -- ./inp_files/39703.got.cif
#   From: 2010.06.25/outbox.cif.g09.slc.cpg/sg52_20_cif.got.tgz:39703.got - 2010.06.26 19:32:48.
