data_PCOD8215157
_publ_section_title
;
Structure prediction by ZEFSAII (Michael W. Deem and Ramdas Pophale) SiO2 
 PCOD8215157
Probable space group: P N N A
;
_chemical_formula_sum "Si O2"
_cell_formula_units_Z 32
_cell_length_a 14.823008
_cell_length_b 8.201880
_cell_length_c 11.819089
_cell_angle_alpha 90.000000
_cell_angle_beta 90.000000
_cell_angle_gamma 90.000000
_cell_volume 1436.923862
_symmetry_space_group_name_H-M "P N N A"
_symmetry_group_IT_number 52
_symmetry_cell_setting 'orthorhombic'
loop_
_space_group_symop_operation_xyz
x,y,z
1/2-x,-y,z
x,1/2-y,1/2-z
1/2-x,1/2+y,1/2-z
-x,-y,-z
1/2+x,y,-z
-x,1/2+y,1/2+z
1/2+x,1/2-y,1/2+z
loop_
_atom_site_type_symbol
_atom_site_label
_atom_site_fract_x
_atom_site_fract_y
_atom_site_fract_z
Si Si1 0.655147 0.953413 0.042853
Si Si2 0.965924 0.936186 0.238489
Si Si3 0.675610 0.635072 0.142923
Si Si4 0.844840 0.566060 0.710184
O O1 0.657459 0.754557 0.035114
O O2 0.750000 0.000000 0.104953
O O3 0.568328 0.006634 0.115145
O O4 0.653093 0.048202 0.925000
O O5 0.939014 0.750000 0.250000
O O6 0.917489 0.041540 0.334622
O O7 0.072548 0.959192 0.256507
O O8 0.750000 0.500000 0.113394
O O9 0.702211 0.750000 0.250000
O O10 0.750000 0.500000 0.759411
O O11 0.858777 0.750000 0.750000
#
# Coordination Sequence:
#
# PCOD8215157 Si02
#       4
#     8   8   8   8
#     4  10  21  38  61  90 121 157 198 250 303 358
#     4  11  21  37  61  92 124 156 194 247 307 364
#     4  10  18  33  60  95 127 155 190 245 313 370
#     4  11  24  44  62  81 115 164 211 250 291 352
#
# _framework density 22.269794000000001
#
# number of rings (size 3 to 8) (size 9 to 14) (size 15 to 20)
#    0.000    1.500    0.000    9.000    0.000    0.000 
#    0.000   20.000    0.000    0.000    0.000    0.000 
#    0.000    0.000    0.000    0.000    0.000    0.000 
#
# Total GULP energy -396635.360561 kJ/mol
# GULP energy per Si atom -12394.855018 kJ/mol
# Density = 2.221911 g / cm^3
# Si number density = 22.269794 Si / 1000 Ang^3
#
#
#
# Elastic Constant Matrix: (Units=GPa)
#
#
# Indices 1 2 3 4 5 6 
#
# 1 157.2456 46.6443 27.5014 0.0000 0.0000 0.0000
# 2 46.6443 186.8006 54.6213 0.0000 0.0000 0.0000
# 3 27.5014 54.6213 61.2885 0.0000 0.0000 0.0000
# 4 0.0000 0.0000 0.0000 43.8079 0.0000 0.0000
# 5 0.0000 0.0000 0.0000 0.0000 7.7986 0.0000
# 6 0.0000 0.0000 0.0000 0.0000 0.0000 44.8354
#
#
#
# Elastic Compliance Matrix: (Units=1/GPa)
#
#
# Indices 1 2 3 4 5 6 
#
# 1 0.007074 -0.001134 -0.002164 0.000000 0.000000 0.000000
# 2 -0.001134 0.007422 -0.006106 0.000000 0.000000 0.000000
# 3 -0.002164 -0.006106 0.022729 0.000000 0.000000 0.000000
# 4 0.000000 0.000000 0.000000 0.022827 0.000000 0.000000
# 5 0.000000 0.000000 0.000000 0.000000 0.128228 0.000000
# 6 0.000000 0.000000 0.000000 0.000000 0.000000 0.022304
#
#
# Mechanical properties :
#
#
# Convention : Reuss Voigt Hill
#
# Bulk Modulus (GPa) = 54.29454 73.65207 63.97331
# Shear Modulus (GPa) = 21.22879 37.72624 29.47752
#
# Velocity S-wave (km/s) = 3.09083 4.12035 3.64215
# Velocity P-wave (km/s) = 6.09680 7.46866 6.81732
#
# Compressibility (1/GPa) = 0.01841806
#
# Stress axis : x y z
#
# Youngs Moduli (GPa) = 141.35803 134.74008 43.99715
#
# Poissons Ratio (x) = 0.15275 0.09521
# Poissons Ratio (y) = 0.16025 0.26863
# Poissons Ratio (z) = 0.30590 0.82267
#
# Static dielectric constant tensor:
#      x y z
#    x 4.353330 0.000000 0.000000 
#    y 0.000000 4.326370 0.000000 
#    z 0.000000 0.000000 3.595840 
# 
# 
# High freq. dielectric constant tensor:
#      x y z
#    x 1.893200 0.000000 0.000000 
#    y 0.000000 1.894770 0.000000 
#    z 0.000000 0.000000 1.833730 
# 
# From -- ./inp_files/19011.got.cif
#   From: 2010.06.25/outbox.cif.g09.slc.cpg/sg52_10_cif.got.tgz:19011.got - 2010.06.26 19:32:48.
