data_PCOD8215287
_publ_section_title
;
Structure prediction by ZEFSAII (Michael W. Deem and Ramdas Pophale) SiO2 
 PCOD8215287
Probable space group: P N N A
;
_chemical_formula_sum "Si O2"
_cell_formula_units_Z 48
_cell_length_a 20.660899
_cell_length_b 24.335345
_cell_length_c 5.053799
_cell_angle_alpha 90.000000
_cell_angle_beta 90.000000
_cell_angle_gamma 90.000000
_cell_volume 2541.000131
_symmetry_space_group_name_H-M "P N N A"
_symmetry_group_IT_number 52
_symmetry_cell_setting 'orthorhombic'
loop_
_space_group_symop_operation_xyz
x,y,z
1/2-x,-y,z
x,1/2-y,1/2-z
1/2-x,1/2+y,1/2-z
-x,-y,-z
1/2+x,y,-z
-x,1/2+y,1/2+z
1/2+x,1/2-y,1/2+z
loop_
_atom_site_type_symbol
_atom_site_label
_atom_site_fract_x
_atom_site_fract_y
_atom_site_fract_z
Si Si1 0.691710 0.574349 0.436043
Si Si2 0.640920 0.389618 0.916892
Si Si3 0.352209 0.250000 0.250000
Si Si4 0.556608 0.214896 0.518974
Si Si5 0.566451 0.750000 0.250000
Si Si6 0.210640 0.640548 0.070865
Si Si7 0.159214 0.044559 0.913253
O O1 0.676125 0.603964 0.708733
O O2 0.764909 0.554290 0.433113
O O3 0.645322 0.520810 0.427551
O O4 0.680491 0.618175 0.201915
O O5 0.590038 0.343632 0.002947
O O6 0.711960 0.362890 0.920184
O O7 0.624279 0.418974 0.639240
O O8 0.633243 0.437338 0.130518
O O9 0.392835 0.273940 0.500992
O O10 0.307656 0.296436 0.118357
O O11 0.592687 0.250000 0.750000
O O12 0.481776 0.204588 0.614905
O O13 0.560250 0.250000 0.250000
#
# Coordination Sequence:
#
# PCOD8215287 Si02
#       7
#     8   8   4   8   4   8   8
#     4   9  17  33  47  75 109 147 167 203 247 310
#     4  10  19  32  51  86 106 138 163 210 275 310
#     4  12  22  37  54  77 104 140 184 218 248 324
#     4  10  20  36  55  74 107 133 174 223 260 313
#     4  10  22  39  54  71  96 144 194 214 256 304
#     4  10  21  32  51  79 113 137 169 206 267 311
#     4   9  17  29  52  74 111 138 175 199 244 328
#
# _framework density 18.890201000000001
#
# number of rings (size 3 to 8) (size 9 to 14) (size 15 to 20)
#    0.500    1.667    0.833    3.000    1.167    4.000 
#    1.500    0.000    0.000    0.000    0.000   23.333 
#    0.000    0.000    0.000    0.000    0.000    0.000 
#
# Total GULP energy -594730.565317 kJ/mol
# GULP energy per Si atom -12390.220111 kJ/mol
# Density = 1.884721 g / cm^3
# Si number density = 18.890201 Si / 1000 Ang^3
#
#
#
# Elastic Constant Matrix: (Units=GPa)
#
#
# Indices 1 2 3 4 5 6 
#
# 1 37.6534 21.5233 23.1114 0.0000 0.0000 0.0000
# 2 21.5233 90.8956 25.5878 0.0000 0.0000 0.0000
# 3 23.1114 25.5878 124.9883 0.0000 0.0000 0.0000
# 4 0.0000 0.0000 0.0000 23.0463 0.0000 0.0000
# 5 0.0000 0.0000 0.0000 0.0000 7.4624 0.0000
# 6 0.0000 0.0000 0.0000 0.0000 0.0000 2.4896
#
#
#
# Elastic Compliance Matrix: (Units=1/GPa)
#
#
# Indices 1 2 3 4 5 6 
#
# 1 0.033236 -0.006515 -0.004812 0.000000 0.000000 0.000000
# 2 -0.006515 0.012952 -0.001447 0.000000 0.000000 0.000000
# 3 -0.004812 -0.001447 0.009187 0.000000 0.000000 0.000000
# 4 0.000000 0.000000 0.000000 0.043391 0.000000 0.000000
# 5 0.000000 0.000000 0.000000 0.000000 0.134004 0.000000
# 6 0.000000 0.000000 0.000000 0.000000 0.000000 0.401678
#
#
# Mechanical properties :
#
#
# Convention : Reuss Voigt Hill
#
# Bulk Modulus (GPa) = 33.52742 43.77583 38.65162
# Shear Modulus (GPa) = 7.46339 18.82066 13.14202
#
# Velocity S-wave (km/s) = 1.98985 3.15988 2.64049
# Velocity P-wave (km/s) = 4.80275 6.04460 5.45911
#
# Compressibility (1/GPa) = 0.02982634
#
# Stress axis : x y z
#
# Youngs Moduli (GPa) = 30.08812 77.21003 108.85349
#
# Poissons Ratio (x) = 0.50305 0.52377
# Poissons Ratio (y) = 0.19604 0.15748
# Poissons Ratio (z) = 0.14478 0.11170
#
# Static dielectric constant tensor:
#      x y z
#    x 3.154730 0.000000 0.000000 
#    y 0.000000 3.409570 0.000000 
#    z 0.000000 0.000000 3.816940 
# 
# 
# High freq. dielectric constant tensor:
#      x y z
#    x 1.681800 0.000000 0.000000 
#    y 0.000000 1.726800 0.000000 
#    z 0.000000 0.000000 1.760630 
# 
# From -- ./inp_files/5146.got.cif
#   From: 2010.06.25/outbox.cif.g09.slc.cpg/sg52_3_cif.got.tgz:5146.got - 2010.06.26 19:32:48.
