data_PCOD8215175
_publ_section_title
;
Structure prediction by ZEFSAII (Michael W. Deem and Ramdas Pophale) SiO2 
 PCOD8215175
Probable space group: P N N A
;
_chemical_formula_sum "Si O2"
_cell_formula_units_Z 64
_cell_length_a 21.311097
_cell_length_b 8.954049
_cell_length_c 17.259071
_cell_angle_alpha 90.000000
_cell_angle_beta 90.000000
_cell_angle_gamma 90.000000
_cell_volume 3293.386401
_symmetry_space_group_name_H-M "P N N A"
_symmetry_group_IT_number 52
_symmetry_cell_setting 'orthorhombic'
loop_
_space_group_symop_operation_xyz
x,y,z
1/2-x,-y,z
x,1/2-y,1/2-z
1/2-x,1/2+y,1/2-z
-x,-y,-z
1/2+x,y,-z
-x,1/2+y,1/2+z
1/2+x,1/2-y,1/2+z
loop_
_atom_site_type_symbol
_atom_site_label
_atom_site_fract_x
_atom_site_fract_y
_atom_site_fract_z
Si Si1 0.881431 0.522753 0.387822
Si Si2 0.406913 0.080252 0.166058
Si Si3 0.937300 0.095232 0.656604
Si Si4 0.680320 0.058717 0.947929
Si Si5 0.688124 0.421585 0.240071
Si Si6 0.399245 0.842318 0.454032
Si Si7 0.501157 0.394187 0.574251
Si Si8 0.419537 0.860949 0.625642
O O1 0.854555 0.515295 0.473683
O O2 0.828795 0.499504 0.322368
O O3 0.931668 0.386440 0.388181
O O4 0.916656 0.680262 0.369061
O O5 0.407837 0.081359 0.258300
O O6 0.422101 0.239262 0.126998
O O7 0.341119 0.028582 0.129165
O O8 0.457408 0.959467 0.142453
O O9 0.012559 0.076382 0.651442
O O10 0.898542 0.977500 0.606015
O O11 0.661909 0.235634 0.937920
O O12 0.750000 0.000000 0.960065
O O13 0.750000 0.500000 0.205711
O O14 0.705770 0.250000 0.250000
O O15 0.629646 0.439750 0.182759
O O16 0.467651 0.762514 0.448139
O O17 0.398525 0.911583 0.540015
O O18 0.500000 0.500000 0.500000
#
# Coordination Sequence:
#
# PCOD8215175 Si02
#       8
#     8   8   8   8   8   8   8   8
#     4  10  18  34  61  86 108 156 197 239 280 349
#     4  10  21  35  60  84 114 154 189 238 292 363
#     4  11  21  37  57  90 119 147 191 240 312 356
#     4  10  21  39  59  81 112 155 204 239 287 350
#     4  10  22  39  57  80 118 161 197 232 270 345
#     4  10  22  36  59  90 117 152 190 257 293 345
#     4  11  16  33  57  88 116 140 197 240 290 347
#     4  10  19  35  61  83 120 155 191 234 303 349
#
# _framework density 19.432884999999999
#
# number of rings (size 3 to 8) (size 9 to 14) (size 15 to 20)
#    0.000    1.750    5.000    1.500    3.500    2.000 
#    2.250    6.875    0.000    0.000    0.000    0.000 
#    0.000    0.000    0.000    0.000    0.000    0.000 
#
# Total GULP energy -793010.743485 kJ/mol
# GULP energy per Si atom -12390.792867 kJ/mol
# Density = 1.938865 g / cm^3
# Si number density = 19.432885 Si / 1000 Ang^3
#
#
#
# Elastic Constant Matrix: (Units=GPa)
#
#
# Indices 1 2 3 4 5 6 
#
# 1 55.0240 13.5611 2.0934 0.0000 0.0000 0.0000
# 2 13.5611 45.5254 24.1956 0.0000 0.0000 0.0000
# 3 2.0934 24.1956 76.3190 0.0000 0.0000 0.0000
# 4 0.0000 0.0000 0.0000 27.8384 0.0000 0.0000
# 5 0.0000 0.0000 0.0000 0.0000 21.1913 0.0000
# 6 0.0000 0.0000 0.0000 0.0000 0.0000 21.8529
#
#
#
# Elastic Compliance Matrix: (Units=1/GPa)
#
#
# Indices 1 2 3 4 5 6 
#
# 1 0.019774 -0.006737 0.001593 0.000000 0.000000 0.000000
# 2 -0.006737 0.028712 -0.008918 0.000000 0.000000 0.000000
# 3 0.001593 -0.008918 0.015886 0.000000 0.000000 0.000000
# 4 0.000000 0.000000 0.000000 0.035922 0.000000 0.000000
# 5 0.000000 0.000000 0.000000 0.000000 0.047189 0.000000
# 6 0.000000 0.000000 0.000000 0.000000 0.000000 0.045761
#
#
# Mechanical properties :
#
#
# Convention : Reuss Voigt Hill
#
# Bulk Modulus (GPa) = 27.58669 28.50762 28.04716
# Shear Modulus (GPa) = 21.41790 23.31108 22.36449
#
# Velocity S-wave (km/s) = 3.32346 3.46724 3.39611
# Velocity P-wave (km/s) = 5.38088 5.54352 5.46281
#
# Compressibility (1/GPa) = 0.03624936
#
# Stress axis : x y z
#
# Youngs Moduli (GPa) = 50.57235 34.82840 62.94680
#
# Poissons Ratio (x) = 0.23464 -0.10030
# Poissons Ratio (y) = 0.34071 0.56135
# Poissons Ratio (z) = -0.08059 0.31060
#
# Static dielectric constant tensor:
#      x y z
#    x 3.658850 0.000000 0.000000 
#    y 0.000000 3.544970 0.000000 
#    z 0.000000 0.000000 3.739800 
# 
# 
# High freq. dielectric constant tensor:
#      x y z
#    x 1.741590 0.000000 0.000000 
#    y 0.000000 1.732060 0.000000 
#    z 0.000000 0.000000 1.767430 
# 
# From -- ./inp_files/34105.got.cif
#   From: 2010.06.25/outbox.cif.g09.slc.cpg/sg52_18_cif.got.tgz:34105.got - 2010.06.26 19:32:48.
