data_PCOD8215992
_publ_section_title
;
Structure prediction by ZEFSAII (Michael W. Deem and Ramdas Pophale) SiO2 
 PCOD8215992
Probable space group: P N N A
;
_chemical_formula_sum "Si O2"
_cell_formula_units_Z 48
_cell_length_a 5.791611
_cell_length_b 13.386299
_cell_length_c 29.281364
_cell_angle_alpha 90.000000
_cell_angle_beta 90.000000
_cell_angle_gamma 90.000000
_cell_volume 2270.132514
_symmetry_space_group_name_H-M "P N N A"
_symmetry_group_IT_number 52
_symmetry_cell_setting 'orthorhombic'
loop_
_space_group_symop_operation_xyz
x,y,z
1/2-x,-y,z
x,1/2-y,1/2-z
1/2-x,1/2+y,1/2-z
-x,-y,-z
1/2+x,y,-z
-x,1/2+y,1/2+z
1/2+x,1/2-y,1/2+z
loop_
_atom_site_type_symbol
_atom_site_label
_atom_site_fract_x
_atom_site_fract_y
_atom_site_fract_z
Si Si1 0.317543 0.397230 0.868397
Si Si2 0.894429 0.905620 0.718379
Si Si3 0.207916 0.886966 0.803875
Si Si4 0.508239 0.114076 0.983743
Si Si5 0.433863 0.262930 0.172704
Si Si6 0.446930 0.706004 0.388653
O O1 0.250000 0.500000 0.895674
O O2 0.489835 0.436369 0.829264
O O3 0.100990 0.350381 0.842820
O O4 0.438464 0.314374 0.901155
O O5 0.746044 0.806823 0.708956
O O6 0.084619 0.876427 0.755506
O O7 0.750000 0.000000 0.737053
O O8 0.449995 0.828950 0.800370
O O9 0.066565 0.835314 0.843707
O O10 0.250000 0.000000 0.817958
O O11 0.524836 0.126954 0.929310
O O12 0.255311 0.162030 0.998110
O O13 0.500000 0.000000 0.000000
O O14 0.318783 0.221284 0.125607
#
# Coordination Sequence:
#
# PCOD8215992 Si02
#       6
#     8   8   8   8   8   8
#     4  10  20  40  68  93 128 175 227 283 333 401
#     4  11  23  41  59  90 126 186 234 274 344 392
#     4  11  27  40  59  91 135 178 221 289 335 406
#     4  10  24  44  74 102 134 180 219 280 345 442
#     4  10  24  43  63  86 134 167 237 281 330 412
#     4  10  25  41  67 101 126 175 226 280 350 411
#
# _framework density 21.144138999999999
#
# number of rings (size 3 to 8) (size 9 to 14) (size 15 to 20)
#    0.000    1.667    1.667    0.500    9.333    8.667 
#    0.000    0.000    0.000    1.000    0.000    0.000 
#    0.000    0.000    0.000    0.000    0.000    0.000 
#
# Total GULP energy -594822.125666 kJ/mol
# GULP energy per Si atom -12392.127618 kJ/mol
# Density = 2.109601 g / cm^3
# Si number density = 21.144139 Si / 1000 Ang^3
#
#
#
# Elastic Constant Matrix: (Units=GPa)
#
#
# Indices 1 2 3 4 5 6 
#
# 1 117.9218 38.2673 15.4319 0.0000 0.0000 0.0000
# 2 38.2673 134.5874 29.0980 0.0000 0.0000 0.0000
# 3 15.4319 29.0980 75.4428 0.0000 0.0000 0.0000
# 4 0.0000 0.0000 0.0000 20.9706 0.0000 0.0000
# 5 0.0000 0.0000 0.0000 0.0000 19.2163 0.0000
# 6 0.0000 0.0000 0.0000 0.0000 0.0000 24.7376
#
#
#
# Elastic Compliance Matrix: (Units=1/GPa)
#
#
# Indices 1 2 3 4 5 6 
#
# 1 0.009407 -0.002464 -0.000974 0.000000 0.000000 0.000000
# 2 -0.002464 0.008752 -0.002871 0.000000 0.000000 0.000000
# 3 -0.000974 -0.002871 0.014562 0.000000 0.000000 0.000000
# 4 0.000000 0.000000 0.000000 0.047686 0.000000 0.000000
# 5 0.000000 0.000000 0.000000 0.000000 0.052039 0.000000
# 6 0.000000 0.000000 0.000000 0.000000 0.000000 0.040424
#
#
# Mechanical properties :
#
#
# Convention : Reuss Voigt Hill
#
# Bulk Modulus (GPa) = 49.74694 54.83849 52.29271
# Shear Modulus (GPa) = 26.01599 29.32854 27.67226
#
# Velocity S-wave (km/s) = 3.51153 3.72839 3.62158
# Velocity P-wave (km/s) = 6.32611 6.67281 6.50177
#
# Compressibility (1/GPa) = 0.02010174
#
# Stress axis : x y z
#
# Youngs Moduli (GPa) = 106.30018 114.26520 68.67299
#
# Poissons Ratio (x) = 0.28158 0.06688
# Poissons Ratio (y) = 0.26195 0.19719
# Poissons Ratio (z) = 0.10352 0.32810
#
# Static dielectric constant tensor:
#      x y z
#    x 4.997630 0.000000 0.000000 
#    y 0.000000 4.074250 0.000000 
#    z 0.000000 0.000000 3.401490 
# 
# 
# High freq. dielectric constant tensor:
#      x y z
#    x 1.856920 0.000000 0.000000 
#    y 0.000000 1.831650 0.000000 
#    z 0.000000 0.000000 1.779360 
# 
# From -- ./inp_files/41681.got.cif
#   From: 2010.06.25/outbox.cif.g09.slc.cpg/sg52_21_cif.got.tgz:41681.got - 2010.06.26 19:32:48.
