data_PCOD8215945
_publ_section_title
;
Structure prediction by ZEFSAII (Michael W. Deem and Ramdas Pophale) SiO2 
 PCOD8215945
Probable space group: P N N A
;
_chemical_formula_sum "Si O2"
_cell_formula_units_Z 32
_cell_length_a 7.480318
_cell_length_b 11.891630
_cell_length_c 15.808350
_cell_angle_alpha 90.000000
_cell_angle_beta 90.000000
_cell_angle_gamma 90.000000
_cell_volume 1406.202907
_symmetry_space_group_name_H-M "P N N A"
_symmetry_group_IT_number 52
_symmetry_cell_setting 'orthorhombic'
loop_
_space_group_symop_operation_xyz
x,y,z
1/2-x,-y,z
x,1/2-y,1/2-z
1/2-x,1/2+y,1/2-z
-x,-y,-z
1/2+x,y,-z
-x,1/2+y,1/2+z
1/2+x,1/2-y,1/2+z
loop_
_atom_site_type_symbol
_atom_site_label
_atom_site_fract_x
_atom_site_fract_y
_atom_site_fract_z
Si Si1 0.938220 0.121394 0.607027
Si Si2 0.750000 0.500000 0.027571
Si Si3 0.374797 0.847799 0.933247
Si Si4 0.484273 0.586218 0.394803
Si Si5 0.750000 0.500000 0.746814
O O1 0.084978 0.026111 0.587655
O O2 0.025025 0.243510 0.608778
O O3 0.789711 0.109115 0.532377
O O4 0.859705 0.089880 0.697843
O O5 0.179736 0.856079 0.890128
O O6 0.498674 0.954990 0.916532
O O7 0.363878 0.845402 0.036205
O O8 0.379203 0.583808 0.306305
#
# Coordination Sequence:
#
# PCOD8215945 Si02
#       5
#     8   4   8   8   4
#     4  10  21  40  64  92 129 173 221 268 323 389
#     4   9  20  38  62  89 124 176 224 261 314 400
#     4  10  20  39  67  90 123 176 220 256 326 411
#     4  10  21  38  64  97 128 163 216 277 325 385
#     4  11  24  40  60  97 144 168 210 287 330 362
#
# _framework density 22.756316999999999
#
# number of rings (size 3 to 8) (size 9 to 14) (size 15 to 20)
#    0.000    2.000    0.000    4.500    0.000    3.000 
#    0.000   10.000    0.000   15.000    0.000    0.000 
#    0.000    0.000    0.000    0.000    0.000    0.000 
#
# Total GULP energy -396710.690267 kJ/mol
# GULP energy per Si atom -12397.209071 kJ/mol
# Density = 2.270452 g / cm^3
# Si number density = 22.756317 Si / 1000 Ang^3
#
#
#
# Elastic Constant Matrix: (Units=GPa)
#
#
# Indices 1 2 3 4 5 6 
#
# 1 134.0705 56.8242 82.2270 0.0000 0.0000 0.0000
# 2 56.8242 125.5055 56.2558 0.0000 0.0000 0.0000
# 3 82.2270 56.2558 156.9207 0.0000 0.0000 0.0000
# 4 0.0000 0.0000 0.0000 14.9503 0.0000 0.0000
# 5 0.0000 0.0000 0.0000 0.0000 52.1809 0.0000
# 6 0.0000 0.0000 0.0000 0.0000 0.0000 43.9626
#
#
#
# Elastic Compliance Matrix: (Units=1/GPa)
#
#
# Indices 1 2 3 4 5 6 
#
# 1 0.011921 -0.003095 -0.005137 0.000000 0.000000 0.000000
# 2 -0.003095 0.010297 -0.002070 0.000000 0.000000 0.000000
# 3 -0.005137 -0.002070 0.009807 0.000000 0.000000 0.000000
# 4 0.000000 0.000000 0.000000 0.066888 0.000000 0.000000
# 5 0.000000 0.000000 0.000000 0.000000 0.019164 0.000000
# 6 0.000000 0.000000 0.000000 0.000000 0.000000 0.022747
#
#
# Mechanical properties :
#
#
# Convention : Reuss Voigt Hill
#
# Bulk Modulus (GPa) = 87.55802 89.67899 88.61850
# Shear Modulus (GPa) = 30.26010 36.96472 33.61241
#
# Velocity S-wave (km/s) = 3.65052 4.03472 3.84742
# Velocity P-wave (km/s) = 7.50522 7.82300 7.66575
#
# Compressibility (1/GPa) = 0.01142100
#
# Stress axis : x y z
#
# Youngs Moduli (GPa) = 83.88412 97.11878 101.97240
#
# Poissons Ratio (x) = 0.30056 0.52386
# Poissons Ratio (y) = 0.25960 0.21105
# Poissons Ratio (z) = 0.43094 0.20100
#
# Static dielectric constant tensor:
#      x y z
#    x 4.204260 0.000000 0.000000 
#    y 0.000000 3.811570 0.000000 
#    z 0.000000 0.000000 4.024220 
# 
# 
# High freq. dielectric constant tensor:
#      x y z
#    x 1.916240 0.000000 0.000000 
#    y 0.000000 1.884280 0.000000 
#    z 0.000000 0.000000 1.880500 
# 
# From -- ./inp_files/30809.got.cif
#   From: 2010.06.25/outbox.cif.g09.slc.cpg/sg52_16_cif.got.tgz:30809.got - 2010.06.26 19:32:48.
