data_PCOD8215740
_publ_section_title
;
Structure prediction by ZEFSAII (Michael W. Deem and Ramdas Pophale) SiO2 
 PCOD8215740
Probable space group: P N N A
;
_chemical_formula_sum "Si O2"
_cell_formula_units_Z 32
_cell_length_a 17.401044
_cell_length_b 14.012721
_cell_length_c 6.563241
_cell_angle_alpha 90.000000
_cell_angle_beta 90.000000
_cell_angle_gamma 90.000000
_cell_volume 1600.354266
_symmetry_space_group_name_H-M "P N N A"
_symmetry_group_IT_number 52
_symmetry_cell_setting 'orthorhombic'
loop_
_space_group_symop_operation_xyz
x,y,z
1/2-x,-y,z
x,1/2-y,1/2-z
1/2-x,1/2+y,1/2-z
-x,-y,-z
1/2+x,y,-z
-x,1/2+y,1/2+z
1/2+x,1/2-y,1/2+z
loop_
_atom_site_type_symbol
_atom_site_label
_atom_site_fract_x
_atom_site_fract_y
_atom_site_fract_z
Si Si1 0.159027 0.146896 0.148079
Si Si2 0.915118 0.987097 0.581110
Si Si3 0.292652 0.596685 0.781092
Si Si4 0.304843 0.152575 0.365238
O O1 0.146289 0.250000 0.250000
O O2 0.088471 0.076922 0.211144
O O3 0.237952 0.100278 0.235620
O O4 0.170489 0.155410 0.906072
O O5 0.865428 0.930714 0.416817
O O6 0.882133 0.091619 0.628936
O O7 0.000000 0.000000 0.500000
O O8 0.250000 0.500000 0.708135
O O9 0.231690 0.663195 0.906242
O O10 0.326293 0.250000 0.250000
#
# Coordination Sequence:
#
# PCOD8215740 Si02
#       4
#     8   8   8   8
#     4  10  20  36  60  85 114 152 204 254 293 342
#     4  10  21  37  56  85 123 157 194 236 304 369
#     4   9  18  36  62  84 113 155 200 248 299 346
#     4   9  19  35  58  88 114 148 203 252 291 348
#
# _framework density 19.995574000000001
#
# number of rings (size 3 to 8) (size 9 to 14) (size 15 to 20)
#    0.000    2.500    0.000    3.750    0.000   10.000 
#    4.500    0.000   11.000    0.000    0.000    0.000 
#    0.000    0.000    0.000    0.000    0.000    0.000 
#
# Total GULP energy -396455.666110 kJ/mol
# GULP energy per Si atom -12389.239566 kJ/mol
# Density = 1.995006 g / cm^3
# Si number density = 19.995574 Si / 1000 Ang^3
#
#
#
# Elastic Constant Matrix: (Units=GPa)
#
#
# Indices 1 2 3 4 5 6 
#
# 1 118.3961 62.1036 28.3622 0.0000 0.0000 0.0000
# 2 62.1036 127.0809 73.3304 0.0000 0.0000 0.0000
# 3 28.3622 73.3304 134.1436 0.0000 0.0000 0.0000
# 4 0.0000 0.0000 0.0000 38.9743 0.0000 0.0000
# 5 0.0000 0.0000 0.0000 0.0000 24.5431 0.0000
# 6 0.0000 0.0000 0.0000 0.0000 0.0000 22.3834
#
#
#
# Elastic Compliance Matrix: (Units=1/GPa)
#
#
# Indices 1 2 3 4 5 6 
#
# 1 0.011437 -0.006126 0.000931 0.000000 0.000000 0.000000
# 2 -0.006126 0.014776 -0.006782 0.000000 0.000000 0.000000
# 3 0.000931 -0.006782 0.010966 0.000000 0.000000 0.000000
# 4 0.000000 0.000000 0.000000 0.025658 0.000000 0.000000
# 5 0.000000 0.000000 0.000000 0.000000 0.040745 0.000000
# 6 0.000000 0.000000 0.000000 0.000000 0.000000 0.044676
#
#
# Mechanical properties :
#
#
# Convention : Reuss Voigt Hill
#
# Bulk Modulus (GPa) = 75.62439 78.57923 77.10181
# Shear Modulus (GPa) = 28.30928 31.56844 29.93886
#
# Velocity S-wave (km/s) = 3.76676 3.97769 3.87366
# Velocity P-wave (km/s) = 7.53795 7.77686 7.65834
#
# Compressibility (1/GPa) = 0.01322325
#
# Stress axis : x y z
#
# Youngs Moduli (GPa) = 87.43828 67.67512 91.19488
#
# Poissons Ratio (x) = 0.41459 -0.08488
# Poissons Ratio (y) = 0.53566 0.61852
# Poissons Ratio (z) = -0.08139 0.45900
#
# Static dielectric constant tensor:
#      x y z
#    x 3.332120 0.000000 0.000000 
#    y 0.000000 3.547880 0.000000 
#    z 0.000000 0.000000 3.820110 
# 
# 
# High freq. dielectric constant tensor:
#      x y z
#    x 1.739710 0.000000 0.000000 
#    y 0.000000 1.784050 0.000000 
#    z 0.000000 0.000000 1.787150 
# 
# From -- ./inp_files/1926.got.cif
#   From: 2010.06.25/outbox.cif.g09.slc.cpg/sg52_1_cif.got.tgz:1926.got - 2010.06.26 19:32:48.
