data_PCOD8215262
_publ_section_title
;
Structure prediction by ZEFSAII (Michael W. Deem and Ramdas Pophale) SiO2 
 PCOD8215262
Probable space group: P N N A
;
_chemical_formula_sum "Si O2"
_cell_formula_units_Z 48
_cell_length_a 28.780565
_cell_length_b 9.266062
_cell_length_c 7.170475
_cell_angle_alpha 90.000000
_cell_angle_beta 90.000000
_cell_angle_gamma 90.000000
_cell_volume 1912.240197
_symmetry_space_group_name_H-M "P N N A"
_symmetry_group_IT_number 52
_symmetry_cell_setting 'orthorhombic'
loop_
_space_group_symop_operation_xyz
x,y,z
1/2-x,-y,z
x,1/2-y,1/2-z
1/2-x,1/2+y,1/2-z
-x,-y,-z
1/2+x,y,-z
-x,1/2+y,1/2+z
1/2+x,1/2-y,1/2+z
loop_
_atom_site_type_symbol
_atom_site_label
_atom_site_fract_x
_atom_site_fract_y
_atom_site_fract_z
Si Si1 0.206026 0.100330 0.993372
Si Si2 0.053029 0.515657 0.774687
Si Si3 0.112883 0.964928 0.087232
Si Si4 0.796599 0.572891 0.054925
Si Si5 0.365284 0.175690 0.568825
Si Si6 0.451848 0.605181 0.157853
O O1 0.160204 0.053686 0.101556
O O2 0.208096 0.270738 0.041838
O O3 0.198132 0.083638 0.775022
O O4 0.250000 0.000000 0.056307
O O5 0.079837 0.474963 0.583403
O O6 0.082582 0.640570 0.869758
O O7 0.001435 0.575458 0.744202
O O8 0.047976 0.386396 0.931036
O O9 0.128813 0.799168 0.083981
O O10 0.084020 0.980291 0.278398
O O11 0.750000 0.500000 0.987718
O O12 0.838671 0.466585 0.990981
O O13 0.339039 0.250000 0.750000
O O14 0.431963 0.750000 0.250000
#
# Coordination Sequence:
#
# PCOD8215262 Si02
#       6
#     8   8   8   8   8   8
#     4  10  20  33  59 100 135 172 230 283 336 410
#     4  10  23  43  64  93 137 175 226 282 338 407
#     4  11  22  40  69  95 134 180 227 276 345 404
#     4  10  19  30  57  94 136 176 225 281 339 400
#     4  10  19  37  60  89 133 176 225 281 335 403
#     4  11  25  41  65 100 133 175 228 284 342 407
#
# _framework density 25.101448999999999
#
# number of rings (size 3 to 8) (size 9 to 14) (size 15 to 20)
#    0.000    1.667    3.333    3.000    4.667    1.333 
#    0.000    3.333    0.000    2.000    0.000    0.000 
#    0.000    0.000    0.000    0.000    0.000    0.000 
#
# Total GULP energy -594713.087933 kJ/mol
# GULP energy per Si atom -12389.855999 kJ/mol
# Density = 2.504432 g / cm^3
# Si number density = 25.101449 Si / 1000 Ang^3
#
#
#
# Elastic Constant Matrix: (Units=GPa)
#
#
# Indices 1 2 3 4 5 6 
#
# 1 179.2025 60.5064 15.0955 0.0000 0.0000 0.0000
# 2 60.5064 164.5733 6.2291 0.0000 0.0000 0.0000
# 3 15.0955 6.2291 81.7033 0.0000 0.0000 0.0000
# 4 0.0000 0.0000 0.0000 14.9183 0.0000 0.0000
# 5 0.0000 0.0000 0.0000 0.0000 3.4167 0.0000
# 6 0.0000 0.0000 0.0000 0.0000 0.0000 33.6164
#
#
#
# Elastic Compliance Matrix: (Units=1/GPa)
#
#
# Indices 1 2 3 4 5 6 
#
# 1 0.006454 -0.002334 -0.001014 0.000000 0.000000 0.000000
# 2 -0.002334 0.006938 -0.000098 0.000000 0.000000 0.000000
# 3 -0.001014 -0.000098 0.012434 0.000000 0.000000 0.000000
# 4 0.000000 0.000000 0.000000 0.067032 0.000000 0.000000
# 5 0.000000 0.000000 0.000000 0.000000 0.292676 0.000000
# 6 0.000000 0.000000 0.000000 0.000000 0.000000 0.029747
#
#
# Mechanical properties :
#
#
# Convention : Reuss Voigt Hill
#
# Bulk Modulus (GPa) = 52.81670 65.46012 59.13841
# Shear Modulus (GPa) = 11.66899 33.30016 22.48457
#
# Velocity S-wave (km/s) = 2.15843 3.64623 2.99615
# Velocity P-wave (km/s) = 5.22482 6.62280 5.96491
#
# Compressibility (1/GPa) = 0.01893341
#
# Stress axis : x y z
#
# Youngs Moduli (GPa) = 154.94414 144.12781 80.42276
#
# Poissons Ratio (x) = 0.33646 0.08158
# Poissons Ratio (y) = 0.36171 0.00785
# Poissons Ratio (z) = 0.15718 0.01408
#
# Static dielectric constant tensor:
#      x y z
#    x 4.470980 0.000000 0.000000 
#    y 0.000000 4.691540 0.000000 
#    z 0.000000 0.000000 4.430010 
# 
# 
# High freq. dielectric constant tensor:
#      x y z
#    x 2.005330 0.000000 0.000000 
#    y 0.000000 1.998290 0.000000 
#    z 0.000000 0.000000 1.997240 
# 
# From -- ./inp_files/15524.got.cif
#   From: 2010.06.25/outbox.cif.g09.slc.cpg/sg52_8_cif.got.tgz:15524.got - 2010.06.26 19:32:48.
