data_PCOD8215396
_publ_section_title
;
Structure prediction by ZEFSAII (Michael W. Deem and Ramdas Pophale) SiO2 
 PCOD8215396
Probable space group: P N N A
;
_chemical_formula_sum "Si O2"
_cell_formula_units_Z 56
_cell_length_a 14.788099
_cell_length_b 14.113748
_cell_length_c 13.282943
_cell_angle_alpha 90.000000
_cell_angle_beta 90.000000
_cell_angle_gamma 90.000000
_cell_volume 2772.356125
_symmetry_space_group_name_H-M "P N N A"
_symmetry_group_IT_number 52
_symmetry_cell_setting 'orthorhombic'
loop_
_space_group_symop_operation_xyz
x,y,z
1/2-x,-y,z
x,1/2-y,1/2-z
1/2-x,1/2+y,1/2-z
-x,-y,-z
1/2+x,y,-z
-x,1/2+y,1/2+z
1/2+x,1/2-y,1/2+z
loop_
_atom_site_type_symbol
_atom_site_label
_atom_site_fract_x
_atom_site_fract_y
_atom_site_fract_z
Si Si1 0.934898 0.180285 0.336215
Si Si2 0.590706 0.298975 0.569368
Si Si3 0.250272 0.896856 0.597937
Si Si4 0.413173 0.781721 0.639471
Si Si5 0.412876 0.349192 0.196410
Si Si6 0.216285 0.360998 0.122032
Si Si7 0.076059 0.449119 0.268611
O O1 0.897878 0.250000 0.250000
O O2 0.849880 0.146559 0.401829
O O3 0.002034 0.237980 0.407394
O O4 0.987021 0.091589 0.286290
O O5 0.599038 0.299588 0.446997
O O6 0.677093 0.246609 0.620568
O O7 0.584879 0.403814 0.618504
O O8 0.319386 0.833899 0.661660
O O9 0.298293 0.904468 0.488793
O O10 0.250000 0.000000 0.648236
O O11 0.444040 0.750000 0.750000
O O12 0.502382 0.846481 0.616546
O O13 0.394333 0.250000 0.250000
O O14 0.322647 0.367862 0.134894
O O15 0.429792 0.436755 0.275218
O O16 0.164971 0.422956 0.204658
#
# Coordination Sequence:
#
# PCOD8215396 Si02
#       7
#     8   8   8   8   8   8   8
#     4   9  18  33  55  80 105 139 184 226 266 323
#     4   9  19  36  58  79 105 143 185 225 275 333
#     4  11  20  32  53  80 107 141 176 220 278 331
#     4  10  22  37  52  75 109 145 182 229 277 326
#     4  11  21  34  52  78 112 145 175 221 278 327
#     4  10  20  33  54  83 111 136 172 220 276 334
#     4  10  19  35  56  81 108 141 182 227 271 330
#
# _framework density 20.199424
#
# number of rings (size 3 to 8) (size 9 to 14) (size 15 to 20)
#    0.000    2.000    0.000    5.571    0.000    0.000 
#    0.000    8.571    0.000    6.857    0.000    0.000 
#    0.000    0.000    0.000    0.000    0.000    0.000 
#
# Total GULP energy -693805.162663 kJ/mol
# GULP energy per Si atom -12389.377905 kJ/mol
# Density = 2.015345 g / cm^3
# Si number density = 20.199424 Si / 1000 Ang^3
#
#
#
# Elastic Constant Matrix: (Units=GPa)
#
#
# Indices 1 2 3 4 5 6 
#
# 1 130.6449 17.6755 16.7464 0.0000 0.0000 0.0000
# 2 17.6755 113.5500 32.3776 0.0000 0.0000 0.0000
# 3 16.7464 32.3776 89.9973 0.0000 0.0000 0.0000
# 4 0.0000 0.0000 0.0000 13.9110 0.0000 0.0000
# 5 0.0000 0.0000 0.0000 0.0000 20.2862 0.0000
# 6 0.0000 0.0000 0.0000 0.0000 0.0000 11.1669
#
#
#
# Elastic Compliance Matrix: (Units=1/GPa)
#
#
# Indices 1 2 3 4 5 6 
#
# 1 0.007924 -0.000906 -0.001149 0.000000 0.000000 0.000000
# 2 -0.000906 0.009917 -0.003399 0.000000 0.000000 0.000000
# 3 -0.001149 -0.003399 0.012548 0.000000 0.000000 0.000000
# 4 0.000000 0.000000 0.000000 0.071886 0.000000 0.000000
# 5 0.000000 0.000000 0.000000 0.000000 0.049295 0.000000
# 6 0.000000 0.000000 0.000000 0.000000 0.000000 0.089550
#
#
# Mechanical properties :
#
#
# Convention : Reuss Voigt Hill
#
# Bulk Modulus (GPa) = 51.33013 51.97678 51.65346
# Shear Modulus (GPa) = 19.34078 26.89899 23.11989
#
# Velocity S-wave (km/s) = 3.09769 3.65317 3.38684
# Velocity P-wave (km/s) = 6.18556 6.60165 6.39699
#
# Compressibility (1/GPa) = 0.01948173
#
# Stress axis : x y z
#
# Youngs Moduli (GPa) = 126.19671 100.83736 79.69371
#
# Poissons Ratio (x) = 0.09136 0.09153
# Poissons Ratio (y) = 0.11433 0.27089
# Poissons Ratio (z) = 0.14494 0.34276
#
# Static dielectric constant tensor:
#      x y z
#    x 3.947450 0.000000 0.000000 
#    y 0.000000 3.627120 0.000000 
#    z 0.000000 0.000000 3.485720 
# 
# 
# High freq. dielectric constant tensor:
#      x y z
#    x 1.808410 0.000000 0.000000 
#    y 0.000000 1.768640 0.000000 
#    z 0.000000 0.000000 1.768600 
# 
# From -- ./inp_files/27258.got.cif
#   From: 2010.06.25/outbox.cif.g09.slc.cpg/sg52_14_cif.got.tgz:27258.got - 2010.06.26 19:32:48.
