data_PCOD8215595
_publ_section_title
;
Structure prediction by ZEFSAII (Michael W. Deem and Ramdas Pophale) SiO2 
 PCOD8215595
Probable space group: P N N A
;
_chemical_formula_sum "Si O2"
_cell_formula_units_Z 40
_cell_length_a 14.943996
_cell_length_b 4.867235
_cell_length_c 26.690125
_cell_angle_alpha 90.000000
_cell_angle_beta 90.000000
_cell_angle_gamma 90.000000
_cell_volume 1941.331340
_symmetry_space_group_name_H-M "P N N A"
_symmetry_group_IT_number 52
_symmetry_cell_setting 'orthorhombic'
loop_
_space_group_symop_operation_xyz
x,y,z
1/2-x,-y,z
x,1/2-y,1/2-z
1/2-x,1/2+y,1/2-z
-x,-y,-z
1/2+x,y,-z
-x,1/2+y,1/2+z
1/2+x,1/2-y,1/2+z
loop_
_atom_site_type_symbol
_atom_site_label
_atom_site_fract_x
_atom_site_fract_y
_atom_site_fract_z
Si Si1 0.981122 0.607824 0.594338
Si Si2 0.439116 0.185856 0.805305
Si Si3 0.688844 0.256511 0.962677
Si Si4 0.165805 0.320254 0.834260
Si Si5 0.090988 0.123626 0.564510
O O1 0.879928 0.683262 0.581474
O O2 0.987926 0.571487 0.655144
O O3 0.004437 0.320618 0.567563
O O4 0.056152 0.816676 0.573714
O O5 0.477005 0.250000 0.750000
O O6 0.418861 0.490579 0.823991
O O7 0.351786 0.975030 0.806329
O O8 0.750000 0.500000 0.941439
O O9 0.750000 0.000000 0.977602
O O10 0.635512 0.364732 0.010636
O O11 0.250000 0.500000 0.814753
O O12 0.165956 0.277533 0.894519
#
# Coordination Sequence:
#
# PCOD8215595 Si02
#       5
#     8   8   8   8   8
#     4  10  21  38  57  78 109 144 183 222 261 321
#     4  10  21  36  55  76 101 143 186 220 263 315
#     4  12  23  35  56  84 112 140 177 225 273 317
#     4  10  20  33  52  79 110 137 173 221 262 309
#     4  10  20  36  56  79 109 148 180 208 261 328
#
# _framework density 20.604416000000001
#
# number of rings (size 3 to 8) (size 9 to 14) (size 15 to 20)
#    0.000    1.600    0.000    5.400    0.000    4.800 
#    0.000    0.000    0.000    2.400    0.000    0.000 
#    0.000    0.000    0.000    0.000    0.000    0.000 
#
# Total GULP energy -495732.374636 kJ/mol
# GULP energy per Si atom -12393.309366 kJ/mol
# Density = 2.055752 g / cm^3
# Si number density = 20.604416 Si / 1000 Ang^3
#
#
#
# Elastic Constant Matrix: (Units=GPa)
#
#
# Indices 1 2 3 4 5 6 
#
# 1 72.5858 11.5524 43.9235 0.0000 0.0000 0.0000
# 2 11.5524 92.9255 17.4746 0.0000 0.0000 0.0000
# 3 43.9235 17.4746 112.4073 0.0000 0.0000 0.0000
# 4 0.0000 0.0000 0.0000 22.0377 0.0000 0.0000
# 5 0.0000 0.0000 0.0000 0.0000 8.7418 0.0000
# 6 0.0000 0.0000 0.0000 0.0000 0.0000 30.7317
#
#
#
# Elastic Compliance Matrix: (Units=1/GPa)
#
#
# Indices 1 2 3 4 5 6 
#
# 1 0.018124 -0.000949 -0.006935 0.000000 0.000000 0.000000
# 2 -0.000949 0.011135 -0.001360 0.000000 0.000000 0.000000
# 3 -0.006935 -0.001360 0.011817 0.000000 0.000000 0.000000
# 4 0.000000 0.000000 0.000000 0.045377 0.000000 0.000000
# 5 0.000000 0.000000 0.000000 0.000000 0.114392 0.000000
# 6 0.000000 0.000000 0.000000 0.000000 0.000000 0.032540
#
#
# Mechanical properties :
#
#
# Convention : Reuss Voigt Hill
#
# Bulk Modulus (GPa) = 44.26947 47.09108 45.68027
# Shear Modulus (GPa) = 19.27506 25.96679 22.62093
#
# Velocity S-wave (km/s) = 3.06188 3.55386 3.31700
# Velocity P-wave (km/s) = 5.83372 6.30431 6.07357
#
# Compressibility (1/GPa) = 0.02258893
#
# Stress axis : x y z
#
# Youngs Moduli (GPa) = 55.17511 89.80620 84.62141
#
# Poissons Ratio (x) = 0.08524 0.58681
# Poissons Ratio (y) = 0.05237 0.11510
# Poissons Ratio (z) = 0.38261 0.12215
#
# Static dielectric constant tensor:
#      x y z
#    x 3.474770 0.000000 0.000000 
#    y 0.000000 4.027510 0.000000 
#    z 0.000000 0.000000 3.867840 
# 
# 
# High freq. dielectric constant tensor:
#      x y z
#    x 1.758420 0.000000 0.000000 
#    y 0.000000 1.834310 0.000000 
#    z 0.000000 0.000000 1.795470 
# 
# From -- ./inp_files/42520.got.cif
#   From: 2010.06.25/outbox.cif.g09.slc.cpg/sg52_22_cif.got.tgz:42520.got - 2010.06.26 19:32:48.
