data_PCOD8215340
_publ_section_title
;
Structure prediction by ZEFSAII (Michael W. Deem and Ramdas Pophale) SiO2 
 PCOD8215340
Probable space group: P N N A
;
_chemical_formula_sum "Si O2"
_cell_formula_units_Z 48
_cell_length_a 14.235562
_cell_length_b 8.936471
_cell_length_c 18.470288
_cell_angle_alpha 90.000000
_cell_angle_beta 90.000000
_cell_angle_gamma 90.000000
_cell_volume 2349.710377
_symmetry_space_group_name_H-M "P N N A"
_symmetry_group_IT_number 52
_symmetry_cell_setting 'orthorhombic'
loop_
_space_group_symop_operation_xyz
x,y,z
1/2-x,-y,z
x,1/2-y,1/2-z
1/2-x,1/2+y,1/2-z
-x,-y,-z
1/2+x,y,-z
-x,1/2+y,1/2+z
1/2+x,1/2-y,1/2+z
loop_
_atom_site_type_symbol
_atom_site_label
_atom_site_fract_x
_atom_site_fract_y
_atom_site_fract_z
Si Si1 0.521052 0.257070 0.646350
Si Si2 0.140498 0.978558 0.375760
Si Si3 0.640778 0.507648 0.709408
Si Si4 0.861382 0.250000 0.250000
Si Si5 0.420545 0.326098 0.428475
Si Si6 0.906977 0.000763 0.060767
Si Si7 0.250000 0.500000 0.670528
O O1 0.581030 0.128095 0.606611
O O2 0.591105 0.346143 0.700825
O O3 0.431102 0.185504 0.688229
O O4 0.478375 0.371835 0.589199
O O5 0.125580 0.935715 0.291392
O O6 0.250000 0.000000 0.392852
O O7 0.103862 0.849370 0.430082
O O8 0.750000 0.500000 0.690554
O O9 0.595760 0.624209 0.653984
O O10 0.790998 0.374643 0.277993
O O11 0.529026 0.354009 0.452368
O O12 0.361067 0.426602 0.487434
O O13 0.831455 0.942268 0.117845
#
# Coordination Sequence:
#
# PCOD8215340 Si02
#       7
#     8   8   8   4   8   8   4
#     4  10  19  37  58  80 122 152 182 245 306 343
#     4  11  21  34  57  91 120 150 194 242 292 349
#     4  10  19  33  57  88 119 155 192 233 287 351
#     4  10  20  38  60  86 110 152 188 252 300 334
#     4  10  21  37  58  85 115 156 197 234 292 353
#     4   9  22  41  58  84 112 157 197 240 291 357
#     4  10  22  40  64  86 114 146 206 246 294 354
#
# _framework density 20.428049999999999
#
# number of rings (size 3 to 8) (size 9 to 14) (size 15 to 20)
#    0.000    2.000    1.667    1.500    1.167    4.667 
#    3.000    0.000    7.333    0.000    0.000    0.000 
#    0.000    0.000    0.000    0.000    0.000    0.000 
#
# Total GULP energy -594750.772806 kJ/mol
# GULP energy per Si atom -12390.641100 kJ/mol
# Density = 2.038155 g / cm^3
# Si number density = 20.428050 Si / 1000 Ang^3
#
#
#
# Elastic Constant Matrix: (Units=GPa)
#
#
# Indices 1 2 3 4 5 6 
#
# 1 123.6702 69.3931 37.6268 0.0000 0.0000 0.0000
# 2 69.3931 108.5441 25.4128 0.0000 0.0000 0.0000
# 3 37.6268 25.4128 58.3314 0.0000 0.0000 0.0000
# 4 0.0000 0.0000 0.0000 14.7878 0.0000 0.0000
# 5 0.0000 0.0000 0.0000 0.0000 264.0801 0.0000
# 6 0.0000 0.0000 0.0000 0.0000 0.0000 35.3546
#
#
#
# Elastic Compliance Matrix: (Units=1/GPa)
#
#
# Indices 1 2 3 4 5 6 
#
# 1 0.014168 -0.007704 -0.005783 0.000000 0.000000 0.000000
# 2 -0.007704 0.014448 -0.001325 0.000000 0.000000 0.000000
# 3 -0.005783 -0.001325 0.021451 0.000000 0.000000 0.000000
# 4 0.000000 0.000000 0.000000 0.067623 0.000000 0.000000
# 5 0.000000 0.000000 0.000000 0.000000 0.003787 0.000000
# 6 0.000000 0.000000 0.000000 0.000000 0.000000 0.028285
#
#
# Mechanical properties :
#
#
# Convention : Reuss Voigt Hill
#
# Bulk Modulus (GPa) = 48.91519 61.71234 55.31376
# Shear Modulus (GPa) = 26.85268 73.38536 50.11902
#
# Velocity S-wave (km/s) = 3.62954 6.00015 4.95860
# Velocity P-wave (km/s) = 6.44684 8.84746 7.74078
#
# Compressibility (1/GPa) = 0.02044355
#
# Stress axis : x y z
#
# Youngs Moduli (GPa) = 70.58002 69.21225 46.61777
#
# Poissons Ratio (x) = 0.53321 0.26959
# Poissons Ratio (y) = 0.54375 0.06177
# Poissons Ratio (z) = 0.40816 0.09171
#
# Static dielectric constant tensor:
#      x y z
#    x 3.785930 0.000000 0.000000 
#    y 0.000000 3.505880 0.000000 
#    z 0.000000 0.000000 3.765410 
# 
# 
# High freq. dielectric constant tensor:
#      x y z
#    x 1.798350 0.000000 0.000000 
#    y 0.000000 1.778190 0.000000 
#    z 0.000000 0.000000 1.800940 
# 
# From -- ./inp_files/33109.got.cif
#   From: 2010.06.25/outbox.cif.g09.slc.cpg/sg52_17_cif.got.tgz:33109.got - 2010.06.26 19:32:48.
