data_PCOD8215358
_publ_section_title
;
Structure prediction by ZEFSAII (Michael W. Deem and Ramdas Pophale) SiO2 
 PCOD8215358
Probable space group: P N N A
;
_chemical_formula_sum "Si O2"
_cell_formula_units_Z 64
_cell_length_a 15.007787
_cell_length_b 8.827194
_cell_length_c 25.120311
_cell_angle_alpha 90.000000
_cell_angle_beta 90.000000
_cell_angle_gamma 90.000000
_cell_volume 3327.854582
_symmetry_space_group_name_H-M "P N N A"
_symmetry_group_IT_number 52
_symmetry_cell_setting 'orthorhombic'
loop_
_space_group_symop_operation_xyz
x,y,z
1/2-x,-y,z
x,1/2-y,1/2-z
1/2-x,1/2+y,1/2-z
-x,-y,-z
1/2+x,y,-z
-x,1/2+y,1/2+z
1/2+x,1/2-y,1/2+z
loop_
_atom_site_type_symbol
_atom_site_label
_atom_site_fract_x
_atom_site_fract_y
_atom_site_fract_z
Si Si1 0.775528 0.327458 0.469521
Si Si2 0.562058 0.320538 0.306216
Si Si3 0.565878 0.680364 0.306482
Si Si4 0.751849 0.826762 0.575601
Si Si5 0.521114 0.824127 0.006439
Si Si6 0.939940 0.823808 0.606826
Si Si7 0.252589 0.819668 0.853340
Si Si8 0.446382 0.320635 0.102976
O O1 0.750000 0.500000 0.470690
O O2 0.727514 0.255326 0.520003
O O3 0.880349 0.302453 0.471748
O O4 0.743220 0.254494 0.413595
O O5 0.535983 0.250000 0.250000
O O6 0.561308 0.500569 0.303091
O O7 0.660191 0.260404 0.322657
O O8 0.488127 0.266492 0.347546
O O9 0.540746 0.750000 0.250000
O O10 0.492845 0.735340 0.348258
O O11 0.663906 0.739094 0.323562
O O12 0.833726 0.797487 0.616329
O O13 0.658736 0.777245 0.602373
O O14 0.750000 0.000000 0.559061
O O15 0.506729 0.739950 0.950411
O O16 0.457547 0.744850 0.048812
O O17 0.500000 0.000000 0.000000
O O18 0.964041 0.000971 0.608381
O O19 0.250000 0.000000 0.855752
#
# Coordination Sequence:
#
# PCOD8215358 Si02
#       8
#     8   8   8   8   8   8   8   8
#     4  10  19  34  54  85 120 156 194 232 282 348
#     4  11  23  41  61  87 117 155 197 244 295 345
#     4  11  22  40  63  86 117 154 198 242 289 348
#     4   9  21  39  57  82 119 153 189 240 293 344
#     4  11  21  34  58  88 118 157 195 239 292 347
#     4  11  21  39  60  86 117 153 195 243 291 348
#     4   9  20  36  57  84 119 156 194 236 285 344
#     4  10  23  39  59  86 117 153 195 243 295 345
#
# _framework density 19.231611000000001
#
# number of rings (size 3 to 8) (size 9 to 14) (size 15 to 20)
#    0.000    1.750    1.250    3.000    5.250    1.000 
#    0.000    2.500    0.000    0.000    0.000    0.000 
#    0.000    0.000    0.000    0.000    0.000    0.000 
#
# Total GULP energy -793644.137913 kJ/mol
# GULP energy per Si atom -12400.689655 kJ/mol
# Density = 1.918784 g / cm^3
# Si number density = 19.231611 Si / 1000 Ang^3
#
#
#
# Elastic Constant Matrix: (Units=GPa)
#
#
# Indices 1 2 3 4 5 6 
#
# 1 95.9811 37.7675 67.9105 0.0000 0.0000 0.0000
# 2 37.7675 81.1051 46.2527 0.0000 0.0000 0.0000
# 3 67.9105 46.2527 150.1848 0.0000 0.0000 0.0000
# 4 0.0000 0.0000 0.0000 29.3122 0.0000 0.0000
# 5 0.0000 0.0000 0.0000 0.0000 26.2737 0.0000
# 6 0.0000 0.0000 0.0000 0.0000 0.0000 27.6267
#
#
#
# Elastic Compliance Matrix: (Units=1/GPa)
#
#
# Indices 1 2 3 4 5 6 
#
# 1 0.016387 -0.004130 -0.006138 0.000000 0.000000 0.000000
# 2 -0.004130 0.015998 -0.003059 0.000000 0.000000 0.000000
# 3 -0.006138 -0.003059 0.010376 0.000000 0.000000 0.000000
# 4 0.000000 0.000000 0.000000 0.034115 0.000000 0.000000
# 5 0.000000 0.000000 0.000000 0.000000 0.038061 0.000000
# 6 0.000000 0.000000 0.000000 0.000000 0.000000 0.036197
#
#
# Mechanical properties :
#
#
# Convention : Reuss Voigt Hill
#
# Bulk Modulus (GPa) = 62.08957 70.12583 66.10770
# Shear Modulus (GPa) = 27.29908 28.33187 27.81548
#
# Velocity S-wave (km/s) = 3.77170 3.84238 3.80721
# Velocity P-wave (km/s) = 7.16400 7.49855 7.33318
#
# Compressibility (1/GPa) = 0.01610576
#
# Stress axis : x y z
#
# Youngs Moduli (GPa) = 61.02539 62.50930 96.37716
#
# Poissons Ratio (x) = 0.25819 0.59153
# Poissons Ratio (y) = 0.25206 0.29483
# Poissons Ratio (z) = 0.37455 0.19122
#
# Static dielectric constant tensor:
#      x y z
#    x 3.824950 0.000000 0.000000 
#    y 0.000000 3.437870 0.000000 
#    z 0.000000 0.000000 3.538000 
# 
# 
# High freq. dielectric constant tensor:
#      x y z
#    x 1.758720 0.000000 0.000000 
#    y 0.000000 1.744140 0.000000 
#    z 0.000000 0.000000 1.745350 
# 
# From -- ./inp_files/40686.got.cif
#   From: 2010.06.25/outbox.cif.g09.slc.cpg/sg52_21_cif.got.tgz:40686.got - 2010.06.26 19:32:48.
