data_PCOD8215507
_publ_section_title
;
Structure prediction by ZEFSAII (Michael W. Deem and Ramdas Pophale) SiO2 
 PCOD8215507
Probable space group: P N N A
;
_chemical_formula_sum "Si O2"
_cell_formula_units_Z 48
_cell_length_a 9.739936
_cell_length_b 29.863634
_cell_length_c 8.322793
_cell_angle_alpha 90.000000
_cell_angle_beta 90.000000
_cell_angle_gamma 90.000000
_cell_volume 2420.849834
_symmetry_space_group_name_H-M "P N N A"
_symmetry_group_IT_number 52
_symmetry_cell_setting 'orthorhombic'
loop_
_space_group_symop_operation_xyz
x,y,z
1/2-x,-y,z
x,1/2-y,1/2-z
1/2-x,1/2+y,1/2-z
-x,-y,-z
1/2+x,y,-z
-x,1/2+y,1/2+z
1/2+x,1/2-y,1/2+z
loop_
_atom_site_type_symbol
_atom_site_label
_atom_site_fract_x
_atom_site_fract_y
_atom_site_fract_z
Si Si1 0.246960 0.139277 0.821697
Si Si2 0.217899 0.352909 0.308301
Si Si3 0.204786 0.547010 0.841233
Si Si4 0.412892 0.577450 0.091900
Si Si5 0.480137 0.201635 0.692777
Si Si6 0.503964 0.658768 0.874690
O O1 0.251940 0.087064 0.776652
O O2 0.366875 0.164192 0.727808
O O3 0.104471 0.162989 0.770465
O O4 0.268783 0.143043 0.010759
O O5 0.344460 0.343287 0.193113
O O6 0.142130 0.398502 0.253505
O O7 0.117559 0.310399 0.290644
O O8 0.250000 0.500000 0.760507
O O9 0.040143 0.545060 0.866230
O O10 0.287240 0.550782 0.010412
O O11 0.471091 0.613956 0.970253
O O12 0.428383 0.250000 0.750000
O O13 0.507132 0.200407 0.499963
#
# Coordination Sequence:
#
# PCOD8215507 Si02
#       6
#     8   8   8   8   8   8
#     4  11  23  39  62  90 129 162 198 256 311 364
#     4  11  21  39  62  88 123 162 199 249 313 363
#     4  11  21  38  63  92 122 163 214 254 306 371
#     4  10  19  38  61  88 118 160 205 255 297 363
#     4  11  23  41  64  90 118 158 206 254 307 373
#     4  10  20  39  65  85 120 162 201 243 302 363
#
# _framework density 19.827750000000002
#
# number of rings (size 3 to 8) (size 9 to 14) (size 15 to 20)
#    0.000    1.333    5.000    3.500    0.000    2.667 
#    0.000    4.167    0.000    0.000    0.000    0.000 
#    0.000    0.000    0.000    0.000    0.000    0.000 
#
# Total GULP energy -595259.191719 kJ/mol
# GULP energy per Si atom -12401.233161 kJ/mol
# Density = 1.978262 g / cm^3
# Si number density = 19.827750 Si / 1000 Ang^3
#
#
#
# Elastic Constant Matrix: (Units=GPa)
#
#
# Indices 1 2 3 4 5 6 
#
# 1 102.2006 18.6381 12.3607 0.0000 0.0000 0.0000
# 2 18.6381 98.1839 28.4341 0.0000 0.0000 0.0000
# 3 12.3607 28.4341 87.8052 0.0000 0.0000 0.0000
# 4 0.0000 0.0000 0.0000 17.7001 0.0000 0.0000
# 5 0.0000 0.0000 0.0000 0.0000 23.8615 0.0000
# 6 0.0000 0.0000 0.0000 0.0000 0.0000 14.1060
#
#
#
# Elastic Compliance Matrix: (Units=1/GPa)
#
#
# Indices 1 2 3 4 5 6 
#
# 1 0.010199 -0.001678 -0.000892 0.000000 0.000000 0.000000
# 2 -0.001678 0.011515 -0.003493 0.000000 0.000000 0.000000
# 3 -0.000892 -0.003493 0.012646 0.000000 0.000000 0.000000
# 4 0.000000 0.000000 0.000000 0.056497 0.000000 0.000000
# 5 0.000000 0.000000 0.000000 0.000000 0.041909 0.000000
# 6 0.000000 0.000000 0.000000 0.000000 0.000000 0.070892
#
#
# Mechanical properties :
#
#
# Convention : Reuss Voigt Hill
#
# Bulk Modulus (GPa) = 44.97705 45.22839 45.10272
# Shear Modulus (GPa) = 22.40217 26.38398 24.39308
#
# Velocity S-wave (km/s) = 3.36496 3.65178 3.51130
# Velocity P-wave (km/s) = 6.15064 6.37501 6.26383
#
# Compressibility (1/GPa) = 0.02223356
#
# Stress axis : x y z
#
# Youngs Moduli (GPa) = 98.05322 86.84396 79.07926
#
# Poissons Ratio (x) = 0.14568 0.07057
# Poissons Ratio (y) = 0.16449 0.27620
# Poissons Ratio (z) = 0.08751 0.30332
#
# Static dielectric constant tensor:
#      x y z
#    x 3.929820 0.000000 0.000000 
#    y 0.000000 3.465000 0.000000 
#    z 0.000000 0.000000 3.532800 
# 
# 
# High freq. dielectric constant tensor:
#      x y z
#    x 1.794610 0.000000 0.000000 
#    y 0.000000 1.751090 0.000000 
#    z 0.000000 0.000000 1.761820 
# 
# From -- ./inp_files/7692.got.cif
#   From: 2010.06.25/outbox.cif.g09.slc.cpg/sg52_4_cif.got.tgz:7692.got - 2010.06.26 19:32:48.
