data_PCOD8215112
_publ_section_title
;
Structure prediction by ZEFSAII (Michael W. Deem and Ramdas Pophale) SiO2 
 PCOD8215112
Probable space group: P N N A
;
_chemical_formula_sum "Si O2"
_cell_formula_units_Z 44
_cell_length_a 10.441594
_cell_length_b 13.234068
_cell_length_c 19.022203
_cell_angle_alpha 90.000000
_cell_angle_beta 90.000000
_cell_angle_gamma 90.000000
_cell_volume 2628.578652
_symmetry_space_group_name_H-M "P N N A"
_symmetry_group_IT_number 52
_symmetry_cell_setting 'orthorhombic'
loop_
_space_group_symop_operation_xyz
x,y,z
1/2-x,-y,z
x,1/2-y,1/2-z
1/2-x,1/2+y,1/2-z
-x,-y,-z
1/2+x,y,-z
-x,1/2+y,1/2+z
1/2+x,1/2-y,1/2+z
loop_
_atom_site_type_symbol
_atom_site_label
_atom_site_fract_x
_atom_site_fract_y
_atom_site_fract_z
Si Si1 0.548982 0.148769 0.783724
Si Si2 0.217984 0.610666 0.787719
Si Si3 0.035853 0.605190 0.419524
Si Si4 0.750000 0.000000 0.835017
Si Si5 0.687516 0.194312 0.147462
Si Si6 0.417960 0.389297 0.576490
O O1 0.609106 0.250000 0.750000
O O2 0.430316 0.117057 0.734351
O O3 0.656092 0.061755 0.783654
O O4 0.502506 0.168254 0.864085
O O5 0.250000 0.500000 0.817363
O O6 0.255545 0.692300 0.847048
O O7 0.306053 0.634556 0.720732
O O8 0.172729 0.578156 0.384975
O O9 0.050618 0.647951 0.498122
O O10 0.961293 0.692794 0.376311
O O11 0.943700 0.508100 0.417310
O O12 0.769357 0.133985 0.089339
#
# Coordination Sequence:
#
# PCOD8215112 Si02
#       6
#     8   8   8   4   8   8
#     4  10  18  37  49  74 104 140 164 206 260 314
#     4  10  18  33  56  75  96 128 180 219 253 288
#     4  10  20  30  48  79 105 132 165 210 261 313
#     4  10  22  32  48  78 114 136 162 206 268 326
#     4  10  18  32  53  76  98 133 170 214 253 309
#     4   9  18  30  52  74 104 133 165 208 259 311
#
# _framework density 16.739084999999999
#
# number of rings (size 3 to 8) (size 9 to 14) (size 15 to 20)
#    0.000    2.182    3.636    3.818    7.636    0.000 
#    6.545    0.000    0.000    1.091    2.364    0.000 
#    0.000    0.000    0.000    0.000    0.000    0.000 
#
# Total GULP energy -545414.656936 kJ/mol
# GULP energy per Si atom -12395.787658 kJ/mol
# Density = 1.670099 g / cm^3
# Si number density = 16.739085 Si / 1000 Ang^3
#
#
#
# Elastic Constant Matrix: (Units=GPa)
#
#
# Indices 1 2 3 4 5 6 
#
# 1 101.5792 33.4606 38.4198 0.0000 0.0000 0.0000
# 2 33.4606 68.9723 30.7848 0.0000 0.0000 0.0000
# 3 38.4198 30.7848 68.1749 0.0000 0.0000 0.0000
# 4 0.0000 0.0000 0.0000 23.7064 0.0000 0.0000
# 5 0.0000 0.0000 0.0000 0.0000 15.1035 0.0000
# 6 0.0000 0.0000 0.0000 0.0000 0.0000 29.4978
#
#
#
# Elastic Compliance Matrix: (Units=1/GPa)
#
#
# Indices 1 2 3 4 5 6 
#
# 1 0.013295 -0.003890 -0.005736 0.000000 0.000000 0.000000
# 2 -0.003890 0.019296 -0.006521 0.000000 0.000000 0.000000
# 3 -0.005736 -0.006521 0.020845 0.000000 0.000000 0.000000
# 4 0.000000 0.000000 0.000000 0.042183 0.000000 0.000000
# 5 0.000000 0.000000 0.000000 0.000000 0.066210 0.000000
# 6 0.000000 0.000000 0.000000 0.000000 0.000000 0.033901
#
#
# Mechanical properties :
#
#
# Convention : Reuss Voigt Hill
#
# Bulk Modulus (GPa) = 47.29752 49.33967 48.31860
# Shear Modulus (GPa) = 21.27003 22.73227 22.00115
#
# Velocity S-wave (km/s) = 3.56853 3.68915 3.62934
# Velocity P-wave (km/s) = 6.73025 6.90552 6.81845
#
# Compressibility (1/GPa) = 0.02114276
#
# Stress axis : x y z
#
# Youngs Moduli (GPa) = 75.21399 51.82339 47.97201
#
# Poissons Ratio (x) = 0.20158 0.27517
# Poissons Ratio (y) = 0.29256 0.31284
# Poissons Ratio (z) = 0.43144 0.33796
#
# Static dielectric constant tensor:
#      x y z
#    x 3.156530 0.000000 0.000000 
#    y 0.000000 3.024190 0.000000 
#    z 0.000000 0.000000 3.091670 
# 
# 
# High freq. dielectric constant tensor:
#      x y z
#    x 1.647740 0.000000 0.000000 
#    y 0.000000 1.618010 0.000000 
#    z 0.000000 0.000000 1.623720 
# 
# From -- ./inp_files/31144.got.cif
#   From: 2010.06.25/outbox.cif.g09.slc.cpg/sg52_16_cif.got.tgz:31144.got - 2010.06.26 19:32:48.
