data_PCOD8215575
_publ_section_title
;
Structure prediction by ZEFSAII (Michael W. Deem and Ramdas Pophale) SiO2 
 PCOD8215575
Probable space group: P N N A
;
_chemical_formula_sum "Si O2"
_cell_formula_units_Z 48
_cell_length_a 10.050194
_cell_length_b 21.478942
_cell_length_c 12.770513
_cell_angle_alpha 90.000000
_cell_angle_beta 90.000000
_cell_angle_gamma 90.000000
_cell_volume 2756.739149
_symmetry_space_group_name_H-M "P N N A"
_symmetry_group_IT_number 52
_symmetry_cell_setting 'orthorhombic'
loop_
_space_group_symop_operation_xyz
x,y,z
1/2-x,-y,z
x,1/2-y,1/2-z
1/2-x,1/2+y,1/2-z
-x,-y,-z
1/2+x,y,-z
-x,1/2+y,1/2+z
1/2+x,1/2-y,1/2+z
loop_
_atom_site_type_symbol
_atom_site_label
_atom_site_fract_x
_atom_site_fract_y
_atom_site_fract_z
Si Si1 0.521246 0.148306 0.342961
Si Si2 0.381571 0.747441 0.001042
Si Si3 0.513658 0.314366 0.690550
Si Si4 0.285822 0.639338 0.149487
Si Si5 0.228995 0.311333 0.685529
Si Si6 0.627812 0.458027 0.015058
O O1 0.527157 0.209083 0.418269
O O2 0.368202 0.133573 0.318310
O O3 0.598412 0.155275 0.232391
O O4 0.596563 0.091635 0.396459
O O5 0.462805 0.797199 0.069395
O O6 0.301811 0.699244 0.074405
O O7 0.284156 0.791988 0.935510
O O8 0.512454 0.250000 0.750000
O O9 0.627745 0.356592 0.743916
O O10 0.369162 0.349154 0.697892
O O11 0.332374 0.576602 0.092176
O O12 0.254329 0.250000 0.750000
O O13 0.750000 0.500000 0.054053
O O14 0.500000 0.500000 0.000000
#
# Coordination Sequence:
#
# PCOD8215575 Si02
#       6
#     8   8   8   8   8   8
#     4  10  20  32  49  74 101 130 166 204 242 295
#     4   9  18  30  50  72 104 136 166 196 240 291
#     4   9  18  30  46  70 101 134 165 199 240 290
#     4  10  20  32  49  74 101 130 166 204 244 293
#     4   9  18  30  46  70 101 134 165 199 241 291
#     4  11  22  36  54  74  98 128 164 207 255 295
#
# _framework density 17.411875999999999
#
# number of rings (size 3 to 8) (size 9 to 14) (size 15 to 20)
#    0.000    2.333    1.667    1.000    2.333   11.333 
#    0.000    0.000    0.000    0.000    0.000    2.333 
#    0.000    0.000    0.000    0.000    0.000    0.000 
#
# Total GULP energy -594733.629981 kJ/mol
# GULP energy per Si atom -12390.283958 kJ/mol
# Density = 1.737225 g / cm^3
# Si number density = 17.411876 Si / 1000 Ang^3
#
#
#
# Elastic Constant Matrix: (Units=GPa)
#
#
# Indices 1 2 3 4 5 6 
#
# 1 169.2548 43.9169 49.2209 0.0000 0.0000 0.0000
# 2 43.9169 56.3302 27.8642 0.0000 0.0000 0.0000
# 3 49.2209 27.8642 89.9297 0.0000 0.0000 0.0000
# 4 0.0000 0.0000 0.0000 18.4209 0.0000 0.0000
# 5 0.0000 0.0000 0.0000 0.0000 -6.9976 0.0000
# 6 0.0000 0.0000 0.0000 0.0000 0.0000 28.5655
#
#
#
# Elastic Compliance Matrix: (Units=1/GPa)
#
#
# Indices 1 2 3 4 5 6 
#
# 1 0.007994 -0.004805 -0.002887 0.000000 0.000000 0.000000
# 2 -0.004805 0.023854 -0.004761 0.000000 0.000000 0.000000
# 3 -0.002887 -0.004761 0.014175 0.000000 0.000000 0.000000
# 4 0.000000 0.000000 0.000000 0.054286 0.000000 0.000000
# 5 0.000000 0.000000 0.000000 0.000000 -0.142907 0.000000
# 6 0.000000 0.000000 0.000000 0.000000 0.000000 0.035007
#
#
# Mechanical properties :
#
#
# Convention : Reuss Voigt Hill
#
# Bulk Modulus (GPa) = 47.35383 61.94652 54.65017
# Shear Modulus (GPa) = 205.30149 20.96529 113.13339
#
# Velocity S-wave (km/s) = 10.87037 3.47375 8.06944
# Velocity P-wave (km/s) = 13.59443 7.19331 10.87548
#
# Compressibility (1/GPa) = 0.02111762
#
# Stress axis : x y z
#
# Youngs Moduli (GPa) = 125.08627 41.92255 70.54645
#
# Poissons Ratio (x) = 0.20143 0.20366
# Poissons Ratio (y) = 0.60101 0.33588
# Poissons Ratio (z) = 0.36111 0.19960
#
# Static dielectric constant tensor:
#      x y z
#    x 3.580240 0.000000 0.000000 
#    y 0.000000 3.040130 0.000000 
#    z 0.000000 0.000000 6.528410 
# 
# 
# High freq. dielectric constant tensor:
#      x y z
#    x 1.690880 0.000000 0.000000 
#    y 0.000000 1.626360 0.000000 
#    z 0.000000 0.000000 1.660890 
# 
# From -- ./inp_files/24847.got.cif
#   From: 2010.06.25/outbox.cif.g09.slc.cpg/sg52_13_cif.got.tgz:24847.got - 2010.06.26 19:32:48.
