data_PCOD8215021
_publ_section_title
;
Structure prediction by ZEFSAII (Michael W. Deem and Ramdas Pophale) SiO2 
 PCOD8215021
Probable space group: P N N A
;
_chemical_formula_sum "Si O2"
_cell_formula_units_Z 40
_cell_length_a 9.734074
_cell_length_b 8.636189
_cell_length_c 23.596153
_cell_angle_alpha 90.000000
_cell_angle_beta 90.000000
_cell_angle_gamma 90.000000
_cell_volume 1983.617747
_symmetry_space_group_name_H-M "P N N A"
_symmetry_group_IT_number 52
_symmetry_cell_setting 'orthorhombic'
loop_
_space_group_symop_operation_xyz
x,y,z
1/2-x,-y,z
x,1/2-y,1/2-z
1/2-x,1/2+y,1/2-z
-x,-y,-z
1/2+x,y,-z
-x,1/2+y,1/2+z
1/2+x,1/2-y,1/2+z
loop_
_atom_site_type_symbol
_atom_site_label
_atom_site_fract_x
_atom_site_fract_y
_atom_site_fract_z
Si Si1 0.545851 0.385241 0.881720
Si Si2 0.890075 0.082643 0.268111
Si Si3 0.333890 0.277283 0.098470
Si Si4 0.878551 0.111541 0.483898
Si Si5 0.614664 0.896035 0.792250
O O1 0.494921 0.394084 0.818595
O O2 0.601691 0.553899 0.896382
O O3 0.673069 0.267260 0.885663
O O4 0.423189 0.321457 0.922475
O O5 0.840058 0.250000 0.250000
O O6 0.750000 0.000000 0.286563
O O7 0.974912 0.990730 0.219922
O O8 0.404956 0.158013 0.141970
O O9 0.354211 0.248793 0.030222
O O10 0.750000 0.000000 0.477630
O O11 0.000000 0.000000 0.500000
O O12 0.627485 0.750000 0.750000
O O13 0.750000 0.000000 0.783653
#
# Coordination Sequence:
#
# PCOD8215021 Si02
#       5
#     8   8   8   8   8
#     4  10  19  36  60  91 123 161 210 268 304 369
#     4  12  26  43  61  92 129 165 210 262 325 385
#     4  10  19  34  59  91 122 153 210 260 313 364
#     4  10  17  32  56  91 121 158 209 267 306 362
#     4  12  23  39  65  90 123 168 214 263 316 380
#
# _framework density 20.165175000000001
#
# number of rings (size 3 to 8) (size 9 to 14) (size 15 to 20)
#    0.000    1.200    6.000    4.200    0.000    0.000 
#    0.000    0.000    0.000    6.000    0.000    0.000 
#    0.000    0.000    0.000    0.000    0.000    0.000 
#
# Total GULP energy -495593.915085 kJ/mol
# GULP energy per Si atom -12389.847877 kJ/mol
# Density = 2.011928 g / cm^3
# Si number density = 20.165175 Si / 1000 Ang^3
#
#
#
# Elastic Constant Matrix: (Units=GPa)
#
#
# Indices 1 2 3 4 5 6 
#
# 1 106.0094 19.5328 47.9762 0.0000 0.0000 0.0000
# 2 19.5328 64.3608 28.8843 0.0000 0.0000 0.0000
# 3 47.9762 28.8843 131.2878 0.0000 0.0000 0.0000
# 4 0.0000 0.0000 0.0000 18.7843 0.0000 0.0000
# 5 0.0000 0.0000 0.0000 0.0000 36.8770 0.0000
# 6 0.0000 0.0000 0.0000 0.0000 0.0000 -24.9111
#
#
#
# Elastic Compliance Matrix: (Units=1/GPa)
#
#
# Indices 1 2 3 4 5 6 
#
# 1 0.011483 -0.001777 -0.003805 0.000000 0.000000 0.000000
# 2 -0.001777 0.017515 -0.003204 0.000000 0.000000 0.000000
# 3 -0.003805 -0.003204 0.009712 0.000000 0.000000 0.000000
# 4 0.000000 0.000000 0.000000 0.053236 0.000000 0.000000
# 5 0.000000 0.000000 0.000000 0.000000 0.027117 0.000000
# 6 0.000000 0.000000 0.000000 0.000000 0.000000 -0.040143
#
#
# Mechanical properties :
#
#
# Convention : Reuss Voigt Hill
#
# Bulk Modulus (GPa) = 47.31012 54.93830 51.12421
# Shear Modulus (GPa) = 48.29143 19.83434 34.06289
#
# Velocity S-wave (km/s) = 4.89897 3.13963 4.11444
# Velocity P-wave (km/s) = 7.45065 6.35974 6.92670
#
# Compressibility (1/GPa) = 0.02113713
#
# Stress axis : x y z
#
# Youngs Moduli (GPa) = 87.08810 57.09510 102.96312
#
# Poissons Ratio (x) = 0.10147 0.39178
# Poissons Ratio (y) = 0.15477 0.32988
# Poissons Ratio (z) = 0.33138 0.18293
#
# Static dielectric constant tensor:
#      x y z
#    x 3.812730 0.000000 0.000000 
#    y 0.000000 3.401890 0.000000 
#    z 0.000000 0.000000 -19.431220 
# 
# 
# High freq. dielectric constant tensor:
#      x y z
#    x 1.796270 0.000000 0.000000 
#    y 0.000000 1.743330 0.000000 
#    z 0.000000 0.000000 1.802260 
# 
# From -- ./inp_files/39219.got.cif
#   From: 2010.06.25/outbox.cif.g09.slc.cpg/sg52_20_cif.got.tgz:39219.got - 2010.06.26 19:32:48.
