data_PCOD8215111
_publ_section_title
;
Structure prediction by ZEFSAII (Michael W. Deem and Ramdas Pophale) SiO2 
 PCOD8215111
Probable space group: P N N A
;
_chemical_formula_sum "Si O2"
_cell_formula_units_Z 48
_cell_length_a 28.289965
_cell_length_b 9.069347
_cell_length_c 9.974402
_cell_angle_alpha 90.000000
_cell_angle_beta 90.000000
_cell_angle_gamma 90.000000
_cell_volume 2559.147375
_symmetry_space_group_name_H-M "P N N A"
_symmetry_group_IT_number 52
_symmetry_cell_setting 'orthorhombic'
loop_
_space_group_symop_operation_xyz
x,y,z
1/2-x,-y,z
x,1/2-y,1/2-z
1/2-x,1/2+y,1/2-z
-x,-y,-z
1/2+x,y,-z
-x,1/2+y,1/2+z
1/2+x,1/2-y,1/2+z
loop_
_atom_site_type_symbol
_atom_site_label
_atom_site_fract_x
_atom_site_fract_y
_atom_site_fract_z
Si Si1 0.797659 0.919577 0.004674
Si Si2 0.353388 0.924409 0.245944
Si Si3 0.801729 0.930740 0.490310
Si Si4 0.138396 0.075243 0.759352
Si Si5 0.461003 0.889465 0.840814
Si Si6 0.453104 0.888423 0.152569
O O1 0.793009 0.743662 0.011333
O O2 0.835901 0.979845 0.108110
O O3 0.750000 0.000000 0.043933
O O4 0.814182 0.975556 0.860016
O O5 0.357011 0.750000 0.250000
O O6 0.334207 0.985605 0.386321
O O7 0.405997 0.976184 0.202849
O O8 0.832629 0.989846 0.365834
O O9 0.750000 0.000000 0.492480
O O10 0.138457 0.250000 0.750000
O O11 0.083736 0.026300 0.772212
O O12 0.474800 0.750000 0.750000
O O13 0.504007 0.000417 0.834749
O O14 0.448332 0.840581 0.995046
O O15 0.462848 0.750000 0.250000
#
# Coordination Sequence:
#
# PCOD8215111 Si02
#       6
#     8   8   8   8   8   8
#     4  10  18  32  53  74 100 138 177 214 267 320
#     4   9  18  33  54  76 102 141 179 216 263 327
#     4  10  20  34  51  78 106 136 179 224 263 318
#     4   9  18  33  54  76 102 141 179 216 263 327
#     4  10  21  38  59  85 113 145 186 231 278 333
#     4  10  21  38  59  85 113 145 186 231 278 333
#
# _framework density 18.756246999999998
#
# number of rings (size 3 to 8) (size 9 to 14) (size 15 to 20)
#    0.000    2.333    1.667    1.000    7.000    0.667 
#    0.000    3.333    0.000    0.000    0.000    0.000 
#    0.000    0.000    0.000    0.000    0.000    0.000 
#
# Total GULP energy -594837.755388 kJ/mol
# GULP energy per Si atom -12392.453237 kJ/mol
# Density = 1.871356 g / cm^3
# Si number density = 18.756247 Si / 1000 Ang^3
#
#
#
# Elastic Constant Matrix: (Units=GPa)
#
#
# Indices 1 2 3 4 5 6 
#
# 1 143.7257 31.9858 54.8564 0.0000 0.0000 0.0000
# 2 31.9858 31.4605 31.2423 0.0000 0.0000 0.0000
# 3 54.8564 31.2423 133.7136 0.0000 0.0000 0.0000
# 4 0.0000 0.0000 0.0000 17.5073 0.0000 0.0000
# 5 0.0000 0.0000 0.0000 0.0000 36.0492 0.0000
# 6 0.0000 0.0000 0.0000 0.0000 0.0000 27.4254
#
#
#
# Elastic Compliance Matrix: (Units=1/GPa)
#
#
# Indices 1 2 3 4 5 6 
#
# 1 0.009433 -0.007484 -0.002121 0.000000 0.000000 0.000000
# 2 -0.007484 0.047327 -0.007988 0.000000 0.000000 0.000000
# 3 -0.002121 -0.007988 0.010215 0.000000 0.000000 0.000000
# 4 0.000000 0.000000 0.000000 0.057119 0.000000 0.000000
# 5 0.000000 0.000000 0.000000 0.000000 0.027740 0.000000
# 6 0.000000 0.000000 0.000000 0.000000 0.000000 0.036463
#
#
# Mechanical properties :
#
#
# Convention : Reuss Voigt Hill
#
# Bulk Modulus (GPa) = 31.45689 60.56319 46.01004
# Shear Modulus (GPa) = 21.36032 28.91738 25.13885
#
# Velocity S-wave (km/s) = 3.37833 3.93077 3.66497
# Velocity P-wave (km/s) = 5.65909 7.27743 6.51868
#
# Compressibility (1/GPa) = 0.03178954
#
# Stress axis : x y z
#
# Youngs Moduli (GPa) = 106.01280 21.12957 97.89268
#
# Poissons Ratio (x) = 0.15813 0.20766
# Poissons Ratio (y) = 0.79338 0.78194
# Poissons Ratio (z) = 0.22488 0.16878
#
# Static dielectric constant tensor:
#      x y z
#    x 3.768730 0.000000 0.000000 
#    y 0.000000 3.004710 0.000000 
#    z 0.000000 0.000000 3.989080 
# 
# 
# High freq. dielectric constant tensor:
#      x y z
#    x 1.750300 0.000000 0.000000 
#    y 0.000000 1.671410 0.000000 
#    z 0.000000 0.000000 1.750550 
# 
# From -- ./inp_files/15484.got.cif
#   From: 2010.06.25/outbox.cif.g09.slc.cpg/sg52_8_cif.got.tgz:15484.got - 2010.06.26 19:32:48.
