data_PCOD8215266
_publ_section_title
;
Structure prediction by ZEFSAII (Michael W. Deem and Ramdas Pophale) SiO2 
 PCOD8215266
Probable space group: P N N A
;
_chemical_formula_sum "Si O2"
_cell_formula_units_Z 56
_cell_length_a 5.258443
_cell_length_b 24.947825
_cell_length_c 26.602834
_cell_angle_alpha 90.000000
_cell_angle_beta 90.000000
_cell_angle_gamma 90.000000
_cell_volume 3489.938422
_symmetry_space_group_name_H-M "P N N A"
_symmetry_group_IT_number 52
_symmetry_cell_setting 'orthorhombic'
loop_
_space_group_symop_operation_xyz
x,y,z
1/2-x,-y,z
x,1/2-y,1/2-z
1/2-x,1/2+y,1/2-z
-x,-y,-z
1/2+x,y,-z
-x,1/2+y,1/2+z
1/2+x,1/2-y,1/2+z
loop_
_atom_site_type_symbol
_atom_site_label
_atom_site_fract_x
_atom_site_fract_y
_atom_site_fract_z
Si Si1 0.236831 0.663614 0.238881
Si Si2 0.735456 0.614019 0.275840
Si Si3 0.750000 0.500000 0.319417
Si Si4 0.146884 0.066854 0.024538
Si Si5 0.732927 0.693721 0.368506
Si Si6 0.268815 0.243209 0.168530
Si Si7 0.794656 0.683580 0.482345
Si Si8 0.750000 0.500000 0.616269
O O1 0.496224 0.630227 0.241714
O O2 0.232853 0.694598 0.185532
O O3 0.232556 0.706707 0.282678
O O4 0.991506 0.625535 0.244484
O O5 0.705147 0.551150 0.284542
O O6 0.734058 0.644994 0.329160
O O7 0.498280 0.487476 0.351345
O O8 0.190345 0.052889 0.083047
O O9 0.382851 0.040821 0.994237
O O10 0.139686 0.130478 0.015649
O O11 0.479085 0.729636 0.364555
O O12 0.750409 0.668977 0.424216
O O13 0.973482 0.732768 0.362004
O O14 0.558434 0.715989 0.507556
#
# Coordination Sequence:
#
# PCOD8215266 Si02
#       8
#     8   8   4   8   8   8   8   4
#     4   9  17  33  51  70  87 109 134 180 245 302
#     4  10  21  33  48  65  92 116 147 188 239 285
#     4  12  26  35  48  68  90 126 156 206 238 281
#     4  10  21  35  47  59  74 109 156 211 247 274
#     4  10  19  31  47  69  89 112 149 197 237 277
#     4   9  17  30  52  72  87 103 136 187 245 291
#     4  10  21  31  45  60  87 121 153 190 237 279
#     4  12  24  35  50  58  82 114 176 214 242 267
#
# _framework density 16.046128
#
# number of rings (size 3 to 8) (size 9 to 14) (size 15 to 20)
#    0.000    2.000    0.000    3.857    8.000    3.429 
#    0.000    0.000    0.000    0.000    0.000    0.000 
#    0.000    0.000    0.000    0.000    0.000    0.000 
#
# Total GULP energy -694163.004546 kJ/mol
# GULP energy per Si atom -12395.767938 kJ/mol
# Density = 1.600961 g / cm^3
# Si number density = 16.046128 Si / 1000 Ang^3
#
#
#
# Elastic Constant Matrix: (Units=GPa)
#
#
# Indices 1 2 3 4 5 6 
#
# 1 151.7318 30.5152 21.9012 0.0000 0.0000 0.0000
# 2 30.5152 66.6674 32.8914 0.0000 0.0000 0.0000
# 3 21.9012 32.8914 40.0590 0.0000 0.0000 0.0000
# 4 0.0000 0.0000 0.0000 13.3899 0.0000 0.0000
# 5 0.0000 0.0000 0.0000 0.0000 19.4483 0.0000
# 6 0.0000 0.0000 0.0000 0.0000 0.0000 14.5584
#
#
#
# Elastic Compliance Matrix: (Units=1/GPa)
#
#
# Indices 1 2 3 4 5 6 
#
# 1 0.007364 -0.002327 -0.002115 0.000000 0.000000 0.000000
# 2 -0.002327 0.025949 -0.020034 0.000000 0.000000 0.000000
# 3 -0.002115 -0.020034 0.042569 0.000000 0.000000 0.000000
# 4 0.000000 0.000000 0.000000 0.074683 0.000000 0.000000
# 5 0.000000 0.000000 0.000000 0.000000 0.051418 0.000000
# 6 0.000000 0.000000 0.000000 0.000000 0.000000 0.068689
#
#
# Mechanical properties :
#
#
# Convention : Reuss Voigt Hill
#
# Bulk Modulus (GPa) = 37.13405 47.67489 42.40447
# Shear Modulus (GPa) = 15.21600 21.02265 18.11933
#
# Velocity S-wave (km/s) = 3.08273 3.62351 3.36401
# Velocity P-wave (km/s) = 5.98860 6.87620 6.44769
#
# Compressibility (1/GPa) = 0.02692946
#
# Stress axis : x y z
#
# Youngs Moduli (GPa) = 135.79763 38.53728 23.49128
#
# Poissons Ratio (x) = 0.08967 0.04969
# Poissons Ratio (y) = 0.31599 0.47062
# Poissons Ratio (z) = 0.28727 0.77205
#
# Static dielectric constant tensor:
#      x y z
#    x 3.872760 0.000000 0.000000 
#    y 0.000000 2.796710 0.000000 
#    z 0.000000 0.000000 2.792760 
# 
# 
# High freq. dielectric constant tensor:
#      x y z
#    x 1.658180 0.000000 0.000000 
#    y 0.000000 1.568640 0.000000 
#    z 0.000000 0.000000 1.575910 
# 
# From -- ./inp_files/38858.got.cif
#   From: 2010.06.25/outbox.cif.g09.slc.cpg/sg52_20_cif.got.tgz:38858.got - 2010.06.26 19:32:48.
