data_PCOD8215383
_publ_section_title
;
Structure prediction by ZEFSAII (Michael W. Deem and Ramdas Pophale) SiO2 
 PCOD8215383
Probable space group: P N N A
;
_chemical_formula_sum "Si O2"
_cell_formula_units_Z 24
_cell_length_a 5.152579
_cell_length_b 8.283143
_cell_length_c 25.592295
_cell_angle_alpha 90.000000
_cell_angle_beta 90.000000
_cell_angle_gamma 90.000000
_cell_volume 1092.267600
_symmetry_space_group_name_H-M "P N N A"
_symmetry_group_IT_number 52
_symmetry_cell_setting 'orthorhombic'
loop_
_space_group_symop_operation_xyz
x,y,z
1/2-x,-y,z
x,1/2-y,1/2-z
1/2-x,1/2+y,1/2-z
-x,-y,-z
1/2+x,y,-z
-x,1/2+y,1/2+z
1/2+x,1/2-y,1/2+z
loop_
_atom_site_type_symbol
_atom_site_label
_atom_site_fract_x
_atom_site_fract_y
_atom_site_fract_z
Si Si1 0.956364 0.180065 0.977643
Si Si2 0.172942 0.821917 0.143467
Si Si3 0.834818 0.316082 0.193662
O O1 0.881671 0.183636 0.917686
O O2 0.729123 0.269544 0.010953
O O3 0.000000 0.000000 0.000000
O O4 0.410492 0.701662 0.157042
O O5 0.908222 0.784568 0.173072
O O6 0.250000 0.000000 0.161773
O O7 0.750000 0.500000 0.195822
O O8 0.916361 0.250000 0.250000
#
# Coordination Sequence:
#
# PCOD8215383 Si02
#       3
#     8   8   8
#     4  10  19  34  61 102 136 163 225 281 312 391
#     4  12  23  40  73 104 130 179 229 280 343 395
#     4  12  27  47  67  96 140 177 230 287 347 411
#
# _framework density 21.972639000000001
#
# number of rings (size 3 to 8) (size 9 to 14) (size 15 to 20)
#    0.000    0.667    3.333    7.000    4.667    0.000 
#    0.000    0.000    0.000   20.000    0.000    0.000 
#    0.000    0.000    0.000    0.000    0.000    0.000 
#
# Total GULP energy -297530.688717 kJ/mol
# GULP energy per Si atom -12397.112030 kJ/mol
# Density = 2.192263 g / cm^3
# Si number density = 21.972639 Si / 1000 Ang^3
#
#
#
# Elastic Constant Matrix: (Units=GPa)
#
#
# Indices 1 2 3 4 5 6 
#
# 1 206.3574 14.4538 73.3642 0.0000 0.0000 0.0000
# 2 14.4538 52.6535 48.4402 0.0000 0.0000 0.0000
# 3 73.3642 48.4402 154.0762 0.0000 0.0000 0.0000
# 4 0.0000 0.0000 0.0000 21.9493 0.0000 0.0000
# 5 0.0000 0.0000 0.0000 0.0000 -23.1499 0.0000
# 6 0.0000 0.0000 0.0000 0.0000 0.0000 17.1397
#
#
#
# Elastic Compliance Matrix: (Units=1/GPa)
#
#
# Indices 1 2 3 4 5 6 
#
# 1 0.005902 0.001358 -0.003237 0.000000 0.000000 0.000000
# 2 0.001358 0.027033 -0.009146 0.000000 0.000000 0.000000
# 3 -0.003237 -0.009146 0.010907 0.000000 0.000000 0.000000
# 4 0.000000 0.000000 0.000000 0.045560 0.000000 0.000000
# 5 0.000000 0.000000 0.000000 0.000000 -0.043197 0.000000
# 6 0.000000 0.000000 0.000000 0.000000 0.000000 0.058344
#
#
# Mechanical properties :
#
#
# Convention : Reuss Voigt Hill
#
# Bulk Modulus (GPa) = 45.88762 76.17816 61.03289
# Shear Modulus (GPa) = 37.35190 21.64308 29.49749
#
# Velocity S-wave (km/s) = 4.12749 3.14188 3.66794
# Velocity P-wave (km/s) = 6.60638 6.92147 6.76576
#
# Compressibility (1/GPa) = 0.02179237
#
# Stress axis : x y z
#
# Youngs Moduli (GPa) = 169.44330 36.99176 91.68502
#
# Poissons Ratio (x) = -0.05023 0.29679
# Poissons Ratio (y) = -0.23010 0.83851
# Poissons Ratio (z) = 0.54850 0.33831
#
# Static dielectric constant tensor:
#      x y z
#    x 4.194360 0.000000 0.000000 
#    y 0.000000 3.958990 0.000000 
#    z 0.000000 0.000000 4.221910 
# 
# 
# High freq. dielectric constant tensor:
#      x y z
#    x 1.907360 0.000000 0.000000 
#    y 0.000000 1.826500 0.000000 
#    z 0.000000 0.000000 1.875030 
# 
# From -- ./inp_files/38437.got.cif
#   From: 2010.06.25/outbox.cif.g09.slc.cpg/sg52_20_cif.got.tgz:38437.got - 2010.06.26 19:32:48.
