data_PCOD8215989
_publ_section_title
;
Structure prediction by ZEFSAII (Michael W. Deem and Ramdas Pophale) SiO2 
 PCOD8215989
Probable space group: P N N A
;
_chemical_formula_sum "Si O2"
_cell_formula_units_Z 36
_cell_length_a 8.068040
_cell_length_b 21.192405
_cell_length_c 8.612265
_cell_angle_alpha 90.000000
_cell_angle_beta 90.000000
_cell_angle_gamma 90.000000
_cell_volume 1472.535157
_symmetry_space_group_name_H-M "P N N A"
_symmetry_group_IT_number 52
_symmetry_cell_setting 'orthorhombic'
loop_
_space_group_symop_operation_xyz
x,y,z
1/2-x,-y,z
x,1/2-y,1/2-z
1/2-x,1/2+y,1/2-z
-x,-y,-z
1/2+x,y,-z
-x,1/2+y,1/2+z
1/2+x,1/2-y,1/2+z
loop_
_atom_site_type_symbol
_atom_site_label
_atom_site_fract_x
_atom_site_fract_y
_atom_site_fract_z
Si Si1 0.459550 0.427651 0.389969
Si Si2 0.750000 0.000000 0.650585
Si Si3 0.062674 0.377946 0.064130
Si Si4 0.689279 0.564607 0.290926
Si Si5 0.860122 0.320719 0.790098
O O1 0.402193 0.477595 0.257827
O O2 0.648592 0.404704 0.367865
O O3 0.431610 0.454341 0.564104
O O4 0.353472 0.363053 0.365988
O O5 0.826080 0.942321 0.547366
O O6 0.177641 0.322479 0.133303
O O7 0.902165 0.388670 0.172891
O O8 0.999175 0.354282 0.898605
O O9 0.750000 0.500000 0.207949
O O10 0.911796 0.250000 0.750000
#
# Coordination Sequence:
#
# PCOD8215989 Si02
#       5
#     8   4   8   8   8
#     4  11  22  39  69 106 146 188 230 289 353 424
#     4  10  20  40  68 110 146 178 234 290 366 424
#     4  11  25  45  73 105 140 189 234 297 364 421
#     4  12  22  41  68 108 149 185 225 286 358 434
#     4  11  27  50  69 101 142 190 245 295 349 424
#
# _framework density 24.447633
#
# number of rings (size 3 to 8) (size 9 to 14) (size 15 to 20)
#    0.000    0.889    3.333    4.667    0.000    7.111 
#   10.000    2.222    0.000    0.000    0.000    0.000 
#    0.000    0.000    0.000    0.000    0.000    0.000 
#
# Total GULP energy -446323.068071 kJ/mol
# GULP energy per Si atom -12397.863002 kJ/mol
# Density = 2.439199 g / cm^3
# Si number density = 24.447633 Si / 1000 Ang^3
#
#
#
# Elastic Constant Matrix: (Units=GPa)
#
#
# Indices 1 2 3 4 5 6 
#
# 1 131.6407 28.7740 47.6618 0.0000 0.0000 0.0000
# 2 28.7740 127.2379 49.4313 0.0000 0.0000 0.0000
# 3 47.6618 49.4313 82.1837 0.0000 0.0000 0.0000
# 4 0.0000 0.0000 0.0000 30.2962 0.0000 0.0000
# 5 0.0000 0.0000 0.0000 0.0000 46.4589 0.0000
# 6 0.0000 0.0000 0.0000 0.0000 0.0000 33.5017
#
#
#
# Elastic Compliance Matrix: (Units=1/GPa)
#
#
# Indices 1 2 3 4 5 6 
#
# 1 0.009615 -0.000011 -0.005570 0.000000 0.000000 0.000000
# 2 -0.000011 0.010256 -0.006162 0.000000 0.000000 0.000000
# 3 -0.005570 -0.006162 0.019105 0.000000 0.000000 0.000000
# 4 0.000000 0.000000 0.000000 0.033007 0.000000 0.000000
# 5 0.000000 0.000000 0.000000 0.000000 0.021524 0.000000
# 6 0.000000 0.000000 0.000000 0.000000 0.000000 0.029849
#
#
# Mechanical properties :
#
#
# Convention : Reuss Voigt Hill
#
# Bulk Modulus (GPa) = 64.55849 65.86626 65.21238
# Shear Modulus (GPa) = 32.89333 36.39768 34.64551
#
# Velocity S-wave (km/s) = 3.67203 3.86269 3.76856
# Velocity P-wave (km/s) = 6.66653 6.84792 6.75783
#
# Compressibility (1/GPa) = 0.01548983
#
# Stress axis : x y z
#
# Youngs Moduli (GPa) = 103.99952 97.50618 52.34305
#
# Poissons Ratio (x) = 0.00103 0.29155
# Poissons Ratio (y) = 0.00109 0.32256
# Poissons Ratio (z) = 0.57928 0.60088
#
# Static dielectric constant tensor:
#      x y z
#    x 4.710880 0.000000 0.000000 
#    y 0.000000 4.049930 0.000000 
#    z 0.000000 0.000000 4.293350 
# 
# 
# High freq. dielectric constant tensor:
#      x y z
#    x 2.000960 0.000000 0.000000 
#    y 0.000000 1.929710 0.000000 
#    z 0.000000 0.000000 1.975000 
# 
# From -- ./inp_files/7283.got.cif
#   From: 2010.06.25/outbox.cif.g09.slc.cpg/sg52_4_cif.got.tgz:7283.got - 2010.06.26 19:32:48.
