data_PCOD8215397
_publ_section_title
;
Structure prediction by ZEFSAII (Michael W. Deem and Ramdas Pophale) SiO2 
 PCOD8215397
Probable space group: P N N A
;
_chemical_formula_sum "Si O2"
_cell_formula_units_Z 52
_cell_length_a 17.520199
_cell_length_b 23.245563
_cell_length_c 6.434950
_cell_angle_alpha 90.000000
_cell_angle_beta 90.000000
_cell_angle_gamma 90.000000
_cell_volume 2620.742071
_symmetry_space_group_name_H-M "P N N A"
_symmetry_group_IT_number 52
_symmetry_cell_setting 'orthorhombic'
loop_
_space_group_symop_operation_xyz
x,y,z
1/2-x,-y,z
x,1/2-y,1/2-z
1/2-x,1/2+y,1/2-z
-x,-y,-z
1/2+x,y,-z
-x,1/2+y,1/2+z
1/2+x,1/2-y,1/2+z
loop_
_atom_site_type_symbol
_atom_site_label
_atom_site_fract_x
_atom_site_fract_y
_atom_site_fract_z
Si Si1 0.772903 0.250000 0.750000
Si Si2 0.402870 0.588783 0.806679
Si Si3 0.798084 0.693771 0.124965
Si Si4 0.042274 0.919935 0.039151
Si Si5 0.184233 0.845416 0.959524
Si Si6 0.435051 0.971197 0.281819
Si Si7 0.703221 0.057245 0.958040
O O1 0.719321 0.209499 0.611446
O O2 0.825321 0.211354 0.899908
O O3 0.365545 0.647059 0.892479
O O4 0.470578 0.609679 0.653747
O O5 0.337934 0.553576 0.682905
O O6 0.440545 0.543410 0.972455
O O7 0.827629 0.750000 0.250000
O O8 0.720170 0.670071 0.234689
O O9 0.100820 0.873367 0.947428
O O10 0.081703 0.963088 0.207543
O O11 0.013123 0.953313 0.833877
O O12 0.242470 0.888503 0.070667
O O13 0.361204 0.934278 0.216266
O O14 0.750000 0.000000 0.923253
#
# Coordination Sequence:
#
# PCOD8215397 Si02
#       7
#     4   8   8   8   8   8   8
#     4  10  20  38  62  84 108 148 194 246 292 332
#     4  10  21  36  56  85 114 153 194 232 284 352
#     4   9  20  39  63  84 111 147 199 248 286 334
#     4  10  21  36  55  81 123 156 184 232 288 356
#     4  10  20  37  59  84 113 149 192 241 292 338
#     4  10  20  36  55  81 119 157 188 229 292 346
#     4  10  19  35  56  83 113 144 192 242 284 340
#
# _framework density 19.841709000000002
#
# number of rings (size 3 to 8) (size 9 to 14) (size 15 to 20)
#    0.000    2.154    1.538    1.385    0.000    3.077 
#    6.923    0.000    0.000    0.000    0.000    0.000 
#    0.000    0.000    0.000    0.000    0.000    0.000 
#
# Total GULP energy -644515.711018 kJ/mol
# GULP energy per Si atom -12394.532904 kJ/mol
# Density = 1.979655 g / cm^3
# Si number density = 19.841709 Si / 1000 Ang^3
#
#
#
# Elastic Constant Matrix: (Units=GPa)
#
#
# Indices 1 2 3 4 5 6 
#
# 1 80.4073 23.7589 16.1187 0.0000 0.0000 0.0000
# 2 23.7589 69.1820 14.5935 0.0000 0.0000 0.0000
# 3 16.1187 14.5935 76.1756 0.0000 0.0000 0.0000
# 4 0.0000 0.0000 0.0000 30.0852 0.0000 0.0000
# 5 0.0000 0.0000 0.0000 0.0000 15.2183 0.0000
# 6 0.0000 0.0000 0.0000 0.0000 0.0000 27.7977
#
#
#
# Elastic Compliance Matrix: (Units=1/GPa)
#
#
# Indices 1 2 3 4 5 6 
#
# 1 0.014172 -0.004413 -0.002153 0.000000 0.000000 0.000000
# 2 -0.004413 0.016437 -0.002215 0.000000 0.000000 0.000000
# 3 -0.002153 -0.002215 0.014008 0.000000 0.000000 0.000000
# 4 0.000000 0.000000 0.000000 0.033239 0.000000 0.000000
# 5 0.000000 0.000000 0.000000 0.000000 0.065710 0.000000
# 6 0.000000 0.000000 0.000000 0.000000 0.000000 0.035974
#
#
# Mechanical properties :
#
#
# Convention : Reuss Voigt Hill
#
# Bulk Modulus (GPa) = 36.96288 37.18966 37.07627
# Shear Modulus (GPa) = 24.25748 26.03983 25.14865
#
# Velocity S-wave (km/s) = 3.50029 3.62661 3.56401
# Velocity P-wave (km/s) = 5.91653 6.02663 5.97183
#
# Compressibility (1/GPa) = 0.02705417
#
# Stress axis : x y z
#
# Youngs Moduli (GPa) = 70.56025 60.83686 71.38970
#
# Poissons Ratio (x) = 0.26847 0.15373
# Poissons Ratio (y) = 0.31137 0.15815
# Poissons Ratio (z) = 0.15195 0.13477
#
# Static dielectric constant tensor:
#      x y z
#    x 3.540330 0.000000 0.000000 
#    y 0.000000 3.697680 0.000000 
#    z 0.000000 0.000000 3.555370 
# 
# 
# High freq. dielectric constant tensor:
#      x y z
#    x 1.765480 0.000000 0.000000 
#    y 0.000000 1.768800 0.000000 
#    z 0.000000 0.000000 1.770890 
# 
# From -- ./inp_files/3560.got.cif
#   From: 2010.06.25/outbox.cif.g09.slc.cpg/sg52_2_cif.got.tgz:3560.got - 2010.06.26 19:32:48.
