data_PCOD8215188
_publ_section_title
;
Structure prediction by ZEFSAII (Michael W. Deem and Ramdas Pophale) SiO2 
 PCOD8215188
Probable space group: P N N A
;
_chemical_formula_sum "Si O2"
_cell_formula_units_Z 64
_cell_length_a 18.531573
_cell_length_b 9.754643
_cell_length_c 17.562503
_cell_angle_alpha 90.000000
_cell_angle_beta 90.000000
_cell_angle_gamma 90.000000
_cell_volume 3174.753977
_symmetry_space_group_name_H-M "P N N A"
_symmetry_group_IT_number 52
_symmetry_cell_setting 'orthorhombic'
loop_
_space_group_symop_operation_xyz
x,y,z
1/2-x,-y,z
x,1/2-y,1/2-z
1/2-x,1/2+y,1/2-z
-x,-y,-z
1/2+x,y,-z
-x,1/2+y,1/2+z
1/2+x,1/2-y,1/2+z
loop_
_atom_site_type_symbol
_atom_site_label
_atom_site_fract_x
_atom_site_fract_y
_atom_site_fract_z
Si Si1 0.381003 0.461975 0.013062
Si Si2 0.576934 0.449158 0.530857
Si Si3 0.634112 0.620071 0.296591
Si Si4 0.997786 0.011718 0.390245
Si Si5 0.331245 0.774276 0.540138
Si Si6 0.524401 0.302596 0.672071
Si Si7 0.117398 0.375397 0.801219
Si Si8 0.822295 0.170168 0.033769
O O1 0.442944 0.521538 0.958214
O O2 0.324302 0.589293 0.013647
O O3 0.348968 0.324284 0.979646
O O4 0.422243 0.446589 0.094266
O O5 0.500000 0.500000 0.500000
O O6 0.599146 0.317810 0.480128
O O7 0.572440 0.404715 0.620079
O O8 0.636514 0.569935 0.524644
O O9 0.663820 0.750000 0.250000
O O10 0.547450 0.619377 0.301570
O O11 0.660885 0.487403 0.249225
O O12 0.665179 0.617451 0.381116
O O13 0.002636 0.174658 0.380274
O O14 0.961381 0.938648 0.318777
O O15 0.334074 0.826608 0.627416
O O16 0.263606 0.674588 0.522087
O O17 0.564915 0.250000 0.750000
O O18 0.097444 0.250000 0.750000
#
# Coordination Sequence:
#
# PCOD8215188 Si02
#       8
#     8   8   8   8   8   8   8   8
#     4  10  20  36  62  88 120 163 213 259 310 362
#     4  12  24  40  66  94 123 164 216 275 315 368
#     4  11  20  37  60  88 131 178 211 242 304 392
#     4  10  18  35  59  89 121 158 208 262 305 366
#     4  11  25  42  60  90 131 171 210 254 316 382
#     4  11  20  38  63  93 122 163 213 267 332 380
#     4  11  23  35  57  91 132 167 203 253 307 379
#     4  12  24  40  63  95 129 169 219 262 312 377
#
# _framework density 20.159043
#
# number of rings (size 3 to 8) (size 9 to 14) (size 15 to 20)
#    0.000    1.000    6.250    2.250    3.500    0.500 
#    0.000    2.500    0.000    0.000    6.500    0.000 
#    0.000    0.000    0.000    0.000    0.000    0.000 
#
# Total GULP energy -793213.432411 kJ/mol
# GULP energy per Si atom -12393.959881 kJ/mol
# Density = 2.011316 g / cm^3
# Si number density = 20.159043 Si / 1000 Ang^3
#
#
#
# Elastic Constant Matrix: (Units=GPa)
#
#
# Indices 1 2 3 4 5 6 
#
# 1 75.2561 36.4712 41.2354 0.0000 0.0000 0.0000
# 2 36.4712 117.3605 36.4847 0.0000 0.0000 0.0000
# 3 41.2354 36.4847 77.2855 0.0000 0.0000 0.0000
# 4 0.0000 0.0000 0.0000 46.6940 0.0000 0.0000
# 5 0.0000 0.0000 0.0000 0.0000 28.5255 0.0000
# 6 0.0000 0.0000 0.0000 0.0000 0.0000 34.0355
#
#
#
# Elastic Compliance Matrix: (Units=1/GPa)
#
#
# Indices 1 2 3 4 5 6 
#
# 1 0.019854 -0.003372 -0.009001 0.000000 0.000000 0.000000
# 2 -0.003372 0.010559 -0.003186 0.000000 0.000000 0.000000
# 3 -0.009001 -0.003186 0.019246 0.000000 0.000000 0.000000
# 4 0.000000 0.000000 0.000000 0.021416 0.000000 0.000000
# 5 0.000000 0.000000 0.000000 0.000000 0.035056 0.000000
# 6 0.000000 0.000000 0.000000 0.000000 0.000000 0.029381
#
#
# Mechanical properties :
#
#
# Convention : Reuss Voigt Hill
#
# Bulk Modulus (GPa) = 53.93408 55.36498 54.64953
# Shear Modulus (GPa) = 28.93352 32.23173 30.58263
#
# Velocity S-wave (km/s) = 3.79260 4.00293 3.89918
# Velocity P-wave (km/s) = 6.78165 6.99202 6.88764
#
# Compressibility (1/GPa) = 0.01854115
#
# Stress axis : x y z
#
# Youngs Moduli (GPa) = 50.36736 94.70708 51.95976
#
# Poissons Ratio (x) = 0.31931 0.46771
# Poissons Ratio (y) = 0.16982 0.16553
# Poissons Ratio (z) = 0.45338 0.30171
#
# Static dielectric constant tensor:
#      x y z
#    x 3.643350 0.000000 0.000000 
#    y 0.000000 3.832180 0.000000 
#    z 0.000000 0.000000 4.426520 
# 
# 
# High freq. dielectric constant tensor:
#      x y z
#    x 1.757480 0.000000 0.000000 
#    y 0.000000 1.806400 0.000000 
#    z 0.000000 0.000000 1.769130 
# 
# From -- ./inp_files/37694.got.cif
#   From: 2010.06.25/outbox.cif.g09.slc.cpg/sg52_19_cif.got.tgz:37694.got - 2010.06.26 19:32:48.
