data_PCOD8215337
_publ_section_title
;
Structure prediction by ZEFSAII (Michael W. Deem and Ramdas Pophale) SiO2 
 PCOD8215337
Probable space group: P N N A
;
_chemical_formula_sum "Si O2"
_cell_formula_units_Z 40
_cell_length_a 15.011844
_cell_length_b 8.531803
_cell_length_c 16.930907
_cell_angle_alpha 90.000000
_cell_angle_beta 90.000000
_cell_angle_gamma 90.000000
_cell_volume 2168.478327
_symmetry_space_group_name_H-M "P N N A"
_symmetry_group_IT_number 52
_symmetry_cell_setting 'orthorhombic'
loop_
_space_group_symop_operation_xyz
x,y,z
1/2-x,-y,z
x,1/2-y,1/2-z
1/2-x,1/2+y,1/2-z
-x,-y,-z
1/2+x,y,-z
-x,1/2+y,1/2+z
1/2+x,1/2-y,1/2+z
loop_
_atom_site_type_symbol
_atom_site_label
_atom_site_fract_x
_atom_site_fract_y
_atom_site_fract_z
Si Si1 0.673618 0.621691 0.317167
Si Si2 0.250000 0.500000 0.067227
Si Si3 0.750000 0.500000 0.562787
Si Si4 0.557367 0.169725 0.167049
Si Si5 0.201773 0.238189 0.948890
Si Si6 0.856666 0.251447 0.842419
O O1 0.750000 0.500000 0.288540
O O2 0.653286 0.750000 0.250000
O O3 0.584304 0.516189 0.331822
O O4 0.707377 0.709828 0.397058
O O5 0.173225 0.580470 0.121520
O O6 0.203996 0.381122 0.008165
O O7 0.818151 0.587771 0.503968
O O8 0.797852 0.379713 0.618604
O O9 0.575209 0.250000 0.250000
O O10 0.618883 0.266110 0.107523
O O11 0.457453 0.202340 0.138809
O O12 0.837727 0.250000 0.750000
#
# Coordination Sequence:
#
# PCOD8215337 Si02
#       6
#     8   4   4   8   8   8
#     4  10  19  33  56  86 123 163 187 226 286 358
#     4  10  23  36  59  86 106 158 192 238 297 332
#     4  10  19  38  59  78 108 152 190 236 293 342
#     4  10  21  37  57  86 121 155 189 237 285 343
#     4  10  19  35  55  88 118 149 190 228 290 356
#     4  10  22  41  60  79 109 149 199 246 287 341
#
# _framework density 18.446114999999999
#
# number of rings (size 3 to 8) (size 9 to 14) (size 15 to 20)
#    0.000    2.000    3.000    3.000    4.200    1.600 
#    0.000    9.000    0.000    0.000    0.000    0.000 
#    0.000    0.000    0.000    0.000    0.000    0.000 
#
# Total GULP energy -495587.272904 kJ/mol
# GULP energy per Si atom -12389.681823 kJ/mol
# Density = 1.840413 g / cm^3
# Si number density = 18.446115 Si / 1000 Ang^3
#
#
#
# Elastic Constant Matrix: (Units=GPa)
#
#
# Indices 1 2 3 4 5 6 
#
# 1 110.3014 44.9634 46.1849 0.0000 0.0000 0.0000
# 2 44.9634 102.4697 32.4323 0.0000 0.0000 0.0000
# 3 46.1849 32.4323 73.4931 0.0000 0.0000 0.0000
# 4 0.0000 0.0000 0.0000 82.5652 0.0000 0.0000
# 5 0.0000 0.0000 0.0000 0.0000 79.2932 0.0000
# 6 0.0000 0.0000 0.0000 0.0000 0.0000 27.0090
#
#
#
# Elastic Compliance Matrix: (Units=1/GPa)
#
#
# Indices 1 2 3 4 5 6 
#
# 1 0.013437 -0.003747 -0.006791 0.000000 0.000000 0.000000
# 2 -0.003747 0.012388 -0.003112 0.000000 0.000000 0.000000
# 3 -0.006791 -0.003112 0.019248 0.000000 0.000000 0.000000
# 4 0.000000 0.000000 0.000000 0.012112 0.000000 0.000000
# 5 0.000000 0.000000 0.000000 0.000000 0.012611 0.000000
# 6 0.000000 0.000000 0.000000 0.000000 0.000000 0.037025
#
#
# Mechanical properties :
#
#
# Convention : Reuss Voigt Hill
#
# Bulk Modulus (GPa) = 56.26456 59.26951 57.76704
# Shear Modulus (GPa) = 35.70318 48.61907 42.16112
#
# Velocity S-wave (km/s) = 4.40425 5.13951 4.78602
# Velocity P-wave (km/s) = 7.51209 8.21099 7.86930
#
# Compressibility (1/GPa) = 0.01777318
#
# Stress axis : x y z
#
# Youngs Moduli (GPa) = 74.42307 80.72259 51.95477
#
# Poissons Ratio (x) = 0.30245 0.35280
# Poissons Ratio (y) = 0.27884 0.16170
# Poissons Ratio (z) = 0.50537 0.25123
#
# Static dielectric constant tensor:
#      x y z
#    x 3.247560 0.000000 0.000000 
#    y 0.000000 3.658080 0.000000 
#    z 0.000000 0.000000 3.767910 
# 
# 
# High freq. dielectric constant tensor:
#      x y z
#    x 1.685150 0.000000 0.000000 
#    y 0.000000 1.722880 0.000000 
#    z 0.000000 0.000000 1.736510 
# 
# From -- ./inp_files/26956.got.cif
#   From: 2010.06.25/outbox.cif.g09.slc.cpg/sg52_14_cif.got.tgz:26956.got - 2010.06.26 19:32:48.
