data_PCOD8215110
_publ_section_title
;
Structure prediction by ZEFSAII (Michael W. Deem and Ramdas Pophale) SiO2 
 PCOD8215110
Probable space group: P N N A
;
_chemical_formula_sum "Si O2"
_cell_formula_units_Z 44
_cell_length_a 14.029992
_cell_length_b 13.314354
_cell_length_c 11.510352
_cell_angle_alpha 90.000000
_cell_angle_beta 90.000000
_cell_angle_gamma 90.000000
_cell_volume 2150.136978
_symmetry_space_group_name_H-M "P N N A"
_symmetry_group_IT_number 52
_symmetry_cell_setting 'orthorhombic'
loop_
_space_group_symop_operation_xyz
x,y,z
1/2-x,-y,z
x,1/2-y,1/2-z
1/2-x,1/2+y,1/2-z
-x,-y,-z
1/2+x,y,-z
-x,1/2+y,1/2+z
1/2+x,1/2-y,1/2+z
loop_
_atom_site_type_symbol
_atom_site_label
_atom_site_fract_x
_atom_site_fract_y
_atom_site_fract_z
Si Si1 0.596818 0.870883 0.544944
Si Si2 0.175882 0.750000 0.250000
Si Si3 0.992071 0.859377 0.805703
Si Si4 0.183602 0.788535 0.873218
Si Si5 0.817273 0.799873 0.931024
Si Si6 0.408257 0.589709 0.075856
O O1 0.609273 0.818489 0.669440
O O2 0.644313 0.807313 0.442550
O O3 0.484043 0.878424 0.522194
O O4 0.640956 0.983698 0.544038
O O5 0.241676 0.823644 0.171020
O O6 0.987346 0.750000 0.750000
O O7 0.914803 0.862051 0.910880
O O8 0.962151 0.931888 0.700277
O O9 0.099316 0.872659 0.856541
O O10 0.222484 0.750000 0.750000
O O11 0.272566 0.834088 0.945375
O O12 0.829893 0.678045 0.922082
#
# Coordination Sequence:
#
# PCOD8215110 Si02
#       6
#     8   4   8   8   8   8
#     4  10  20  33  59  86 110 141 190 236 276 326
#     4  10  20  32  50  86 112 138 184 238 272 326
#     4   9  15  33  52  77 107 143 178 220 279 332
#     4  10  18  32  52  82 110 147 174 224 274 336
#     4  10  18  33  54  81 107 144 184 224 277 329
#     4  10  18  35  58  87 105 142 191 236 276 321
#
# _framework density 20.463812000000001
#
# number of rings (size 3 to 8) (size 9 to 14) (size 15 to 20)
#    0.000    2.182    8.182    0.000    0.000    2.909 
#    1.636    0.000    0.000    4.364   23.636    0.000 
#    0.000    0.000    0.000    0.000    0.000    0.000 
#
# Total GULP energy -545235.685504 kJ/mol
# GULP energy per Si atom -12391.720125 kJ/mol
# Density = 2.041724 g / cm^3
# Si number density = 20.463812 Si / 1000 Ang^3
#
#
#
# Elastic Constant Matrix: (Units=GPa)
#
#
# Indices 1 2 3 4 5 6 
#
# 1 85.1459 -2.4595 53.5852 0.0000 0.0000 0.0000
# 2 -2.4595 35.9996 6.4580 0.0000 0.0000 0.0000
# 3 53.5852 6.4580 136.3907 0.0000 0.0000 0.0000
# 4 0.0000 0.0000 0.0000 21.3296 0.0000 0.0000
# 5 0.0000 0.0000 0.0000 0.0000 44.3659 0.0000
# 6 0.0000 0.0000 0.0000 0.0000 0.0000 14.5693
#
#
#
# Elastic Compliance Matrix: (Units=1/GPa)
#
#
# Indices 1 2 3 4 5 6 
#
# 1 0.015774 0.002208 -0.006302 0.000000 0.000000 0.000000
# 2 0.002208 0.028325 -0.002209 0.000000 0.000000 0.000000
# 3 -0.006302 -0.002209 0.009912 0.000000 0.000000 0.000000
# 4 0.000000 0.000000 0.000000 0.046883 0.000000 0.000000
# 5 0.000000 0.000000 0.000000 0.000000 0.022540 0.000000
# 6 0.000000 0.000000 0.000000 0.000000 0.000000 0.068637
#
#
# Mechanical properties :
#
#
# Convention : Reuss Voigt Hill
#
# Bulk Modulus (GPa) = 24.15053 41.41152 32.78103
# Shear Modulus (GPa) = 22.88540 29.38312 26.13426
#
# Velocity S-wave (km/s) = 3.34778 3.79338 3.57753
# Velocity P-wave (km/s) = 5.17404 6.28226 5.75489
#
# Compressibility (1/GPa) = 0.04140695
#
# Stress axis : x y z
#
# Youngs Moduli (GPa) = 63.39390 35.30423 100.88386
#
# Poissons Ratio (x) = -0.07796 0.63577
# Poissons Ratio (y) = -0.13999 0.22283
# Poissons Ratio (z) = 0.39951 0.07798
#
# Static dielectric constant tensor:
#      x y z
#    x 4.181090 0.000000 0.000000 
#    y 0.000000 3.310730 0.000000 
#    z 0.000000 0.000000 4.216970 
# 
# 
# High freq. dielectric constant tensor:
#      x y z
#    x 1.798950 0.000000 0.000000 
#    y 0.000000 1.741910 0.000000 
#    z 0.000000 0.000000 1.803280 
# 
# From -- ./inp_files/19453.got.cif
#   From: 2010.06.25/outbox.cif.g09.slc.cpg/sg52_10_cif.got.tgz:19453.got - 2010.06.26 19:32:48.
