data_PCOD8215868
_publ_section_title
;
Structure prediction by ZEFSAII (Michael W. Deem and Ramdas Pophale) SiO2 
 PCOD8215868
Probable space group: P N N A
;
_chemical_formula_sum "Si O2"
_cell_formula_units_Z 56
_cell_length_a 8.865344
_cell_length_b 19.599655
_cell_length_c 15.593809
_cell_angle_alpha 90.000000
_cell_angle_beta 90.000000
_cell_angle_gamma 90.000000
_cell_volume 2709.544134
_symmetry_space_group_name_H-M "P N N A"
_symmetry_group_IT_number 52
_symmetry_cell_setting 'orthorhombic'
loop_
_space_group_symop_operation_xyz
x,y,z
1/2-x,-y,z
x,1/2-y,1/2-z
1/2-x,1/2+y,1/2-z
-x,-y,-z
1/2+x,y,-z
-x,1/2+y,1/2+z
1/2+x,1/2-y,1/2+z
loop_
_atom_site_type_symbol
_atom_site_label
_atom_site_fract_x
_atom_site_fract_y
_atom_site_fract_z
Si Si1 0.850156 0.899878 0.255137
Si Si2 0.488992 0.066910 0.942564
Si Si3 0.326977 0.706166 0.897673
Si Si4 0.421320 0.357332 0.005013
Si Si5 0.823624 0.861790 0.074660
Si Si6 0.479766 0.043033 0.749631
Si Si7 0.169487 0.068874 0.408935
O O1 0.881971 0.831370 0.310311
O O2 0.910258 0.890013 0.158214
O O3 0.670803 0.912226 0.257011
O O4 0.943069 0.966477 0.285496
O O5 0.319107 0.090841 0.939134
O O6 0.545194 0.048713 0.846429
O O7 0.580413 0.129149 0.987599
O O8 0.500000 0.000000 0.000000
O O9 0.175565 0.667045 0.924342
O O10 0.282139 0.785058 0.897006
O O11 0.468133 0.702160 0.962549
O O12 0.529188 0.419229 0.973812
O O13 0.303218 0.375751 0.080434
O O14 0.612054 0.071519 0.688801
O O15 0.250000 0.000000 0.437405
#
# Coordination Sequence:
#
# PCOD8215868 Si02
#       7
#     8   8   8   8   8   8   8
#     4  10  20  38  62  91 120 164 211 264 309 387
#     4  11  22  42  65  94 127 160 215 272 329 386
#     4  11  21  41  61  90 126 167 214 259 312 394
#     4  10  23  38  60  85 129 162 208 255 308 376
#     4  11  23  39  66  92 120 171 211 260 330 385
#     4  10  21  38  62  92 128 161 209 264 325 375
#     4  11  21  37  59  93 121 165 206 255 320 370
#
# _framework density 20.667683
#
# number of rings (size 3 to 8) (size 9 to 14) (size 15 to 20)
#    0.000    1.429    2.857    3.000    0.000    2.286 
#    2.571    0.000    0.000    0.000    0.000    0.000 
#    0.000    0.000    0.000    0.000    0.000    0.000 
#
# Total GULP energy -693950.762590 kJ/mol
# GULP energy per Si atom -12391.977903 kJ/mol
# Density = 2.062064 g / cm^3
# Si number density = 20.667683 Si / 1000 Ang^3
#
#
#
# Elastic Constant Matrix: (Units=GPa)
#
#
# Indices 1 2 3 4 5 6 
#
# 1 79.0316 15.0798 44.6865 0.0000 0.0000 0.0000
# 2 15.0798 93.9230 38.0272 0.0000 0.0000 0.0000
# 3 44.6865 38.0272 125.5796 0.0000 0.0000 0.0000
# 4 0.0000 0.0000 0.0000 32.5349 0.0000 0.0000
# 5 0.0000 0.0000 0.0000 0.0000 31.6542 0.0000
# 6 0.0000 0.0000 0.0000 0.0000 0.0000 25.2720
#
#
#
# Elastic Compliance Matrix: (Units=1/GPa)
#
#
# Indices 1 2 3 4 5 6 
#
# 1 0.015848 -0.000298 -0.005549 0.000000 0.000000 0.000000
# 2 -0.000298 0.012140 -0.003570 0.000000 0.000000 0.000000
# 3 -0.005549 -0.003570 0.011019 0.000000 0.000000 0.000000
# 4 0.000000 0.000000 0.000000 0.030736 0.000000 0.000000
# 5 0.000000 0.000000 0.000000 0.000000 0.031591 0.000000
# 6 0.000000 0.000000 0.000000 0.000000 0.000000 0.039569
#
#
# Mechanical properties :
#
#
# Convention : Reuss Voigt Hill
#
# Bulk Modulus (GPa) = 49.57242 54.90234 52.23738
# Shear Modulus (GPa) = 30.03686 31.27495 30.65591
#
# Velocity S-wave (km/s) = 3.81639 3.89425 3.85551
# Velocity P-wave (km/s) = 6.59221 6.84414 6.71936
#
# Compressibility (1/GPa) = 0.02017251
#
# Stress axis : x y z
#
# Youngs Moduli (GPa) = 63.10122 82.36995 90.75391
#
# Poissons Ratio (x) = 0.02452 0.50360
# Poissons Ratio (y) = 0.01879 0.32402
# Poissons Ratio (z) = 0.35015 0.29409
#
# Static dielectric constant tensor:
#      x y z
#    x 3.715290 0.000000 0.000000 
#    y 0.000000 3.732370 0.000000 
#    z 0.000000 0.000000 3.971340 
# 
# 
# High freq. dielectric constant tensor:
#      x y z
#    x 1.804030 0.000000 0.000000 
#    y 0.000000 1.798010 0.000000 
#    z 0.000000 0.000000 1.812020 
# 
# From -- ./inp_files/24948.got.cif
#   From: 2010.06.25/outbox.cif.g09.slc.cpg/sg52_13_cif.got.tgz:24948.got - 2010.06.26 19:32:48.
