data_PCOD8215780
_publ_section_title
;
Structure prediction by ZEFSAII (Michael W. Deem and Ramdas Pophale) SiO2 
 PCOD8215780
Probable space group: P N N A
;
_chemical_formula_sum "Si O2"
_cell_formula_units_Z 64
_cell_length_a 13.566719
_cell_length_b 16.912937
_cell_length_c 14.647053
_cell_angle_alpha 90.000000
_cell_angle_beta 90.000000
_cell_angle_gamma 90.000000
_cell_volume 3360.811186
_symmetry_space_group_name_H-M "P N N A"
_symmetry_group_IT_number 52
_symmetry_cell_setting 'orthorhombic'
loop_
_space_group_symop_operation_xyz
x,y,z
1/2-x,-y,z
x,1/2-y,1/2-z
1/2-x,1/2+y,1/2-z
-x,-y,-z
1/2+x,y,-z
-x,1/2+y,1/2+z
1/2+x,1/2-y,1/2+z
loop_
_atom_site_type_symbol
_atom_site_label
_atom_site_fract_x
_atom_site_fract_y
_atom_site_fract_z
Si Si1 0.137880 0.349694 0.850873
Si Si2 0.791436 0.587925 0.630115
Si Si3 0.459320 0.045096 0.415483
Si Si4 0.826740 0.569599 0.831561
Si Si5 0.973826 0.909025 0.998490
Si Si6 0.845936 0.834380 0.142194
Si Si7 0.723021 0.856644 0.512606
Si Si8 0.173246 0.822217 0.992754
O O1 0.035144 0.394109 0.869666
O O2 0.121925 0.256790 0.868257
O O3 0.169742 0.362511 0.746056
O O4 0.224967 0.382006 0.916888
O O5 0.750000 0.500000 0.620113
O O6 0.815533 0.611249 0.733914
O O7 0.890594 0.605151 0.575969
O O8 0.706231 0.643862 0.590835
O O9 0.364228 0.087264 0.457090
O O10 0.500000 0.000000 0.500000
O O11 0.431346 0.975970 0.342459
O O12 0.750000 0.500000 0.843352
O O13 0.808068 0.636869 0.909027
O O14 0.934200 0.885112 0.098433
O O15 0.065005 0.853961 0.969653
O O16 0.000000 0.000000 0.000000
O O17 0.744315 0.851410 0.088874
O O18 0.674857 0.771356 0.501577
#
# Coordination Sequence:
#
# PCOD8215780 Si02
#       8
#     8   8   8   8   8   8   8   8
#     4  10  20  40  61  84 119 157 199 247 288 356
#     4  10  20  37  57  84 121 152 190 247 293 349
#     4  11  21  36  60  87 116 150 194 242 298 351
#     4   9  20  36  56  85 115 147 191 240 291 350
#     4  11  21  35  59  86 120 154 197 243 299 351
#     4   9  22  38  59  88 117 156 204 240 293 358
#     4  10  21  39  60  82 115 153 197 244 295 352
#     4  10  21  39  60  82 116 158 195 244 298 350
#
# _framework density 19.043021
#
# number of rings (size 3 to 8) (size 9 to 14) (size 15 to 20)
#    0.000    2.000    2.500    0.750    1.750    1.500 
#    2.250    1.250    0.000    0.000    0.000    0.000 
#    0.000    0.000    0.000    0.000    0.000    0.000 
#
# Total GULP energy -793324.770811 kJ/mol
# GULP energy per Si atom -12395.699544 kJ/mol
# Density = 1.899968 g / cm^3
# Si number density = 19.043021 Si / 1000 Ang^3
#
#
#
# Elastic Constant Matrix: (Units=GPa)
#
#
# Indices 1 2 3 4 5 6 
#
# 1 108.2481 37.3373 51.5977 0.0000 0.0000 0.0000
# 2 37.3373 57.1365 36.9337 0.0000 0.0000 0.0000
# 3 51.5977 36.9337 150.2715 0.0000 0.0000 0.0000
# 4 0.0000 0.0000 0.0000 30.3242 0.0000 0.0000
# 5 0.0000 0.0000 0.0000 0.0000 23.7773 0.0000
# 6 0.0000 0.0000 0.0000 0.0000 0.0000 31.1540
#
#
#
# Elastic Compliance Matrix: (Units=1/GPa)
#
#
# Indices 1 2 3 4 5 6 
#
# 1 0.012840 -0.006587 -0.002790 0.000000 0.000000 0.000000
# 2 -0.006587 0.024187 -0.003683 0.000000 0.000000 0.000000
# 3 -0.002790 -0.003683 0.008518 0.000000 0.000000 0.000000
# 4 0.000000 0.000000 0.000000 0.032977 0.000000 0.000000
# 5 0.000000 0.000000 0.000000 0.000000 0.042057 0.000000
# 6 0.000000 0.000000 0.000000 0.000000 0.000000 0.032099
#
#
# Mechanical properties :
#
#
# Convention : Reuss Voigt Hill
#
# Bulk Modulus (GPa) = 51.47998 63.04374 57.26186
# Shear Modulus (GPa) = 26.98733 29.70358 28.34546
#
# Velocity S-wave (km/s) = 3.76863 3.95373 3.86229
# Velocity P-wave (km/s) = 6.78446 7.34986 7.07281
#
# Compressibility (1/GPa) = 0.01942503
#
# Stress axis : x y z
#
# Youngs Moduli (GPa) = 77.88232 41.34419 117.40252
#
# Poissons Ratio (x) = 0.27234 0.32752
# Poissons Ratio (y) = 0.51303 0.43238
# Poissons Ratio (z) = 0.21727 0.15227
#
# Static dielectric constant tensor:
#      x y z
#    x 2.982410 0.000000 0.000000 
#    y 0.000000 3.481570 0.000000 
#    z 0.000000 0.000000 3.797900 
# 
# 
# High freq. dielectric constant tensor:
#      x y z
#    x 1.741290 0.000000 0.000000 
#    y 0.000000 1.737040 0.000000 
#    z 0.000000 0.000000 1.744930 
# 
# From -- ./inp_files/26362.got.cif
#   From: 2010.06.25/outbox.cif.g09.slc.cpg/sg52_14_cif.got.tgz:26362.got - 2010.06.26 19:32:48.
