data_PCOD8215019
_publ_section_title
;
Structure prediction by ZEFSAII (Michael W. Deem and Ramdas Pophale) SiO2 
 PCOD8215019
Probable space group: P N N A
;
_chemical_formula_sum "Si O2"
_cell_formula_units_Z 44
_cell_length_a 21.501743
_cell_length_b 12.085260
_cell_length_c 9.232920
_cell_angle_alpha 90.000000
_cell_angle_beta 90.000000
_cell_angle_gamma 90.000000
_cell_volume 2399.212621
_symmetry_space_group_name_H-M "P N N A"
_symmetry_group_IT_number 52
_symmetry_cell_setting 'orthorhombic'
loop_
_space_group_symop_operation_xyz
x,y,z
1/2-x,-y,z
x,1/2-y,1/2-z
1/2-x,1/2+y,1/2-z
-x,-y,-z
1/2+x,y,-z
-x,1/2+y,1/2+z
1/2+x,1/2-y,1/2+z
loop_
_atom_site_type_symbol
_atom_site_label
_atom_site_fract_x
_atom_site_fract_y
_atom_site_fract_z
Si Si1 0.863628 0.287675 0.963372
Si Si2 0.739556 0.679049 0.393855
Si Si3 0.523463 0.980610 0.159636
Si Si4 0.152742 0.024858 0.941488
Si Si5 0.097806 0.917760 0.211150
Si Si6 0.434281 0.250000 0.750000
O O1 0.904549 0.194159 0.883314
O O2 0.867111 0.398294 0.864818
O O3 0.790724 0.254391 0.978519
O O4 0.891137 0.301321 0.123882
O O5 0.745501 0.750000 0.250000
O O6 0.808222 0.638208 0.438051
O O7 0.693022 0.575375 0.375124
O O8 0.522759 0.850142 0.195426
O O9 0.592910 0.032423 0.165410
O O10 0.472112 0.043624 0.257253
O O11 0.500000 0.000000 0.000000
O O12 0.133760 0.006869 0.110363
#
# Coordination Sequence:
#
# PCOD8215019 Si02
#       6
#     8   8   8   8   8   4
#     4  10  18  33  58  84 108 154 196 220 285 350
#     4  10  17  32  55  83 108 146 198 235 278 340
#     4  10  18  35  54  83 114 145 184 239 292 341
#     4   9  18  32  57  80 109 152 186 239 296 329
#     4   9  19  35  55  83 114 152 184 230 289 356
#     4  12  18  32  60  82 104 152 186 232 284 344
#
# _framework density 18.339351000000001
#
# number of rings (size 3 to 8) (size 9 to 14) (size 15 to 20)
#    0.000    2.182    6.364    0.000    0.000    0.727 
#    3.273    0.000    0.000   67.636    0.000    0.000 
#    0.000    0.000    0.000    0.000    0.000    0.000 
#
# Total GULP energy -545077.990476 kJ/mol
# GULP energy per Si atom -12388.136147 kJ/mol
# Density = 1.829761 g / cm^3
# Si number density = 18.339351 Si / 1000 Ang^3
#
#
#
# Elastic Constant Matrix: (Units=GPa)
#
#
# Indices 1 2 3 4 5 6 
#
# 1 144.0624 67.3758 45.6937 0.0000 0.0000 0.0000
# 2 67.3758 74.0842 50.3563 0.0000 0.0000 0.0000
# 3 45.6937 50.3563 105.6414 0.0000 0.0000 0.0000
# 4 0.0000 0.0000 0.0000 33.9379 0.0000 0.0000
# 5 0.0000 0.0000 0.0000 0.0000 16.7529 0.0000
# 6 0.0000 0.0000 0.0000 0.0000 0.0000 33.2990
#
#
#
# Elastic Compliance Matrix: (Units=1/GPa)
#
#
# Indices 1 2 3 4 5 6 
#
# 1 0.012079 -0.010997 0.000017 0.000000 0.000000 0.000000
# 2 -0.010997 0.029980 -0.009534 0.000000 0.000000 0.000000
# 3 0.000017 -0.009534 0.014003 0.000000 0.000000 0.000000
# 4 0.000000 0.000000 0.000000 0.029466 0.000000 0.000000
# 5 0.000000 0.000000 0.000000 0.000000 0.059691 0.000000
# 6 0.000000 0.000000 0.000000 0.000000 0.000000 0.030031
#
#
# Mechanical properties :
#
#
# Convention : Reuss Voigt Hill
#
# Bulk Modulus (GPa) = 66.51301 72.29327 69.40314
# Shear Modulus (GPa) = 22.59495 27.48879 25.04187
#
# Velocity S-wave (km/s) = 3.51386 3.87576 3.69924
# Velocity P-wave (km/s) = 7.26702 7.71583 7.49479
#
# Compressibility (1/GPa) = 0.01503465
#
# Stress axis : x y z
#
# Youngs Moduli (GPa) = 82.78753 33.35578 71.41323
#
# Poissons Ratio (x) = 0.36682 -0.00124
# Poissons Ratio (y) = 0.91043 0.68085
# Poissons Ratio (z) = -0.00144 0.31801
#
# Static dielectric constant tensor:
#      x y z
#    x 4.281530 0.000000 0.000000 
#    y 0.000000 3.588360 0.000000 
#    z 0.000000 0.000000 3.509260 
# 
# 
# High freq. dielectric constant tensor:
#      x y z
#    x 1.709160 0.000000 0.000000 
#    y 0.000000 1.684270 0.000000 
#    z 0.000000 0.000000 1.698350 
# 
# From -- ./inp_files/14173.got.cif
#   From: 2010.06.25/outbox.cif.g09.slc.cpg/sg52_8_cif.got.tgz:14173.got - 2010.06.26 19:32:48.
