data_PCOD8215455
_publ_section_title
;
Structure prediction by ZEFSAII (Michael W. Deem and Ramdas Pophale) SiO2 
 PCOD8215455
Probable space group: P N N A
;
_chemical_formula_sum "Si O2"
_cell_formula_units_Z 64
_cell_length_a 10.888004
_cell_length_b 33.750268
_cell_length_c 8.890290
_cell_angle_alpha 90.000000
_cell_angle_beta 90.000000
_cell_angle_gamma 90.000000
_cell_volume 3266.942008
_symmetry_space_group_name_H-M "P N N A"
_symmetry_group_IT_number 52
_symmetry_cell_setting 'orthorhombic'
loop_
_space_group_symop_operation_xyz
x,y,z
1/2-x,-y,z
x,1/2-y,1/2-z
1/2-x,1/2+y,1/2-z
-x,-y,-z
1/2+x,y,-z
-x,1/2+y,1/2+z
1/2+x,1/2-y,1/2+z
loop_
_atom_site_type_symbol
_atom_site_label
_atom_site_fract_x
_atom_site_fract_y
_atom_site_fract_z
Si Si1 0.130186 0.155129 0.502340
Si Si2 0.629319 0.023627 0.670122
Si Si3 0.241100 0.396715 0.249224
Si Si4 0.519801 0.206664 0.743206
Si Si5 0.261743 0.793043 0.758498
Si Si6 0.379201 0.518754 0.813247
Si Si7 0.479183 0.899166 0.747683
Si Si8 0.370312 0.653141 0.497070
O O1 0.222105 0.134328 0.385614
O O2 0.211395 0.179709 0.616968
O O3 0.043106 0.185782 0.415999
O O4 0.048849 0.123346 0.592073
O O5 0.642783 0.068079 0.731360
O O6 0.625869 0.023621 0.491091
O O7 0.750000 0.000000 0.727353
O O8 0.499013 0.007241 0.733313
O O9 0.379570 0.413047 0.240383
O O10 0.221294 0.376545 0.411068
O O11 0.587906 0.250000 0.750000
O O12 0.379512 0.215807 0.761159
O O13 0.551801 0.176906 0.876485
O O14 0.329956 0.750000 0.750000
O O15 0.293678 0.814830 0.912175
O O16 0.250000 0.500000 0.754494
O O17 0.393379 0.562030 0.738757
O O18 0.458607 0.871288 0.891440
#
# Coordination Sequence:
#
# PCOD8215455 Si02
#       8
#     8   8   8   8   8   8   8   8
#     4  10  21  34  57  89 110 147 195 241 290 345
#     4  10  19  36  60  86 116 153 196 240 296 347
#     4  11  21  38  60  85 118 157 192 244 295 348
#     4  10  20  37  58  83 114 150 192 238 285 346
#     4  10  20  37  58  81 114 153 191 237 287 345
#     4  10  21  36  58  90 117 150 197 247 292 349
#     4  11  21  39  59  84 121 154 194 245 293 347
#     4  10  23  38  55  86 119 155 190 238 294 350
#
# _framework density 19.590187
#
# number of rings (size 3 to 8) (size 9 to 14) (size 15 to 20)
#    0.000    1.750    2.500    2.250    0.000    0.000 
#   11.250    1.250    0.000   12.000    0.000    0.000 
#    0.000    0.000    0.000    0.000    0.000    0.000 
#
# Total GULP energy -793482.252791 kJ/mol
# GULP energy per Si atom -12398.160200 kJ/mol
# Density = 1.954560 g / cm^3
# Si number density = 19.590187 Si / 1000 Ang^3
#
#
#
# Elastic Constant Matrix: (Units=GPa)
#
#
# Indices 1 2 3 4 5 6 
#
# 1 109.9529 44.2676 20.0253 0.0000 0.0000 0.0000
# 2 44.2676 130.9864 28.6723 0.0000 0.0000 0.0000
# 3 20.0253 28.6723 77.3175 0.0000 0.0000 0.0000
# 4 0.0000 0.0000 0.0000 30.3272 0.0000 0.0000
# 5 0.0000 0.0000 0.0000 0.0000 12.0582 0.0000
# 6 0.0000 0.0000 0.0000 0.0000 0.0000 31.7652
#
#
#
# Elastic Compliance Matrix: (Units=1/GPa)
#
#
# Indices 1 2 3 4 5 6 
#
# 1 0.010696 -0.003274 -0.001556 0.000000 0.000000 0.000000
# 2 -0.003274 0.009311 -0.002605 0.000000 0.000000 0.000000
# 3 -0.001556 -0.002605 0.014303 0.000000 0.000000 0.000000
# 4 0.000000 0.000000 0.000000 0.032974 0.000000 0.000000
# 5 0.000000 0.000000 0.000000 0.000000 0.082931 0.000000
# 6 0.000000 0.000000 0.000000 0.000000 0.000000 0.031481
#
#
# Mechanical properties :
#
#
# Convention : Reuss Voigt Hill
#
# Bulk Modulus (GPa) = 51.44124 56.02080 53.73102
# Shear Modulus (GPa) = 24.62488 29.84956 27.23722
#
# Velocity S-wave (km/s) = 3.54927 3.90769 3.73279
# Velocity P-wave (km/s) = 6.56598 7.00132 6.78714
#
# Compressibility (1/GPa) = 0.01943966
#
# Stress axis : x y z
#
# Youngs Moduli (GPa) = 93.48874 107.39811 69.91678
#
# Poissons Ratio (x) = 0.35165 0.10880
# Poissons Ratio (y) = 0.30611 0.18213
# Poissons Ratio (z) = 0.14548 0.27976
#
# Static dielectric constant tensor:
#      x y z
#    x 3.457120 0.000000 0.000000 
#    y 0.000000 3.797010 0.000000 
#    z 0.000000 0.000000 3.406310 
# 
# 
# High freq. dielectric constant tensor:
#      x y z
#    x 1.754100 0.000000 0.000000 
#    y 0.000000 1.783700 0.000000 
#    z 0.000000 0.000000 1.753200 
# 
# From -- ./inp_files/9122.got.cif
#   From: 2010.06.25/outbox.cif.g09.slc.cpg/sg52_5_cif.got.tgz:9122.got - 2010.06.26 19:32:48.
