data_PCOD8215892
_publ_section_title
;
Structure prediction by ZEFSAII (Michael W. Deem and Ramdas Pophale) SiO2 
 PCOD8215892
Probable space group: P N N A
;
_chemical_formula_sum "Si O2"
_cell_formula_units_Z 40
_cell_length_a 9.317146
_cell_length_b 14.879200
_cell_length_c 14.352478
_cell_angle_alpha 90.000000
_cell_angle_beta 90.000000
_cell_angle_gamma 90.000000
_cell_volume 1989.708120
_symmetry_space_group_name_H-M "P N N A"
_symmetry_group_IT_number 52
_symmetry_cell_setting 'orthorhombic'
loop_
_space_group_symop_operation_xyz
x,y,z
1/2-x,-y,z
x,1/2-y,1/2-z
1/2-x,1/2+y,1/2-z
-x,-y,-z
1/2+x,y,-z
-x,1/2+y,1/2+z
1/2+x,1/2-y,1/2+z
loop_
_atom_site_type_symbol
_atom_site_label
_atom_site_fract_x
_atom_site_fract_y
_atom_site_fract_z
Si Si1 0.923450 0.750000 0.250000
Si Si2 0.250000 0.000000 0.477769
Si Si3 0.306797 0.097140 0.749962
Si Si4 0.510186 0.885918 0.419109
Si Si5 0.003280 0.783320 0.053317
Si Si6 0.723311 0.599678 0.457157
O O1 0.826132 0.837099 0.262074
O O2 0.024429 0.747362 0.158496
O O3 0.358769 0.939213 0.416297
O O4 0.146484 0.938418 0.539252
O O5 0.441653 0.131604 0.687680
O O6 0.359024 0.094143 0.857565
O O7 0.250000 0.000000 0.717482
O O8 0.487647 0.795112 0.477269
O O9 0.867168 0.846292 0.055717
O O10 0.135687 0.846841 0.033314
O O11 0.750000 0.500000 0.496323
#
# Coordination Sequence:
#
# PCOD8215892 Si02
#       6
#     4   4   8   8   8   8
#     4  10  22  38  60  92 120 168 210 254 312 382
#     4  10  22  32  56  88 132 162 194 236 312 372
#     4  10  20  38  65  92 119 164 209 251 305 380
#     4  11  20  37  59  93 128 163 195 252 311 375
#     4  11  22  39  63  87 122 163 204 260 307 371
#     4  10  22  41  67  89 118 163 215 257 306 363
#
# _framework density 20.103449999999999
#
# number of rings (size 3 to 8) (size 9 to 14) (size 15 to 20)
#    0.000    1.600    1.000    5.400    2.800    0.000 
#    0.000    4.000    4.400    0.000    0.000    0.000 
#    0.000    0.000    0.000    0.000    0.000    0.000 
#
# Total GULP energy -495852.572930 kJ/mol
# GULP energy per Si atom -12396.314323 kJ/mol
# Density = 2.005769 g / cm^3
# Si number density = 20.103450 Si / 1000 Ang^3
#
#
#
# Elastic Constant Matrix: (Units=GPa)
#
#
# Indices 1 2 3 4 5 6 
#
# 1 105.6210 38.1305 72.6539 0.0000 0.0000 0.0000
# 2 38.1305 141.5836 69.4857 0.0000 0.0000 0.0000
# 3 72.6539 69.4857 120.2986 0.0000 0.0000 0.0000
# 4 0.0000 0.0000 0.0000 26.9571 0.0000 0.0000
# 5 0.0000 0.0000 0.0000 0.0000 43.1746 0.0000
# 6 0.0000 0.0000 0.0000 0.0000 0.0000 34.9154
#
#
#
# Elastic Compliance Matrix: (Units=1/GPa)
#
#
# Indices 1 2 3 4 5 6 
#
# 1 0.016235 0.000614 -0.010159 0.000000 0.000000 0.000000
# 2 0.000614 0.009880 -0.006078 0.000000 0.000000 0.000000
# 3 -0.010159 -0.006078 0.017959 0.000000 0.000000 0.000000
# 4 0.000000 0.000000 0.000000 0.037096 0.000000 0.000000
# 5 0.000000 0.000000 0.000000 0.000000 0.023162 0.000000
# 6 0.000000 0.000000 0.000000 0.000000 0.000000 0.028641
#
#
# Mechanical properties :
#
#
# Convention : Reuss Voigt Hill
#
# Bulk Modulus (GPa) = 77.95856 80.89371 79.42614
# Shear Modulus (GPa) = 29.67450 33.49162 31.58306
#
# Velocity S-wave (km/s) = 3.84616 4.08605 3.96792
# Velocity P-wave (km/s) = 7.65420 7.91120 7.78376
#
# Compressibility (1/GPa) = 0.01282733
#
# Stress axis : x y z
#
# Youngs Moduli (GPa) = 61.59689 101.20967 55.68266
#
# Poissons Ratio (x) = -0.06212 0.56570
# Poissons Ratio (y) = -0.03780 0.33842
# Poissons Ratio (z) = 0.62578 0.61513
#
# Static dielectric constant tensor:
#      x y z
#    x 3.512020 0.000000 0.000000 
#    y 0.000000 3.863910 0.000000 
#    z 0.000000 0.000000 3.992150 
# 
# 
# High freq. dielectric constant tensor:
#      x y z
#    x 1.766380 0.000000 0.000000 
#    y 0.000000 1.804640 0.000000 
#    z 0.000000 0.000000 1.783090 
# 
# From -- ./inp_files/16720.got.cif
#   From: 2010.06.25/outbox.cif.g09.slc.cpg/sg52_9_cif.got.tgz:16720.got - 2010.06.26 19:32:48.
