data_PCOD8215122
_publ_section_title
;
Structure prediction by ZEFSAII (Michael W. Deem and Ramdas Pophale) SiO2 
 PCOD8215122
Probable space group: P N N A
;
_chemical_formula_sum "Si O2"
_cell_formula_units_Z 48
_cell_length_a 19.046866
_cell_length_b 15.983703
_cell_length_c 7.869114
_cell_angle_alpha 90.000000
_cell_angle_beta 90.000000
_cell_angle_gamma 90.000000
_cell_volume 2395.668732
_symmetry_space_group_name_H-M "P N N A"
_symmetry_group_IT_number 52
_symmetry_cell_setting 'orthorhombic'
loop_
_space_group_symop_operation_xyz
x,y,z
1/2-x,-y,z
x,1/2-y,1/2-z
1/2-x,1/2+y,1/2-z
-x,-y,-z
1/2+x,y,-z
-x,1/2+y,1/2+z
1/2+x,1/2-y,1/2+z
loop_
_atom_site_type_symbol
_atom_site_label
_atom_site_fract_x
_atom_site_fract_y
_atom_site_fract_z
Si Si1 0.149278 0.399647 0.444512
Si Si2 0.619356 0.561666 0.750509
Si Si3 0.750000 0.000000 0.175714
Si Si4 0.029095 0.052492 0.846321
Si Si5 0.779472 0.308286 0.597510
Si Si6 0.123481 0.924038 0.644410
Si Si7 0.156505 0.750000 0.750000
O O1 0.124152 0.462968 0.296747
O O2 0.209290 0.435944 0.561902
O O3 0.083713 0.379899 0.572020
O O4 0.194376 0.321384 0.373085
O O5 0.539069 0.596740 0.733850
O O6 0.673008 0.607909 0.622754
O O7 0.636460 0.573075 0.945067
O O8 0.799745 0.056414 0.289031
O O9 0.065906 0.990555 0.709637
O O10 0.000000 0.000000 0.000000
O O11 0.805840 0.250000 0.750000
O O12 0.794623 0.267421 0.414468
O O13 0.105870 0.829522 0.708397
#
# Coordination Sequence:
#
# PCOD8215122 Si02
#       7
#     8   8   4   8   8   8   4
#     4  10  19  38  60  86 119 158 204 261 302 361
#     4  11  21  38  65  91 120 160 218 263 300 376
#     4  10  18  32  56  86 114 152 206 242 310 346
#     4   9  20  39  64  83 119 158 211 254 310 357
#     4  12  23  38  62  92 125 165 204 259 318 375
#     4  11  22  34  61  95 119 165 203 262 309 377
#     4  12  22  38  58  90 132 158 208 250 326 378
#
# _framework density 20.036161
#
# number of rings (size 3 to 8) (size 9 to 14) (size 15 to 20)
#    0.000    1.333    5.000    2.500    2.333    0.000 
#    0.000    0.000   18.333    0.000    0.000    0.000 
#    0.000    0.000    0.000    0.000    0.000    0.000 
#
# Total GULP energy -594628.416447 kJ/mol
# GULP energy per Si atom -12388.092009 kJ/mol
# Density = 1.999056 g / cm^3
# Si number density = 20.036161 Si / 1000 Ang^3
#
#
#
# Elastic Constant Matrix: (Units=GPa)
#
#
# Indices 1 2 3 4 5 6 
#
# 1 105.2927 6.6376 22.0733 0.0000 0.0000 0.0000
# 2 6.6376 45.4807 17.2151 0.0000 0.0000 0.0000
# 3 22.0733 17.2151 120.9304 0.0000 0.0000 0.0000
# 4 0.0000 0.0000 0.0000 16.6413 0.0000 0.0000
# 5 0.0000 0.0000 0.0000 0.0000 6.4736 0.0000
# 6 0.0000 0.0000 0.0000 0.0000 0.0000 18.2949
#
#
#
# Elastic Compliance Matrix: (Units=1/GPa)
#
#
# Indices 1 2 3 4 5 6 
#
# 1 0.009903 -0.000804 -0.001693 0.000000 0.000000 0.000000
# 2 -0.000804 0.023305 -0.003171 0.000000 0.000000 0.000000
# 3 -0.001693 -0.003171 0.009030 0.000000 0.000000 0.000000
# 4 0.000000 0.000000 0.000000 0.060091 0.000000 0.000000
# 5 0.000000 0.000000 0.000000 0.000000 0.154473 0.000000
# 6 0.000000 0.000000 0.000000 0.000000 0.000000 0.054660
#
#
# Mechanical properties :
#
#
# Convention : Reuss Voigt Hill
#
# Bulk Modulus (GPa) = 32.36139 40.39511 36.37825
# Shear Modulus (GPa) = 15.01056 23.33382 19.17219
#
# Velocity S-wave (km/s) = 2.74007 3.41630 3.09670
# Velocity P-wave (km/s) = 5.11832 5.98050 5.56613
#
# Compressibility (1/GPa) = 0.03090102
#
# Stress axis : x y z
#
# Youngs Moduli (GPa) = 100.97969 42.90941 110.74657
#
# Poissons Ratio (x) = 0.03452 0.18750
# Poissons Ratio (y) = 0.08123 0.35115
# Poissons Ratio (z) = 0.17097 0.13606
#
# Static dielectric constant tensor:
#      x y z
#    x 2.170200 0.000000 0.000000 
#    y 0.000000 2.976770 0.000000 
#    z 0.000000 0.000000 3.743340 
# 
# 
# High freq. dielectric constant tensor:
#      x y z
#    x 1.784850 0.000000 0.000000 
#    y 0.000000 1.747970 0.000000 
#    z 0.000000 0.000000 1.797480 
# 
# From -- ./inp_files/12141.got.cif
#   From: 2010.06.25/outbox.cif.g09.slc.cpg/sg52_7_cif.got.tgz:12141.got - 2010.06.26 19:32:48.
