data_PCOD8215264
_publ_section_title
;
Structure prediction by ZEFSAII (Michael W. Deem and Ramdas Pophale) SiO2 
 PCOD8215264
Probable space group: P N N A
;
_chemical_formula_sum "Si O2"
_cell_formula_units_Z 60
_cell_length_a 5.466038
_cell_length_b 23.262905
_cell_length_c 27.277416
_cell_angle_alpha 90.000000
_cell_angle_beta 90.000000
_cell_angle_gamma 90.000000
_cell_volume 3468.485001
_symmetry_space_group_name_H-M "P N N A"
_symmetry_group_IT_number 52
_symmetry_cell_setting 'orthorhombic'
loop_
_space_group_symop_operation_xyz
x,y,z
1/2-x,-y,z
x,1/2-y,1/2-z
1/2-x,1/2+y,1/2-z
-x,-y,-z
1/2+x,y,-z
-x,1/2+y,1/2+z
1/2+x,1/2-y,1/2+z
loop_
_atom_site_type_symbol
_atom_site_label
_atom_site_fract_x
_atom_site_fract_y
_atom_site_fract_z
Si Si1 0.750000 0.500000 0.837625
Si Si2 0.831694 0.178943 0.624318
Si Si3 0.005785 0.271380 0.694092
Si Si4 0.480952 0.889118 0.305188
Si Si5 0.296391 0.209436 0.482962
Si Si6 0.496405 0.807651 0.218059
Si Si7 0.853401 0.571925 0.122398
Si Si8 0.652712 0.580511 0.021197
O O1 0.707719 0.442963 0.804977
O O2 0.505505 0.512108 0.870482
O O3 0.013968 0.219069 0.655640
O O4 0.606204 0.162640 0.659429
O O5 0.738545 0.209125 0.574994
O O6 0.960674 0.121264 0.605398
O O7 0.007465 0.250000 0.750000
O O8 0.754544 0.308202 0.685839
O O9 0.255390 0.307971 0.685075
O O10 0.505194 0.865188 0.250653
O O11 0.740415 0.910902 0.325116
O O12 0.559690 0.241142 0.492510
O O13 0.347457 0.147994 0.508779
O O14 0.496244 0.750000 0.250000
O O15 0.651614 0.568059 0.079514
O O16 0.401336 0.551882 0.000809
#
# Coordination Sequence:
#
# PCOD8215264 Si02
#       8
#     4   8   8   8   8   8   8   8
#     4  10  26  36  48  76  86 126 180 204 268 312
#     4  11  20  30  55  70  98 129 155 213 264 299
#     4  10  19  32  45  80  97 118 154 192 257 312
#     4  11  21  36  53  69  96 130 158 214 260 315
#     4  10  19  31  45  72  94 123 169 199 249 307
#     4  10  19  33  51  73 101 117 150 195 253 307
#     4  11  21  35  53  65  91 124 164 213 261 304
#     4  10  19  34  50  68  88 113 163 209 258 306
#
# _framework density 17.298618000000001
#
# number of rings (size 3 to 8) (size 9 to 14) (size 15 to 20)
#    0.000    1.600    5.333    3.600    3.733    0.000 
#    0.000    0.667    0.000    0.000    0.000    0.000 
#    0.000    0.000    0.000    0.000    0.000    0.000 
#
# Total GULP energy -743604.919797 kJ/mol
# GULP energy per Si atom -12393.415330 kJ/mol
# Density = 1.725925 g / cm^3
# Si number density = 17.298618 Si / 1000 Ang^3
#
#
#
# Elastic Constant Matrix: (Units=GPa)
#
#
# Indices 1 2 3 4 5 6 
#
# 1 137.0091 14.9983 12.2840 0.0000 0.0000 0.0000
# 2 14.9983 39.9363 30.6454 0.0000 0.0000 0.0000
# 3 12.2840 30.6454 45.6786 0.0000 0.0000 0.0000
# 4 0.0000 0.0000 0.0000 14.4048 0.0000 0.0000
# 5 0.0000 0.0000 0.0000 0.0000 19.1148 0.0000
# 6 0.0000 0.0000 0.0000 0.0000 0.0000 17.1585
#
#
#
# Elastic Compliance Matrix: (Units=1/GPa)
#
#
# Indices 1 2 3 4 5 6 
#
# 1 0.007613 -0.002655 -0.000266 0.000000 0.000000 0.000000
# 2 -0.002655 0.052535 -0.034531 0.000000 0.000000 0.000000
# 3 -0.000266 -0.034531 0.045131 0.000000 0.000000 0.000000
# 4 0.000000 0.000000 0.000000 0.069421 0.000000 0.000000
# 5 0.000000 0.000000 0.000000 0.000000 0.052315 0.000000
# 6 0.000000 0.000000 0.000000 0.000000 0.000000 0.058280
#
#
# Mechanical properties :
#
#
# Convention : Reuss Voigt Hill
#
# Bulk Modulus (GPa) = 32.92317 37.60884 35.26600
# Shear Modulus (GPa) = 13.50166 21.11537 17.30851
#
# Velocity S-wave (km/s) = 2.79678 3.49756 3.16661
# Velocity P-wave (km/s) = 5.43166 6.17241 5.81384
#
# Compressibility (1/GPa) = 0.03037375
#
# Stress axis : x y z
#
# Youngs Moduli (GPa) = 131.34932 19.03499 22.15796
#
# Poissons Ratio (x) = 0.05054 0.00590
# Poissons Ratio (y) = 0.34873 0.76514
# Poissons Ratio (z) = 0.03496 0.65730
#
# Static dielectric constant tensor:
#      x y z
#    x 4.421880 0.000000 0.000000 
#    y 0.000000 2.830870 0.000000 
#    z 0.000000 0.000000 2.945230 
# 
# 
# High freq. dielectric constant tensor:
#      x y z
#    x 1.705900 0.000000 0.000000 
#    y 0.000000 1.600940 0.000000 
#    z 0.000000 0.000000 1.627250 
# 
# From -- ./inp_files/43932.got.cif
#   From: 2010.06.25/outbox.cif.g09.slc.cpg/sg52_22_cif.got.tgz:43932.got - 2010.06.26 19:32:48.
