data_PCOD8215556
_publ_section_title
;
Structure prediction by ZEFSAII (Michael W. Deem and Ramdas Pophale) SiO2 
 PCOD8215556
Probable space group: P N N A
;
_chemical_formula_sum "Si O2"
_cell_formula_units_Z 40
_cell_length_a 9.654835
_cell_length_b 12.259173
_cell_length_c 14.657479
_cell_angle_alpha 90.000000
_cell_angle_beta 90.000000
_cell_angle_gamma 90.000000
_cell_volume 1734.863503
_symmetry_space_group_name_H-M "P N N A"
_symmetry_group_IT_number 52
_symmetry_cell_setting 'orthorhombic'
loop_
_space_group_symop_operation_xyz
x,y,z
1/2-x,-y,z
x,1/2-y,1/2-z
1/2-x,1/2+y,1/2-z
-x,-y,-z
1/2+x,y,-z
-x,1/2+y,1/2+z
1/2+x,1/2-y,1/2+z
loop_
_atom_site_type_symbol
_atom_site_label
_atom_site_fract_x
_atom_site_fract_y
_atom_site_fract_z
Si Si1 0.384432 0.305696 0.890352
Si Si2 0.464115 0.655356 0.681057
Si Si3 0.867829 0.761069 0.497067
Si Si4 0.780180 0.839954 0.821043
Si Si5 0.936806 0.418451 0.294231
O O1 0.244126 0.334857 0.944225
O O2 0.390478 0.384394 0.805415
O O3 0.383474 0.174933 0.865103
O O4 0.516162 0.334325 0.953682
O O5 0.405616 0.750000 0.750000
O O6 0.447563 0.686242 0.575897
O O7 0.624015 0.631995 0.706348
O O8 0.378126 0.541825 0.692209
O O9 0.783742 0.693867 0.573076
O O10 0.838518 0.750000 0.750000
O O11 0.895445 0.933897 0.806730
#
# Coordination Sequence:
#
# PCOD8215556 Si02
#       5
#     8   8   8   8   8
#     4  10  22  41  71  94 132 172 217 277 334 393
#     4  11  25  40  65  96 133 176 224 271 321 401
#     4  11  21  42  66 100 131 166 224 274 326 396
#     4  10  19  40  69  94 129 172 217 272 333 393
#     4  10  21  43  66  94 134 175 213 273 344 383
#
# _framework density 23.056567999999999
#
# number of rings (size 3 to 8) (size 9 to 14) (size 15 to 20)
#    0.000    1.600    6.000    0.600    2.800    4.000 
#    7.200    1.000    8.800    0.000    0.000    0.000 
#    0.000    0.000    0.000    0.000    0.000    0.000 
#
# Total GULP energy -495670.553309 kJ/mol
# GULP energy per Si atom -12391.763833 kJ/mol
# Density = 2.300409 g / cm^3
# Si number density = 23.056568 Si / 1000 Ang^3
#
#
#
# Elastic Constant Matrix: (Units=GPa)
#
#
# Indices 1 2 3 4 5 6 
#
# 1 57.4391 -11.1079 22.4717 0.0000 0.0000 0.0000
# 2 -11.1079 52.5837 24.3736 0.0000 0.0000 0.0000
# 3 22.4717 24.3736 142.6990 0.0000 0.0000 0.0000
# 4 0.0000 0.0000 0.0000 15.3957 0.0000 0.0000
# 5 0.0000 0.0000 0.0000 0.0000 7.5752 0.0000
# 6 0.0000 0.0000 0.0000 0.0000 0.0000 10.7893
#
#
#
# Elastic Compliance Matrix: (Units=1/GPa)
#
#
# Indices 1 2 3 4 5 6 
#
# 1 0.020289 0.006263 -0.004265 0.000000 0.000000 0.000000
# 2 0.006263 0.022586 -0.004844 0.000000 0.000000 0.000000
# 3 -0.004265 -0.004844 0.008507 0.000000 0.000000 0.000000
# 4 0.000000 0.000000 0.000000 0.064953 0.000000 0.000000
# 5 0.000000 0.000000 0.000000 0.000000 0.132010 0.000000
# 6 0.000000 0.000000 0.000000 0.000000 0.000000 0.092684
#
#
# Mechanical properties :
#
#
# Convention : Reuss Voigt Hill
#
# Bulk Modulus (GPa) = 21.88673 36.02185 28.95429
# Shear Modulus (GPa) = 13.81401 21.21765 17.51583
#
# Velocity S-wave (km/s) = 2.45038 3.03684 2.75924
# Velocity P-wave (km/s) = 4.18558 5.28713 4.76827
#
# Compressibility (1/GPa) = 0.04568978
#
# Stress axis : x y z
#
# Youngs Moduli (GPa) = 49.28681 44.27608 117.55396
#
# Poissons Ratio (x) = -0.27729 0.50135
# Poissons Ratio (y) = -0.30867 0.56943
# Poissons Ratio (z) = 0.21020 0.21447
#
# Static dielectric constant tensor:
#      x y z
#    x 4.382390 0.000000 0.000000 
#    y 0.000000 3.757370 0.000000 
#    z 0.000000 0.000000 4.171890 
# 
# 
# High freq. dielectric constant tensor:
#      x y z
#    x 1.938330 0.000000 0.000000 
#    y 0.000000 1.866590 0.000000 
#    z 0.000000 0.000000 1.917630 
# 
# From -- ./inp_files/25839.got.cif
#   From: 2010.06.25/outbox.cif.g09.slc.cpg/sg52_13_cif.got.tgz:25839.got - 2010.06.26 19:32:48.
