data_PCOD8215710
_publ_section_title
;
Structure prediction by ZEFSAII (Michael W. Deem and Ramdas Pophale) SiO2 
 PCOD8215710
Probable space group: P N N A
;
_chemical_formula_sum "Si O2"
_cell_formula_units_Z 36
_cell_length_a 8.449055
_cell_length_b 13.770140
_cell_length_c 14.325754
_cell_angle_alpha 90.000000
_cell_angle_beta 90.000000
_cell_angle_gamma 90.000000
_cell_volume 1666.725125
_symmetry_space_group_name_H-M "P N N A"
_symmetry_group_IT_number 52
_symmetry_cell_setting 'orthorhombic'
loop_
_space_group_symop_operation_xyz
x,y,z
1/2-x,-y,z
x,1/2-y,1/2-z
1/2-x,1/2+y,1/2-z
-x,-y,-z
1/2+x,y,-z
-x,1/2+y,1/2+z
1/2+x,1/2-y,1/2+z
loop_
_atom_site_type_symbol
_atom_site_label
_atom_site_fract_x
_atom_site_fract_y
_atom_site_fract_z
Si Si1 0.199151 0.791759 0.889977
Si Si2 0.724524 0.250000 0.750000
Si Si3 0.943365 0.265389 0.589333
Si Si4 0.442136 0.379350 0.784941
Si Si5 0.571018 0.535462 0.904003
O O1 0.384916 0.811822 0.897186
O O2 0.175532 0.682801 0.850634
O O3 0.119769 0.872362 0.821703
O O4 0.120450 0.801654 0.990623
O O5 0.830144 0.303917 0.671585
O O6 0.615719 0.331779 0.797064
O O7 0.945025 0.149910 0.600658
O O8 0.460972 0.489427 0.821086
O O9 0.750000 0.500000 0.894215
O O10 0.500000 0.500000 0.000000
#
# Coordination Sequence:
#
# PCOD8215710 Si02
#       5
#     8   4   8   8   8
#     4  10  21  36  58  86 123 164 207 250 302 375
#     4  10  20  36  56  82 122 164 218 250 296 374
#     4  12  21  37  62  91 120 165 211 254 307 362
#     4  10  21  38  55  87 129 164 200 250 316 372
#     4  12  23  37  59  95 132 160 192 261 319 362
#
# _framework density 21.599243000000001
#
# number of rings (size 3 to 8) (size 9 to 14) (size 15 to 20)
#    0.000    1.333    4.444    5.333    0.000    0.000 
#    0.000    0.000    0.000    1.333    0.000    0.000 
#    0.000    1.778    0.000    0.000    0.000    0.000 
#
# Total GULP energy -446377.075224 kJ/mol
# GULP energy per Si atom -12399.363201 kJ/mol
# Density = 2.155008 g / cm^3
# Si number density = 21.599243 Si / 1000 Ang^3
#
#
#
# Elastic Constant Matrix: (Units=GPa)
#
#
# Indices 1 2 3 4 5 6 
#
# 1 131.8327 -7.6859 48.8431 0.0000 0.0000 0.0000
# 2 -7.6859 37.8123 -2.9491 0.0000 0.0000 0.0000
# 3 48.8431 -2.9491 143.4035 0.0000 0.0000 0.0000
# 4 0.0000 0.0000 0.0000 26.8874 0.0000 0.0000
# 5 0.0000 0.0000 0.0000 0.0000 41.4777 0.0000
# 6 0.0000 0.0000 0.0000 0.0000 0.0000 12.9670
#
#
#
# Elastic Compliance Matrix: (Units=1/GPa)
#
#
# Indices 1 2 3 4 5 6 
#
# 1 0.008771 0.001552 -0.002955 0.000000 0.000000 0.000000
# 2 0.001552 0.026764 0.000022 0.000000 0.000000 0.000000
# 3 -0.002955 0.000022 0.007980 0.000000 0.000000 0.000000
# 4 0.000000 0.000000 0.000000 0.037192 0.000000 0.000000
# 5 0.000000 0.000000 0.000000 0.000000 0.024109 0.000000
# 6 0.000000 0.000000 0.000000 0.000000 0.000000 0.077119
#
#
# Mechanical properties :
#
#
# Convention : Reuss Voigt Hill
#
# Bulk Modulus (GPa) = 24.53867 43.27387 33.90627
# Shear Modulus (GPa) = 25.21664 34.58911 29.90287
#
# Velocity S-wave (km/s) = 3.42054 4.00610 3.72484
# Velocity P-wave (km/s) = 5.19478 6.44025 5.85075
#
# Compressibility (1/GPa) = 0.04075200
#
# Stress axis : x y z
#
# Youngs Moduli (GPa) = 114.01424 37.36409 125.30715
#
# Poissons Ratio (x) = -0.05800 0.37033
# Poissons Ratio (y) = -0.17698 -0.00272
# Poissons Ratio (z) = 0.33696 -0.00081
#
# Static dielectric constant tensor:
#      x y z
#    x 3.996070 0.000000 0.000000 
#    y 0.000000 3.550300 0.000000 
#    z 0.000000 0.000000 4.018850 
# 
# 
# High freq. dielectric constant tensor:
#      x y z
#    x 1.871200 0.000000 0.000000 
#    y 0.000000 1.798690 0.000000 
#    z 0.000000 0.000000 1.860530 
# 
# From -- ./inp_files/24328.got.cif
#   From: 2010.06.25/outbox.cif.g09.slc.cpg/sg52_13_cif.got.tgz:24328.got - 2010.06.26 19:32:48.
