data_PCOD8215248
_publ_section_title
;
Structure prediction by ZEFSAII (Michael W. Deem and Ramdas Pophale) SiO2 
 PCOD8215248
Probable space group: P N N A
;
_chemical_formula_sum "Si O2"
_cell_formula_units_Z 52
_cell_length_a 13.915958
_cell_length_b 9.825866
_cell_length_c 19.221250
_cell_angle_alpha 90.000000
_cell_angle_beta 90.000000
_cell_angle_gamma 90.000000
_cell_volume 2628.243348
_symmetry_space_group_name_H-M "P N N A"
_symmetry_group_IT_number 52
_symmetry_cell_setting 'orthorhombic'
loop_
_space_group_symop_operation_xyz
x,y,z
1/2-x,-y,z
x,1/2-y,1/2-z
1/2-x,1/2+y,1/2-z
-x,-y,-z
1/2+x,y,-z
-x,1/2+y,1/2+z
1/2+x,1/2-y,1/2+z
loop_
_atom_site_type_symbol
_atom_site_label
_atom_site_fract_x
_atom_site_fract_y
_atom_site_fract_z
Si Si1 0.858193 0.491088 0.172809
Si Si2 0.589192 0.750000 0.750000
Si Si3 0.989022 0.263011 0.328207
Si Si4 0.855269 0.659490 0.931042
Si Si5 0.432646 0.560651 0.684499
Si Si6 0.353200 0.344147 0.106161
Si Si7 0.940104 0.782562 0.419782
O O1 0.750000 0.500000 0.143635
O O2 0.856544 0.544218 0.252598
O O3 0.928079 0.584637 0.127732
O O4 0.898718 0.339055 0.163751
O O5 0.527306 0.629981 0.715919
O O6 0.652129 0.678677 0.810313
O O7 0.028784 0.250000 0.250000
O O8 0.077427 0.237604 0.378159
O O9 0.953935 0.413402 0.346944
O O10 0.746129 0.713851 0.924750
O O11 0.862297 0.501193 0.914263
O O12 0.888439 0.695945 0.008056
O O13 0.393350 0.653844 0.621108
O O14 0.444186 0.265057 0.071930
#
# Coordination Sequence:
#
# PCOD8215248 Si02
#       7
#     8   4   8   8   8   8   8
#     4  11  22  38  66  92 120 166 213 259 309 377
#     4  10  18  42  64  86 120 172 206 264 314 372
#     4  10  22  39  59  94 127 156 208 270 312 361
#     4  11  23  37  63  94 125 165 210 258 313 380
#     4  10  20  40  64  88 128 165 202 261 325 361
#     4  10  21  38  63  94 118 168 214 252 313 375
#     4  11  22  40  63  88 132 165 204 257 316 380
#
# _framework density 19.785077999999999
#
# number of rings (size 3 to 8) (size 9 to 14) (size 15 to 20)
#    0.000    1.538    4.615    1.385    3.231    4.308 
#    0.000    2.308    0.000    3.692    0.000    0.000 
#    0.000    0.000    0.000    0.000    0.000    0.000 
#
# Total GULP energy -644718.753001 kJ/mol
# GULP energy per Si atom -12398.437558 kJ/mol
# Density = 1.974005 g / cm^3
# Si number density = 19.785078 Si / 1000 Ang^3
#
#
#
# Elastic Constant Matrix: (Units=GPa)
#
#
# Indices 1 2 3 4 5 6 
#
# 1 119.3619 37.6574 53.2009 0.0000 0.0000 0.0000
# 2 37.6574 118.5160 60.8570 0.0000 0.0000 0.0000
# 3 53.2009 60.8570 138.1427 0.0000 0.0000 0.0000
# 4 0.0000 0.0000 0.0000 13.3989 0.0000 0.0000
# 5 0.0000 0.0000 0.0000 0.0000 17.6362 0.0000
# 6 0.0000 0.0000 0.0000 0.0000 0.0000 -9.1875
#
#
#
# Elastic Compliance Matrix: (Units=1/GPa)
#
#
# Indices 1 2 3 4 5 6 
#
# 1 0.010345 -0.001604 -0.003277 0.000000 0.000000 0.000000
# 2 -0.001604 0.011153 -0.004296 0.000000 0.000000 0.000000
# 3 -0.003277 -0.004296 0.010393 0.000000 0.000000 0.000000
# 4 0.000000 0.000000 0.000000 0.074633 0.000000 0.000000
# 5 0.000000 0.000000 0.000000 0.000000 0.056702 0.000000
# 6 0.000000 0.000000 0.000000 0.000000 0.000000 -0.108843
#
#
# Mechanical properties :
#
#
# Convention : Reuss Voigt Hill
#
# Bulk Modulus (GPa) = 73.86993 75.49458 74.68225
# Shear Modulus (GPa) = 64.72592 19.32319 42.02456
#
# Velocity S-wave (km/s) = 5.72587 3.12854 4.61374
# Velocity P-wave (km/s) = 9.00729 7.16174 8.13701
#
# Compressibility (1/GPa) = 0.01353731
#
# Stress axis : x y z
#
# Youngs Moduli (GPa) = 96.66827 89.66099 96.21505
#
# Poissons Ratio (x) = 0.14382 0.31532
# Poissons Ratio (y) = 0.15506 0.41330
# Poissons Ratio (z) = 0.31680 0.38515
#
# Static dielectric constant tensor:
#      x y z
#    x 3.665120 0.000000 0.000000 
#    y 0.000000 3.712380 0.000000 
#    z 0.000000 0.000000 3.798960 
# 
# 
# High freq. dielectric constant tensor:
#      x y z
#    x 1.762520 0.000000 0.000000 
#    y 0.000000 1.766950 0.000000 
#    z 0.000000 0.000000 1.771790 
# 
# From -- ./inp_files/37247.got.cif
#   From: 2010.06.25/outbox.cif.g09.slc.cpg/sg52_19_cif.got.tgz:37247.got - 2010.06.26 19:32:48.
