data_PCOD8215820
_publ_section_title
;
Structure prediction by ZEFSAII (Michael W. Deem and Ramdas Pophale) SiO2 
 PCOD8215820
Probable space group: P N N A
;
_chemical_formula_sum "Si O2"
_cell_formula_units_Z 52
_cell_length_a 20.496321
_cell_length_b 18.264302
_cell_length_c 6.360717
_cell_angle_alpha 90.000000
_cell_angle_beta 90.000000
_cell_angle_gamma 90.000000
_cell_volume 2381.140748
_symmetry_space_group_name_H-M "P N N A"
_symmetry_group_IT_number 52
_symmetry_cell_setting 'orthorhombic'
loop_
_space_group_symop_operation_xyz
x,y,z
1/2-x,-y,z
x,1/2-y,1/2-z
1/2-x,1/2+y,1/2-z
-x,-y,-z
1/2+x,y,-z
-x,1/2+y,1/2+z
1/2+x,1/2-y,1/2+z
loop_
_atom_site_type_symbol
_atom_site_label
_atom_site_fract_x
_atom_site_fract_y
_atom_site_fract_z
Si Si1 0.450190 0.951436 0.371294
Si Si2 0.534152 0.817543 0.362921
Si Si3 0.579355 0.750000 0.750000
Si Si4 0.273524 0.750000 0.750000
Si Si5 0.845526 0.336656 0.407829
Si Si6 0.750000 0.000000 0.602910
Si Si7 0.645456 0.997486 0.953782
Si Si8 0.330933 0.899500 0.659678
O O1 0.494164 0.886152 0.285456
O O2 0.394075 0.921601 0.525095
O O3 0.500000 0.000000 0.500000
O O4 0.424731 0.990473 0.158149
O O5 0.498710 0.750000 0.250000
O O6 0.533363 0.803202 0.612144
O O7 0.610909 0.819197 0.297000
O O8 0.622366 0.694255 0.617126
O O9 0.226460 0.699798 0.603171
O O10 0.321740 0.811078 0.649378
O O11 0.846098 0.424791 0.409349
O O12 0.810145 0.016001 0.751627
O O13 0.734051 0.068580 0.451279
O O14 0.662834 0.067098 0.103041
#
# Coordination Sequence:
#
# PCOD8215820 Si02
#       8
#     8   8   4   4   8   4   8   8
#     4  11  25  44  68  96 132 181 233 283 341 411
#     4  10  22  41  62  97 132 171 228 283 334 415
#     4  10  20  37  62  98 123 170 214 276 346 394
#     4  12  24  43  66  98 139 172 220 288 346 410
#     4  11  22  39  66  99 129 168 225 277 346 414
#     4  10  22  44  66  94 134 174 222 276 342 424
#     4  11  24  43  68  98 132 182 226 284 354 404
#     4  11  26  43  64  99 136 177 227 284 343 422
#
# _framework density 21.838272
#
# number of rings (size 3 to 8) (size 9 to 14) (size 15 to 20)
#    0.000    1.231    2.308    4.154    2.154    9.231 
#    0.000    0.000    0.000    0.000    0.000    0.000 
#    0.000    0.000    0.000    0.000    0.000    0.000 
#
# Total GULP energy -644307.030902 kJ/mol
# GULP energy per Si atom -12390.519825 kJ/mol
# Density = 2.178857 g / cm^3
# Si number density = 21.838272 Si / 1000 Ang^3
#
#
#
# Elastic Constant Matrix: (Units=GPa)
#
#
# Indices 1 2 3 4 5 6 
#
# 1 91.1760 48.3520 30.9866 0.0000 0.0000 0.0000
# 2 48.3520 167.3775 36.2580 0.0000 0.0000 0.0000
# 3 30.9866 36.2580 105.7872 0.0000 0.0000 0.0000
# 4 0.0000 0.0000 0.0000 34.3490 0.0000 0.0000
# 5 0.0000 0.0000 0.0000 0.0000 11.7271 0.0000
# 6 0.0000 0.0000 0.0000 0.0000 0.0000 43.4300
#
#
#
# Elastic Compliance Matrix: (Units=1/GPa)
#
#
# Indices 1 2 3 4 5 6 
#
# 1 0.013715 -0.003340 -0.002873 0.000000 0.000000 0.000000
# 2 -0.003340 0.007267 -0.001512 0.000000 0.000000 0.000000
# 3 -0.002873 -0.001512 0.010813 0.000000 0.000000 0.000000
# 4 0.000000 0.000000 0.000000 0.029113 0.000000 0.000000
# 5 0.000000 0.000000 0.000000 0.000000 0.085273 0.000000
# 6 0.000000 0.000000 0.000000 0.000000 0.000000 0.023026
#
#
# Mechanical properties :
#
#
# Convention : Reuss Voigt Hill
#
# Bulk Modulus (GPa) = 61.18029 66.17045 63.67537
# Shear Modulus (GPa) = 26.30135 34.48416 30.39276
#
# Velocity S-wave (km/s) = 3.47417 3.97806 3.73462
# Velocity P-wave (km/s) = 6.64598 7.17398 6.91502
#
# Compressibility (1/GPa) = 0.01634513
#
# Stress axis : x y z
#
# Youngs Moduli (GPa) = 72.91171 137.60957 92.48313
#
# Poissons Ratio (x) = 0.45958 0.26568
# Poissons Ratio (y) = 0.24351 0.13988
# Poissons Ratio (z) = 0.20945 0.20813
#
# Static dielectric constant tensor:
#      x y z
#    x 4.009630 0.000000 0.000000 
#    y 0.000000 4.316960 0.000000 
#    z 0.000000 0.000000 4.011590 
# 
# 
# High freq. dielectric constant tensor:
#      x y z
#    x 1.852560 0.000000 0.000000 
#    y 0.000000 1.871960 0.000000 
#    z 0.000000 0.000000 1.858660 
# 
# From -- ./inp_files/4468.got.cif
#   From: 2010.06.25/outbox.cif.g09.slc.cpg/sg52_3_cif.got.tgz:4468.got - 2010.06.26 19:32:48.
