data_PCOD8215574
_publ_section_title
;
Structure prediction by ZEFSAII (Michael W. Deem and Ramdas Pophale) SiO2 
 PCOD8215574
Probable space group: P N N A
;
_chemical_formula_sum "Si O2"
_cell_formula_units_Z 60
_cell_length_a 8.017306
_cell_length_b 24.991850
_cell_length_c 15.243418
_cell_angle_alpha 90.000000
_cell_angle_beta 90.000000
_cell_angle_gamma 90.000000
_cell_volume 3054.282644
_symmetry_space_group_name_H-M "P N N A"
_symmetry_group_IT_number 52
_symmetry_cell_setting 'orthorhombic'
loop_
_space_group_symop_operation_xyz
x,y,z
1/2-x,-y,z
x,1/2-y,1/2-z
1/2-x,1/2+y,1/2-z
-x,-y,-z
1/2+x,y,-z
-x,1/2+y,1/2+z
1/2+x,1/2-y,1/2+z
loop_
_atom_site_type_symbol
_atom_site_label
_atom_site_fract_x
_atom_site_fract_y
_atom_site_fract_z
Si Si1 0.250325 0.332692 0.376598
Si Si2 0.724601 0.892083 0.445044
Si Si3 0.300600 0.442023 0.288095
Si Si4 0.568588 0.288425 0.463816
Si Si5 0.615975 0.062401 0.610324
Si Si6 0.138177 0.776799 0.587527
Si Si7 0.572114 0.250000 0.750000
Si Si8 0.583076 0.033615 0.328759
O O1 0.264402 0.395567 0.356741
O O2 0.437173 0.314881 0.399016
O O3 0.127214 0.329104 0.459647
O O4 0.185072 0.295282 0.296999
O O5 0.745140 0.923088 0.537473
O O6 0.541437 0.900355 0.406482
O O7 0.741387 0.828464 0.445092
O O8 0.869834 0.914026 0.382691
O O9 0.250000 0.500000 0.327415
O O10 0.192116 0.425015 0.204222
O O11 0.495929 0.446631 0.260815
O O12 0.492559 0.236119 0.510707
O O13 0.727261 0.271181 0.405755
O O14 0.552430 0.000396 0.613020
O O15 0.043998 0.781479 0.680381
O O16 0.750000 0.000000 0.307119
#
# Coordination Sequence:
#
# PCOD8215574 Si02
#       8
#     8   8   8   8   8   8   4   8
#     4  10  21  41  62  84 112 148 183 226 282 336
#     4  11  19  30  51  74 110 155 193 220 260 335
#     4  10  21  38  58  80 107 139 183 237 286 331
#     4   9  21  39  58  78 113 145 179 228 281 330
#     4  10  20  32  48  76 110 149 188 232 273 317
#     4  10  20  35  53  83 112 146 187 230 272 325
#     4  10  22  36  58  88 120 148 184 230 278 330
#     4   9  20  34  48  74 110 147 186 228 274 321
#
# _framework density 19.644546999999999
#
# number of rings (size 3 to 8) (size 9 to 14) (size 15 to 20)
#    0.000    2.133    0.000    2.800    0.000    8.533 
#    0.000    7.333    0.000    0.000    0.000    0.000 
#    0.000    0.000    0.000    0.000    0.000    0.000 
#
# Total GULP energy -743720.881354 kJ/mol
# GULP energy per Si atom -12395.348023 kJ/mol
# Density = 1.959983 g / cm^3
# Si number density = 19.644547 Si / 1000 Ang^3
#
#
#
# Elastic Constant Matrix: (Units=GPa)
#
#
# Indices 1 2 3 4 5 6 
#
# 1 98.8740 43.3589 50.8407 0.0000 0.0000 0.0000
# 2 43.3589 131.2293 60.0636 0.0000 0.0000 0.0000
# 3 50.8407 60.0636 80.1266 0.0000 0.0000 0.0000
# 4 0.0000 0.0000 0.0000 24.9692 0.0000 0.0000
# 5 0.0000 0.0000 0.0000 0.0000 26.2470 0.0000
# 6 0.0000 0.0000 0.0000 0.0000 0.0000 22.9696
#
#
#
# Elastic Compliance Matrix: (Units=1/GPa)
#
#
# Indices 1 2 3 4 5 6 
#
# 1 0.015084 -0.000918 -0.008882 0.000000 0.000000 0.000000
# 2 -0.000918 0.011656 -0.008155 0.000000 0.000000 0.000000
# 3 -0.008882 -0.008155 0.024229 0.000000 0.000000 0.000000
# 4 0.000000 0.000000 0.000000 0.040049 0.000000 0.000000
# 5 0.000000 0.000000 0.000000 0.000000 0.038100 0.000000
# 6 0.000000 0.000000 0.000000 0.000000 0.000000 0.043536
#
#
# Mechanical properties :
#
#
# Convention : Reuss Voigt Hill
#
# Bulk Modulus (GPa) = 66.41001 68.75068 67.58035
# Shear Modulus (GPa) = 23.40995 25.23494 24.32245
#
# Velocity S-wave (km/s) = 3.45581 3.58799 3.52252
# Velocity P-wave (km/s) = 7.05710 7.22760 7.14286
#
# Compressibility (1/GPa) = 0.01505797
#
# Stress axis : x y z
#
# Youngs Moduli (GPa) = 66.29588 85.79162 41.27264
#
# Poissons Ratio (x) = 0.07878 0.36660
# Poissons Ratio (y) = 0.06088 0.33657
# Poissons Ratio (z) = 0.58887 0.69962
#
# Static dielectric constant tensor:
#      x y z
#    x 3.908360 0.000000 0.000000 
#    y 0.000000 3.451990 0.000000 
#    z 0.000000 0.000000 3.303580 
# 
# 
# High freq. dielectric constant tensor:
#      x y z
#    x 1.786780 0.000000 0.000000 
#    y 0.000000 1.758970 0.000000 
#    z 0.000000 0.000000 1.733700 
# 
# From -- ./inp_files/25098.got.cif
#   From: 2010.06.25/outbox.cif.g09.slc.cpg/sg52_13_cif.got.tgz:25098.got - 2010.06.26 19:32:48.
