data_PCOD8215411
_publ_section_title
;
Structure prediction by ZEFSAII (Michael W. Deem and Ramdas Pophale) SiO2 
 PCOD8215411
Probable space group: P N N A
;
_chemical_formula_sum "Si O2"
_cell_formula_units_Z 40
_cell_length_a 11.906301
_cell_length_b 8.665191
_cell_length_c 20.439610
_cell_angle_alpha 90.000000
_cell_angle_beta 90.000000
_cell_angle_gamma 90.000000
_cell_volume 2108.762173
_symmetry_space_group_name_H-M "P N N A"
_symmetry_group_IT_number 52
_symmetry_cell_setting 'orthorhombic'
loop_
_space_group_symop_operation_xyz
x,y,z
1/2-x,-y,z
x,1/2-y,1/2-z
1/2-x,1/2+y,1/2-z
-x,-y,-z
1/2+x,y,-z
-x,1/2+y,1/2+z
1/2+x,1/2-y,1/2+z
loop_
_atom_site_type_symbol
_atom_site_label
_atom_site_fract_x
_atom_site_fract_y
_atom_site_fract_z
Si Si1 0.960356 0.292663 0.445499
Si Si2 0.270503 0.677793 0.928049
Si Si3 0.692276 0.842958 0.815984
Si Si4 0.187037 0.156693 0.421926
Si Si5 0.493030 0.853360 0.911399
O O1 0.844454 0.260896 0.408236
O O2 0.987388 0.467172 0.427941
O O3 0.050695 0.165084 0.419286
O O4 0.952290 0.270925 0.524720
O O5 0.250000 0.500000 0.908064
O O6 0.375483 0.765321 0.894270
O O7 0.280474 0.702513 0.005254
O O8 0.683809 0.750000 0.750000
O O9 0.776151 0.783126 0.870782
O O10 0.568176 0.842381 0.846851
O O11 0.750000 0.000000 0.794007
O O12 0.250000 0.000000 0.401109
#
# Coordination Sequence:
#
# PCOD8215411 Si02
#       5
#     8   8   8   8   8
#     4  10  19  35  59  89 124 156 194 253 311 368
#     4  10  21  33  57  93 125 153 189 252 319 362
#     4  12  24  42  60  86 119 160 209 247 302 368
#     4  10  21  34  57  89 124 156 197 248 305 366
#     4  10  21  35  60  86 121 159 200 250 302 373
#
# _framework density 18.968474000000001
#
# number of rings (size 3 to 8) (size 9 to 14) (size 15 to 20)
#    0.000    1.600    4.000    1.200    2.800    2.400 
#    0.000    0.000    0.000    3.600    0.000    0.000 
#    0.000    0.000    0.000    0.000    0.000    0.000 
#
# Total GULP energy -495561.207389 kJ/mol
# GULP energy per Si atom -12389.030185 kJ/mol
# Density = 1.892530 g / cm^3
# Si number density = 18.968474 Si / 1000 Ang^3
#
#
#
# Elastic Constant Matrix: (Units=GPa)
#
#
# Indices 1 2 3 4 5 6 
#
# 1 160.0288 60.8260 24.0475 0.0000 0.0000 0.0000
# 2 60.8260 94.8978 43.5474 0.0000 0.0000 0.0000
# 3 24.0475 43.5474 35.2454 0.0000 0.0000 0.0000
# 4 0.0000 0.0000 0.0000 21.4153 0.0000 0.0000
# 5 0.0000 0.0000 0.0000 0.0000 -16.5769 0.0000
# 6 0.0000 0.0000 0.0000 0.0000 0.0000 39.1941
#
#
#
# Elastic Compliance Matrix: (Units=1/GPa)
#
#
# Indices 1 2 3 4 5 6 
#
# 1 0.008329 -0.006306 0.002109 0.000000 0.000000 0.000000
# 2 -0.006306 0.029110 -0.031664 0.000000 0.000000 0.000000
# 3 0.002109 -0.031664 0.066056 0.000000 0.000000 0.000000
# 4 0.000000 0.000000 0.000000 0.046696 0.000000 0.000000
# 5 0.000000 0.000000 0.000000 0.000000 -0.060325 0.000000
# 6 0.000000 0.000000 0.000000 0.000000 0.000000 0.025514
#
#
# Mechanical properties :
#
#
# Convention : Reuss Voigt Hill
#
# Bulk Modulus (GPa) = 31.47395 60.77931 46.12663
# Shear Modulus (GPa) = 25.29158 19.58991 22.44074
#
# Velocity S-wave (km/s) = 3.65547 3.21715 3.44329
# Velocity P-wave (km/s) = 5.86902 6.77583 6.33866
#
# Compressibility (1/GPa) = 0.03177230
#
# Stress axis : x y z
#
# Youngs Moduli (GPa) = 120.06291 34.35220 15.13859
#
# Poissons Ratio (x) = 0.21664 -0.03193
# Poissons Ratio (y) = 0.75717 0.47935
# Poissons Ratio (z) = -0.25323 1.08774
#
# Static dielectric constant tensor:
#      x y z
#    x 3.849400 0.000000 0.000000 
#    y 0.000000 3.759670 0.000000 
#    z 0.000000 0.000000 3.150880 
# 
# 
# High freq. dielectric constant tensor:
#      x y z
#    x 1.753840 0.000000 0.000000 
#    y 0.000000 1.746200 0.000000 
#    z 0.000000 0.000000 1.688200 
# 
# From -- ./inp_files/31937.got.cif
#   From: 2010.06.25/outbox.cif.g09.slc.cpg/sg52_16_cif.got.tgz:31937.got - 2010.06.26 19:32:48.
