data_PCOD8215839
_publ_section_title
;
Structure prediction by ZEFSAII (Michael W. Deem and Ramdas Pophale) SiO2 
 PCOD8215839
Probable space group: P N N A
;
_chemical_formula_sum "Si O2"
_cell_formula_units_Z 48
_cell_length_a 8.373518
_cell_length_b 24.223106
_cell_length_c 11.663133
_cell_angle_alpha 90.000000
_cell_angle_beta 90.000000
_cell_angle_gamma 90.000000
_cell_volume 2365.663755
_symmetry_space_group_name_H-M "P N N A"
_symmetry_group_IT_number 52
_symmetry_cell_setting 'orthorhombic'
loop_
_space_group_symop_operation_xyz
x,y,z
1/2-x,-y,z
x,1/2-y,1/2-z
1/2-x,1/2+y,1/2-z
-x,-y,-z
1/2+x,y,-z
-x,1/2+y,1/2+z
1/2+x,1/2-y,1/2+z
loop_
_atom_site_type_symbol
_atom_site_label
_atom_site_fract_x
_atom_site_fract_y
_atom_site_fract_z
Si Si1 0.599452 0.593886 0.703468
Si Si2 0.038008 0.092422 0.221477
Si Si3 0.073573 0.798219 0.837766
Si Si4 0.938856 0.005272 0.626591
Si Si5 0.167365 0.944692 0.973313
Si Si6 0.123949 0.335325 0.558961
O O1 0.778796 0.611144 0.736368
O O2 0.512824 0.563388 0.811553
O O3 0.610327 0.546789 0.604249
O O4 0.507081 0.647919 0.655932
O O5 0.931475 0.146875 0.240989
O O6 0.995619 0.067990 0.095640
O O7 0.981132 0.046925 0.311813
O O8 0.024246 0.750000 0.750000
O O9 0.253728 0.790626 0.886207
O O10 0.952703 0.806788 0.946125
O O11 0.750000 0.000000 0.634653
O O12 0.000000 0.000000 0.500000
O O13 0.278966 0.890596 0.971994
O O14 0.250000 0.000000 0.925643
#
# Coordination Sequence:
#
# PCOD8215839 Si02
#       6
#     8   8   8   8   8   8
#     4  11  19  35  62  89 124 155 193 245 304 367
#     4  10  20  38  58  88 123 158 199 247 301 356
#     4  11  23  42  64  87 118 154 204 268 319 367
#     4  10  23  37  55  83 128 169 199 231 286 367
#     4  11  19  30  60 101 126 152 186 240 309 372
#     4  11  21  39  62  92 123 149 199 259 313 370
#
# _framework density 20.290288
#
# number of rings (size 3 to 8) (size 9 to 14) (size 15 to 20)
#    0.000    1.333    5.000    2.500    0.000    5.333 
#    0.000    8.333    0.000    0.000    0.000    0.000 
#    0.000    0.000    0.000    0.000    0.000    0.000 
#
# Total GULP energy -594699.760921 kJ/mol
# GULP energy per Si atom -12389.578353 kJ/mol
# Density = 2.024411 g / cm^3
# Si number density = 20.290288 Si / 1000 Ang^3
#
#
#
# Elastic Constant Matrix: (Units=GPa)
#
#
# Indices 1 2 3 4 5 6 
#
# 1 75.4068 26.2591 34.1234 0.0000 0.0000 0.0000
# 2 26.2591 82.6236 50.3863 0.0000 0.0000 0.0000
# 3 34.1234 50.3863 124.1197 0.0000 0.0000 0.0000
# 4 0.0000 0.0000 0.0000 38.2596 0.0000 0.0000
# 5 0.0000 0.0000 0.0000 0.0000 30.4795 0.0000
# 6 0.0000 0.0000 0.0000 0.0000 0.0000 21.0329
#
#
#
# Elastic Compliance Matrix: (Units=1/GPa)
#
#
# Indices 1 2 3 4 5 6 
#
# 1 0.015736 -0.003140 -0.003051 0.000000 0.000000 0.000000
# 2 -0.003140 0.016712 -0.005921 0.000000 0.000000 0.000000
# 3 -0.003051 -0.005921 0.011299 0.000000 0.000000 0.000000
# 4 0.000000 0.000000 0.000000 0.026137 0.000000 0.000000
# 5 0.000000 0.000000 0.000000 0.000000 0.032809 0.000000
# 6 0.000000 0.000000 0.000000 0.000000 0.000000 0.047545
#
#
# Mechanical properties :
#
#
# Convention : Reuss Voigt Hill
#
# Bulk Modulus (GPa) = 51.22455 55.96529 53.59492
# Shear Modulus (GPa) = 27.62895 29.37982 28.50439
#
# Velocity S-wave (km/s) = 3.69410 3.80935 3.75217
# Velocity P-wave (km/s) = 6.59514 6.85496 6.72630
#
# Compressibility (1/GPa) = 0.01952189
#
# Stress axis : x y z
#
# Youngs Moduli (GPa) = 63.54957 59.83792 88.50203
#
# Poissons Ratio (x) = 0.18791 0.27005
# Poissons Ratio (y) = 0.19956 0.52400
# Poissons Ratio (z) = 0.19391 0.35429
#
# Static dielectric constant tensor:
#      x y z
#    x 3.955760 0.000000 0.000000 
#    y 0.000000 3.501000 0.000000 
#    z 0.000000 0.000000 3.471420 
# 
# 
# High freq. dielectric constant tensor:
#      x y z
#    x 1.804000 0.000000 0.000000 
#    y 0.000000 1.757860 0.000000 
#    z 0.000000 0.000000 1.774530 
# 
# From -- ./inp_files/17058.got.cif
#   From: 2010.06.25/outbox.cif.g09.slc.cpg/sg52_9_cif.got.tgz:17058.got - 2010.06.26 19:32:48.
