data_PCOD8215951
_publ_section_title
;
Structure prediction by ZEFSAII (Michael W. Deem and Ramdas Pophale) SiO2 
 PCOD8215951
Probable space group: P N N A
;
_chemical_formula_sum "Si O2"
_cell_formula_units_Z 64
_cell_length_a 14.608512
_cell_length_b 17.526308
_cell_length_c 11.108398
_cell_angle_alpha 90.000000
_cell_angle_beta 90.000000
_cell_angle_gamma 90.000000
_cell_volume 2844.119584
_symmetry_space_group_name_H-M "P N N A"
_symmetry_group_IT_number 52
_symmetry_cell_setting 'orthorhombic'
loop_
_space_group_symop_operation_xyz
x,y,z
1/2-x,-y,z
x,1/2-y,1/2-z
1/2-x,1/2+y,1/2-z
-x,-y,-z
1/2+x,y,-z
-x,1/2+y,1/2+z
1/2+x,1/2-y,1/2+z
loop_
_atom_site_type_symbol
_atom_site_label
_atom_site_fract_x
_atom_site_fract_y
_atom_site_fract_z
Si Si1 0.204113 0.142550 0.443745
Si Si2 0.172648 0.444339 0.279409
Si Si3 0.854837 0.798714 0.921093
Si Si4 0.316981 0.567665 0.809676
Si Si5 0.111843 0.695296 0.145260
Si Si6 0.270196 0.186910 0.853569
Si Si7 0.954897 0.172324 0.000092
Si Si8 0.018328 0.561310 0.286097
O O1 0.189600 0.068152 0.362300
O O2 0.149791 0.211493 0.374799
O O3 0.167769 0.123618 0.576829
O O4 0.310211 0.168965 0.448151
O O5 0.250000 0.500000 0.331810
O O6 0.195676 0.364404 0.345781
O O7 0.072361 0.481150 0.294093
O O8 0.809332 0.788784 0.053806
O O9 0.959275 0.824814 0.912577
O O10 0.250000 0.500000 0.852534
O O11 0.262801 0.608774 0.704072
O O12 0.415232 0.541716 0.756219
O O13 0.154486 0.750000 0.250000
O O14 0.040293 0.749155 0.076188
O O15 0.062786 0.619384 0.190956
O O16 0.285586 0.250000 0.750000
O O17 0.362774 0.166685 0.923929
O O18 0.973022 0.098746 0.917086
#
# Coordination Sequence:
#
# PCOD8215951 Si02
#       8
#     8   8   8   8   8   8   8   8
#     4  12  24  48  70 106 143 192 244 300 365 435
#     4  12  26  44  70 107 149 184 240 307 367 435
#     4  12  25  45  76 105 141 188 244 302 364 434
#     4  12  28  47  72 102 149 197 241 301 372 447
#     4  10  20  39  73 103 137 182 244 296 358 430
#     4  12  25  47  73 106 145 186 242 304 366 430
#     4  11  24  44  75 106 139 191 242 300 357 435
#     4  11  25  46  72 105 146 193 244 292 369 447
#
# _framework density 22.502571
#
# number of rings (size 3 to 8) (size 9 to 14) (size 15 to 20)
#    0.000    0.500    5.000    3.000    1.750    3.500 
#    2.250    0.000    0.000    0.000    0.000    0.000 
#    0.000    0.000    0.000    0.000    0.000    0.000 
#
# Total GULP energy -793440.803406 kJ/mol
# GULP energy per Si atom -12397.512553 kJ/mol
# Density = 2.245135 g / cm^3
# Si number density = 22.502571 Si / 1000 Ang^3
#
#
#
# Elastic Constant Matrix: (Units=GPa)
#
#
# Indices 1 2 3 4 5 6 
#
# 1 137.2042 41.2187 29.0387 0.0000 0.0000 0.0000
# 2 41.2187 114.9585 25.7498 0.0000 0.0000 0.0000
# 3 29.0387 25.7498 62.9208 0.0000 0.0000 0.0000
# 4 0.0000 0.0000 0.0000 29.8042 0.0000 0.0000
# 5 0.0000 0.0000 0.0000 0.0000 29.7608 0.0000
# 6 0.0000 0.0000 0.0000 0.0000 0.0000 32.2869
#
#
#
# Elastic Compliance Matrix: (Units=1/GPa)
#
#
# Indices 1 2 3 4 5 6 
#
# 1 0.008653 -0.002431 -0.002999 0.000000 0.000000 0.000000
# 2 -0.002431 0.010260 -0.003077 0.000000 0.000000 0.000000
# 3 -0.002999 -0.003077 0.018536 0.000000 0.000000 0.000000
# 4 0.000000 0.000000 0.000000 0.033552 0.000000 0.000000
# 5 0.000000 0.000000 0.000000 0.000000 0.033601 0.000000
# 6 0.000000 0.000000 0.000000 0.000000 0.000000 0.030972
#
#
# Mechanical properties :
#
#
# Convention : Reuss Voigt Hill
#
# Bulk Modulus (GPa) = 48.93302 56.34419 52.63861
# Shear Modulus (GPa) = 31.36764 32.97548 32.17156
#
# Velocity S-wave (km/s) = 3.73763 3.83222 3.78522
# Velocity P-wave (km/s) = 6.35761 6.68390 6.52280
#
# Compressibility (1/GPa) = 0.02043610
#
# Stress axis : x y z
#
# Youngs Moduli (GPa) = 115.56147 97.46981 53.94882
#
# Poissons Ratio (x) = 0.23695 0.16178
# Poissons Ratio (y) = 0.28093 0.16599
# Poissons Ratio (z) = 0.34654 0.29989
#
# Static dielectric constant tensor:
#      x y z
#    x 3.950910 0.000000 0.000000 
#    y 0.000000 4.256690 0.000000 
#    z 0.000000 0.000000 3.978880 
# 
# 
# High freq. dielectric constant tensor:
#      x y z
#    x 1.884720 0.000000 0.000000 
#    y 0.000000 1.899580 0.000000 
#    z 0.000000 0.000000 1.884200 
# 
# From -- ./inp_files/19872.got.cif
#   From: 2010.06.25/outbox.cif.g09.slc.cpg/sg52_10_cif.got.tgz:19872.got - 2010.06.26 19:32:48.
