data_PCOD8215651
_publ_section_title
;
Structure prediction by ZEFSAII (Michael W. Deem and Ramdas Pophale) SiO2 
 PCOD8215651
Probable space group: P N N A
;
_chemical_formula_sum "Si O2"
_cell_formula_units_Z 48
_cell_length_a 11.390255
_cell_length_b 17.842045
_cell_length_c 11.625228
_cell_angle_alpha 90.000000
_cell_angle_beta 90.000000
_cell_angle_gamma 90.000000
_cell_volume 2362.542102
_symmetry_space_group_name_H-M "P N N A"
_symmetry_group_IT_number 52
_symmetry_cell_setting 'orthorhombic'
loop_
_space_group_symop_operation_xyz
x,y,z
1/2-x,-y,z
x,1/2-y,1/2-z
1/2-x,1/2+y,1/2-z
-x,-y,-z
1/2+x,y,-z
-x,1/2+y,1/2+z
1/2+x,1/2-y,1/2+z
loop_
_atom_site_type_symbol
_atom_site_label
_atom_site_fract_x
_atom_site_fract_y
_atom_site_fract_z
Si Si1 0.161072 0.332537 0.300934
Si Si2 0.073323 0.389391 0.963828
Si Si3 0.224491 0.251610 0.509951
Si Si4 0.750000 0.500000 0.149108
Si Si5 0.050923 0.897532 0.694738
Si Si6 0.384797 0.182440 0.329950
Si Si7 0.317932 0.250000 0.750000
O O1 0.129677 0.250000 0.250000
O O2 0.184131 0.324701 0.437286
O O3 0.277814 0.360468 0.234202
O O4 0.057775 0.393667 0.283826
O O5 0.120780 0.308599 0.000698
O O6 0.184093 0.440550 0.932049
O O7 0.987268 0.377840 0.854064
O O8 0.998320 0.422561 0.069905
O O9 0.342015 0.217078 0.452125
O O10 0.240794 0.278545 0.641839
O O11 0.847664 0.457704 0.227755
O O12 0.106772 0.815644 0.694187
O O13 0.432559 0.250000 0.250000
#
# Coordination Sequence:
#
# PCOD8215651 Si02
#       7
#     8   8   8   4   8   8   4
#     4   9  18  38  59  87 119 162 199 251 304 369
#     4  12  20  39  54  87 134 163 197 249 312 378
#     4  10  20  34  61  96 119 151 207 251 316 361
#     4  12  28  36  56  92 132 168 204 252 312 382
#     4  12  22  39  60  85 126 167 198 256 312 370
#     4   9  19  34  58  88 122 156 201 250 298 364
#     4  12  20  36  64  94 126 152 208 268 304 358
#
# _framework density 20.317098000000001
#
# number of rings (size 3 to 8) (size 9 to 14) (size 15 to 20)
#    0.000    1.667    7.500    0.500    1.167    0.000 
#    0.000    0.000    0.000    1.000    0.000    0.000 
#    0.000    0.000    0.000    0.000    0.000    0.000 
#
# Total GULP energy -594853.399453 kJ/mol
# GULP energy per Si atom -12392.779155 kJ/mol
# Density = 2.027085 g / cm^3
# Si number density = 20.317098 Si / 1000 Ang^3
#
#
#
# Elastic Constant Matrix: (Units=GPa)
#
#
# Indices 1 2 3 4 5 6 
#
# 1 128.1247 49.1561 52.7352 0.0000 0.0000 0.0000
# 2 49.1561 45.2127 23.4219 0.0000 0.0000 0.0000
# 3 52.7352 23.4219 133.5670 0.0000 0.0000 0.0000
# 4 0.0000 0.0000 0.0000 17.5548 0.0000 0.0000
# 5 0.0000 0.0000 0.0000 0.0000 19.9514 0.0000
# 6 0.0000 0.0000 0.0000 0.0000 0.0000 43.8186
#
#
#
# Elastic Compliance Matrix: (Units=1/GPa)
#
#
# Indices 1 2 3 4 5 6 
#
# 1 0.014586 -0.014162 -0.003276 0.000000 0.000000 0.000000
# 2 -0.014162 0.038077 -0.001086 0.000000 0.000000 0.000000
# 3 -0.003276 -0.001086 0.008971 0.000000 0.000000 0.000000
# 4 0.000000 0.000000 0.000000 0.056965 0.000000 0.000000
# 5 0.000000 0.000000 0.000000 0.000000 0.050122 0.000000
# 6 0.000000 0.000000 0.000000 0.000000 0.000000 0.022821
#
#
# Mechanical properties :
#
#
# Convention : Reuss Voigt Hill
#
# Bulk Modulus (GPa) = 40.67062 61.94789 51.30926
# Shear Modulus (GPa) = 21.11632 28.37102 24.74367
#
# Velocity S-wave (km/s) = 3.22737 3.74091 3.49359
# Velocity P-wave (km/s) = 5.82660 7.01541 6.44846
#
# Compressibility (1/GPa) = 0.02458777
#
# Stress axis : x y z
#
# Youngs Moduli (GPa) = 68.55710 26.26261 111.47546
#
# Poissons Ratio (x) = 0.37192 0.36516
# Poissons Ratio (y) = 0.97088 0.12103
# Poissons Ratio (z) = 0.22457 0.02851
#
# Static dielectric constant tensor:
#      x y z
#    x 3.951880 0.000000 0.000000 
#    y 0.000000 3.307710 0.000000 
#    z 0.000000 0.000000 3.706860 
# 
# 
# High freq. dielectric constant tensor:
#      x y z
#    x 1.812590 0.000000 0.000000 
#    y 0.000000 1.741250 0.000000 
#    z 0.000000 0.000000 1.774600 
# 
# From -- ./inp_files/18246.got.cif
#   From: 2010.06.25/outbox.cif.g09.slc.cpg/sg52_10_cif.got.tgz:18246.got - 2010.06.26 19:32:48.
