data_PCOD8215440
_publ_section_title
;
Structure prediction by ZEFSAII (Michael W. Deem and Ramdas Pophale) SiO2 
 PCOD8215440
Probable space group: P N N A
;
_chemical_formula_sum "Si O2"
_cell_formula_units_Z 48
_cell_length_a 8.966464
_cell_length_b 31.941529
_cell_length_c 9.067706
_cell_angle_alpha 90.000000
_cell_angle_beta 90.000000
_cell_angle_gamma 90.000000
_cell_volume 2597.014301
_symmetry_space_group_name_H-M "P N N A"
_symmetry_group_IT_number 52
_symmetry_cell_setting 'orthorhombic'
loop_
_space_group_symop_operation_xyz
x,y,z
1/2-x,-y,z
x,1/2-y,1/2-z
1/2-x,1/2+y,1/2-z
-x,-y,-z
1/2+x,y,-z
-x,1/2+y,1/2+z
1/2+x,1/2-y,1/2+z
loop_
_atom_site_type_symbol
_atom_site_label
_atom_site_fract_x
_atom_site_fract_y
_atom_site_fract_z
Si Si1 0.789217 0.293608 0.171303
Si Si2 0.613184 0.115574 0.835925
Si Si3 0.912625 0.670887 0.931477
Si Si4 0.754806 0.451057 0.850655
Si Si5 0.236833 0.873848 0.855511
Si Si6 0.426810 0.588362 0.891379
O O1 0.756920 0.250000 0.250000
O O2 0.741837 0.328063 0.288986
O O3 0.959503 0.298250 0.124011
O O4 0.698333 0.299072 0.019662
O O5 0.662511 0.149607 0.712201
O O6 0.668451 0.069967 0.785924
O O7 0.435857 0.113208 0.857921
O O8 0.697658 0.128525 0.982391
O O9 0.972204 0.632715 0.033808
O O10 0.750000 0.500000 0.823184
O O11 0.924662 0.436125 0.852104
O O12 0.674569 0.439712 0.002860
O O13 0.330564 0.906205 0.756932
#
# Coordination Sequence:
#
# PCOD8215440 Si02
#       6
#     8   8   8   8   8   8
#     4  10  21  36  56  84 111 139 182 230 270 315
#     4  10  20  37  57  79 109 147 185 220 271 335
#     4   9  19  37  57  77 108 147 180 215 267 331
#     4  11  21  35  56  84 110 141 183 231 274 319
#     4  10  21  37  58  81 108 147 186 221 272 334
#     4  10  19  36  58  79 108 145 184 221 270 334
#
# _framework density 18.482761
#
# number of rings (size 3 to 8) (size 9 to 14) (size 15 to 20)
#    0.000    2.000    0.000    6.500    0.000    4.000 
#    0.000    5.000    0.000    0.000    0.000    0.000 
#    0.000    0.000    0.000    0.000    0.000    0.000 
#
# Total GULP energy -595237.238530 kJ/mol
# GULP energy per Si atom -12400.775803 kJ/mol
# Density = 1.844069 g / cm^3
# Si number density = 18.482761 Si / 1000 Ang^3
#
#
#
# Elastic Constant Matrix: (Units=GPa)
#
#
# Indices 1 2 3 4 5 6 
#
# 1 117.5488 60.9902 66.9808 0.0000 0.0000 0.0000
# 2 60.9902 98.4087 52.1749 0.0000 0.0000 0.0000
# 3 66.9808 52.1749 148.2043 0.0000 0.0000 0.0000
# 4 0.0000 0.0000 0.0000 26.4693 0.0000 0.0000
# 5 0.0000 0.0000 0.0000 0.0000 39.9294 0.0000
# 6 0.0000 0.0000 0.0000 0.0000 0.0000 17.3859
#
#
#
# Elastic Compliance Matrix: (Units=1/GPa)
#
#
# Indices 1 2 3 4 5 6 
#
# 1 0.014328 -0.006697 -0.004118 0.000000 0.000000 0.000000
# 2 -0.006697 0.015624 -0.002474 0.000000 0.000000 0.000000
# 3 -0.004118 -0.002474 0.009479 0.000000 0.000000 0.000000
# 4 0.000000 0.000000 0.000000 0.037780 0.000000 0.000000
# 5 0.000000 0.000000 0.000000 0.000000 0.025044 0.000000
# 6 0.000000 0.000000 0.000000 0.000000 0.000000 0.057518
#
#
# Mechanical properties :
#
#
# Convention : Reuss Voigt Hill
#
# Bulk Modulus (GPa) = 77.79484 80.49484 79.14484
# Shear Modulus (GPa) = 26.22814 29.02464 27.62639
#
# Velocity S-wave (km/s) = 3.77113 3.96708 3.87034
# Velocity P-wave (km/s) = 7.81945 8.03925 7.93011
#
# Compressibility (1/GPa) = 0.01285432
#
# Stress axis : x y z
#
# Youngs Moduli (GPa) = 69.79206 64.00559 105.49158
#
# Poissons Ratio (x) = 0.42863 0.43442
# Poissons Ratio (y) = 0.46739 0.26095
# Poissons Ratio (z) = 0.28741 0.15833
#
# Static dielectric constant tensor:
#      x y z
#    x 3.467900 0.000000 0.000000 
#    y 0.000000 3.230810 0.000000 
#    z 0.000000 0.000000 3.455550 
# 
# 
# High freq. dielectric constant tensor:
#      x y z
#    x 1.727580 0.000000 0.000000 
#    y 0.000000 1.700420 0.000000 
#    z 0.000000 0.000000 1.724650 
# 
# From -- ./inp_files/7670.got.cif
#   From: 2010.06.25/outbox.cif.g09.slc.cpg/sg52_4_cif.got.tgz:7670.got - 2010.06.26 19:32:48.
