data_PCOD8215260
_publ_section_title
;
Structure prediction by ZEFSAII (Michael W. Deem and Ramdas Pophale) SiO2 
 PCOD8215260
Probable space group: P N N A
;
_chemical_formula_sum "Si O2"
_cell_formula_units_Z 60
_cell_length_a 10.682160
_cell_length_b 9.719352
_cell_length_c 29.155807
_cell_angle_alpha 90.000000
_cell_angle_beta 90.000000
_cell_angle_gamma 90.000000
_cell_volume 3027.062977
_symmetry_space_group_name_H-M "P N N A"
_symmetry_group_IT_number 52
_symmetry_cell_setting 'orthorhombic'
loop_
_space_group_symop_operation_xyz
x,y,z
1/2-x,-y,z
x,1/2-y,1/2-z
1/2-x,1/2+y,1/2-z
-x,-y,-z
1/2+x,y,-z
-x,1/2+y,1/2+z
1/2+x,1/2-y,1/2+z
loop_
_atom_site_type_symbol
_atom_site_label
_atom_site_fract_x
_atom_site_fract_y
_atom_site_fract_z
Si Si1 0.800821 0.651241 0.839097
Si Si2 0.245190 0.164639 0.959037
Si Si3 0.845616 0.250000 0.750000
Si Si4 0.521119 0.926041 0.815835
Si Si5 0.020584 0.844676 0.014710
Si Si6 0.723439 0.161743 0.144999
Si Si7 0.182334 0.631932 0.399182
Si Si8 0.452866 0.262343 0.696021
O O1 0.750000 0.500000 0.849915
O O2 0.737110 0.705490 0.792799
O O3 0.771838 0.740111 0.885213
O O4 0.949582 0.658034 0.828458
O O5 0.234492 0.215225 0.906946
O O6 0.120319 0.220870 0.986100
O O7 0.250000 0.000000 0.961207
O O8 0.374409 0.224409 0.981272
O O9 0.932891 0.122819 0.765715
O O10 0.414370 0.820565 0.833645
O O11 0.633363 0.922288 0.851176
O O12 0.485079 0.082484 0.815192
O O13 0.071627 0.826017 0.066448
O O14 0.000000 0.000000 0.000000
O O15 0.815509 0.259510 0.174496
O O16 0.750000 0.000000 0.148153
O O17 0.250000 0.500000 0.422959
O O18 0.447634 0.250000 0.750000
#
# Coordination Sequence:
#
# PCOD8215260 Si02
#       8
#     8   8   4   8   8   8   8   8
#     4  11  23  37  56  83 120 153 195 247 299 355
#     4   9  17  30  48  77 117 148 176 229 293 347
#     4  10  22  32  58  74 112 154 196 238 300 336
#     4  10  20  36  53  79 115 150 196 245 291 349
#     4  10  19  30  52  87 122 148 185 238 296 360
#     4   9  19  33  51  75 111 151 184 236 294 344
#     4  11  20  34  58  87 113 153 194 241 298 355
#     4  11  21  34  56  77 113 152 204 240 293 352
#
# _framework density 19.821194999999999
#
# number of rings (size 3 to 8) (size 9 to 14) (size 15 to 20)
#    0.000    1.867    3.333    2.000    2.800    1.067 
#    0.000    0.000    0.000    0.000    0.000    8.400 
#    0.000    0.000    0.000    0.000    0.000    0.000 
#
# Total GULP energy -743394.127049 kJ/mol
# GULP energy per Si atom -12389.902117 kJ/mol
# Density = 1.977608 g / cm^3
# Si number density = 19.821195 Si / 1000 Ang^3
#
#
#
# Elastic Constant Matrix: (Units=GPa)
#
#
# Indices 1 2 3 4 5 6 
#
# 1 131.4261 14.8306 29.9348 0.0000 0.0000 0.0000
# 2 14.8306 49.6247 7.1895 0.0000 0.0000 0.0000
# 3 29.9348 7.1895 78.1642 0.0000 0.0000 0.0000
# 4 0.0000 0.0000 0.0000 14.2554 0.0000 0.0000
# 5 0.0000 0.0000 0.0000 0.0000 44.8196 0.0000
# 6 0.0000 0.0000 0.0000 0.0000 0.0000 22.7920
#
#
#
# Elastic Compliance Matrix: (Units=1/GPa)
#
#
# Indices 1 2 3 4 5 6 
#
# 1 0.008548 -0.002109 -0.003080 0.000000 0.000000 0.000000
# 2 -0.002109 0.020943 -0.001119 0.000000 0.000000 0.000000
# 3 -0.003080 -0.001119 0.014076 0.000000 0.000000 0.000000
# 4 0.000000 0.000000 0.000000 0.070149 0.000000 0.000000
# 5 0.000000 0.000000 0.000000 0.000000 0.022312 0.000000
# 6 0.000000 0.000000 0.000000 0.000000 0.000000 0.043875
#
#
# Mechanical properties :
#
#
# Convention : Reuss Voigt Hill
#
# Bulk Modulus (GPa) = 32.30667 40.34720 36.32693
# Shear Modulus (GPa) = 24.65053 30.19075 27.42064
#
# Velocity S-wave (km/s) = 3.53036 3.90700 3.72344
# Velocity P-wave (km/s) = 5.74042 6.38378 6.07062
#
# Compressibility (1/GPa) = 0.03095336
#
# Stress axis : x y z
#
# Youngs Moduli (GPa) = 116.98296 47.74752 71.04306
#
# Poissons Ratio (x) = 0.10068 0.21880
# Poissons Ratio (y) = 0.24666 0.07949
# Poissons Ratio (z) = 0.36029 0.05342
#
# Static dielectric constant tensor:
#      x y z
#    x 4.241230 0.000000 0.000000 
#    y 0.000000 3.197220 0.000000 
#    z 0.000000 0.000000 3.710270 
# 
# 
# High freq. dielectric constant tensor:
#      x y z
#    x 1.792970 0.000000 0.000000 
#    y 0.000000 1.702390 0.000000 
#    z 0.000000 0.000000 1.778080 
# 
# From -- ./inp_files/44817.got.cif
#   From: 2010.06.25/outbox.cif.g09.slc.cpg/sg52_23_cif.got.tgz:44817.got - 2010.06.26 19:32:48.
