data_PCOD8215682
_publ_section_title
;
Structure prediction by ZEFSAII (Michael W. Deem and Ramdas Pophale) SiO2 
 PCOD8215682
Probable space group: P N N A
;
_chemical_formula_sum "Si O2"
_cell_formula_units_Z 48
_cell_length_a 8.836871
_cell_length_b 15.791386
_cell_length_c 18.342271
_cell_angle_alpha 90.000000
_cell_angle_beta 90.000000
_cell_angle_gamma 90.000000
_cell_volume 2559.598638
_symmetry_space_group_name_H-M "P N N A"
_symmetry_group_IT_number 52
_symmetry_cell_setting 'orthorhombic'
loop_
_space_group_symop_operation_xyz
x,y,z
1/2-x,-y,z
x,1/2-y,1/2-z
1/2-x,1/2+y,1/2-z
-x,-y,-z
1/2+x,y,-z
-x,1/2+y,1/2+z
1/2+x,1/2-y,1/2+z
loop_
_atom_site_type_symbol
_atom_site_label
_atom_site_fract_x
_atom_site_fract_y
_atom_site_fract_z
Si Si1 0.513768 0.204080 0.093245
Si Si2 0.377717 0.062470 0.471543
Si Si3 0.624179 0.653639 0.830226
Si Si4 0.680186 0.908174 0.825352
Si Si5 0.589269 0.256761 0.668603
Si Si6 0.340737 0.234463 0.546507
O O1 0.475595 0.260063 0.166236
O O2 0.462769 0.109493 0.119443
O O3 0.685031 0.217994 0.067374
O O4 0.401384 0.225415 0.027343
O O5 0.443197 0.102009 0.397762
O O6 0.323357 0.133427 0.530893
O O7 0.250000 0.000000 0.445983
O O8 0.500000 0.000000 0.500000
O O9 0.611124 0.601309 0.755923
O O10 0.800029 0.677058 0.844482
O O11 0.816362 0.842989 0.840748
O O12 0.750000 0.000000 0.838726
O O13 0.520770 0.250000 0.750000
O O14 0.453939 0.251976 0.612128
#
# Coordination Sequence:
#
# PCOD8215682 Si02
#       6
#     8   8   8   8   8   8
#     4  10  20  35  57  79 107 149 187 221 276 339
#     4  11  20  31  52  84 113 141 174 217 272 327
#     4   9  18  35  56  79 112 147 178 217 274 343
#     4  10  20  36  58  82 106 140 189 238 276 318
#     4   9  19  36  57  78 106 149 187 222 280 342
#     4  11  21  37  55  78 113 148 185 225 270 341
#
# _framework density 18.752939999999999
#
# number of rings (size 3 to 8) (size 9 to 14) (size 15 to 20)
#    0.000    2.000    0.000    8.000    0.000    2.667 
#    0.000    4.167    0.000    0.000    0.000    0.000 
#    0.000    0.000    0.000    0.000    0.000    0.000 
#
# Total GULP energy -594631.657326 kJ/mol
# GULP energy per Si atom -12388.159528 kJ/mol
# Density = 1.871026 g / cm^3
# Si number density = 18.752940 Si / 1000 Ang^3
#
#
#
# Elastic Constant Matrix: (Units=GPa)
#
#
# Indices 1 2 3 4 5 6 
#
# 1 87.5242 28.2085 40.8722 0.0000 0.0000 0.0000
# 2 28.2085 93.4852 48.2587 0.0000 0.0000 0.0000
# 3 40.8722 48.2587 99.9187 0.0000 0.0000 0.0000
# 4 0.0000 0.0000 0.0000 22.9077 0.0000 0.0000
# 5 0.0000 0.0000 0.0000 0.0000 39.9823 0.0000
# 6 0.0000 0.0000 0.0000 0.0000 0.0000 30.5108
#
#
#
# Elastic Compliance Matrix: (Units=1/GPa)
#
#
# Indices 1 2 3 4 5 6 
#
# 1 0.014330 -0.001729 -0.005027 0.000000 0.000000 0.000000
# 2 -0.001729 0.014458 -0.006276 0.000000 0.000000 0.000000
# 3 -0.005027 -0.006276 0.015095 0.000000 0.000000 0.000000
# 4 0.000000 0.000000 0.000000 0.043653 0.000000 0.000000
# 5 0.000000 0.000000 0.000000 0.000000 0.025011 0.000000
# 6 0.000000 0.000000 0.000000 0.000000 0.000000 0.032775
#
#
# Mechanical properties :
#
#
# Convention : Reuss Voigt Hill
#
# Bulk Modulus (GPa) = 56.11469 57.28967 56.70218
# Shear Modulus (GPa) = 28.19654 29.58608 28.89131
#
# Velocity S-wave (km/s) = 3.88181 3.97631 3.92934
# Velocity P-wave (km/s) = 7.07668 7.19009 7.13361
#
# Compressibility (1/GPa) = 0.01782065
#
# Stress axis : x y z
#
# Youngs Moduli (GPa) = 69.78342 69.16448 66.24554
#
# Poissons Ratio (x) = 0.11960 0.33299
# Poissons Ratio (y) = 0.12067 0.41574
# Poissons Ratio (z) = 0.35078 0.43406
#
# Static dielectric constant tensor:
#      x y z
#    x 3.258660 0.000000 0.000000 
#    y 0.000000 3.717510 0.000000 
#    z 0.000000 0.000000 3.742690 
# 
# 
# High freq. dielectric constant tensor:
#      x y z
#    x 1.711470 0.000000 0.000000 
#    y 0.000000 1.715750 0.000000 
#    z 0.000000 0.000000 1.739540 
# 
# From -- ./inp_files/31247.got.cif
#   From: 2010.06.25/outbox.cif.g09.slc.cpg/sg52_16_cif.got.tgz:31247.got - 2010.06.26 19:32:48.
