data_PCOD8215550
_publ_section_title
;
Structure prediction by ZEFSAII (Michael W. Deem and Ramdas Pophale) SiO2 
 PCOD8215550
Probable space group: P N N A
;
_chemical_formula_sum "Si O2"
_cell_formula_units_Z 48
_cell_length_a 15.056557
_cell_length_b 17.003744
_cell_length_c 9.470282
_cell_angle_alpha 90.000000
_cell_angle_beta 90.000000
_cell_angle_gamma 90.000000
_cell_volume 2424.561149
_symmetry_space_group_name_H-M "P N N A"
_symmetry_group_IT_number 52
_symmetry_cell_setting 'orthorhombic'
loop_
_space_group_symop_operation_xyz
x,y,z
1/2-x,-y,z
x,1/2-y,1/2-z
1/2-x,1/2+y,1/2-z
-x,-y,-z
1/2+x,y,-z
-x,1/2+y,1/2+z
1/2+x,1/2-y,1/2+z
loop_
_atom_site_type_symbol
_atom_site_label
_atom_site_fract_x
_atom_site_fract_y
_atom_site_fract_z
Si Si1 0.685625 0.931046 0.738516
Si Si2 0.998593 0.504249 0.832786
Si Si3 0.569259 0.663259 0.242856
Si Si4 0.215952 0.855281 0.964763
Si Si5 0.683979 0.429808 0.216200
Si Si6 0.223298 0.676190 0.984086
O O1 0.584966 0.960241 0.732002
O O2 0.700751 0.856920 0.637574
O O3 0.750000 0.000000 0.686376
O O4 0.708553 0.907376 0.896766
O O5 0.996204 0.595835 0.783702
O O6 0.084767 0.461373 0.770782
O O7 0.000000 0.500000 0.000000
O O8 0.523735 0.750000 0.250000
O O9 0.620653 0.645307 0.388106
O O10 0.639405 0.661658 0.116141
O O11 0.291849 0.893004 0.867262
O O12 0.246539 0.767332 0.001904
O O13 0.750000 0.500000 0.175576
O O14 0.692121 0.365896 0.089975
#
# Coordination Sequence:
#
# PCOD8215550 Si02
#       6
#     8   8   8   8   8   8
#     4  12  25  40  62  93 131 170 218 271 321 380
#     4  12  22  39  68  99 124 168 226 273 316 387
#     4   9  19  38  65  90 124 166 202 256 327 387
#     4  10  22  40  61  91 129 171 205 262 333 383
#     4  11  19  39  67  92 122 162 217 268 320 389
#     4  10  19  40  65  87 125 172 211 258 322 392
#
# _framework density 19.797398000000001
#
# number of rings (size 3 to 8) (size 9 to 14) (size 15 to 20)
#    0.000    1.333    5.000    4.000    0.000    0.667 
#    0.000    6.667    0.000    0.000    0.000    0.000 
#    0.000    0.000    0.000    0.000    0.000    0.000 
#
# Total GULP energy -595350.468231 kJ/mol
# GULP energy per Si atom -12403.134755 kJ/mol
# Density = 1.975234 g / cm^3
# Si number density = 19.797398 Si / 1000 Ang^3
#
#
#
# Elastic Constant Matrix: (Units=GPa)
#
#
# Indices 1 2 3 4 5 6 
#
# 1 99.5127 49.6579 27.3101 0.0000 0.0000 0.0000
# 2 49.6579 146.6876 49.2245 0.0000 0.0000 0.0000
# 3 27.3101 49.2245 104.3013 0.0000 0.0000 0.0000
# 4 0.0000 0.0000 0.0000 38.6649 0.0000 0.0000
# 5 0.0000 0.0000 0.0000 0.0000 18.8475 0.0000
# 6 0.0000 0.0000 0.0000 0.0000 0.0000 24.0654
#
#
#
# Elastic Compliance Matrix: (Units=1/GPa)
#
#
# Indices 1 2 3 4 5 6 
#
# 1 0.012283 -0.003658 -0.001490 0.000000 0.000000 0.000000
# 2 -0.003658 0.009190 -0.003379 0.000000 0.000000 0.000000
# 3 -0.001490 -0.003379 0.011572 0.000000 0.000000 0.000000
# 4 0.000000 0.000000 0.000000 0.025863 0.000000 0.000000
# 5 0.000000 0.000000 0.000000 0.000000 0.053057 0.000000
# 6 0.000000 0.000000 0.000000 0.000000 0.000000 0.041554
#
#
# Mechanical properties :
#
#
# Convention : Reuss Voigt Hill
#
# Bulk Modulus (GPa) = 62.53494 66.98740 64.76117
# Shear Modulus (GPa) = 28.42458 31.26952 29.84705
#
# Velocity S-wave (km/s) = 3.79327 3.97857 3.88703
# Velocity P-wave (km/s) = 7.13030 7.41723 7.27518
#
# Compressibility (1/GPa) = 0.01599106
#
# Stress axis : x y z
#
# Youngs Moduli (GPa) = 81.41098 108.81869 86.41244
#
# Poissons Ratio (x) = 0.39810 0.12873
# Poissons Ratio (y) = 0.29783 0.29199
# Poissons Ratio (z) = 0.12128 0.36771
#
# Static dielectric constant tensor:
#      x y z
#    x 4.027770 0.000000 0.000000 
#    y 0.000000 4.027210 0.000000 
#    z 0.000000 0.000000 3.577760 
# 
# 
# High freq. dielectric constant tensor:
#      x y z
#    x 1.739150 0.000000 0.000000 
#    y 0.000000 1.793040 0.000000 
#    z 0.000000 0.000000 1.777950 
# 
# From -- ./inp_files/10420.got.cif
#   From: 2010.06.25/outbox.cif.g09.slc.cpg/sg52_6_cif.got.tgz:10420.got - 2010.06.26 19:32:48.
