data_PCOD8215505
_publ_section_title
;
Structure prediction by ZEFSAII (Michael W. Deem and Ramdas Pophale) SiO2 
 PCOD8215505
Probable space group: P N N A
;
_chemical_formula_sum "Si O2"
_cell_formula_units_Z 40
_cell_length_a 18.304651
_cell_length_b 7.737782
_cell_length_c 14.395922
_cell_angle_alpha 90.000000
_cell_angle_beta 90.000000
_cell_angle_gamma 90.000000
_cell_volume 2039.000949
_symmetry_space_group_name_H-M "P N N A"
_symmetry_group_IT_number 52
_symmetry_cell_setting 'orthorhombic'
loop_
_space_group_symop_operation_xyz
x,y,z
1/2-x,-y,z
x,1/2-y,1/2-z
1/2-x,1/2+y,1/2-z
-x,-y,-z
1/2+x,y,-z
-x,1/2+y,1/2+z
1/2+x,1/2-y,1/2+z
loop_
_atom_site_type_symbol
_atom_site_label
_atom_site_fract_x
_atom_site_fract_y
_atom_site_fract_z
Si Si1 0.101675 0.971743 0.913188
Si Si2 0.445057 0.250000 0.750000
Si Si3 0.509663 0.759045 0.948137
Si Si4 0.219949 0.312091 0.149010
Si Si5 0.942358 0.920295 0.621870
Si Si6 0.250000 0.500000 0.487074
O O1 0.106227 0.847598 0.823812
O O2 0.049708 0.134672 0.887025
O O3 0.067038 0.885443 0.004264
O O4 0.182709 0.020112 0.942735
O O5 0.496194 0.114948 0.697768
O O6 0.558416 0.629171 0.885408
O O7 0.461983 0.656033 0.022407
O O8 0.250000 0.500000 0.121813
O O9 0.247253 0.250000 0.250000
O O10 0.132704 0.330710 0.151460
O O11 0.250349 0.172246 0.075855
#
# Coordination Sequence:
#
# PCOD8215505 Si02
#       6
#     8   4   8   8   8   4
#     4  10  21  40  62  91 123 167 211 261 319 382
#     4  10  22  38  62  88 122 158 218 266 296 368
#     4   9  19  36  65  86 115 161 212 252 315 377
#     4  12  24  39  62  98 131 166 209 267 337 402
#     4  10  19  38  60  89 119 156 209 265 309 375
#     4  12  24  44  66  90 134 176 208 266 336 398
#
# _framework density 19.617450000000002
#
# number of rings (size 3 to 8) (size 9 to 14) (size 15 to 20)
#    0.000    1.600    4.000    1.200    0.000    0.800 
#    3.600    2.000    0.000    0.000    0.000    0.000 
#    0.000    0.000    0.000    0.000    0.000    0.000 
#
# Total GULP energy -495895.690294 kJ/mol
# GULP energy per Si atom -12397.392257 kJ/mol
# Density = 1.957280 g / cm^3
# Si number density = 19.617450 Si / 1000 Ang^3
#
#
#
# Elastic Constant Matrix: (Units=GPa)
#
#
# Indices 1 2 3 4 5 6 
#
# 1 53.2157 20.8937 21.3373 0.0000 0.0000 0.0000
# 2 20.8937 102.1206 18.2411 0.0000 0.0000 0.0000
# 3 21.3373 18.2411 69.4276 0.0000 0.0000 0.0000
# 4 0.0000 0.0000 0.0000 15.5084 0.0000 0.0000
# 5 0.0000 0.0000 0.0000 0.0000 14.8827 0.0000
# 6 0.0000 0.0000 0.0000 0.0000 0.0000 31.8939
#
#
#
# Elastic Compliance Matrix: (Units=1/GPa)
#
#
# Indices 1 2 3 4 5 6 
#
# 1 0.022595 -0.003549 -0.006012 0.000000 0.000000 0.000000
# 2 -0.003549 0.010832 -0.001755 0.000000 0.000000 0.000000
# 3 -0.006012 -0.001755 0.016712 0.000000 0.000000 0.000000
# 4 0.000000 0.000000 0.000000 0.064481 0.000000 0.000000
# 5 0.000000 0.000000 0.000000 0.000000 0.067192 0.000000
# 6 0.000000 0.000000 0.000000 0.000000 0.000000 0.031354
#
#
# Mechanical properties :
#
#
# Convention : Reuss Voigt Hill
#
# Bulk Modulus (GPa) = 36.35384 38.41201 37.38292
# Shear Modulus (GPa) = 20.41080 23.40979 21.91030
#
# Velocity S-wave (km/s) = 3.22909 3.45819 3.34560
# Velocity P-wave (km/s) = 5.69862 5.96393 5.83278
#
# Compressibility (1/GPa) = 0.02750741
#
# Stress axis : x y z
#
# Youngs Moduli (GPa) = 44.25680 92.31899 59.83632
#
# Poissons Ratio (x) = 0.32765 0.35972
# Poissons Ratio (y) = 0.15707 0.10502
# Poissons Ratio (z) = 0.26606 0.16204
#
# Static dielectric constant tensor:
#      x y z
#    x 3.478240 0.000000 0.000000 
#    y 0.000000 3.861650 0.000000 
#    z 0.000000 0.000000 3.464820 
# 
# 
# High freq. dielectric constant tensor:
#      x y z
#    x 1.755060 0.000000 0.000000 
#    y 0.000000 1.777690 0.000000 
#    z 0.000000 0.000000 1.750990 
# 
# From -- ./inp_files/20388.got.cif
#   From: 2010.06.25/outbox.cif.g09.slc.cpg/sg52_11_cif.got.tgz:20388.got - 2010.06.26 19:32:48.
