data_PCOD8215872
_publ_section_title
;
Structure prediction by ZEFSAII (Michael W. Deem and Ramdas Pophale) SiO2 
 PCOD8215872
Probable space group: P N N A
;
_chemical_formula_sum "Si O2"
_cell_formula_units_Z 28
_cell_length_a 13.154804
_cell_length_b 4.994179
_cell_length_c 19.539043
_cell_angle_alpha 90.000000
_cell_angle_beta 90.000000
_cell_angle_gamma 90.000000
_cell_volume 1283.665220
_symmetry_space_group_name_H-M "P N N A"
_symmetry_group_IT_number 52
_symmetry_cell_setting 'orthorhombic'
loop_
_space_group_symop_operation_xyz
x,y,z
1/2-x,-y,z
x,1/2-y,1/2-z
1/2-x,1/2+y,1/2-z
-x,-y,-z
1/2+x,y,-z
-x,1/2+y,1/2+z
1/2+x,1/2-y,1/2+z
loop_
_atom_site_type_symbol
_atom_site_label
_atom_site_fract_x
_atom_site_fract_y
_atom_site_fract_z
Si Si1 0.808526 0.750000 0.750000
Si Si2 0.862206 0.919509 0.888310
Si Si3 0.521669 0.569553 0.922521
Si Si4 0.868855 0.999202 0.297271
O O1 0.750000 0.500000 0.787298
O O2 0.871935 0.916833 0.805842
O O3 0.881511 0.615747 0.909213
O O4 0.750000 0.000000 0.913442
O O5 0.947157 0.120063 0.917190
O O6 0.430958 0.503107 0.868893
O O7 0.500000 0.500000 0.000000
O O8 0.897513 0.750000 0.250000
O O9 0.750000 0.000000 0.317765
O O10 0.897861 0.250000 0.250000
#
# Coordination Sequence:
#
# PCOD8215872 Si02
#       4
#     4   8   8   8
#     4  10  20  38  62  96 128 166 216 262 328 406
#     4  11  24  42  65  97 137 174 214 267 340 410
#     4  12  26  43  66 101 135 179 226 279 346 413
#     4  10  23  44  69  96 126 173 233 288 332 387
#
# _framework density 21.812539999999998
#
# number of rings (size 3 to 8) (size 9 to 14) (size 15 to 20)
#    0.000    1.143    0.000    6.857    6.000    2.286 
#    0.000    2.857    0.000    0.000    0.000    0.000 
#    0.000    0.000    0.000    0.000    0.000    0.000 
#
# Total GULP energy -346876.266609 kJ/mol
# GULP energy per Si atom -12388.438093 kJ/mol
# Density = 2.176289 g / cm^3
# Si number density = 21.812540 Si / 1000 Ang^3
#
#
#
# Elastic Constant Matrix: (Units=GPa)
#
#
# Indices 1 2 3 4 5 6 
#
# 1 89.1890 22.6309 52.6528 0.0000 0.0000 0.0000
# 2 22.6309 123.8322 34.3628 0.0000 0.0000 0.0000
# 3 52.6528 34.3628 163.0306 0.0000 0.0000 0.0000
# 4 0.0000 0.0000 0.0000 36.0525 0.0000 0.0000
# 5 0.0000 0.0000 0.0000 0.0000 19.5926 0.0000
# 6 0.0000 0.0000 0.0000 0.0000 0.0000 31.6412
#
#
#
# Elastic Compliance Matrix: (Units=1/GPa)
#
#
# Indices 1 2 3 4 5 6 
#
# 1 0.014076 -0.001392 -0.004253 0.000000 0.000000 0.000000
# 2 -0.001392 0.008715 -0.001387 0.000000 0.000000 0.000000
# 3 -0.004253 -0.001387 0.007800 0.000000 0.000000 0.000000
# 4 0.000000 0.000000 0.000000 0.027737 0.000000 0.000000
# 5 0.000000 0.000000 0.000000 0.000000 0.051040 0.000000
# 6 0.000000 0.000000 0.000000 0.000000 0.000000 0.031604
#
#
# Mechanical properties :
#
#
# Convention : Reuss Voigt Hill
#
# Bulk Modulus (GPa) = 60.50996 66.14940 63.32968
# Shear Modulus (GPa) = 31.14397 35.21762 33.18079
#
# Velocity S-wave (km/s) = 3.78272 4.02252 3.90446
# Velocity P-wave (km/s) = 6.84688 7.20877 7.03015
#
# Compressibility (1/GPa) = 0.01652620
#
# Stress axis : x y z
#
# Youngs Moduli (GPa) = 71.04325 114.74678 128.21155
#
# Poissons Ratio (x) = 0.15977 0.54522
# Poissons Ratio (y) = 0.09892 0.17785
# Poissons Ratio (z) = 0.30211 0.15917
#
# Static dielectric constant tensor:
#      x y z
#    x 5.403730 0.000000 0.000000 
#    y 0.000000 4.236080 0.000000 
#    z 0.000000 0.000000 3.408970 
# 
# 
# High freq. dielectric constant tensor:
#      x y z
#    x 1.848140 0.000000 0.000000 
#    y 0.000000 1.886880 0.000000 
#    z 0.000000 0.000000 1.851760 
# 
# From -- ./inp_files/36366.got.cif
#   From: 2010.06.25/outbox.cif.g09.slc.cpg/sg52_19_cif.got.tgz:36366.got - 2010.06.26 19:32:48.
