data_PCOD8215142
_publ_section_title
;
Structure prediction by ZEFSAII (Michael W. Deem and Ramdas Pophale) SiO2 
 PCOD8215142
Probable space group: P N N A
;
_chemical_formula_sum "Si O2"
_cell_formula_units_Z 56
_cell_length_a 15.690663
_cell_length_b 22.285500
_cell_length_c 8.666815
_cell_angle_alpha 90.000000
_cell_angle_beta 90.000000
_cell_angle_gamma 90.000000
_cell_volume 3030.562211
_symmetry_space_group_name_H-M "P N N A"
_symmetry_group_IT_number 52
_symmetry_cell_setting 'orthorhombic'
loop_
_space_group_symop_operation_xyz
x,y,z
1/2-x,-y,z
x,1/2-y,1/2-z
1/2-x,1/2+y,1/2-z
-x,-y,-z
1/2+x,y,-z
-x,1/2+y,1/2+z
1/2+x,1/2-y,1/2+z
loop_
_atom_site_type_symbol
_atom_site_label
_atom_site_fract_x
_atom_site_fract_y
_atom_site_fract_z
Si Si1 0.210106 0.877883 0.820651
Si Si2 0.904417 0.345552 0.059157
Si Si3 0.106408 0.395577 0.555334
Si Si4 0.958109 0.811243 0.809760
Si Si5 0.385401 0.286276 0.488122
Si Si6 0.566180 0.617154 0.732808
Si Si7 0.842747 0.021336 0.956049
O O1 0.176686 0.876339 0.644287
O O2 0.311262 0.883481 0.838617
O O3 0.183646 0.815126 0.897745
O O4 0.162977 0.934103 0.898722
O O5 0.985530 0.340831 0.173592
O O6 0.868145 0.284379 0.982122
O O7 0.935806 0.386012 0.917334
O O8 0.107408 0.357066 0.393959
O O9 0.100469 0.464760 0.504873
O O10 0.028346 0.380756 0.665329
O O11 0.911056 0.750000 0.750000
O O12 0.020536 0.791354 0.944327
O O13 0.384220 0.322537 0.326028
O O14 0.613421 0.556438 0.683192
O O15 0.750000 0.000000 0.899982
#
# Coordination Sequence:
#
# PCOD8215142 Si02
#       7
#     8   8   8   8   8   8   8
#     4   9  18  34  54  73  97 139 180 211 250 307
#     4  10  18  33  53  78 107 135 169 214 259 303
#     4  10  19  35  55  76 103 138 177 213 258 314
#     4   8  16  32  53  74 101 135 168 207 253 303
#     4   8  16  33  53  71 102 144 171 191 248 323
#     4  10  19  32  55  82 104 134 173 215 262 308
#     4   9  19  37  55  70  98 143 182 207 250 322
#
# _framework density 18.478418999999999
#
# number of rings (size 3 to 8) (size 9 to 14) (size 15 to 20)
#    0.000    2.857    0.000    3.000    0.000    0.000 
#    0.000   22.143    0.000    0.000    0.000    0.000 
#    0.000    0.000    0.000    0.000    0.000    0.000 
#
# Total GULP energy -693924.546399 kJ/mol
# GULP energy per Si atom -12391.509757 kJ/mol
# Density = 1.843636 g / cm^3
# Si number density = 18.478419 Si / 1000 Ang^3
#
#
#
# Elastic Constant Matrix: (Units=GPa)
#
#
# Indices 1 2 3 4 5 6 
#
# 1 58.8424 43.2854 48.6410 0.0000 0.0000 0.0000
# 2 43.2854 106.0345 51.9001 0.0000 0.0000 0.0000
# 3 48.6410 51.9001 129.9456 0.0000 0.0000 0.0000
# 4 0.0000 0.0000 0.0000 9.8377 0.0000 0.0000
# 5 0.0000 0.0000 0.0000 0.0000 18.2567 0.0000
# 6 0.0000 0.0000 0.0000 0.0000 0.0000 21.5252
#
#
#
# Elastic Compliance Matrix: (Units=1/GPa)
#
#
# Indices 1 2 3 4 5 6 
#
# 1 0.029444 -0.008235 -0.007732 0.000000 0.000000 0.000000
# 2 -0.008235 0.014026 -0.002519 0.000000 0.000000 0.000000
# 3 -0.007732 -0.002519 0.011596 0.000000 0.000000 0.000000
# 4 0.000000 0.000000 0.000000 0.101649 0.000000 0.000000
# 5 0.000000 0.000000 0.000000 0.000000 0.054774 0.000000
# 6 0.000000 0.000000 0.000000 0.000000 0.000000 0.046457
#
#
# Mechanical properties :
#
#
# Convention : Reuss Voigt Hill
#
# Bulk Modulus (GPa) = 55.27148 64.71950 59.99549
# Shear Modulus (GPa) = 16.61397 19.99033 18.30215
#
# Velocity S-wave (km/s) = 3.00176 3.29267 3.15057
# Velocity P-wave (km/s) = 6.48000 7.03960 6.76559
#
# Compressibility (1/GPa) = 0.01809251
#
# Stress axis : x y z
#
# Youngs Moduli (GPa) = 33.96252 71.29772 86.23540
#
# Poissons Ratio (x) = 0.58713 0.66681
# Poissons Ratio (y) = 0.27968 0.21726
# Poissons Ratio (z) = 0.26261 0.17962
#
# Static dielectric constant tensor:
#      x y z
#    x 3.209050 0.000000 0.000000 
#    y 0.000000 3.662200 0.000000 
#    z 0.000000 0.000000 3.362380 
# 
# 
# High freq. dielectric constant tensor:
#      x y z
#    x 1.694710 0.000000 0.000000 
#    y 0.000000 1.721600 0.000000 
#    z 0.000000 0.000000 1.702830 
# 
# From -- ./inp_files/12530.got.cif
#   From: 2010.06.25/outbox.cif.g09.slc.cpg/sg52_7_cif.got.tgz:12530.got - 2010.06.26 19:32:48.
