data_PCOD8215185
_publ_section_title
;
Structure prediction by ZEFSAII (Michael W. Deem and Ramdas Pophale) SiO2 
 PCOD8215185
Probable space group: P N N A
;
_chemical_formula_sum "Si O2"
_cell_formula_units_Z 60
_cell_length_a 30.378942
_cell_length_b 9.297252
_cell_length_c 10.555571
_cell_angle_alpha 90.000000
_cell_angle_beta 90.000000
_cell_angle_gamma 90.000000
_cell_volume 2981.322643
_symmetry_space_group_name_H-M "P N N A"
_symmetry_group_IT_number 52
_symmetry_cell_setting 'orthorhombic'
loop_
_space_group_symop_operation_xyz
x,y,z
1/2-x,-y,z
x,1/2-y,1/2-z
1/2-x,1/2+y,1/2-z
-x,-y,-z
1/2+x,y,-z
-x,1/2+y,1/2+z
1/2+x,1/2-y,1/2+z
loop_
_atom_site_type_symbol
_atom_site_label
_atom_site_fract_x
_atom_site_fract_y
_atom_site_fract_z
Si Si1 0.908644 0.750000 0.250000
Si Si2 0.885559 0.972245 0.629459
Si Si3 0.379785 0.673029 0.488582
Si Si4 0.519409 0.021849 0.294535
Si Si5 0.709429 0.081464 0.618230
Si Si6 0.455450 0.158512 0.488920
Si Si7 0.289292 0.600691 0.415646
Si Si8 0.439584 0.465322 0.378380
O O1 0.876907 0.741801 0.371958
O O2 0.936866 0.896345 0.252954
O O3 0.884096 0.798190 0.618061
O O4 0.834768 0.015166 0.603514
O O5 0.916023 0.043245 0.523513
O O6 0.903501 0.028873 0.764877
O O7 0.339050 0.561038 0.460853
O O8 0.425397 0.584422 0.479879
O O9 0.494908 0.127845 0.392302
O O10 0.488132 0.995299 0.173077
O O11 0.528674 0.868377 0.365611
O O12 0.710958 0.231832 0.541879
O O13 0.716742 0.100929 0.766701
O O14 0.750000 0.000000 0.555558
O O15 0.438244 0.316560 0.456073
O O16 0.250000 0.500000 0.475492
#
# Coordination Sequence:
#
# PCOD8215185 Si02
#       8
#     4   8   8   8   8   8   8   8
#     4  12  22  42  60  78 114 162 208 244 294 360
#     4  10  18  35  58  84 123 156 189 237 295 370
#     4  11  23  37  61  87 113 159 201 244 299 356
#     4  10  20  38  57  79 120 157 195 244 293 351
#     4   9  17  30  52  87 120 148 177 224 300 364
#     4  10  20  36  56  84 120 156 192 239 301 350
#     4   9  18  35  54  84 119 143 185 236 288 353
#     4  11  21  36  60  88 114 151 203 246 299 348
#
# _framework density 20.125295000000001
#
# number of rings (size 3 to 8) (size 9 to 14) (size 15 to 20)
#    0.000    1.867    4.000    1.600    0.000    1.600 
#    4.800    2.000    0.000    3.200    0.000    0.000 
#    0.000    0.000    0.000    0.000    0.000    0.000 
#
# Total GULP energy -743318.243923 kJ/mol
# GULP energy per Si atom -12388.637399 kJ/mol
# Density = 2.007949 g / cm^3
# Si number density = 20.125295 Si / 1000 Ang^3
#
#
#
# Elastic Constant Matrix: (Units=GPa)
#
#
# Indices 1 2 3 4 5 6 
#
# 1 101.7167 41.6969 15.2567 0.0000 0.0000 0.0000
# 2 41.6969 82.1645 28.1713 0.0000 0.0000 0.0000
# 3 15.2567 28.1713 55.2487 0.0000 0.0000 0.0000
# 4 0.0000 0.0000 0.0000 24.5488 0.0000 0.0000
# 5 0.0000 0.0000 0.0000 0.0000 10.1155 0.0000
# 6 0.0000 0.0000 0.0000 0.0000 0.0000 39.6487
#
#
#
# Elastic Compliance Matrix: (Units=1/GPa)
#
#
# Indices 1 2 3 4 5 6 
#
# 1 0.012417 -0.006212 -0.000262 0.000000 0.000000 0.000000
# 2 -0.006212 0.017857 -0.007390 0.000000 0.000000 0.000000
# 3 -0.000262 -0.007390 0.021940 0.000000 0.000000 0.000000
# 4 0.000000 0.000000 0.000000 0.040735 0.000000 0.000000
# 5 0.000000 0.000000 0.000000 0.000000 0.098858 0.000000
# 6 0.000000 0.000000 0.000000 0.000000 0.000000 0.025221
#
#
# Mechanical properties :
#
#
# Convention : Reuss Voigt Hill
#
# Bulk Modulus (GPa) = 40.83665 45.48663 43.16164
# Shear Modulus (GPa) = 19.76934 25.12963 22.44948
#
# Velocity S-wave (km/s) = 3.13759 3.53747 3.34351
# Velocity P-wave (km/s) = 5.78457 6.27182 6.03311
#
# Compressibility (1/GPa) = 0.02448781
#
# Stress axis : x y z
#
# Youngs Moduli (GPa) = 80.53612 56.00145 45.57835
#
# Poissons Ratio (x) = 0.34786 0.01192
# Poissons Ratio (y) = 0.50026 0.33682
# Poissons Ratio (z) = 0.02106 0.41384
#
# Static dielectric constant tensor:
#      x y z
#    x 3.896520 0.000000 0.000000 
#    y 0.000000 3.717010 0.000000 
#    z 0.000000 0.000000 3.408840 
# 
# 
# High freq. dielectric constant tensor:
#      x y z
#    x 1.786280 0.000000 0.000000 
#    y 0.000000 1.771840 0.000000 
#    z 0.000000 0.000000 1.751740 
# 
# From -- ./inp_files/23146.got.cif
#   From: 2010.06.25/outbox.cif.g09.slc.cpg/sg52_12_cif.got.tgz:23146.got - 2010.06.26 19:32:48.
