data_PCOD8215092
_publ_section_title
;
Structure prediction by ZEFSAII (Michael W. Deem and Ramdas Pophale) SiO2 
 PCOD8215092
Probable space group: P N N A
;
_chemical_formula_sum "Si O2"
_cell_formula_units_Z 56
_cell_length_a 12.788282
_cell_length_b 21.125338
_cell_length_c 11.827780
_cell_angle_alpha 90.000000
_cell_angle_beta 90.000000
_cell_angle_gamma 90.000000
_cell_volume 3195.354956
_symmetry_space_group_name_H-M "P N N A"
_symmetry_group_IT_number 52
_symmetry_cell_setting 'orthorhombic'
loop_
_space_group_symop_operation_xyz
x,y,z
1/2-x,-y,z
x,1/2-y,1/2-z
1/2-x,1/2+y,1/2-z
-x,-y,-z
1/2+x,y,-z
-x,1/2+y,1/2+z
1/2+x,1/2-y,1/2+z
loop_
_atom_site_type_symbol
_atom_site_label
_atom_site_fract_x
_atom_site_fract_y
_atom_site_fract_z
Si Si1 0.545213 0.683423 0.691257
Si Si2 0.750000 0.500000 0.195411
Si Si3 0.810481 0.142465 0.622143
Si Si4 0.578586 0.553594 0.032386
Si Si5 0.658604 0.370783 0.219895
Si Si6 0.409009 0.650124 0.034462
Si Si7 0.193435 0.750000 0.750000
Si Si8 0.574868 0.753372 0.478451
O O1 0.516566 0.750000 0.750000
O O2 0.646912 0.653394 0.751639
O O3 0.445034 0.638600 0.705829
O O4 0.570999 0.691239 0.558608
O O5 0.655855 0.528908 0.125575
O O6 0.706723 0.438276 0.263109
O O7 0.853879 0.075598 0.576421
O O8 0.684714 0.144488 0.624305
O O9 0.848198 0.196491 0.536502
O O10 0.507778 0.610505 0.081365
O O11 0.500000 0.500000 0.000000
O O12 0.737865 0.312678 0.234206
O O13 0.628683 0.375799 0.087331
O O14 0.454611 0.721347 0.026665
O O15 0.119042 0.736046 0.643598
#
# Coordination Sequence:
#
# PCOD8215092 Si02
#       8
#     8   4   8   8   8   8   4   8
#     4  10  18  34  54  78 110 155 188 226 285 357
#     4  12  22  32  54  88 116 152 198 232 292 350
#     4  10  18  31  50  77 114 147 178 226 279 345
#     4  11  17  28  46  77 115 149 179 224 280 343
#     4  12  19  35  59  82 114 151 191 236 285 355
#     4  11  18  33  50  79 117 148 180 230 285 348
#     4  12  22  38  58  82 116 144 194 256 288 336
#     4  10  21  34  53  79 109 148 195 235 288 339
#
# _framework density 17.525438000000001
#
# number of rings (size 3 to 8) (size 9 to 14) (size 15 to 20)
#    0.000    1.143    9.286    0.857    0.000    0.000 
#    3.857    0.000    0.000    0.857    0.000    3.000 
#    0.000    0.000    0.000    0.000    0.000    0.000 
#
# Total GULP energy -694121.151251 kJ/mol
# GULP energy per Si atom -12395.020558 kJ/mol
# Density = 1.748555 g / cm^3
# Si number density = 17.525438 Si / 1000 Ang^3
#
#
#
# Elastic Constant Matrix: (Units=GPa)
#
#
# Indices 1 2 3 4 5 6 
#
# 1 127.8226 37.4920 42.9314 0.0000 0.0000 0.0000
# 2 37.4920 83.8454 28.8677 0.0000 0.0000 0.0000
# 3 42.9314 28.8677 89.3834 0.0000 0.0000 0.0000
# 4 0.0000 0.0000 0.0000 20.0314 0.0000 0.0000
# 5 0.0000 0.0000 0.0000 0.0000 23.0376 0.0000
# 6 0.0000 0.0000 0.0000 0.0000 0.0000 28.1066
#
#
#
# Elastic Compliance Matrix: (Units=1/GPa)
#
#
# Indices 1 2 3 4 5 6 
#
# 1 0.010029 -0.003180 -0.003790 0.000000 0.000000 0.000000
# 2 -0.003180 0.014427 -0.003132 0.000000 0.000000 0.000000
# 3 -0.003790 -0.003132 0.014020 0.000000 0.000000 0.000000
# 4 0.000000 0.000000 0.000000 0.049922 0.000000 0.000000
# 5 0.000000 0.000000 0.000000 0.000000 0.043407 0.000000
# 6 0.000000 0.000000 0.000000 0.000000 0.000000 0.035579
#
#
# Mechanical properties :
#
#
# Convention : Reuss Voigt Hill
#
# Bulk Modulus (GPa) = 54.72899 57.73706 56.23303
# Shear Modulus (GPa) = 25.81613 27.01917 26.41765
#
# Velocity S-wave (km/s) = 3.84222 3.93072 3.88672
# Velocity P-wave (km/s) = 7.14000 7.32236 7.23176
#
# Compressibility (1/GPa) = 0.01827185
#
# Stress axis : x y z
#
# Youngs Moduli (GPa) = 99.71183 69.31498 71.32804
#
# Poissons Ratio (x) = 0.22039 0.27034
# Poissons Ratio (y) = 0.31704 0.22341
# Poissons Ratio (z) = 0.37791 0.21711
#
# Static dielectric constant tensor:
#      x y z
#    x 3.425640 0.000000 0.000000 
#    y 0.000000 3.566790 0.000000 
#    z 0.000000 0.000000 2.950230 
# 
# 
# High freq. dielectric constant tensor:
#      x y z
#    x 1.697370 0.000000 0.000000 
#    y 0.000000 1.666820 0.000000 
#    z 0.000000 0.000000 1.627180 
# 
# From -- ./inp_files/18383.got.cif
#   From: 2010.06.25/outbox.cif.g09.slc.cpg/sg52_10_cif.got.tgz:18383.got - 2010.06.26 19:32:48.
