data_PCOD8215480
_publ_section_title
;
Structure prediction by ZEFSAII (Michael W. Deem and Ramdas Pophale) SiO2 
 PCOD8215480
Probable space group: P N N A
;
_chemical_formula_sum "Si O2"
_cell_formula_units_Z 40
_cell_length_a 10.274376
_cell_length_b 7.581166
_cell_length_c 24.535645
_cell_angle_alpha 90.000000
_cell_angle_beta 90.000000
_cell_angle_gamma 90.000000
_cell_volume 1911.124326
_symmetry_space_group_name_H-M "P N N A"
_symmetry_group_IT_number 52
_symmetry_cell_setting 'orthorhombic'
loop_
_space_group_symop_operation_xyz
x,y,z
1/2-x,-y,z
x,1/2-y,1/2-z
1/2-x,1/2+y,1/2-z
-x,-y,-z
1/2+x,y,-z
-x,1/2+y,1/2+z
1/2+x,1/2-y,1/2+z
loop_
_atom_site_type_symbol
_atom_site_label
_atom_site_fract_x
_atom_site_fract_y
_atom_site_fract_z
Si Si1 0.007825 0.282197 0.061716
Si Si2 0.625151 0.402878 0.290140
Si Si3 0.604153 0.510634 0.636376
Si Si4 0.741693 0.188408 0.383761
Si Si5 0.485619 0.181703 0.439839
O O1 0.879548 0.248953 0.096189
O O2 0.103591 0.141981 0.089945
O O3 0.068389 0.480133 0.065124
O O4 0.967414 0.236162 0.999721
O O5 0.750000 0.500000 0.261168
O O6 0.572867 0.250000 0.250000
O O7 0.498502 0.512949 0.312493
O O8 0.690913 0.334054 0.344139
O O9 0.750000 0.500000 0.661251
O O10 0.580100 0.698918 0.606715
O O11 0.641655 0.168122 0.433825
O O12 0.750000 0.000000 0.353218
#
# Coordination Sequence:
#
# PCOD8215480 Si02
#       5
#     8   8   8   8   8
#     4  10  19  37  59  90 131 169 207 246 304 362
#     4  11  22  42  68  89 113 154 211 271 321 371
#     4  11  24  40  61  92 131 165 204 252 319 383
#     4   9  18  35  59  89 120 154 210 260 296 360
#     4   9  21  34  59  91 128 173 208 246 293 373
#
# _framework density 20.930088999999999
#
# number of rings (size 3 to 8) (size 9 to 14) (size 15 to 20)
#    0.000    2.000    2.000    1.200    2.800    0.800 
#    0.000    1.000    0.000    0.000    0.000    0.000 
#    0.000    0.000    0.000    0.000    0.000    0.000 
#
# Total GULP energy -495540.076984 kJ/mol
# GULP energy per Si atom -12388.501925 kJ/mol
# Density = 2.088245 g / cm^3
# Si number density = 20.930089 Si / 1000 Ang^3
#
#
#
# Elastic Constant Matrix: (Units=GPa)
#
#
# Indices 1 2 3 4 5 6 
#
# 1 112.1683 24.5229 19.3273 0.0000 0.0000 0.0000
# 2 24.5229 82.4919 19.1428 0.0000 0.0000 0.0000
# 3 19.3273 19.1428 66.0309 0.0000 0.0000 0.0000
# 4 0.0000 0.0000 0.0000 -12.9415 0.0000 0.0000
# 5 0.0000 0.0000 0.0000 0.0000 2.9108 0.0000
# 6 0.0000 0.0000 0.0000 0.0000 0.0000 18.6307
#
#
#
# Elastic Compliance Matrix: (Units=1/GPa)
#
#
# Indices 1 2 3 4 5 6 
#
# 1 0.009818 -0.002414 -0.002174 0.000000 0.000000 0.000000
# 2 -0.002414 0.013590 -0.003233 0.000000 0.000000 0.000000
# 3 -0.002174 -0.003233 0.016718 0.000000 0.000000 0.000000
# 4 0.000000 0.000000 0.000000 -0.077271 0.000000 0.000000
# 5 0.000000 0.000000 0.000000 0.000000 0.343544 0.000000
# 6 0.000000 0.000000 0.000000 0.000000 0.000000 0.053675
#
#
# Mechanical properties :
#
#
# Convention : Reuss Voigt Hill
#
# Bulk Modulus (GPa) = 40.84364 42.96412 41.90388
# Shear Modulus (GPa) = 13.02498 14.89988 13.96243
#
# Velocity S-wave (km/s) = 2.49732 2.67102 2.58563
# Velocity P-wave (km/s) = 5.27941 5.48493 5.38315
#
# Compressibility (1/GPa) = 0.02448361
#
# Stress axis : x y z
#
# Youngs Moduli (GPa) = 101.85886 73.58153 59.81563
#
# Poissons Ratio (x) = 0.17763 0.13002
# Poissons Ratio (y) = 0.24590 0.19340
# Poissons Ratio (z) = 0.22141 0.23791
#
# Static dielectric constant tensor:
#      x y z
#    x 4.168390 0.000000 0.000000 
#    y 0.000000 4.209470 0.000000 
#    z 0.000000 0.000000 3.582740 
# 
# 
# High freq. dielectric constant tensor:
#      x y z
#    x 1.811000 0.000000 0.000000 
#    y 0.000000 1.823680 0.000000 
#    z 0.000000 0.000000 1.799780 
# 
# From -- ./inp_files/42113.got.cif
#   From: 2010.06.25/outbox.cif.g09.slc.cpg/sg52_22_cif.got.tgz:42113.got - 2010.06.26 19:32:48.
