data_PCOD8215674
_publ_section_title
;
Structure prediction by ZEFSAII (Michael W. Deem and Ramdas Pophale) SiO2 
 PCOD8215674
Probable space group: P N N A
;
_chemical_formula_sum "Si O2"
_cell_formula_units_Z 64
_cell_length_a 14.823493
_cell_length_b 17.815045
_cell_length_c 12.410403
_cell_angle_alpha 90.000000
_cell_angle_beta 90.000000
_cell_angle_gamma 90.000000
_cell_volume 3277.354053
_symmetry_space_group_name_H-M "P N N A"
_symmetry_group_IT_number 52
_symmetry_cell_setting 'orthorhombic'
loop_
_space_group_symop_operation_xyz
x,y,z
1/2-x,-y,z
x,1/2-y,1/2-z
1/2-x,1/2+y,1/2-z
-x,-y,-z
1/2+x,y,-z
-x,1/2+y,1/2+z
1/2+x,1/2-y,1/2+z
loop_
_atom_site_type_symbol
_atom_site_label
_atom_site_fract_x
_atom_site_fract_y
_atom_site_fract_z
Si Si1 0.348380 0.084261 0.700723
Si Si2 0.241185 0.080957 0.044532
Si Si3 0.355584 0.583625 0.793336
Si Si4 0.249645 0.256502 0.374462
Si Si5 0.598348 0.870383 0.081050
Si Si6 0.595844 0.292409 0.034043
Si Si7 0.394926 0.296388 0.973092
Si Si8 0.569013 0.126083 0.075457
O O1 0.246969 0.093621 0.748318
O O2 0.420996 0.104821 0.795228
O O3 0.354397 0.137521 0.597748
O O4 0.368025 0.000047 0.659287
O O5 0.261732 0.153747 0.115720
O O6 0.250000 0.000000 0.105932
O O7 0.314213 0.081141 0.949037
O O8 0.141694 0.085292 0.997656
O O9 0.370897 0.643140 0.887390
O O10 0.427833 0.592028 0.695685
O O11 0.232759 0.250000 0.250000
O O12 0.164189 0.220768 0.435312
O O13 0.339363 0.212669 0.414695
O O14 0.617677 0.781842 0.089466
O O15 0.522913 0.887463 0.990711
O O16 0.588116 0.213767 0.096150
O O17 0.498617 0.316778 0.991007
#
# Coordination Sequence:
#
# PCOD8215674 Si02
#       8
#     8   8   8   8   8   8   8   8
#     4  11  22  37  61  91 123 162 205 253 310 372
#     4  10  20  35  55  83 115 149 190 241 307 362
#     4  11  22  37  61  91 123 162 205 253 310 372
#     4  10  22  41  61  83 121 159 204 261 313 370
#     4  10  21  36  59  89 120 156 202 254 303 363
#     4  10  22  39  62  87 116 162 210 253 309 372
#     4  10  22  39  62  87 116 162 210 253 309 372
#     4  10  21  36  59  89 120 156 202 254 303 363
#
# _framework density 19.527947000000001
#
# number of rings (size 3 to 8) (size 9 to 14) (size 15 to 20)
#    0.000    1.750    2.500    1.500    0.000    9.500 
#    0.000    1.250    0.000    0.000    0.000    0.000 
#    0.000    0.000    0.000    0.000    0.000    0.000 
#
# Total GULP energy -793158.487468 kJ/mol
# GULP energy per Si atom -12393.101367 kJ/mol
# Density = 1.948350 g / cm^3
# Si number density = 19.527947 Si / 1000 Ang^3
#
#
#
# Elastic Constant Matrix: (Units=GPa)
#
#
# Indices 1 2 3 4 5 6 
#
# 1 91.2384 33.0401 23.6521 0.0000 0.0000 0.0000
# 2 33.0401 119.0114 44.6907 0.0000 0.0000 0.0000
# 3 23.6521 44.6907 86.5699 0.0000 0.0000 0.0000
# 4 0.0000 0.0000 0.0000 14.5303 0.0000 0.0000
# 5 0.0000 0.0000 0.0000 0.0000 23.0731 0.0000
# 6 0.0000 0.0000 0.0000 0.0000 0.0000 21.3285
#
#
#
# Elastic Compliance Matrix: (Units=1/GPa)
#
#
# Indices 1 2 3 4 5 6 
#
# 1 0.012460 -0.002705 -0.002008 0.000000 0.000000 0.000000
# 2 -0.002705 0.011011 -0.004945 0.000000 0.000000 0.000000
# 3 -0.002008 -0.004945 0.014653 0.000000 0.000000 0.000000
# 4 0.000000 0.000000 0.000000 0.068822 0.000000 0.000000
# 5 0.000000 0.000000 0.000000 0.000000 0.043341 0.000000
# 6 0.000000 0.000000 0.000000 0.000000 0.000000 0.046886
#
#
# Mechanical properties :
#
#
# Convention : Reuss Voigt Hill
#
# Bulk Modulus (GPa) = 53.17002 55.50949 54.33975
# Shear Modulus (GPa) = 22.44601 24.81550 23.63075
#
# Velocity S-wave (km/s) = 3.39400 3.56865 3.48242
# Velocity P-wave (km/s) = 6.53037 6.74298 6.63753
#
# Compressibility (1/GPa) = 0.01880759
#
# Stress axis : x y z
#
# Youngs Moduli (GPa) = 80.25388 90.82230 68.24703
#
# Poissons Ratio (x) = 0.24571 0.13702
# Poissons Ratio (y) = 0.21711 0.33748
# Poissons Ratio (z) = 0.16113 0.44911
#
# Static dielectric constant tensor:
#      x y z
#    x 3.698840 0.000000 0.000000 
#    y 0.000000 3.847100 0.000000 
#    z 0.000000 0.000000 3.255600 
# 
# 
# High freq. dielectric constant tensor:
#      x y z
#    x 1.761360 0.000000 0.000000 
#    y 0.000000 1.772100 0.000000 
#    z 0.000000 0.000000 1.735430 
# 
# From -- ./inp_files/19881.got.cif
#   From: 2010.06.25/outbox.cif.g09.slc.cpg/sg52_10_cif.got.tgz:19881.got - 2010.06.26 19:32:48.
