data_PCOD8215061
_publ_section_title
;
Structure prediction by ZEFSAII (Michael W. Deem and Ramdas Pophale) SiO2 
 PCOD8215061
Probable space group: P N N A
;
_chemical_formula_sum "Si O2"
_cell_formula_units_Z 56
_cell_length_a 9.231426
_cell_length_b 20.938890
_cell_length_c 17.304495
_cell_angle_alpha 90.000000
_cell_angle_beta 90.000000
_cell_angle_gamma 90.000000
_cell_volume 3344.886439
_symmetry_space_group_name_H-M "P N N A"
_symmetry_group_IT_number 52
_symmetry_cell_setting 'orthorhombic'
loop_
_space_group_symop_operation_xyz
x,y,z
1/2-x,-y,z
x,1/2-y,1/2-z
1/2-x,1/2+y,1/2-z
-x,-y,-z
1/2+x,y,-z
-x,1/2+y,1/2+z
1/2+x,1/2-y,1/2+z
loop_
_atom_site_type_symbol
_atom_site_label
_atom_site_fract_x
_atom_site_fract_y
_atom_site_fract_z
Si Si1 0.295837 0.141284 0.630318
Si Si2 0.538287 0.711611 0.577970
Si Si3 0.964434 0.322792 0.275296
Si Si4 0.292191 0.177521 0.222036
Si Si5 0.538605 0.854407 0.634398
Si Si6 0.372025 0.452088 0.006498
Si Si7 0.700558 0.714325 0.421326
O O1 0.390782 0.134985 0.708091
O O2 0.128683 0.131928 0.652619
O O3 0.343509 0.085064 0.573265
O O4 0.320108 0.210075 0.591249
O O5 0.615974 0.669305 0.643671
O O6 0.560475 0.785141 0.598223
O O7 0.616367 0.694713 0.498267
O O8 0.368648 0.695089 0.572192
O O9 0.967780 0.250000 0.250000
O O10 0.868975 0.327507 0.352681
O O11 0.127988 0.347368 0.290322
O O12 0.291406 0.250000 0.250000
O O13 0.371689 0.135725 0.287102
O O14 0.605018 0.902002 0.573440
O O15 0.250000 0.500000 0.032571
O O16 0.500000 0.500000 0.000000
#
# Coordination Sequence:
#
# PCOD8215061 Si02
#       7
#     8   8   8   8   8   8   8
#     4  10  20  34  48  66  96 131 166 209 251 289
#     4  10  18  29  48  71  99 129 162 199 247 302
#     4   9  18  30  47  69  93 125 162 199 247 304
#     4   9  18  30  47  69  93 125 162 199 247 304
#     4  10  20  34  48  66  96 131 166 209 251 289
#     4  12  24  36  50  72  98 134 178 216 246 286
#     4  10  18  29  48  71  99 129 162 199 247 302
#
# _framework density 16.741972000000001
#
# number of rings (size 3 to 8) (size 9 to 14) (size 15 to 20)
#    0.000    2.000    2.857    1.714    2.000    4.571 
#    0.000    0.000    0.000    0.000    0.000    0.000 
#    0.000    2.286    0.000    0.143    0.000    0.143 
#
# Total GULP energy -694278.718089 kJ/mol
# GULP energy per Si atom -12397.834252 kJ/mol
# Density = 1.670387 g / cm^3
# Si number density = 16.741972 Si / 1000 Ang^3
#
#
#
# Elastic Constant Matrix: (Units=GPa)
#
#
# Indices 1 2 3 4 5 6 
#
# 1 157.9698 31.1266 87.1455 0.0000 0.0000 0.0000
# 2 31.1266 37.4814 31.0049 0.0000 0.0000 0.0000
# 3 87.1455 31.0049 145.2744 0.0000 0.0000 0.0000
# 4 0.0000 0.0000 0.0000 10.8457 0.0000 0.0000
# 5 0.0000 0.0000 0.0000 0.0000 37.4068 0.0000
# 6 0.0000 0.0000 0.0000 0.0000 0.0000 21.3322
#
#
#
# Elastic Compliance Matrix: (Units=1/GPa)
#
#
# Indices 1 2 3 4 5 6 
#
# 1 0.009939 -0.004034 -0.005101 0.000000 0.000000 0.000000
# 2 -0.004034 0.034037 -0.004844 0.000000 0.000000 0.000000
# 3 -0.005101 -0.004844 0.010978 0.000000 0.000000 0.000000
# 4 0.000000 0.000000 0.000000 0.092203 0.000000 0.000000
# 5 0.000000 0.000000 0.000000 0.000000 0.026733 0.000000
# 6 0.000000 0.000000 0.000000 0.000000 0.000000 0.046877
#
#
# Mechanical properties :
#
#
# Convention : Reuss Voigt Hill
#
# Bulk Modulus (GPa) = 37.04464 71.03106 54.03785
# Shear Modulus (GPa) = 19.40045 26.68019 23.04032
#
# Velocity S-wave (km/s) = 3.40780 3.99634 3.71374
# Velocity P-wave (km/s) = 6.13669 7.98832 7.12293
#
# Compressibility (1/GPa) = 0.02699446
#
# Stress axis : x y z
#
# Youngs Moduli (GPa) = 100.60904 29.37938 91.09519
#
# Poissons Ratio (x) = 0.11853 0.46471
# Poissons Ratio (y) = 0.40590 0.44129
# Poissons Ratio (z) = 0.51324 0.14232
#
# Static dielectric constant tensor:
#      x y z
#    x 3.412160 0.000000 0.000000 
#    y 0.000000 2.716600 0.000000 
#    z 0.000000 0.000000 3.300350 
# 
# 
# High freq. dielectric constant tensor:
#      x y z
#    x 1.669800 0.000000 0.000000 
#    y 0.000000 1.582350 0.000000 
#    z 0.000000 0.000000 1.653680 
# 
# From -- ./inp_files/24935.got.cif
#   From: 2010.06.25/outbox.cif.g09.slc.cpg/sg52_13_cif.got.tgz:24935.got - 2010.06.26 19:32:48.
