data_PCOD8215087
_publ_section_title
;
Structure prediction by ZEFSAII (Michael W. Deem and Ramdas Pophale) SiO2 
 PCOD8215087
Probable space group: P N N A
;
_chemical_formula_sum "Si O2"
_cell_formula_units_Z 56
_cell_length_a 23.646827
_cell_length_b 21.245571
_cell_length_c 6.242201
_cell_angle_alpha 90.000000
_cell_angle_beta 90.000000
_cell_angle_gamma 90.000000
_cell_volume 3136.021495
_symmetry_space_group_name_H-M "P N N A"
_symmetry_group_IT_number 52
_symmetry_cell_setting 'orthorhombic'
loop_
_space_group_symop_operation_xyz
x,y,z
1/2-x,-y,z
x,1/2-y,1/2-z
1/2-x,1/2+y,1/2-z
-x,-y,-z
1/2+x,y,-z
-x,1/2+y,1/2+z
1/2+x,1/2-y,1/2+z
loop_
_atom_site_type_symbol
_atom_site_label
_atom_site_fract_x
_atom_site_fract_y
_atom_site_fract_z
Si Si1 0.602613 0.648315 0.951829
Si Si2 0.790046 0.075734 0.596765
Si Si3 0.183442 0.451720 0.860658
Si Si4 0.521241 0.652543 0.577606
Si Si5 0.528254 0.559695 0.209116
Si Si6 0.447218 0.250000 0.750000
Si Si7 0.750000 0.500000 0.521408
Si Si8 0.057479 0.078842 0.635900
O O1 0.669126 0.636195 0.912316
O O2 0.574938 0.667991 0.726469
O O3 0.574453 0.584136 0.038398
O O4 0.594176 0.702705 0.126453
O O5 0.732876 0.091478 0.464274
O O6 0.821768 0.015692 0.495407
O O7 0.775220 0.057458 0.840116
O O8 0.199511 0.470259 0.618647
O O9 0.124926 0.413734 0.867772
O O10 0.535315 0.591041 0.439187
O O11 0.512394 0.712294 0.417996
O O12 0.466758 0.637986 0.726764
O O13 0.537326 0.485867 0.247719
O O14 0.466965 0.577708 0.106866
#
# Coordination Sequence:
#
# PCOD8215087 Si02
#       8
#     8   8   8   8   8   4   4   8
#     4  10  19  34  55  75 102 134 172 221 269 312
#     4   9  18  31  47  75 105 135 169 215 248 312
#     4   9  18  31  47  75 111 138 167 199 256 313
#     4  10  21  32  51  76 104 136 174 217 263 314
#     4   9  19  31  47  77 110 135 166 207 253 317
#     4  10  22  38  50  76 102 132 176 230 270 308
#     4   8  18  28  46  74 106 144 166 200 244 300
#     4  10  18  31  49  76 108 143 167 202 258 323
#
# _framework density 17.857022000000001
#
# number of rings (size 3 to 8) (size 9 to 14) (size 15 to 20)
#    0.000    2.857    1.429    0.857    2.000    3.429 
#    0.000    0.000    0.000    0.000   14.857    0.000 
#    0.000    0.000    0.000    0.000    0.000    0.000 
#
# Total GULP energy -694157.282310 kJ/mol
# GULP energy per Si atom -12395.665756 kJ/mol
# Density = 1.781638 g / cm^3
# Si number density = 17.857022 Si / 1000 Ang^3
#
#
#
# Elastic Constant Matrix: (Units=GPa)
#
#
# Indices 1 2 3 4 5 6 
#
# 1 139.4640 35.3172 42.1279 0.0000 0.0000 0.0000
# 2 35.3172 64.5271 25.4910 0.0000 0.0000 0.0000
# 3 42.1279 25.4910 96.0225 0.0000 0.0000 0.0000
# 4 0.0000 0.0000 0.0000 26.4719 0.0000 0.0000
# 5 0.0000 0.0000 0.0000 0.0000 10.6452 0.0000
# 6 0.0000 0.0000 0.0000 0.0000 0.0000 16.6527
#
#
#
# Elastic Compliance Matrix: (Units=1/GPa)
#
#
# Indices 1 2 3 4 5 6 
#
# 1 0.009017 -0.003768 -0.002956 0.000000 0.000000 0.000000
# 2 -0.003768 0.018887 -0.003361 0.000000 0.000000 0.000000
# 3 -0.002956 -0.003361 0.012603 0.000000 0.000000 0.000000
# 4 0.000000 0.000000 0.000000 0.037776 0.000000 0.000000
# 5 0.000000 0.000000 0.000000 0.000000 0.093939 0.000000
# 6 0.000000 0.000000 0.000000 0.000000 0.000000 0.060050
#
#
# Mechanical properties :
#
#
# Convention : Reuss Voigt Hill
#
# Bulk Modulus (GPa) = 49.16748 56.20954 52.68851
# Shear Modulus (GPa) = 19.28849 23.89247 21.59048
#
# Velocity S-wave (km/s) = 3.29015 3.66182 3.48095
# Velocity P-wave (km/s) = 6.48284 7.03025 6.76209
#
# Compressibility (1/GPa) = 0.02033865
#
# Stress axis : x y z
#
# Youngs Moduli (GPa) = 110.89768 52.94585 79.34407
#
# Poissons Ratio (x) = 0.19948 0.23454
# Poissons Ratio (y) = 0.41783 0.26667
# Poissons Ratio (z) = 0.32781 0.17795
#
# Static dielectric constant tensor:
#      x y z
#    x 3.196210 0.000000 0.000000 
#    y 0.000000 3.049700 0.000000 
#    z 0.000000 0.000000 3.448180 
# 
# 
# High freq. dielectric constant tensor:
#      x y z
#    x 1.671300 0.000000 0.000000 
#    y 0.000000 1.653960 0.000000 
#    z 0.000000 0.000000 1.706860 
# 
# From -- ./inp_files/5322.got.cif
#   From: 2010.06.25/outbox.cif.g09.slc.cpg/sg52_3_cif.got.tgz:5322.got - 2010.06.26 19:32:48.
