data_PCOD8215016
_publ_section_title
;
Structure prediction by ZEFSAII (Michael W. Deem and Ramdas Pophale) SiO2 
 PCOD8215016
Probable space group: P N N A
;
_chemical_formula_sum "Si O2"
_cell_formula_units_Z 48
_cell_length_a 13.872811
_cell_length_b 13.725279
_cell_length_c 11.654425
_cell_angle_alpha 90.000000
_cell_angle_beta 90.000000
_cell_angle_gamma 90.000000
_cell_volume 2219.098104
_symmetry_space_group_name_H-M "P N N A"
_symmetry_group_IT_number 52
_symmetry_cell_setting 'orthorhombic'
loop_
_space_group_symop_operation_xyz
x,y,z
1/2-x,-y,z
x,1/2-y,1/2-z
1/2-x,1/2+y,1/2-z
-x,-y,-z
1/2+x,y,-z
-x,1/2+y,1/2+z
1/2+x,1/2-y,1/2+z
loop_
_atom_site_type_symbol
_atom_site_label
_atom_site_fract_x
_atom_site_fract_y
_atom_site_fract_z
Si Si1 0.095627 0.152943 0.393208
Si Si2 0.217537 0.300936 0.525267
Si Si3 0.255457 0.354631 0.279812
Si Si4 0.921561 0.440628 0.846874
Si Si5 0.954221 0.843336 0.171902
Si Si6 0.424075 0.243075 0.511185
O O1 0.163787 0.199256 0.492380
O O2 0.148406 0.151786 0.271866
O O3 0.999531 0.219003 0.387338
O O4 0.070043 0.040172 0.419616
O O5 0.237502 0.368258 0.414467
O O6 0.151957 0.361718 0.615461
O O7 0.323980 0.273643 0.572095
O O8 0.307758 0.250000 0.250000
O O9 0.322366 0.439922 0.228674
O O10 0.914350 0.354710 0.937436
O O11 0.010810 0.430412 0.756077
O O12 0.942712 0.750000 0.250000
O O13 0.034638 0.828213 0.072185
#
# Coordination Sequence:
#
# PCOD8215016 Si02
#       6
#     8   8   8   8   8   8
#     4  10  21  29  52  86 112 141 187 238 286 329
#     4  10  19  35  55  80 109 152 196 234 272 346
#     4  10  17  32  52  76 108 149 193 232 269 338
#     4  11  17  33  53  82 114 147 179 239 292 329
#     4   9  19  34  55  79 107 148 188 225 285 343
#     4  10  18  33  52  80 114 146 182 231 287 336
#
# _framework density 21.630409
#
# number of rings (size 3 to 8) (size 9 to 14) (size 15 to 20)
#    0.000    2.000    5.000    1.500    0.000    0.000 
#    0.000    5.000    0.000    0.000    0.000    0.000 
#    0.000    0.000    0.000    0.000    0.000    0.000 
#
# Total GULP energy -594731.705230 kJ/mol
# GULP energy per Si atom -12390.243859 kJ/mol
# Density = 2.158118 g / cm^3
# Si number density = 21.630409 Si / 1000 Ang^3
#
#
#
# Elastic Constant Matrix: (Units=GPa)
#
#
# Indices 1 2 3 4 5 6 
#
# 1 160.5537 -0.7540 31.6213 0.0000 0.0000 0.0000
# 2 -0.7540 23.9333 -8.6353 0.0000 0.0000 0.0000
# 3 31.6213 -8.6353 43.7247 0.0000 0.0000 0.0000
# 4 0.0000 0.0000 0.0000 17.7439 0.0000 0.0000
# 5 0.0000 0.0000 0.0000 0.0000 29.7037 0.0000
# 6 0.0000 0.0000 0.0000 0.0000 0.0000 20.8937
#
#
#
# Elastic Compliance Matrix: (Units=1/GPa)
#
#
# Indices 1 2 3 4 5 6 
#
# 1 0.007335 -0.001812 -0.005663 0.000000 0.000000 0.000000
# 2 -0.001812 0.045436 0.010284 0.000000 0.000000 0.000000
# 3 -0.005663 0.010284 0.028996 0.000000 0.000000 0.000000
# 4 0.000000 0.000000 0.000000 0.056357 0.000000 0.000000
# 5 0.000000 0.000000 0.000000 0.000000 0.033666 0.000000
# 6 0.000000 0.000000 0.000000 0.000000 0.000000 0.047861
#
#
# Mechanical properties :
#
#
# Convention : Reuss Voigt Hill
#
# Bulk Modulus (GPa) = 11.44351 30.29731 20.87041
# Shear Modulus (GPa) = 20.56237 27.40025 23.98131
#
# Velocity S-wave (km/s) = 3.08656 3.56300 3.33330
# Velocity P-wave (km/s) = 4.24317 5.56452 4.94815
#
# Compressibility (1/GPa) = 0.08738581
#
# Stress axis : x y z
#
# Youngs Moduli (GPa) = 136.32915 22.00895 34.48703
#
# Poissons Ratio (x) = 0.03988 0.19529
# Poissons Ratio (y) = 0.24703 -0.35465
# Poissons Ratio (z) = 0.77198 -0.22633
#
# Static dielectric constant tensor:
#      x y z
#    x 4.352540 0.000000 0.000000 
#    y 0.000000 3.855530 0.000000 
#    z 0.000000 0.000000 3.854580 
# 
# 
# High freq. dielectric constant tensor:
#      x y z
#    x 1.861970 0.000000 0.000000 
#    y 0.000000 1.813500 0.000000 
#    z 0.000000 0.000000 1.821270 
# 
# From -- ./inp_files/19510.got.cif
#   From: 2010.06.25/outbox.cif.g09.slc.cpg/sg52_10_cif.got.tgz:19510.got - 2010.06.26 19:32:48.
