data_PCOD8215963
_publ_section_title
;
Structure prediction by ZEFSAII (Michael W. Deem and Ramdas Pophale) SiO2 
 PCOD8215963
Probable space group: P N N A
;
_chemical_formula_sum "Si O2"
_cell_formula_units_Z 32
_cell_length_a 13.698340
_cell_length_b 6.598542
_cell_length_c 17.756478
_cell_angle_alpha 90.000000
_cell_angle_beta 90.000000
_cell_angle_gamma 90.000000
_cell_volume 1604.991565
_symmetry_space_group_name_H-M "P N N A"
_symmetry_group_IT_number 52
_symmetry_cell_setting 'orthorhombic'
loop_
_space_group_symop_operation_xyz
x,y,z
1/2-x,-y,z
x,1/2-y,1/2-z
1/2-x,1/2+y,1/2-z
-x,-y,-z
1/2+x,y,-z
-x,1/2+y,1/2+z
1/2+x,1/2-y,1/2+z
loop_
_atom_site_type_symbol
_atom_site_label
_atom_site_fract_x
_atom_site_fract_y
_atom_site_fract_z
Si Si1 0.152554 0.117918 0.513608
Si Si2 0.394257 0.366076 0.678661
Si Si3 0.516801 0.250000 0.250000
Si Si4 0.980415 0.976201 0.619949
Si Si5 0.250000 0.000000 0.939703
O O1 0.113839 0.045994 0.432422
O O2 0.179924 0.357065 0.509983
O O3 0.250000 0.000000 0.534473
O O4 0.070790 0.079208 0.576407
O O5 0.347868 0.250000 0.750000
O O6 0.416782 0.596685 0.701497
O O7 0.490574 0.245908 0.650671
O O8 0.316376 0.356411 0.612018
O O9 0.452041 0.379132 0.190645
#
# Coordination Sequence:
#
# PCOD8215963 Si02
#       5
#     8   8   4   8   4
#     4  11  23  39  60  93 123 158 204 258 310 376
#     4  10  22  34  57  89 122 161 201 249 312 377
#     4  10  20  40  62  88 120 168 200 260 312 368
#     4  10  22  40  62  87 125 160 207 253 310 374
#     4  12  22  34  56  92 128 158 202 254 322 368
#
# _framework density 19.937798999999998
#
# number of rings (size 3 to 8) (size 9 to 14) (size 15 to 20)
#    0.000    1.500    5.000    0.000    1.750    3.000 
#    0.000    0.000    8.250    0.000    0.000    0.000 
#    0.000    0.000    0.000    0.000    0.000    0.000 
#
# Total GULP energy -396748.684980 kJ/mol
# GULP energy per Si atom -12398.396406 kJ/mol
# Density = 1.989242 g / cm^3
# Si number density = 19.937799 Si / 1000 Ang^3
#
#
#
# Elastic Constant Matrix: (Units=GPa)
#
#
# Indices 1 2 3 4 5 6 
#
# 1 58.1669 32.7688 34.3545 0.0000 0.0000 0.0000
# 2 32.7688 124.5143 41.7465 0.0000 0.0000 0.0000
# 3 34.3545 41.7465 106.4671 0.0000 0.0000 0.0000
# 4 0.0000 0.0000 0.0000 32.0452 0.0000 0.0000
# 5 0.0000 0.0000 0.0000 0.0000 17.7347 0.0000
# 6 0.0000 0.0000 0.0000 0.0000 0.0000 19.3289
#
#
#
# Elastic Compliance Matrix: (Units=1/GPa)
#
#
# Indices 1 2 3 4 5 6 
#
# 1 0.022916 -0.004089 -0.005791 0.000000 0.000000 0.000000
# 2 -0.004089 0.009977 -0.002592 0.000000 0.000000 0.000000
# 3 -0.005791 -0.002592 0.012278 0.000000 0.000000 0.000000
# 4 0.000000 0.000000 0.000000 0.031206 0.000000 0.000000
# 5 0.000000 0.000000 0.000000 0.000000 0.056387 0.000000
# 6 0.000000 0.000000 0.000000 0.000000 0.000000 0.051736
#
#
# Mechanical properties :
#
#
# Convention : Reuss Voigt Hill
#
# Bulk Modulus (GPa) = 49.44410 56.32088 52.88249
# Shear Modulus (GPa) = 23.12827 25.84032 24.48430
#
# Velocity S-wave (km/s) = 3.40960 3.60397 3.50813
# Velocity P-wave (km/s) = 6.35244 6.75483 6.55673
#
# Compressibility (1/GPa) = 0.02022486
#
# Stress axis : x y z
#
# Youngs Moduli (GPa) = 43.63782 100.23506 81.44866
#
# Poissons Ratio (x) = 0.40989 0.47167
# Poissons Ratio (y) = 0.17845 0.21114
# Poissons Ratio (z) = 0.25271 0.25985
#
# Static dielectric constant tensor:
#      x y z
#    x 3.224740 0.000000 0.000000 
#    y 0.000000 3.811970 0.000000 
#    z 0.000000 0.000000 3.718070 
# 
# 
# High freq. dielectric constant tensor:
#      x y z
#    x 1.733500 0.000000 0.000000 
#    y 0.000000 1.796090 0.000000 
#    z 0.000000 0.000000 1.780650 
# 
# From -- ./inp_files/32615.got.cif
#   From: 2010.06.25/outbox.cif.g09.slc.cpg/sg52_17_cif.got.tgz:32615.got - 2010.06.26 19:32:48.
