data_PCOD8215177
_publ_section_title
;
Structure prediction by ZEFSAII (Michael W. Deem and Ramdas Pophale) SiO2 
 PCOD8215177
Probable space group: P N N A
;
_chemical_formula_sum "Si O2"
_cell_formula_units_Z 56
_cell_length_a 8.539133
_cell_length_b 16.803042
_cell_length_c 20.043866
_cell_angle_alpha 90.000000
_cell_angle_beta 90.000000
_cell_angle_gamma 90.000000
_cell_volume 2875.962252
_symmetry_space_group_name_H-M "P N N A"
_symmetry_group_IT_number 52
_symmetry_cell_setting 'orthorhombic'
loop_
_space_group_symop_operation_xyz
x,y,z
1/2-x,-y,z
x,1/2-y,1/2-z
1/2-x,1/2+y,1/2-z
-x,-y,-z
1/2+x,y,-z
-x,1/2+y,1/2+z
1/2+x,1/2-y,1/2+z
loop_
_atom_site_type_symbol
_atom_site_label
_atom_site_fract_x
_atom_site_fract_y
_atom_site_fract_z
Si Si1 0.781926 0.750000 0.750000
Si Si2 0.961377 0.898601 0.799479
Si Si3 0.811597 0.175579 0.994019
Si Si4 0.046896 0.862959 0.321045
Si Si5 0.797423 0.664529 0.282252
Si Si6 0.750000 0.500000 0.797352
Si Si7 0.425563 0.740575 0.589514
Si Si8 0.051740 0.068646 0.051847
O O1 0.886280 0.809782 0.795717
O O2 0.670374 0.794924 0.698221
O O3 0.872358 0.950685 0.745706
O O4 0.944218 0.948116 0.869014
O O5 0.144845 0.890980 0.782412
O O6 0.724398 0.096066 0.969118
O O7 0.900218 0.215764 0.932469
O O8 0.696500 0.240069 0.028169
O O9 0.938373 0.145041 0.047150
O O10 0.932126 0.881625 0.258946
O O11 0.940415 0.830126 0.381808
O O12 0.143517 0.941499 0.342522
O O13 0.759242 0.750000 0.250000
O O14 0.863060 0.676948 0.356704
O O15 0.000000 0.000000 0.000000
#
# Coordination Sequence:
#
# PCOD8215177 Si02
#       8
#     4   8   8   8   8   4   8   8
#     4  10  18  34  62  86 108 156 208 260 292 350
#     4  11  22  37  57  86 123 158 209 247 303 367
#     4  10  22  35  55  81 106 159 212 231 289 338
#     4  10  20  39  59  86 119 152 196 253 323 358
#     4  10  19  36  63  87 113 155 201 264 306 340
#     4  10  26  36  56  90 118 162 188 246 330 380
#     4  10  19  38  60  84 114 146 203 262 286 350
#     4  11  23  35  49  75 120 165 196 237 283 360
#
# _framework density 19.471744000000001
#
# number of rings (size 3 to 8) (size 9 to 14) (size 15 to 20)
#    0.000    1.714    4.286    1.286    4.000    1.714 
#    2.571    0.000    0.000    0.857    0.000    0.000 
#    0.000    0.000    0.000    0.000    0.000    0.000 
#
# Total GULP energy -694034.396073 kJ/mol
# GULP energy per Si atom -12393.471358 kJ/mol
# Density = 1.942743 g / cm^3
# Si number density = 19.471744 Si / 1000 Ang^3
#
#
#
# Elastic Constant Matrix: (Units=GPa)
#
#
# Indices 1 2 3 4 5 6 
#
# 1 123.9928 36.6365 35.7124 0.0000 0.0000 0.0000
# 2 36.6365 71.8425 20.3200 0.0000 0.0000 0.0000
# 3 35.7124 20.3200 68.5985 0.0000 0.0000 0.0000
# 4 0.0000 0.0000 0.0000 22.8976 0.0000 0.0000
# 5 0.0000 0.0000 0.0000 0.0000 25.2779 0.0000
# 6 0.0000 0.0000 0.0000 0.0000 0.0000 34.0121
#
#
#
# Elastic Compliance Matrix: (Units=1/GPa)
#
#
# Indices 1 2 3 4 5 6 
#
# 1 0.010517 -0.004163 -0.004242 0.000000 0.000000 0.000000
# 2 -0.004163 0.016840 -0.002821 0.000000 0.000000 0.000000
# 3 -0.004242 -0.002821 0.017621 0.000000 0.000000 0.000000
# 4 0.000000 0.000000 0.000000 0.043673 0.000000 0.000000
# 5 0.000000 0.000000 0.000000 0.000000 0.039560 0.000000
# 6 0.000000 0.000000 0.000000 0.000000 0.000000 0.029401
#
#
# Mechanical properties :
#
#
# Convention : Reuss Voigt Hill
#
# Bulk Modulus (GPa) = 44.39227 49.97460 47.18344
# Shear Modulus (GPa) = 26.65614 27.88851 27.27233
#
# Velocity S-wave (km/s) = 3.70397 3.78862 3.74653
# Velocity P-wave (km/s) = 6.41407 6.69769 6.55742
#
# Compressibility (1/GPa) = 0.02252644
#
# Stress axis : x y z
#
# Youngs Moduli (GPa) = 95.08524 59.38123 56.74893
#
# Poissons Ratio (x) = 0.24723 0.24072
# Poissons Ratio (y) = 0.39588 0.16008
# Poissons Ratio (z) = 0.40334 0.16751
#
# Static dielectric constant tensor:
#      x y z
#    x 3.874710 0.000000 0.000000 
#    y 0.000000 3.418610 0.000000 
#    z 0.000000 0.000000 3.371560 
# 
# 
# High freq. dielectric constant tensor:
#      x y z
#    x 1.785050 0.000000 0.000000 
#    y 0.000000 1.729550 0.000000 
#    z 0.000000 0.000000 1.734060 
# 
# From -- ./inp_files/36157.got.cif
#   From: 2010.06.25/outbox.cif.g09.slc.cpg/sg52_19_cif.got.tgz:36157.got - 2010.06.26 19:32:48.
