data_PCOD8215954
_publ_section_title
;
Structure prediction by ZEFSAII (Michael W. Deem and Ramdas Pophale) SiO2 
 PCOD8215954
Probable space group: P N N A
;
_chemical_formula_sum "Si O2"
_cell_formula_units_Z 48
_cell_length_a 8.830320
_cell_length_b 9.467149
_cell_length_c 30.611666
_cell_angle_alpha 90.000000
_cell_angle_beta 90.000000
_cell_angle_gamma 90.000000
_cell_volume 2559.072682
_symmetry_space_group_name_H-M "P N N A"
_symmetry_group_IT_number 52
_symmetry_cell_setting 'orthorhombic'
loop_
_space_group_symop_operation_xyz
x,y,z
1/2-x,-y,z
x,1/2-y,1/2-z
1/2-x,1/2+y,1/2-z
-x,-y,-z
1/2+x,y,-z
-x,1/2+y,1/2+z
1/2+x,1/2-y,1/2+z
loop_
_atom_site_type_symbol
_atom_site_label
_atom_site_fract_x
_atom_site_fract_y
_atom_site_fract_z
Si Si1 0.400807 0.412147 0.735193
Si Si2 0.576360 0.492787 0.816994
Si Si3 0.930579 0.988906 0.452468
Si Si4 0.924389 0.784481 0.609377
Si Si5 0.933647 0.221132 0.612538
Si Si6 0.428952 0.483067 0.638973
O O1 0.250000 0.500000 0.732384
O O2 0.376394 0.250000 0.750000
O O3 0.497467 0.495291 0.770595
O O4 0.476859 0.430450 0.687550
O O5 0.750000 0.500000 0.805687
O O6 0.538151 0.350209 0.843244
O O7 0.524838 0.626082 0.845614
O O8 0.978953 0.841227 0.429592
O O9 0.750000 0.000000 0.453576
O O10 0.000000 0.000000 0.500000
O O11 0.002810 0.119528 0.427366
O O12 0.744409 0.777293 0.601930
O O13 0.004709 0.633218 0.605847
O O14 0.989561 0.374695 0.625020
O O15 0.250000 0.500000 0.633141
#
# Coordination Sequence:
#
# PCOD8215954 Si02
#       6
#     8   8   8   8   8   8
#     4  11  24  38  55  82 119 158 207 254 303 353
#     4   9  20  37  57  79 110 155 202 246 295 351
#     4  11  22  40  67  95 122 154 193 239 292 363
#     4  10  20  40  60  86 120 154 199 247 299 360
#     4  10  22  38  61  88 117 157 199 245 302 357
#     4  11  23  37  56  86 119 160 203 251 304 355
#
# _framework density 18.756796000000001
#
# number of rings (size 3 to 8) (size 9 to 14) (size 15 to 20)
#    0.000    1.667    1.667    4.000    4.667    4.000 
#    0.000    0.833    0.000    0.000    0.000    0.000 
#    0.000    0.000    0.000    0.000    0.000    0.000 
#
# Total GULP energy -595090.621312 kJ/mol
# GULP energy per Si atom -12397.721277 kJ/mol
# Density = 1.871410 g / cm^3
# Si number density = 18.756796 Si / 1000 Ang^3
#
#
#
# Elastic Constant Matrix: (Units=GPa)
#
#
# Indices 1 2 3 4 5 6 
#
# 1 111.5597 54.3397 56.4607 0.0000 0.0000 0.0000
# 2 54.3397 141.4745 49.6358 0.0000 0.0000 0.0000
# 3 56.4607 49.6358 110.7456 0.0000 0.0000 0.0000
# 4 0.0000 0.0000 0.0000 12.0201 0.0000 0.0000
# 5 0.0000 0.0000 0.0000 0.0000 35.7208 0.0000
# 6 0.0000 0.0000 0.0000 0.0000 0.0000 33.1696
#
#
#
# Elastic Compliance Matrix: (Units=1/GPa)
#
#
# Indices 1 2 3 4 5 6 
#
# 1 0.013209 -0.003217 -0.005293 0.000000 0.000000 0.000000
# 2 -0.003217 0.009171 -0.002470 0.000000 0.000000 0.000000
# 3 -0.005293 -0.002470 0.012835 0.000000 0.000000 0.000000
# 4 0.000000 0.000000 0.000000 0.083194 0.000000 0.000000
# 5 0.000000 0.000000 0.000000 0.000000 0.027995 0.000000
# 6 0.000000 0.000000 0.000000 0.000000 0.000000 0.030148
#
#
# Mechanical properties :
#
#
# Convention : Reuss Voigt Hill
#
# Bulk Modulus (GPa) = 75.43892 76.07248 75.75570
# Shear Modulus (GPa) = 24.63899 29.73832 27.18866
#
# Velocity S-wave (km/s) = 3.62830 3.98611 3.81141
# Velocity P-wave (km/s) = 7.60655 7.86326 7.73597
#
# Compressibility (1/GPa) = 0.01325576
#
# Stress axis : x y z
#
# Youngs Moduli (GPa) = 75.70433 109.04381 77.91070
#
# Poissons Ratio (x) = 0.35076 0.41236
# Poissons Ratio (y) = 0.24352 0.19246
# Poissons Ratio (z) = 0.40068 0.26937
#
# Static dielectric constant tensor:
#      x y z
#    x 5.376510 0.000000 0.000000 
#    y 0.000000 3.507320 0.000000 
#    z 0.000000 0.000000 3.473630 
# 
# 
# High freq. dielectric constant tensor:
#      x y z
#    x 1.738010 0.000000 0.000000 
#    y 0.000000 1.737500 0.000000 
#    z 0.000000 0.000000 1.721970 
# 
# From -- ./inp_files/44363.got.cif
#   From: 2010.06.25/outbox.cif.g09.slc.cpg/sg52_23_cif.got.tgz:44363.got - 2010.06.26 19:32:48.
