data_PCOD8215811
_publ_section_title
;
Structure prediction by ZEFSAII (Michael W. Deem and Ramdas Pophale) SiO2 
 PCOD8215811
Probable space group: P N N A
;
_chemical_formula_sum "Si O2"
_cell_formula_units_Z 44
_cell_length_a 8.647307
_cell_length_b 10.827997
_cell_length_c 22.911313
_cell_angle_alpha 90.000000
_cell_angle_beta 90.000000
_cell_angle_gamma 90.000000
_cell_volume 2145.255297
_symmetry_space_group_name_H-M "P N N A"
_symmetry_group_IT_number 52
_symmetry_cell_setting 'orthorhombic'
loop_
_space_group_symop_operation_xyz
x,y,z
1/2-x,-y,z
x,1/2-y,1/2-z
1/2-x,1/2+y,1/2-z
-x,-y,-z
1/2+x,y,-z
-x,1/2+y,1/2+z
1/2+x,1/2-y,1/2+z
loop_
_atom_site_type_symbol
_atom_site_label
_atom_site_fract_x
_atom_site_fract_y
_atom_site_fract_z
Si Si1 0.480145 0.856295 0.432051
Si Si2 0.606735 0.756915 0.814256
Si Si3 0.250000 0.500000 0.985206
Si Si4 0.927455 0.989561 0.686118
Si Si5 0.848448 0.884581 0.895847
Si Si6 0.072542 0.493532 0.695361
O O1 0.366885 0.926900 0.474624
O O2 0.441486 0.708635 0.439768
O O3 0.656216 0.897989 0.446777
O O4 0.449084 0.890840 0.364756
O O5 0.687998 0.750000 0.750000
O O6 0.531195 0.627869 0.835853
O O7 0.728643 0.799489 0.861722
O O8 0.464947 0.849424 0.807166
O O9 0.033313 0.950221 0.740896
O O10 0.750000 0.000000 0.707590
O O11 0.750000 0.000000 0.924900
O O12 0.976382 0.935585 0.852878
O O13 0.250000 0.500000 0.679874
#
# Coordination Sequence:
#
# PCOD8215811 Si02
#       6
#     8   8   4   8   8   8
#     4  11  22  40  63  86 113 151 198 255 315 352
#     4   9  17  33  52  78 115 160 194 226 269 350
#     4  10  24  42  60  88 118 140 202 276 300 352
#     4  11  19  35  58  84 112 159 196 228 291 360
#     4  10  20  37  62  85 116 162 197 235 297 378
#     4  10  22  34  49  86 132 154 189 235 282 355
#
# _framework density 20.510380000000001
#
# number of rings (size 3 to 8) (size 9 to 14) (size 15 to 20)
#    0.000    1.818    2.727    2.727    1.273    1.455 
#    6.545    2.727    0.000    0.000    0.000    0.000 
#    0.000    0.000    0.000    0.000    0.000    0.000 
#
# Total GULP energy -545208.540178 kJ/mol
# GULP energy per Si atom -12391.103186 kJ/mol
# Density = 2.046370 g / cm^3
# Si number density = 20.510380 Si / 1000 Ang^3
#
#
#
# Elastic Constant Matrix: (Units=GPa)
#
#
# Indices 1 2 3 4 5 6 
#
# 1 103.0835 35.4113 20.4990 0.0000 0.0000 0.0000
# 2 35.4113 124.1698 28.2626 0.0000 0.0000 0.0000
# 3 20.4990 28.2626 34.8318 0.0000 0.0000 0.0000
# 4 0.0000 0.0000 0.0000 31.1888 0.0000 0.0000
# 5 0.0000 0.0000 0.0000 0.0000 -1.6357 0.0000
# 6 0.0000 0.0000 0.0000 0.0000 0.0000 21.0389
#
#
#
# Elastic Compliance Matrix: (Units=1/GPa)
#
#
# Indices 1 2 3 4 5 6 
#
# 1 0.011424 -0.002119 -0.005004 0.000000 0.000000 0.000000
# 2 -0.002119 0.010271 -0.007087 0.000000 0.000000 0.000000
# 3 -0.005004 -0.007087 0.037404 0.000000 0.000000 0.000000
# 4 0.000000 0.000000 0.000000 0.032063 0.000000 0.000000
# 5 0.000000 0.000000 0.000000 0.000000 -0.611374 0.000000
# 6 0.000000 0.000000 0.000000 0.000000 0.000000 0.047531
#
#
# Mechanical properties :
#
#
# Convention : Reuss Voigt Hill
#
# Bulk Modulus (GPa) = 32.59439 47.82567 40.21003
# Shear Modulus (GPa) = -11.51978 21.97923 5.22973
#
# Velocity S-wave (km/s) = -2.37250 3.27710 1.59854
# Velocity P-wave (km/s) = 2.90192 6.13902 4.80150
#
# Compressibility (1/GPa) = 0.03068013
#
# Stress axis : x y z
#
# Youngs Moduli (GPa) = 87.53641 97.36317 26.73485
#
# Poissons Ratio (x) = 0.20631 0.13377
# Poissons Ratio (y) = 0.18549 0.18946
# Poissons Ratio (z) = 0.43801 0.68999
#
# Static dielectric constant tensor:
#      x y z
#    x 3.766000 0.000000 0.000000 
#    y 0.000000 4.354550 0.000000 
#    z 0.000000 0.000000 3.491940 
# 
# 
# High freq. dielectric constant tensor:
#      x y z
#    x 1.792410 0.000000 0.000000 
#    y 0.000000 1.818460 0.000000 
#    z 0.000000 0.000000 1.769130 
# 
# From -- ./inp_files/39376.got.cif
#   From: 2010.06.25/outbox.cif.g09.slc.cpg/sg52_20_cif.got.tgz:39376.got - 2010.06.26 19:32:48.
