data_PCOD8215162
_publ_section_title
;
Structure prediction by ZEFSAII (Michael W. Deem and Ramdas Pophale) SiO2 
 PCOD8215162
Probable space group: P N N A
;
_chemical_formula_sum "Si O2"
_cell_formula_units_Z 56
_cell_length_a 16.162020
_cell_length_b 19.244884
_cell_length_c 9.120665
_cell_angle_alpha 90.000000
_cell_angle_beta 90.000000
_cell_angle_gamma 90.000000
_cell_volume 2836.856984
_symmetry_space_group_name_H-M "P N N A"
_symmetry_group_IT_number 52
_symmetry_cell_setting 'orthorhombic'
loop_
_space_group_symop_operation_xyz
x,y,z
1/2-x,-y,z
x,1/2-y,1/2-z
1/2-x,1/2+y,1/2-z
-x,-y,-z
1/2+x,y,-z
-x,1/2+y,1/2+z
1/2+x,1/2-y,1/2+z
loop_
_atom_site_type_symbol
_atom_site_label
_atom_site_fract_x
_atom_site_fract_y
_atom_site_fract_z
Si Si1 0.596299 0.944822 0.030403
Si Si2 0.458804 0.658779 0.928981
Si Si3 0.341096 0.250000 0.750000
Si Si4 0.586568 0.750000 0.750000
Si Si5 0.444672 0.582346 0.649533
Si Si6 0.108056 0.294908 0.453071
Si Si7 0.209350 0.677190 0.469995
Si Si8 0.482453 0.147060 0.734050
O O1 0.537387 0.916850 0.160689
O O2 0.616965 0.023915 0.080497
O O3 0.539733 0.941507 0.883152
O O4 0.681011 0.901584 0.010274
O O5 0.533884 0.697730 0.848390
O O6 0.426634 0.597014 0.822174
O O7 0.391705 0.716876 0.979823
O O8 0.485484 0.619441 0.077866
O O9 0.284770 0.275605 0.615805
O O10 0.398592 0.187460 0.696689
O O11 0.642241 0.704774 0.642436
O O12 0.427372 0.656801 0.579931
O O13 0.199234 0.319811 0.401724
O O14 0.048674 0.301552 0.312181
#
# Coordination Sequence:
#
# PCOD8215162 Si02
#       8
#     8   8   4   4   8   8   8   8
#     4   9  20  40  56  82 111 156 202 230 283 343
#     4  12  19  35  58  86 115 150 192 246 285 348
#     4  10  18  34  54  78 112 152 180 234 290 338
#     4  12  20  36  56  86 112 150 194 234 288 340
#     4  10  20  36  61  80 111 155 203 236 268 357
#     4  11  22  35  56  89 119 150 186 244 306 339
#     4  11  23  34  56  87 118 149 189 243 297 350
#     4  10  19  36  57  80 117 150 186 239 293 346
#
# _framework density 19.740155000000001
#
# number of rings (size 3 to 8) (size 9 to 14) (size 15 to 20)
#    0.000    1.429    5.714    0.857    4.000    1.143 
#    0.000    0.000    0.000    0.000    0.000    0.000 
#    0.000    0.000    0.000    0.000    0.000    0.000 
#
# Total GULP energy -694037.577800 kJ/mol
# GULP energy per Si atom -12393.528175 kJ/mol
# Density = 1.969523 g / cm^3
# Si number density = 19.740155 Si / 1000 Ang^3
#
#
#
# Elastic Constant Matrix: (Units=GPa)
#
#
# Indices 1 2 3 4 5 6 
#
# 1 62.3670 -0.2404 0.6758 0.0000 0.0000 0.0000
# 2 -0.2404 64.5876 17.6792 0.0000 0.0000 0.0000
# 3 0.6758 17.6792 94.8242 0.0000 0.0000 0.0000
# 4 0.0000 0.0000 0.0000 30.0785 0.0000 0.0000
# 5 0.0000 0.0000 0.0000 0.0000 6.9850 0.0000
# 6 0.0000 0.0000 0.0000 0.0000 0.0000 12.7355
#
#
#
# Elastic Compliance Matrix: (Units=1/GPa)
#
#
# Indices 1 2 3 4 5 6 
#
# 1 0.016036 0.000096 -0.000132 0.000000 0.000000 0.000000
# 2 0.000096 0.016316 -0.003043 0.000000 0.000000 0.000000
# 3 -0.000132 -0.003043 0.011114 0.000000 0.000000 0.000000
# 4 0.000000 0.000000 0.000000 0.033246 0.000000 0.000000
# 5 0.000000 0.000000 0.000000 0.000000 0.143164 0.000000
# 6 0.000000 0.000000 0.000000 0.000000 0.000000 0.078521
#
#
# Mechanical properties :
#
#
# Convention : Reuss Voigt Hill
#
# Bulk Modulus (GPa) = 26.80382 28.66753 27.73567
# Shear Modulus (GPa) = 15.77330 23.53741 19.65535
#
# Velocity S-wave (km/s) = 2.82981 3.45681 3.15890
# Velocity P-wave (km/s) = 4.92797 5.52147 5.23314
#
# Compressibility (1/GPa) = 0.03730812
#
# Stress axis : x y z
#
# Youngs Moduli (GPa) = 62.36001 61.28932 89.97614
#
# Poissons Ratio (x) = -0.00588 0.01189
# Poissons Ratio (y) = -0.00598 0.27377
# Poissons Ratio (z) = 0.00824 0.18648
#
# Static dielectric constant tensor:
#      x y z
#    x 3.356170 0.000000 0.000000 
#    y 0.000000 3.534130 0.000000 
#    z 0.000000 0.000000 3.805250 
# 
# 
# High freq. dielectric constant tensor:
#      x y z
#    x 1.740460 0.000000 0.000000 
#    y 0.000000 1.757480 0.000000 
#    z 0.000000 0.000000 1.775150 
# 
# From -- ./inp_files/12551.got.cif
#   From: 2010.06.25/outbox.cif.g09.slc.cpg/sg52_7_cif.got.tgz:12551.got - 2010.06.26 19:32:48.
