data_PCOD8215235
_publ_section_title
;
Structure prediction by ZEFSAII (Michael W. Deem and Ramdas Pophale) SiO2 
 PCOD8215235
Probable space group: P N N A
;
_chemical_formula_sum "Si O2"
_cell_formula_units_Z 56
_cell_length_a 16.213943
_cell_length_b 5.515790
_cell_length_c 31.319838
_cell_angle_alpha 90.000000
_cell_angle_beta 90.000000
_cell_angle_gamma 90.000000
_cell_volume 2801.017822
_symmetry_space_group_name_H-M "P N N A"
_symmetry_group_IT_number 52
_symmetry_cell_setting 'orthorhombic'
loop_
_space_group_symop_operation_xyz
x,y,z
1/2-x,-y,z
x,1/2-y,1/2-z
1/2-x,1/2+y,1/2-z
-x,-y,-z
1/2+x,y,-z
-x,1/2+y,1/2+z
1/2+x,1/2-y,1/2+z
loop_
_atom_site_type_symbol
_atom_site_label
_atom_site_fract_x
_atom_site_fract_y
_atom_site_fract_z
Si Si1 0.797338 0.257246 0.032716
Si Si2 0.028596 0.250000 0.750000
Si Si3 0.924682 0.957121 0.815000
Si Si4 0.663051 0.881286 0.121793
Si Si5 0.961229 0.249854 0.516489
Si Si6 0.053798 0.921105 0.679687
Si Si7 0.009026 0.302376 0.611427
Si Si8 0.750000 0.500000 0.723719
O O1 0.750000 0.500000 0.019179
O O2 0.826873 0.301161 0.081712
O O3 0.750000 0.000000 0.031284
O O4 0.867600 0.239786 0.997723
O O5 0.085790 0.432435 0.778089
O O6 0.967705 0.346348 0.714281
O O7 0.827512 0.946285 0.806791
O O8 0.969603 0.705334 0.803939
O O9 0.944398 0.022419 0.864185
O O10 0.627314 0.757373 0.164866
O O11 0.750000 0.000000 0.135129
O O12 0.598277 0.077915 0.104531
O O13 0.000000 0.500000 0.500000
O O14 0.966571 0.236135 0.567282
O O15 0.000000 0.000000 0.500000
O O16 0.026946 0.062803 0.637827
O O17 0.735231 0.750000 0.750000
#
# Coordination Sequence:
#
# PCOD8215235 Si02
#       8
#     8   4   8   8   8   8   8   4
#     4  11  24  42  65  96 134 174 222 282 335 387
#     4  10  18  38  62  92 124 164 212 260 324 390
#     4  10  22  40  63  95 130 168 218 269 322 391
#     4  10  22  37  64  96 125 161 221 277 328 386
#     4  12  24  42  68  96 136 178 227 276 330 409
#     4  10  21  37  63  97 125 167 214 265 332 395
#     4  10  23  41  62 100 124 176 217 268 334 400
#     4  12  24  40  68 100 130 170 226 274 326 386
#
# _framework density 19.992732
#
# number of rings (size 3 to 8) (size 9 to 14) (size 15 to 20)
#    0.000    1.429    2.143    3.000   10.000    0.000 
#    1.286    0.000    0.000    0.000  133.714    0.000 
#    0.000    0.000    0.000    0.000    0.000    0.000 
#
# Total GULP energy -693938.492171 kJ/mol
# GULP energy per Si atom -12391.758789 kJ/mol
# Density = 1.994723 g / cm^3
# Si number density = 19.992732 Si / 1000 Ang^3
#
#
#
# Elastic Constant Matrix: (Units=GPa)
#
#
# Indices 1 2 3 4 5 6 
#
# 1 142.9701 47.1131 59.1713 0.0000 0.0000 0.0000
# 2 47.1131 124.9343 44.9481 0.0000 0.0000 0.0000
# 3 59.1713 44.9481 136.0940 0.0000 0.0000 0.0000
# 4 0.0000 0.0000 0.0000 25.9271 0.0000 0.0000
# 5 0.0000 0.0000 0.0000 0.0000 27.6866 0.0000
# 6 0.0000 0.0000 0.0000 0.0000 0.0000 -21.3220
#
#
#
# Elastic Compliance Matrix: (Units=1/GPa)
#
#
# Indices 1 2 3 4 5 6 
#
# 1 0.009063 -0.002270 -0.003191 0.000000 0.000000 0.000000
# 2 -0.002270 0.009652 -0.002201 0.000000 0.000000 0.000000
# 3 -0.003191 -0.002201 0.009462 0.000000 0.000000 0.000000
# 4 0.000000 0.000000 0.000000 0.038570 0.000000 0.000000
# 5 0.000000 0.000000 0.000000 0.000000 0.036119 0.000000
# 6 0.000000 0.000000 0.000000 0.000000 0.000000 -0.046900
#
#
# Mechanical properties :
#
#
# Convention : Reuss Voigt Hill
#
# Bulk Modulus (GPa) = 77.79614 78.49593 78.14603
# Shear Modulus (GPa) = 66.16112 23.30940 44.73526
#
# Velocity S-wave (km/s) = 5.75886 3.41822 4.73543
# Velocity P-wave (km/s) = 9.12228 7.41124 8.31091
#
# Compressibility (1/GPa) = 0.01285411
#
# Stress axis : x y z
#
# Youngs Moduli (GPa) = 110.33885 103.60592 105.68504
#
# Poissons Ratio (x) = 0.23516 0.33722
# Poissons Ratio (y) = 0.25044 0.23261
# Poissons Ratio (z) = 0.35207 0.22803
#
# Static dielectric constant tensor:
#      x y z
#    x 3.635860 0.000000 0.000000 
#    y 0.000000 3.764300 0.000000 
#    z 0.000000 0.000000 1.186290 
# 
# 
# High freq. dielectric constant tensor:
#      x y z
#    x 1.765480 0.000000 0.000000 
#    y 0.000000 1.799210 0.000000 
#    z 0.000000 0.000000 1.782570 
# 
# From -- ./inp_files/45008.got.cif
#   From: 2010.06.25/outbox.cif.g09.slc.cpg/sg52_23_cif.got.tgz:45008.got - 2010.06.26 19:32:48.
