data_PCOD8215068
_publ_section_title
;
Structure prediction by ZEFSAII (Michael W. Deem and Ramdas Pophale) SiO2 
 PCOD8215068
Probable space group: P N N A
;
_chemical_formula_sum "Si O2"
_cell_formula_units_Z 56
_cell_length_a 5.176014
_cell_length_b 24.314437
_cell_length_c 28.450635
_cell_angle_alpha 90.000000
_cell_angle_beta 90.000000
_cell_angle_gamma 90.000000
_cell_volume 3580.565513
_symmetry_space_group_name_H-M "P N N A"
_symmetry_group_IT_number 52
_symmetry_cell_setting 'orthorhombic'
loop_
_space_group_symop_operation_xyz
x,y,z
1/2-x,-y,z
x,1/2-y,1/2-z
1/2-x,1/2+y,1/2-z
-x,-y,-z
1/2+x,y,-z
-x,1/2+y,1/2+z
1/2+x,1/2-y,1/2+z
loop_
_atom_site_type_symbol
_atom_site_label
_atom_site_fract_x
_atom_site_fract_y
_atom_site_fract_z
Si Si1 0.116237 0.660702 0.250156
Si Si2 0.620656 0.614432 0.291778
Si Si3 0.750000 0.500000 0.334462
Si Si4 0.097116 0.065171 0.024036
Si Si5 0.618706 0.709899 0.367944
Si Si6 0.379459 0.255464 0.174079
Si Si7 0.994656 0.692361 0.524056
Si Si8 0.750000 0.500000 0.608902
O O1 0.363205 0.622970 0.261114
O O2 0.115412 0.683424 0.196642
O O3 0.112072 0.712054 0.284437
O O4 0.858330 0.626036 0.257434
O O5 0.637453 0.550627 0.304908
O O6 0.621054 0.653050 0.338270
O O7 0.499274 0.477787 0.362770
O O8 0.065111 0.129069 0.013713
O O9 0.144595 0.051739 0.078816
O O10 0.336677 0.038020 0.995792
O O11 0.386745 0.749753 0.353564
O O12 0.582495 0.697395 0.422435
O O13 0.881028 0.744378 0.360656
O O14 0.718939 0.719186 0.509208
#
# Coordination Sequence:
#
# PCOD8215068 Si02
#       8
#     8   8   4   8   8   8   8   4
#     4   9  17  31  47  66  86 106 129 173 224 263
#     4  10  20  32  46  62  87 112 141 178 218 261
#     4  12  24  33  44  64  84 116 146 174 218 271
#     4  10  20  33  46  58  73 102 143 188 236 272
#     4  10  18  30  46  65  85 109 141 183 220 254
#     4   9  17  28  48  69  84 102 133 173 224 266
#     4  10  20  31  43  59  83 113 143 176 217 264
#     4  12  22  33  46  58  78 100 144 198 232 261
#
# _framework density 15.639988000000001
#
# number of rings (size 3 to 8) (size 9 to 14) (size 15 to 20)
#    0.000    2.000    0.000    4.714    0.000    8.000 
#    0.000    0.000    0.000    0.000    0.000    0.000 
#    0.000    0.000    0.000    0.000    0.000    0.000 
#
# Total GULP energy -694058.658291 kJ/mol
# GULP energy per Si atom -12393.904612 kJ/mol
# Density = 1.560439 g / cm^3
# Si number density = 15.639988 Si / 1000 Ang^3
#
#
#
# Elastic Constant Matrix: (Units=GPa)
#
#
# Indices 1 2 3 4 5 6 
#
# 1 144.0809 39.0612 46.9428 0.0000 0.0000 0.0000
# 2 39.0612 47.3458 35.7545 0.0000 0.0000 0.0000
# 3 46.9428 35.7545 49.5379 0.0000 0.0000 0.0000
# 4 0.0000 0.0000 0.0000 16.8419 0.0000 0.0000
# 5 0.0000 0.0000 0.0000 0.0000 19.9816 0.0000
# 6 0.0000 0.0000 0.0000 0.0000 0.0000 31.1185
#
#
#
# Elastic Compliance Matrix: (Units=1/GPa)
#
#
# Indices 1 2 3 4 5 6 
#
# 1 0.010168 -0.002445 -0.007870 0.000000 0.000000 0.000000
# 2 -0.002445 0.047014 -0.031616 0.000000 0.000000 0.000000
# 3 -0.007870 -0.031616 0.050464 0.000000 0.000000 0.000000
# 4 0.000000 0.000000 0.000000 0.059376 0.000000 0.000000
# 5 0.000000 0.000000 0.000000 0.000000 0.050046 0.000000
# 6 0.000000 0.000000 0.000000 0.000000 0.000000 0.032135
#
#
# Mechanical properties :
#
#
# Convention : Reuss Voigt Hill
#
# Bulk Modulus (GPa) = 42.04703 53.83130 47.93916
# Shear Modulus (GPa) = 14.66311 21.53549 18.09930
#
# Velocity S-wave (km/s) = 3.06525 3.71475 3.40552
# Velocity P-wave (km/s) = 6.28254 7.27275 6.79571
#
# Compressibility (1/GPa) = 0.02378289
#
# Stress axis : x y z
#
# Youngs Moduli (GPa) = 98.35156 21.27030 19.81628
#
# Poissons Ratio (x) = 0.05201 0.15596
# Poissons Ratio (y) = 0.24048 0.62651
# Poissons Ratio (z) = 0.77405 0.67248
#
# Static dielectric constant tensor:
#      x y z
#    x 3.642860 0.000000 0.000000 
#    y 0.000000 2.717610 0.000000 
#    z 0.000000 0.000000 371.984080 
# 
# 
# High freq. dielectric constant tensor:
#      x y z
#    x 1.636010 0.000000 0.000000 
#    y 0.000000 1.549750 0.000000 
#    z 0.000000 0.000000 1.570990 
# 
# From -- ./inp_files/38860.got.cif
#   From: 2010.06.25/outbox.cif.g09.slc.cpg/sg52_20_cif.got.tgz:38860.got - 2010.06.26 19:32:48.
