data_PCOD8215809
_publ_section_title
;
Structure prediction by ZEFSAII (Michael W. Deem and Ramdas Pophale) SiO2 
 PCOD8215809
Probable space group: P N N A
;
_chemical_formula_sum "Si O2"
_cell_formula_units_Z 48
_cell_length_a 29.247489
_cell_length_b 8.364377
_cell_length_c 9.769358
_cell_angle_alpha 90.000000
_cell_angle_beta 90.000000
_cell_angle_gamma 90.000000
_cell_volume 2389.946670
_symmetry_space_group_name_H-M "P N N A"
_symmetry_group_IT_number 52
_symmetry_cell_setting 'orthorhombic'
loop_
_space_group_symop_operation_xyz
x,y,z
1/2-x,-y,z
x,1/2-y,1/2-z
1/2-x,1/2+y,1/2-z
-x,-y,-z
1/2+x,y,-z
-x,1/2+y,1/2+z
1/2+x,1/2-y,1/2+z
loop_
_atom_site_type_symbol
_atom_site_label
_atom_site_fract_x
_atom_site_fract_y
_atom_site_fract_z
Si Si1 0.611635 0.431350 0.715238
Si Si2 0.051377 0.555097 0.519110
Si Si3 0.901552 0.372061 0.971748
Si Si4 0.316685 0.162164 0.121318
Si Si5 0.294287 0.089858 0.833182
Si Si6 0.612049 0.060495 0.251568
O O1 0.619927 0.250000 0.750000
O O2 0.579811 0.446574 0.584458
O O3 0.661674 0.501450 0.683320
O O4 0.586396 0.522381 0.839717
O O5 0.057014 0.746483 0.495639
O O6 0.069851 0.516656 0.670162
O O7 0.000000 0.500000 0.500000
O O8 0.891590 0.490619 0.096536
O O9 0.856464 0.270757 0.942273
O O10 0.291462 0.250000 0.250000
O O11 0.283476 0.125261 0.994093
O O12 0.302516 0.250000 0.750000
O O13 0.250000 0.000000 0.772553
O O14 0.339605 0.983041 0.818630
O O15 0.607311 0.250000 0.250000
#
# Coordination Sequence:
#
# PCOD8215809 Si02
#       6
#     8   8   8   8   8   8
#     4  10  20  37  61  92 121 161 210 260 312 379
#     4  11  23  40  61  90 126 170 217 264 321 386
#     4  10  20  39  66  85 123 169 210 256 322 376
#     4   9  19  39  65  86 120 167 206 252 317 377
#     4  12  23  43  66  96 131 168 218 267 324 384
#     4  12  23  40  65  95 127 171 217 265 325 388
#
# _framework density 20.084129999999998
#
# number of rings (size 3 to 8) (size 9 to 14) (size 15 to 20)
#    0.000    1.333    5.000    3.500    0.000    2.667 
#    0.000    4.167    0.000    0.000    0.000    0.000 
#    0.000    0.000    0.000    0.000    0.000    0.000 
#
# Total GULP energy -595154.584363 kJ/mol
# GULP energy per Si atom -12399.053841 kJ/mol
# Density = 2.003842 g / cm^3
# Si number density = 20.084130 Si / 1000 Ang^3
#
#
#
# Elastic Constant Matrix: (Units=GPa)
#
#
# Indices 1 2 3 4 5 6 
#
# 1 61.2530 10.4245 -5.0187 0.0000 0.0000 0.0000
# 2 10.4245 141.2870 30.8801 0.0000 0.0000 0.0000
# 3 -5.0187 30.8801 95.6739 0.0000 0.0000 0.0000
# 4 0.0000 0.0000 0.0000 33.2953 0.0000 0.0000
# 5 0.0000 0.0000 0.0000 0.0000 9.9873 0.0000
# 6 0.0000 0.0000 0.0000 0.0000 0.0000 16.0393
#
#
#
# Elastic Compliance Matrix: (Units=1/GPa)
#
#
# Indices 1 2 3 4 5 6 
#
# 1 0.016699 -0.001532 0.001370 0.000000 0.000000 0.000000
# 2 -0.001532 0.007755 -0.002584 0.000000 0.000000 0.000000
# 3 0.001370 -0.002584 0.011358 0.000000 0.000000 0.000000
# 4 0.000000 0.000000 0.000000 0.030034 0.000000 0.000000
# 5 0.000000 0.000000 0.000000 0.000000 0.100128 0.000000
# 6 0.000000 0.000000 0.000000 0.000000 0.000000 0.062347
#
#
# Mechanical properties :
#
#
# Convention : Reuss Voigt Hill
#
# Bulk Modulus (GPa) = 32.97889 41.19841 37.08865
# Shear Modulus (GPa) = 20.49869 29.32623 24.91246
#
# Velocity S-wave (km/s) = 3.19821 3.82536 3.52576
# Velocity P-wave (km/s) = 5.48581 6.32998 5.92295
#
# Compressibility (1/GPa) = 0.03032242
#
# Stress axis : x y z
#
# Youngs Moduli (GPa) = 59.88505 128.94144 88.04426
#
# Poissons Ratio (x) = 0.19748 -0.12064
# Poissons Ratio (y) = 0.09172 0.22746
# Poissons Ratio (z) = -0.08206 0.33312
#
# Static dielectric constant tensor:
#      x y z
#    x 3.349400 0.000000 0.000000 
#    y 0.000000 3.800240 0.000000 
#    z 0.000000 0.000000 4.088850 
# 
# 
# High freq. dielectric constant tensor:
#      x y z
#    x 1.745700 0.000000 0.000000 
#    y 0.000000 1.794260 0.000000 
#    z 0.000000 0.000000 1.806670 
# 
# From -- ./inp_files/15501.got.cif
#   From: 2010.06.25/outbox.cif.g09.slc.cpg/sg52_8_cif.got.tgz:15501.got - 2010.06.26 19:32:48.
