data_PCOD8215201
_publ_section_title
;
Structure prediction by ZEFSAII (Michael W. Deem and Ramdas Pophale) SiO2 
 PCOD8215201
Probable space group: P N N A
;
_chemical_formula_sum "Si O2"
_cell_formula_units_Z 44
_cell_length_a 13.767640
_cell_length_b 14.773270
_cell_length_c 11.327779
_cell_angle_alpha 90.000000
_cell_angle_beta 90.000000
_cell_angle_gamma 90.000000
_cell_volume 2303.991668
_symmetry_space_group_name_H-M "P N N A"
_symmetry_group_IT_number 52
_symmetry_cell_setting 'orthorhombic'
loop_
_space_group_symop_operation_xyz
x,y,z
1/2-x,-y,z
x,1/2-y,1/2-z
1/2-x,1/2+y,1/2-z
-x,-y,-z
1/2+x,y,-z
-x,1/2+y,1/2+z
1/2+x,1/2-y,1/2+z
loop_
_atom_site_type_symbol
_atom_site_label
_atom_site_fract_x
_atom_site_fract_y
_atom_site_fract_z
Si Si1 0.551166 0.707006 0.372697
Si Si2 0.455226 0.250000 0.250000
Si Si3 0.162784 0.876993 0.076705
Si Si4 0.628647 0.427205 0.656321
Si Si5 0.505060 0.359452 0.047210
Si Si6 0.642917 0.010748 0.576844
O O1 0.589474 0.750000 0.250000
O O2 0.639777 0.660656 0.444828
O O3 0.467087 0.632496 0.357239
O O4 0.506194 0.791668 0.439734
O O5 0.386529 0.188068 0.170853
O O6 0.528510 0.306593 0.167774
O O7 0.278278 0.875987 0.100583
O O8 0.117217 0.977288 0.088989
O O9 0.645774 0.444972 0.794257
O O10 0.405612 0.412523 0.075264
O O11 0.591474 0.426987 0.019749
O O12 0.750000 0.000000 0.527304
#
# Coordination Sequence:
#
# PCOD8215201 Si02
#       6
#     8   4   8   8   8   8
#     4  11  23  38  62  90 130 164 198 253 315 370
#     4  10  18  36  58  94 126 154 202 258 300 364
#     4  10  22  37  65  93 121 159 209 256 300 371
#     4  11  20  39  64  92 118 165 211 250 311 369
#     4  10  22  36  62  92 122 160 203 257 313 365
#     4  11  20  38  65  92 118 157 213 259 309 364
#
# _framework density 19.097290999999998
#
# number of rings (size 3 to 8) (size 9 to 14) (size 15 to 20)
#    0.000    1.455    5.455    0.545    1.273    2.909 
#    0.000    0.000   22.000    0.000    0.000    0.000 
#    0.000    0.000    0.000    0.000    0.000    0.000 
#
# Total GULP energy -545505.426093 kJ/mol
# GULP energy per Si atom -12397.850593 kJ/mol
# Density = 1.905383 g / cm^3
# Si number density = 19.097291 Si / 1000 Ang^3
#
#
#
# Elastic Constant Matrix: (Units=GPa)
#
#
# Indices 1 2 3 4 5 6 
#
# 1 74.9269 27.4683 28.3655 0.0000 0.0000 0.0000
# 2 27.4683 87.0753 47.0791 0.0000 0.0000 0.0000
# 3 28.3655 47.0791 116.2891 0.0000 0.0000 0.0000
# 4 0.0000 0.0000 0.0000 29.4360 0.0000 0.0000
# 5 0.0000 0.0000 0.0000 0.0000 13.1902 0.0000
# 6 0.0000 0.0000 0.0000 0.0000 0.0000 16.5663
#
#
#
# Elastic Compliance Matrix: (Units=1/GPa)
#
#
# Indices 1 2 3 4 5 6 
#
# 1 0.015564 -0.003658 -0.002316 0.000000 0.000000 0.000000
# 2 -0.003658 0.015562 -0.005408 0.000000 0.000000 0.000000
# 3 -0.002316 -0.005408 0.011353 0.000000 0.000000 0.000000
# 4 0.000000 0.000000 0.000000 0.033972 0.000000 0.000000
# 5 0.000000 0.000000 0.000000 0.000000 0.075814 0.000000
# 6 0.000000 0.000000 0.000000 0.000000 0.000000 0.060363
#
#
# Mechanical properties :
#
#
# Convention : Reuss Voigt Hill
#
# Bulk Modulus (GPa) = 50.71812 53.79078 52.25445
# Shear Modulus (GPa) = 20.66427 23.53041 22.09734
#
# Velocity S-wave (km/s) = 3.29303 3.51398 3.40530
# Velocity P-wave (km/s) = 6.40891 6.68520 6.54851
#
# Compressibility (1/GPa) = 0.01971682
#
# Stress axis : x y z
#
# Youngs Moduli (GPa) = 64.25131 64.25856 88.07857
#
# Poissons Ratio (x) = 0.23504 0.20395
# Poissons Ratio (y) = 0.23501 0.47633
# Poissons Ratio (z) = 0.14878 0.34751
#
# Static dielectric constant tensor:
#      x y z
#    x 3.364210 0.000000 0.000000 
#    y 0.000000 4.295690 0.000000 
#    z 0.000000 0.000000 3.650890 
# 
# 
# High freq. dielectric constant tensor:
#      x y z
#    x 1.720160 0.000000 0.000000 
#    y 0.000000 1.766590 0.000000 
#    z 0.000000 0.000000 1.746010 
# 
# From -- ./inp_files/19421.got.cif
#   From: 2010.06.25/outbox.cif.g09.slc.cpg/sg52_10_cif.got.tgz:19421.got - 2010.06.26 19:32:48.
