data_PCOD8215325
_publ_section_title
;
Structure prediction by ZEFSAII (Michael W. Deem and Ramdas Pophale) SiO2 
 PCOD8215325
Probable space group: P N N A
;
_chemical_formula_sum "Si O2"
_cell_formula_units_Z 32
_cell_length_a 21.697142
_cell_length_b 4.860897
_cell_length_c 13.804797
_cell_angle_alpha 90.000000
_cell_angle_beta 90.000000
_cell_angle_gamma 90.000000
_cell_volume 1455.958428
_symmetry_space_group_name_H-M "P N N A"
_symmetry_group_IT_number 52
_symmetry_cell_setting 'orthorhombic'
loop_
_space_group_symop_operation_xyz
x,y,z
1/2-x,-y,z
x,1/2-y,1/2-z
1/2-x,1/2+y,1/2-z
-x,-y,-z
1/2+x,y,-z
-x,1/2+y,1/2+z
1/2+x,1/2-y,1/2+z
loop_
_atom_site_type_symbol
_atom_site_label
_atom_site_fract_x
_atom_site_fract_y
_atom_site_fract_z
Si Si1 0.578750 0.773390 0.140944
Si Si2 0.128961 0.798181 0.053243
Si Si3 0.504184 0.766508 0.641412
Si Si4 0.807765 0.680609 0.861873
O O1 0.605626 0.750000 0.250000
O O2 0.520033 0.574652 0.120032
O O3 0.556488 0.084259 0.128357
O O4 0.633829 0.732823 0.061971
O O5 0.135959 0.524018 0.118897
O O6 0.057024 0.861404 0.072270
O O7 0.178758 0.032734 0.082696
O O8 0.530775 0.750000 0.750000
O O9 0.750000 0.500000 0.902547
O O10 0.798037 0.750000 0.750000
#
# Coordination Sequence:
#
# PCOD8215325 Si02
#       4
#     8   8   8   8
#     4  10  21  36  56  87 126 160 194 237 281 343
#     4  12  22  37  62  87 117 160 199 234 293 357
#     4  10  19  33  54  86 125 160 194 233 284 349
#     4  12  25  42  61  86 115 146 192 252 308 355
#
# _framework density 21.978652
#
# number of rings (size 3 to 8) (size 9 to 14) (size 15 to 20)
#    0.000    1.000    0.000    9.000    0.000    2.000 
#    0.000    0.000    0.000    3.000    0.000    1.750 
#    0.000    0.000    0.000    0.000    0.000    0.000 
#
# Total GULP energy -396576.248689 kJ/mol
# GULP energy per Si atom -12393.007772 kJ/mol
# Density = 2.192863 g / cm^3
# Si number density = 21.978652 Si / 1000 Ang^3
#
#
#
# Elastic Constant Matrix: (Units=GPa)
#
#
# Indices 1 2 3 4 5 6 
#
# 1 41.5399 13.8477 42.9362 0.0000 0.0000 0.0000
# 2 13.8477 115.2581 41.1731 0.0000 0.0000 0.0000
# 3 42.9362 41.1731 126.8391 0.0000 0.0000 0.0000
# 4 0.0000 0.0000 0.0000 25.5011 0.0000 0.0000
# 5 0.0000 0.0000 0.0000 0.0000 21.1493 0.0000
# 6 0.0000 0.0000 0.0000 0.0000 0.0000 22.8513
#
#
#
# Elastic Compliance Matrix: (Units=1/GPa)
#
#
# Indices 1 2 3 4 5 6 
#
# 1 0.037029 0.000033 -0.012545 0.000000 0.000000 0.000000
# 2 0.000033 0.009814 -0.003197 0.000000 0.000000 0.000000
# 3 -0.012545 -0.003197 0.013168 0.000000 0.000000 0.000000
# 4 0.000000 0.000000 0.000000 0.039214 0.000000 0.000000
# 5 0.000000 0.000000 0.000000 0.000000 0.047283 0.000000
# 6 0.000000 0.000000 0.000000 0.000000 0.000000 0.043761
#
#
# Mechanical properties :
#
#
# Convention : Reuss Voigt Hill
#
# Bulk Modulus (GPa) = 34.97368 53.28345 44.12856
# Shear Modulus (GPa) = 21.62438 26.27900 23.95169
#
# Velocity S-wave (km/s) = 3.14009 3.46158 3.30475
# Velocity P-wave (km/s) = 5.39389 6.34607 5.88926
#
# Compressibility (1/GPa) = 0.02859293
#
# Stress axis : x y z
#
# Youngs Moduli (GPa) = 27.00553 101.89269 75.93899
#
# Poissons Ratio (x) = -0.00332 0.95269
# Poissons Ratio (y) = -0.00088 0.24276
# Poissons Ratio (z) = 0.33880 0.32573
#
# Static dielectric constant tensor:
#      x y z
#    x 3.560130 0.000000 0.000000 
#    y 0.000000 4.186360 0.000000 
#    z 0.000000 0.000000 4.280590 
# 
# 
# High freq. dielectric constant tensor:
#      x y z
#    x 1.820120 0.000000 0.000000 
#    y 0.000000 1.885660 0.000000 
#    z 0.000000 0.000000 1.867110 
# 
# From -- ./inp_files/27705.got.cif
#   From: 2010.06.25/outbox.cif.g09.slc.cpg/sg52_14_cif.got.tgz:27705.got - 2010.06.26 19:32:48.
