data_PCOD8215810
_publ_section_title
;
Structure prediction by ZEFSAII (Michael W. Deem and Ramdas Pophale) SiO2 
 PCOD8215810
Probable space group: P N N A
;
_chemical_formula_sum "Si O2"
_cell_formula_units_Z 40
_cell_length_a 8.911909
_cell_length_b 9.806438
_cell_length_c 22.399280
_cell_angle_alpha 90.000000
_cell_angle_beta 90.000000
_cell_angle_gamma 90.000000
_cell_volume 1957.564537
_symmetry_space_group_name_H-M "P N N A"
_symmetry_group_IT_number 52
_symmetry_cell_setting 'orthorhombic'
loop_
_space_group_symop_operation_xyz
x,y,z
1/2-x,-y,z
x,1/2-y,1/2-z
1/2-x,1/2+y,1/2-z
-x,-y,-z
1/2+x,y,-z
-x,1/2+y,1/2+z
1/2+x,1/2-y,1/2+z
loop_
_atom_site_type_symbol
_atom_site_label
_atom_site_fract_x
_atom_site_fract_y
_atom_site_fract_z
Si Si1 0.492314 0.226559 0.995466
Si Si2 0.230664 0.354643 0.587596
Si Si3 0.258719 0.153271 0.423972
Si Si4 0.171303 0.855248 0.298685
Si Si5 0.181540 0.347964 0.803854
O O1 0.375699 0.143178 0.955580
O O2 0.603606 0.299604 0.950827
O O3 0.583315 0.139891 0.044859
O O4 0.395461 0.338393 0.030272
O O5 0.250000 0.500000 0.621964
O O6 0.222926 0.228503 0.633647
O O7 0.288659 0.224516 0.360459
O O8 0.250000 0.000000 0.403309
O O9 0.230972 0.750000 0.250000
O O10 0.993418 0.874115 0.296269
O O11 0.250000 0.000000 0.287282
O O12 0.250000 0.500000 0.803210
O O13 0.240387 0.250000 0.750000
#
# Coordination Sequence:
#
# PCOD8215810 Si02
#       5
#     8   8   8   8   8
#     4  10  22  38  62  91 130 168 211 252 317 372
#     4  11  23  42  64  95 130 172 211 262 312 380
#     4  10  20  37  61  94 126 163 205 261 309 380
#     4  10  23  44  64  92 127 161 209 259 311 378
#     4  11  25  45  68  95 128 165 212 267 318 379
#
# _framework density 20.433554999999998
#
# number of rings (size 3 to 8) (size 9 to 14) (size 15 to 20)
#    0.000    1.600    2.000    1.800    5.600    4.000 
#    7.200    1.000    0.000    0.000    0.000    0.000 
#    0.000    0.000    0.000    0.000    0.000    0.000 
#
# Total GULP energy -495559.394494 kJ/mol
# GULP energy per Si atom -12388.984862 kJ/mol
# Density = 2.038705 g / cm^3
# Si number density = 20.433555 Si / 1000 Ang^3
#
#
#
# Elastic Constant Matrix: (Units=GPa)
#
#
# Indices 1 2 3 4 5 6 
#
# 1 112.4558 42.3993 42.2632 0.0000 0.0000 0.0000
# 2 42.3993 133.0415 61.9501 0.0000 0.0000 0.0000
# 3 42.2632 61.9501 131.3128 0.0000 0.0000 0.0000
# 4 0.0000 0.0000 0.0000 32.5145 0.0000 0.0000
# 5 0.0000 0.0000 0.0000 0.0000 24.8846 0.0000
# 6 0.0000 0.0000 0.0000 0.0000 0.0000 11.9416
#
#
#
# Elastic Compliance Matrix: (Units=1/GPa)
#
#
# Indices 1 2 3 4 5 6 
#
# 1 0.010639 -0.002302 -0.002338 0.000000 0.000000 0.000000
# 2 -0.002302 0.010131 -0.004038 0.000000 0.000000 0.000000
# 3 -0.002338 -0.004038 0.010273 0.000000 0.000000 0.000000
# 4 0.000000 0.000000 0.000000 0.030756 0.000000 0.000000
# 5 0.000000 0.000000 0.000000 0.000000 0.040186 0.000000
# 6 0.000000 0.000000 0.000000 0.000000 0.000000 0.083741
#
#
# Mechanical properties :
#
#
# Convention : Reuss Voigt Hill
#
# Bulk Modulus (GPa) = 73.06899 74.44836 73.75868
# Shear Modulus (GPa) = 24.07976 29.21465 26.64720
#
# Velocity S-wave (km/s) = 3.43657 3.78529 3.61514
# Velocity P-wave (km/s) = 7.18217 7.45775 7.32126
#
# Compressibility (1/GPa) = 0.01368570
#
# Stress axis : x y z
#
# Youngs Moduli (GPa) = 93.99399 98.71173 97.34033
#
# Poissons Ratio (x) = 0.22721 0.22761
# Poissons Ratio (y) = 0.21635 0.39311
# Poissons Ratio (z) = 0.21978 0.39865
#
# Static dielectric constant tensor:
#      x y z
#    x 3.894610 0.000000 0.000000 
#    y 0.000000 3.643540 0.000000 
#    z 0.000000 0.000000 3.872930 
# 
# 
# High freq. dielectric constant tensor:
#      x y z
#    x 1.807870 0.000000 0.000000 
#    y 0.000000 1.790220 0.000000 
#    z 0.000000 0.000000 1.813860 
# 
# From -- ./inp_files/39181.got.cif
#   From: 2010.06.25/outbox.cif.g09.slc.cpg/sg52_20_cif.got.tgz:39181.got - 2010.06.26 19:32:48.
