data_PCOD8215154
_publ_section_title
;
Structure prediction by ZEFSAII (Michael W. Deem and Ramdas Pophale) SiO2 
 PCOD8215154
Probable space group: P N N A
;
_chemical_formula_sum "Si O2"
_cell_formula_units_Z 64
_cell_length_a 24.412643
_cell_length_b 15.805393
_cell_length_c 8.751036
_cell_angle_alpha 90.000000
_cell_angle_beta 90.000000
_cell_angle_gamma 90.000000
_cell_volume 3376.599639
_symmetry_space_group_name_H-M "P N N A"
_symmetry_group_IT_number 52
_symmetry_cell_setting 'orthorhombic'
loop_
_space_group_symop_operation_xyz
x,y,z
1/2-x,-y,z
x,1/2-y,1/2-z
1/2-x,1/2+y,1/2-z
-x,-y,-z
1/2+x,y,-z
-x,1/2+y,1/2+z
1/2+x,1/2-y,1/2+z
loop_
_atom_site_type_symbol
_atom_site_label
_atom_site_fract_x
_atom_site_fract_y
_atom_site_fract_z
Si Si1 0.406081 0.038283 0.749653
Si Si2 0.353275 0.740587 0.913369
Si Si3 0.259411 0.809363 0.117275
Si Si4 0.166395 0.451954 0.310767
Si Si5 0.923992 0.611185 0.476356
Si Si6 0.494318 0.850281 0.242141
Si Si7 0.299023 0.065015 0.933244
Si Si8 0.903140 0.572814 0.963467
O O1 0.442431 0.123005 0.744655
O O2 0.429835 0.968695 0.866058
O O3 0.414746 0.001744 0.581095
O O4 0.343671 0.063395 0.796272
O O5 0.322142 0.750000 0.750000
O O6 0.405798 0.802946 0.891922
O O7 0.310972 0.758854 0.049566
O O8 0.376341 0.648011 0.941411
O O9 0.232026 0.750000 0.250000
O O10 0.277609 0.897591 0.197686
O O11 0.220812 0.838943 0.973978
O O12 0.123508 0.394164 0.398938
O O13 0.173736 0.537339 0.406633
O O14 0.142518 0.470315 0.144633
O O15 0.979867 0.621179 0.569758
O O16 0.487171 0.750000 0.250000
O O17 0.457001 0.896305 0.371166
O O18 0.250000 0.000000 0.885834
#
# Coordination Sequence:
#
# PCOD8215154 Si02
#       8
#     8   8   8   8   8   8   8   8
#     4  11  22  38  58  83 121 156 195 238 296 362
#     4  11  19  31  56  91 118 137 185 257 304 329
#     4  10  18  33  59  84 108 147 194 239 294 347
#     4   8  17  32  54  80 107 138 183 237 284 335
#     4   9  18  33  57  81 106 148 186 229 289 354
#     4  11  22  37  57  83 117 158 192 239 300 361
#     4   9  20  39  57  78 113 154 195 236 287 348
#     4  11  20  34  59  89 115 144 194 250 295 348
#
# _framework density 18.953980000000001
#
# number of rings (size 3 to 8) (size 9 to 14) (size 15 to 20)
#    0.000    2.000    3.750    1.500    0.000    0.000 
#    0.000    5.000    0.000    0.750    0.000    0.000 
#    0.000    0.000    0.000    0.000    0.000    0.000 
#
# Total GULP energy -792905.578865 kJ/mol
# GULP energy per Si atom -12389.149670 kJ/mol
# Density = 1.891084 g / cm^3
# Si number density = 18.953980 Si / 1000 Ang^3
#
#
#
# Elastic Constant Matrix: (Units=GPa)
#
#
# Indices 1 2 3 4 5 6 
#
# 1 84.4270 19.1132 30.0675 0.0000 0.0000 0.0000
# 2 19.1132 39.6340 14.2334 0.0000 0.0000 0.0000
# 3 30.0675 14.2334 90.8018 0.0000 0.0000 0.0000
# 4 0.0000 0.0000 0.0000 26.4479 0.0000 0.0000
# 5 0.0000 0.0000 0.0000 0.0000 23.8456 0.0000
# 6 0.0000 0.0000 0.0000 0.0000 0.0000 22.5184
#
#
#
# Elastic Compliance Matrix: (Units=1/GPa)
#
#
# Indices 1 2 3 4 5 6 
#
# 1 0.014508 -0.005586 -0.003929 0.000000 0.000000 0.000000
# 2 -0.005586 0.028886 -0.002678 0.000000 0.000000 0.000000
# 3 -0.003929 -0.002678 0.012734 0.000000 0.000000 0.000000
# 4 0.000000 0.000000 0.000000 0.037810 0.000000 0.000000
# 5 0.000000 0.000000 0.000000 0.000000 0.041936 0.000000
# 6 0.000000 0.000000 0.000000 0.000000 0.000000 0.044408
#
#
# Mechanical properties :
#
#
# Convention : Reuss Voigt Hill
#
# Bulk Modulus (GPa) = 31.50297 37.96566 34.73431
# Shear Modulus (GPa) = 23.22888 24.65896 23.94392
#
# Velocity S-wave (km/s) = 3.50457 3.61084 3.55810
# Velocity P-wave (km/s) = 5.74742 6.12030 5.93679
#
# Compressibility (1/GPa) = 0.03174304
#
# Stress axis : x y z
#
# Youngs Moduli (GPa) = 68.92669 34.61837 78.53153
#
# Poissons Ratio (x) = 0.19336 0.30852
# Poissons Ratio (y) = 0.38500 0.21034
# Poissons Ratio (z) = 0.27078 0.09272
#
# Static dielectric constant tensor:
#      x y z
#    x 3.464620 0.000000 0.000000 
#    y 0.000000 3.276810 0.000000 
#    z 0.000000 0.000000 3.502680 
# 
# 
# High freq. dielectric constant tensor:
#      x y z
#    x 1.712380 0.000000 0.000000 
#    y 0.000000 1.723030 0.000000 
#    z 0.000000 0.000000 1.736910 
# 
# From -- ./inp_files/14558.got.cif
#   From: 2010.06.25/outbox.cif.g09.slc.cpg/sg52_8_cif.got.tgz:14558.got - 2010.06.26 19:32:48.
