data_PCOD8215032
_publ_section_title
;
Structure prediction by ZEFSAII (Michael W. Deem and Ramdas Pophale) SiO2 
 PCOD8215032
Probable space group: P N N A
;
_chemical_formula_sum "Si O2"
_cell_formula_units_Z 60
_cell_length_a 17.014564
_cell_length_b 14.956057
_cell_length_c 12.192035
_cell_angle_alpha 90.000000
_cell_angle_beta 90.000000
_cell_angle_gamma 90.000000
_cell_volume 3102.516766
_symmetry_space_group_name_H-M "P N N A"
_symmetry_group_IT_number 52
_symmetry_cell_setting 'orthorhombic'
loop_
_space_group_symop_operation_xyz
x,y,z
1/2-x,-y,z
x,1/2-y,1/2-z
1/2-x,1/2+y,1/2-z
-x,-y,-z
1/2+x,y,-z
-x,1/2+y,1/2+z
1/2+x,1/2-y,1/2+z
loop_
_atom_site_type_symbol
_atom_site_label
_atom_site_fract_x
_atom_site_fract_y
_atom_site_fract_z
Si Si1 0.836685 0.490811 0.073300
Si Si2 0.993273 0.475663 0.172737
Si Si3 0.898267 0.846529 0.562165
Si Si4 0.963643 0.048370 0.898073
Si Si5 0.976997 0.738782 0.373470
Si Si6 0.798216 0.750000 0.750000
Si Si7 0.803204 0.412621 0.685549
Si Si8 0.899132 0.121473 0.599740
O O1 0.750000 0.500000 0.124290
O O2 0.898891 0.488075 0.172610
O O3 0.848649 0.570853 0.985956
O O4 0.848125 0.395731 0.009597
O O5 0.021327 0.382089 0.119129
O O6 0.025576 0.481644 0.295606
O O7 0.024094 0.557264 0.096742
O O8 0.917791 0.777570 0.464487
O O9 0.849048 0.799978 0.658455
O O10 0.871399 0.077027 0.907790
O O11 0.018134 0.133934 0.886699
O O12 0.000000 0.000000 0.000000
O O13 0.943975 0.750000 0.250000
O O14 0.065783 0.779174 0.386692
O O15 0.746460 0.679277 0.678877
O O16 0.750000 0.500000 0.677520
O O17 0.845979 0.409681 0.801086
#
# Coordination Sequence:
#
# PCOD8215032 Si02
#       8
#     8   8   8   8   8   4   8   8
#     4  11  19  34  59  90 121 155 199 265 316 358
#     4  10  19  40  58  88 121 156 212 255 307 384
#     4  11  23  37  63  92 127 164 208 264 314 384
#     4  11  25  40  65  88 125 173 210 254 330 397
#     4  12  20  38  64  92 120 166 225 257 297 387
#     4  12  24  38  62 102 128 158 208 270 340 364
#     4  11  22  39  61  92 131 157 204 269 325 380
#     4  10  17  35  58  88 117 158 202 254 307 370
#
# _framework density 19.339137999999998
#
# number of rings (size 3 to 8) (size 9 to 14) (size 15 to 20)
#    0.000    1.067    5.333    5.200    3.733    0.000 
#    0.000    0.667    2.933    0.000    0.000    0.000 
#    0.000    0.000    0.000    0.000    0.000    0.000 
#
# Total GULP energy -743624.160141 kJ/mol
# GULP energy per Si atom -12393.736002 kJ/mol
# Density = 1.929512 g / cm^3
# Si number density = 19.339138 Si / 1000 Ang^3
#
#
#
# Elastic Constant Matrix: (Units=GPa)
#
#
# Indices 1 2 3 4 5 6 
#
# 1 127.7425 28.7453 38.3421 0.0000 0.0000 0.0000
# 2 28.7453 83.2021 40.1311 0.0000 0.0000 0.0000
# 3 38.3421 40.1311 88.2631 0.0000 0.0000 0.0000
# 4 0.0000 0.0000 0.0000 31.4436 0.0000 0.0000
# 5 0.0000 0.0000 0.0000 0.0000 12.9354 0.0000
# 6 0.0000 0.0000 0.0000 0.0000 0.0000 29.2437
#
#
#
# Elastic Compliance Matrix: (Units=1/GPa)
#
#
# Indices 1 2 3 4 5 6 
#
# 1 0.009165 -0.001596 -0.003255 0.000000 0.000000 0.000000
# 2 -0.001596 0.015673 -0.006433 0.000000 0.000000 0.000000
# 3 -0.003255 -0.006433 0.015669 0.000000 0.000000 0.000000
# 4 0.000000 0.000000 0.000000 0.031803 0.000000 0.000000
# 5 0.000000 0.000000 0.000000 0.000000 0.077307 0.000000
# 6 0.000000 0.000000 0.000000 0.000000 0.000000 0.034195
#
#
# Mechanical properties :
#
#
# Convention : Reuss Voigt Hill
#
# Bulk Modulus (GPa) = 55.74827 57.07164 56.40995
# Shear Modulus (GPa) = 23.54493 27.52384 25.53439
#
# Velocity S-wave (km/s) = 3.49302 3.77665 3.63760
# Velocity P-wave (km/s) = 6.71993 6.97083 6.84653
#
# Compressibility (1/GPa) = 0.01793778
#
# Stress axis : x y z
#
# Youngs Moduli (GPa) = 109.11648 63.80354 63.82097
#
# Poissons Ratio (x) = 0.10183 0.20777
# Poissons Ratio (y) = 0.17415 0.41055
# Poissons Ratio (z) = 0.35522 0.41044
#
# Static dielectric constant tensor:
#      x y z
#    x 3.738040 0.000000 0.000000 
#    y 0.000000 3.683920 0.000000 
#    z 0.000000 0.000000 3.324570 
# 
# 
# High freq. dielectric constant tensor:
#      x y z
#    x 1.748930 0.000000 0.000000 
#    y 0.000000 1.753120 0.000000 
#    z 0.000000 0.000000 1.728680 
# 
# From -- ./inp_files/20837.got.cif
#   From: 2010.06.25/outbox.cif.g09.slc.cpg/sg52_11_cif.got.tgz:20837.got - 2010.06.26 19:32:48.
