data_PCOD8215832
_publ_section_title
;
Structure prediction by ZEFSAII (Michael W. Deem and Ramdas Pophale) SiO2 
 PCOD8215832
Probable space group: P N N A
;
_chemical_formula_sum "Si O2"
_cell_formula_units_Z 36
_cell_length_a 15.651824
_cell_length_b 8.321273
_cell_length_c 14.840806
_cell_angle_alpha 90.000000
_cell_angle_beta 90.000000
_cell_angle_gamma 90.000000
_cell_volume 1932.912587
_symmetry_space_group_name_H-M "P N N A"
_symmetry_group_IT_number 52
_symmetry_cell_setting 'orthorhombic'
loop_
_space_group_symop_operation_xyz
x,y,z
1/2-x,-y,z
x,1/2-y,1/2-z
1/2-x,1/2+y,1/2-z
-x,-y,-z
1/2+x,y,-z
-x,1/2+y,1/2+z
1/2+x,1/2-y,1/2+z
loop_
_atom_site_type_symbol
_atom_site_label
_atom_site_fract_x
_atom_site_fract_y
_atom_site_fract_z
Si Si1 0.927497 0.442131 0.068775
Si Si2 0.848507 0.684348 0.842560
Si Si3 0.750000 0.000000 0.524878
Si Si4 0.484049 0.432930 0.230112
Si Si5 0.003644 0.108334 0.088856
O O1 0.832136 0.467974 0.035015
O O2 0.937624 0.547406 0.159874
O O3 0.935162 0.251499 0.084089
O O4 0.000000 0.500000 0.000000
O O5 0.808964 0.750000 0.750000
O O6 0.905784 0.528864 0.816492
O O7 0.902794 0.816645 0.896632
O O8 0.769882 0.647543 0.908104
O O9 0.457395 0.250000 0.250000
O O10 0.517842 0.504162 0.323665
O O11 0.000000 0.000000 0.000000
#
# Coordination Sequence:
#
# PCOD8215832 Si02
#       5
#     8   8   4   8   8
#     4  11  21  40  61  88 127 162 200 250 306 365
#     4   9  21  39  57  92 123 154 204 257 306 358
#     4  12  22  38  66  88 130 158 204 250 314 366
#     4  10  20  37  67  89 118 165 203 249 309 357
#     4  10  20  38  66  89 118 160 206 250 304 365
#
# _framework density 18.624742000000001
#
# number of rings (size 3 to 8) (size 9 to 14) (size 15 to 20)
#    0.000    1.778    4.444    3.333    0.000    0.889 
#    4.000    2.222    0.000    0.000    0.000    0.000 
#    0.000    0.000    0.000    0.000    0.000    0.000 
#
# Total GULP energy -446183.043765 kJ/mol
# GULP energy per Si atom -12393.973438 kJ/mol
# Density = 1.858235 g / cm^3
# Si number density = 18.624742 Si / 1000 Ang^3
#
#
#
# Elastic Constant Matrix: (Units=GPa)
#
#
# Indices 1 2 3 4 5 6 
#
# 1 94.4551 17.2832 51.6723 0.0000 0.0000 0.0000
# 2 17.2832 109.5306 52.1444 0.0000 0.0000 0.0000
# 3 51.6723 52.1444 153.4906 0.0000 0.0000 0.0000
# 4 0.0000 0.0000 0.0000 43.7355 0.0000 0.0000
# 5 0.0000 0.0000 0.0000 0.0000 27.9624 0.0000
# 6 0.0000 0.0000 0.0000 0.0000 0.0000 13.5319
#
#
#
# Elastic Compliance Matrix: (Units=1/GPa)
#
#
# Indices 1 2 3 4 5 6 
#
# 1 0.012977 0.000038 -0.004382 0.000000 0.000000 0.000000
# 2 0.000038 0.010891 -0.003713 0.000000 0.000000 0.000000
# 3 -0.004382 -0.003713 0.009252 0.000000 0.000000 0.000000
# 4 0.000000 0.000000 0.000000 0.022865 0.000000 0.000000
# 5 0.000000 0.000000 0.000000 0.000000 0.035762 0.000000
# 6 0.000000 0.000000 0.000000 0.000000 0.000000 0.073900
#
#
# Mechanical properties :
#
#
# Convention : Reuss Voigt Hill
#
# Bulk Modulus (GPa) = 58.79826 66.63067 62.71446
# Shear Modulus (GPa) = 26.67684 32.80440 29.74062
#
# Velocity S-wave (km/s) = 3.78872 4.20138 4.00038
# Velocity P-wave (km/s) = 7.12585 7.70639 7.42180
#
# Compressibility (1/GPa) = 0.01700731
#
# Stress axis : x y z
#
# Youngs Moduli (GPa) = 77.05894 91.81502 108.09008
#
# Poissons Ratio (x) = -0.00352 0.47362
# Poissons Ratio (y) = -0.00295 0.40134
# Poissons Ratio (z) = 0.33765 0.34091
#
# Static dielectric constant tensor:
#      x y z
#    x 3.294920 0.000000 0.000000 
#    y 0.000000 3.850630 0.000000 
#    z 0.000000 0.000000 3.854600 
# 
# 
# High freq. dielectric constant tensor:
#      x y z
#    x 1.688320 0.000000 0.000000 
#    y 0.000000 1.726720 0.000000 
#    z 0.000000 0.000000 1.747830 
# 
# From -- ./inp_files/26804.got.cif
#   From: 2010.06.25/outbox.cif.g09.slc.cpg/sg52_14_cif.got.tgz:26804.got - 2010.06.26 19:32:48.
