data_PCOD8215959
_publ_section_title
;
Structure prediction by ZEFSAII (Michael W. Deem and Ramdas Pophale) SiO2 
 PCOD8215959
Probable space group: P N N A
;
_chemical_formula_sum "Si O2"
_cell_formula_units_Z 56
_cell_length_a 5.436541
_cell_length_b 19.377307
_cell_length_c 24.473405
_cell_angle_alpha 90.000000
_cell_angle_beta 90.000000
_cell_angle_gamma 90.000000
_cell_volume 2578.163673
_symmetry_space_group_name_H-M "P N N A"
_symmetry_group_IT_number 52
_symmetry_cell_setting 'orthorhombic'
loop_
_space_group_symop_operation_xyz
x,y,z
1/2-x,-y,z
x,1/2-y,1/2-z
1/2-x,1/2+y,1/2-z
-x,-y,-z
1/2+x,y,-z
-x,1/2+y,1/2+z
1/2+x,1/2-y,1/2+z
loop_
_atom_site_type_symbol
_atom_site_label
_atom_site_fract_x
_atom_site_fract_y
_atom_site_fract_z
Si Si1 0.010102 0.824962 0.250545
Si Si2 0.006889 0.961720 0.816896
Si Si3 0.816316 0.327961 0.355776
Si Si4 0.663064 0.172026 0.025158
Si Si5 0.370037 0.568623 0.204761
Si Si6 0.167584 0.825268 0.645059
Si Si7 0.326722 0.667636 0.974557
O O1 0.146173 0.750000 0.250000
O O2 0.863861 0.834540 0.195149
O O3 0.838570 0.826937 0.303020
O O4 0.191971 0.888197 0.255481
O O5 0.980940 0.887509 0.847621
O O6 0.063803 0.954519 0.751308
O O7 0.250000 0.000000 0.840926
O O8 0.750000 0.000000 0.828648
O O9 0.657364 0.340074 0.410126
O O10 0.947203 0.252157 0.359701
O O11 0.666207 0.252397 0.009394
O O12 0.413723 0.138464 0.000113
O O13 0.250000 0.500000 0.178028
O O14 0.461105 0.616239 0.154915
O O15 0.316954 0.844713 0.590606
O O16 0.580675 0.634070 0.997681
#
# Coordination Sequence:
#
# PCOD8215959 Si02
#       7
#     8   8   8   8   8   8   8
#     4  10  22  37  59  94 127 158 203 258 313 367
#     4  11  24  40  60  87 124 169 207 244 307 381
#     4  10  20  40  61  88 125 162 202 261 312 366
#     4   9  19  35  57  87 117 157 205 251 303 360
#     4  11  24  37  59  85 129 169 204 247 309 381
#     4  10  22  37  60  92 124 158 207 258 316 359
#     4   9  19  36  58  85 120 157 202 252 303 362
#
# _framework density 21.720886
#
# number of rings (size 3 to 8) (size 9 to 14) (size 15 to 20)
#    0.000    2.000    1.429    1.714    4.000    2.286 
#    5.143    0.000    0.000    3.429    0.000    0.000 
#    0.000    0.000    0.000    0.000    0.000    0.000 
#
# Total GULP energy -693895.242181 kJ/mol
# GULP energy per Si atom -12390.986468 kJ/mol
# Density = 2.167145 g / cm^3
# Si number density = 21.720886 Si / 1000 Ang^3
#
#
#
# Elastic Constant Matrix: (Units=GPa)
#
#
# Indices 1 2 3 4 5 6 
#
# 1 114.0209 28.9533 42.4322 0.0000 0.0000 0.0000
# 2 28.9533 98.6664 15.3896 0.0000 0.0000 0.0000
# 3 42.4322 15.3896 130.8681 0.0000 0.0000 0.0000
# 4 0.0000 0.0000 0.0000 -132.3441 0.0000 0.0000
# 5 0.0000 0.0000 0.0000 0.0000 29.0742 0.0000
# 6 0.0000 0.0000 0.0000 0.0000 0.0000 20.5673
#
#
#
# Elastic Compliance Matrix: (Units=1/GPa)
#
#
# Indices 1 2 3 4 5 6 
#
# 1 0.010601 -0.002623 -0.003129 0.000000 0.000000 0.000000
# 2 -0.002623 0.010973 -0.000440 0.000000 0.000000 0.000000
# 3 -0.003129 -0.000440 0.008707 0.000000 0.000000 0.000000
# 4 0.000000 0.000000 0.000000 -0.007556 0.000000 0.000000
# 5 0.000000 0.000000 0.000000 0.000000 0.034395 0.000000
# 6 0.000000 0.000000 0.000000 0.000000 0.000000 0.048621
#
#
# Mechanical properties :
#
#
# Convention : Reuss Voigt Hill
#
# Bulk Modulus (GPa) = 55.87028 57.45618 56.66323
# Shear Modulus (GPa) = 40.29326 0.57817 20.43571
#
# Velocity S-wave (km/s) = 4.31170 0.51649 3.07063
# Velocity P-wave (km/s) = 7.11094 5.18316 6.22216
#
# Compressibility (1/GPa) = 0.01789860
#
# Stress axis : x y z
#
# Youngs Moduli (GPa) = 94.33397 91.12923 114.84401
#
# Poissons Ratio (x) = 0.23901 0.35931
# Poissons Ratio (y) = 0.24741 0.05054
# Poissons Ratio (z) = 0.29514 0.04010
#
# Static dielectric constant tensor:
#      x y z
#    x 3.900230 0.000000 0.000000 
#    y 0.000000 4.248830 0.000000 
#    z 0.000000 0.000000 3.798560 
# 
# 
# High freq. dielectric constant tensor:
#      x y z
#    x 1.842010 0.000000 0.000000 
#    y 0.000000 1.831000 0.000000 
#    z 0.000000 0.000000 1.845350 
# 
# From -- ./inp_files/38850.got.cif
#   From: 2010.06.25/outbox.cif.g09.slc.cpg/sg52_20_cif.got.tgz:38850.got - 2010.06.26 19:32:48.
