data_PCOD8215475
_publ_section_title
;
Structure prediction by ZEFSAII (Michael W. Deem and Ramdas Pophale) SiO2 
 PCOD8215475
Probable space group: P N N A
;
_chemical_formula_sum "Si O2"
_cell_formula_units_Z 60
_cell_length_a 22.316843
_cell_length_b 23.259995
_cell_length_c 5.889308
_cell_angle_alpha 90.000000
_cell_angle_beta 90.000000
_cell_angle_gamma 90.000000
_cell_volume 3057.078867
_symmetry_space_group_name_H-M "P N N A"
_symmetry_group_IT_number 52
_symmetry_cell_setting 'orthorhombic'
loop_
_space_group_symop_operation_xyz
x,y,z
1/2-x,-y,z
x,1/2-y,1/2-z
1/2-x,1/2+y,1/2-z
-x,-y,-z
1/2+x,y,-z
-x,1/2+y,1/2+z
1/2+x,1/2-y,1/2+z
loop_
_atom_site_type_symbol
_atom_site_label
_atom_site_fract_x
_atom_site_fract_y
_atom_site_fract_z
Si Si1 0.708379 0.250000 0.750000
Si Si2 0.355140 0.496266 0.975466
Si Si3 0.433911 0.564564 0.640848
Si Si4 0.153410 0.346881 0.527388
Si Si5 0.930185 0.049174 0.850321
Si Si6 0.674799 0.589756 0.392736
Si Si7 0.245594 0.167240 0.610780
Si Si8 0.770887 0.928447 0.755770
O O1 0.662228 0.298697 0.664947
O O2 0.751928 0.225177 0.546684
O O3 0.400975 0.453885 0.102364
O O4 0.303181 0.516041 0.149799
O O5 0.393467 0.547797 0.860539
O O6 0.318733 0.458605 0.797233
O O7 0.414007 0.629193 0.561566
O O8 0.503558 0.572331 0.697272
O O9 0.428257 0.515556 0.449979
O O10 0.186270 0.404859 0.451737
O O11 0.182862 0.323862 0.759339
O O12 0.894481 0.093390 0.019346
O O13 0.708939 0.562740 0.609866
O O14 0.700976 0.651375 0.294328
O O15 0.241610 0.114281 0.446496
#
# Coordination Sequence:
#
# PCOD8215475 Si02
#       8
#     4   8   8   8   8   8   8   8
#     4  10  22  36  60  88 112 142 192 254 314 358
#     4  11  20  35  52  81 119 162 198 233 287 353
#     4  10  20  36  56  80 118 156 202 244 284 347
#     4  10  19  37  57  85 111 146 188 243 305 351
#     4  10  21  35  52  82 120 161 202 235 280 351
#     4  10  23  34  51  82 119 160 194 231 292 358
#     4  10  20  37  55  81 116 145 187 241 307 357
#     4  10  20  34  52  77 117 148 185 236 290 353
#
# _framework density 19.626577000000001
#
# number of rings (size 3 to 8) (size 9 to 14) (size 15 to 20)
#    0.000    1.867    2.667    1.600    0.000    3.200 
#    2.400    0.000    0.000    0.000   13.867    0.000 
#    0.000    0.000    0.000    0.000    0.000    0.000 
#
# Total GULP energy -743292.831373 kJ/mol
# GULP energy per Si atom -12388.213856 kJ/mol
# Density = 1.958191 g / cm^3
# Si number density = 19.626577 Si / 1000 Ang^3
#
#
#
# Elastic Constant Matrix: (Units=GPa)
#
#
# Indices 1 2 3 4 5 6 
#
# 1 110.4770 38.9193 31.0277 0.0000 0.0000 0.0000
# 2 38.9193 78.8925 25.6195 0.0000 0.0000 0.0000
# 3 31.0277 25.6195 83.9285 0.0000 0.0000 0.0000
# 4 0.0000 0.0000 0.0000 39.8527 0.0000 0.0000
# 5 0.0000 0.0000 0.0000 0.0000 18.6794 0.0000
# 6 0.0000 0.0000 0.0000 0.0000 0.0000 19.8070
#
#
#
# Elastic Compliance Matrix: (Units=1/GPa)
#
#
# Indices 1 2 3 4 5 6 
#
# 1 0.011520 -0.004773 -0.002802 0.000000 0.000000 0.000000
# 2 -0.004773 0.016048 -0.003134 0.000000 0.000000 0.000000
# 3 -0.002802 -0.003134 0.013907 0.000000 0.000000 0.000000
# 4 0.000000 0.000000 0.000000 0.025092 0.000000 0.000000
# 5 0.000000 0.000000 0.000000 0.000000 0.053535 0.000000
# 6 0.000000 0.000000 0.000000 0.000000 0.000000 0.050487
#
#
# Mechanical properties :
#
#
# Convention : Reuss Voigt Hill
#
# Bulk Modulus (GPa) = 49.85748 51.60345 50.73047
# Shear Modulus (GPa) = 25.16432 27.51659 26.34045
#
# Velocity S-wave (km/s) = 3.58460 3.74840 3.66742
# Velocity P-wave (km/s) = 6.52616 6.71444 6.62097
#
# Compressibility (1/GPa) = 0.02005717
#
# Stress axis : x y z
#
# Youngs Moduli (GPa) = 86.80480 62.31320 71.90411
#
# Poissons Ratio (x) = 0.29744 0.20146
# Poissons Ratio (y) = 0.41434 0.22535
# Poissons Ratio (z) = 0.24321 0.19529
#
# Static dielectric constant tensor:
#      x y z
#    x 3.626870 0.000000 0.000000 
#    y 0.000000 3.465630 0.000000 
#    z 0.000000 0.000000 3.927010 
# 
# 
# High freq. dielectric constant tensor:
#      x y z
#    x 1.743540 0.000000 0.000000 
#    y 0.000000 1.728850 0.000000 
#    z 0.000000 0.000000 1.791990 
# 
# From -- ./inp_files/4566.got.cif
#   From: 2010.06.25/outbox.cif.g09.slc.cpg/sg52_3_cif.got.tgz:4566.got - 2010.06.26 19:32:48.
