data_PCOD8215977
_publ_section_title
;
Structure prediction by ZEFSAII (Michael W. Deem and Ramdas Pophale) SiO2 
 PCOD8215977
Probable space group: P N N A
;
_chemical_formula_sum "Si O2"
_cell_formula_units_Z 48
_cell_length_a 5.655602
_cell_length_b 13.812276
_cell_length_c 29.627748
_cell_angle_alpha 90.000000
_cell_angle_beta 90.000000
_cell_angle_gamma 90.000000
_cell_volume 2314.422962
_symmetry_space_group_name_H-M "P N N A"
_symmetry_group_IT_number 52
_symmetry_cell_setting 'orthorhombic'
loop_
_space_group_symop_operation_xyz
x,y,z
1/2-x,-y,z
x,1/2-y,1/2-z
1/2-x,1/2+y,1/2-z
-x,-y,-z
1/2+x,y,-z
-x,1/2+y,1/2+z
1/2+x,1/2-y,1/2+z
loop_
_atom_site_type_symbol
_atom_site_label
_atom_site_fract_x
_atom_site_fract_y
_atom_site_fract_z
Si Si1 0.947419 0.241298 0.315830
Si Si2 0.370991 0.898308 0.731662
Si Si3 0.825392 0.390468 0.682872
Si Si4 0.419774 0.780349 0.887037
Si Si5 0.269562 0.888859 0.974322
Si Si6 0.689973 0.893006 0.645026
O O1 0.817675 0.186562 0.275184
O O2 0.770010 0.296264 0.348372
O O3 0.122784 0.322240 0.295662
O O4 0.065366 0.162065 0.348929
O O5 0.459124 0.881733 0.782325
O O6 0.578373 0.895380 0.694927
O O7 0.250000 0.000000 0.726202
O O8 0.750000 0.500000 0.678687
O O9 0.875414 0.352285 0.631816
O O10 0.304187 0.814474 0.933470
O O11 0.519056 0.668949 0.888964
O O12 0.250000 0.000000 0.957836
O O13 0.511228 0.868615 0.003213
O O14 0.750000 0.000000 0.625577
#
# Coordination Sequence:
#
# PCOD8215977 Si02
#       6
#     8   8   8   8   8   8
#     4  10  24  42  60  84 125 166 220 271 313 389
#     4  11  23  40  58  83 122 176 224 267 318 376
#     4  11  27  40  58  91 127 174 212 276 333 382
#     4  10  25  40  66  96 125 167 211 272 332 395
#     4  10  24  44  73 103 134 176 216 265 335 422
#     4  10  20  40  65  91 121 171 220 269 316 377
#
# _framework density 20.739512999999999
#
# number of rings (size 3 to 8) (size 9 to 14) (size 15 to 20)
#    0.000    1.667    1.667    0.500    9.333    8.000 
#    0.000    0.000    0.000    1.000    0.000    0.000 
#    0.000    0.000    0.000    0.000    0.000    0.000 
#
# Total GULP energy -594798.836050 kJ/mol
# GULP energy per Si atom -12391.642418 kJ/mol
# Density = 2.069231 g / cm^3
# Si number density = 20.739513 Si / 1000 Ang^3
#
#
#
# Elastic Constant Matrix: (Units=GPa)
#
#
# Indices 1 2 3 4 5 6 
#
# 1 72.8108 30.8072 10.1790 0.0000 0.0000 0.0000
# 2 30.8072 146.8922 42.6839 0.0000 0.0000 0.0000
# 3 10.1790 42.6839 64.5021 0.0000 0.0000 0.0000
# 4 0.0000 0.0000 0.0000 67.7201 0.0000 0.0000
# 5 0.0000 0.0000 0.0000 0.0000 32.8544 0.0000
# 6 0.0000 0.0000 0.0000 0.0000 0.0000 7.0734
#
#
#
# Elastic Compliance Matrix: (Units=1/GPa)
#
#
# Indices 1 2 3 4 5 6 
#
# 1 0.015078 -0.003059 -0.000355 0.000000 0.000000 0.000000
# 2 -0.003059 0.009049 -0.005505 0.000000 0.000000 0.000000
# 3 -0.000355 -0.005505 0.019203 0.000000 0.000000 0.000000
# 4 0.000000 0.000000 0.000000 0.014767 0.000000 0.000000
# 5 0.000000 0.000000 0.000000 0.000000 0.030437 0.000000
# 6 0.000000 0.000000 0.000000 0.000000 0.000000 0.141374
#
#
# Mechanical properties :
#
#
# Convention : Reuss Voigt Hill
#
# Bulk Modulus (GPa) = 39.23022 50.17170 44.70096
# Shear Modulus (GPa) = 19.51264 34.89857 27.20560
#
# Velocity S-wave (km/s) = 3.07064 4.10653 3.62577
# Velocity P-wave (km/s) = 5.61503 6.83584 6.25529
#
# Compressibility (1/GPa) = 0.02549056
#
# Stress axis : x y z
#
# Youngs Moduli (GPa) = 66.32085 110.50885 52.07632
#
# Poissons Ratio (x) = 0.33806 0.01849
# Poissons Ratio (y) = 0.20288 0.28670
# Poissons Ratio (z) = 0.02355 0.60840
#
# Static dielectric constant tensor:
#      x y z
#    x 4.102810 0.000000 0.000000 
#    y 0.000000 3.932130 0.000000 
#    z 0.000000 0.000000 3.285860 
# 
# 
# High freq. dielectric constant tensor:
#      x y z
#    x 1.836890 0.000000 0.000000 
#    y 0.000000 1.825430 0.000000 
#    z 0.000000 0.000000 1.761880 
# 
# From -- ./inp_files/41693.got.cif
#   From: 2010.06.25/outbox.cif.g09.slc.cpg/sg52_21_cif.got.tgz:41693.got - 2010.06.26 19:32:48.
