data_PCOD8215844
_publ_section_title
;
Structure prediction by ZEFSAII (Michael W. Deem and Ramdas Pophale) SiO2 
 PCOD8215844
Probable space group: P N N A
;
_chemical_formula_sum "Si O2"
_cell_formula_units_Z 56
_cell_length_a 14.257461
_cell_length_b 8.763858
_cell_length_c 20.911871
_cell_angle_alpha 90.000000
_cell_angle_beta 90.000000
_cell_angle_gamma 90.000000
_cell_volume 2612.945886
_symmetry_space_group_name_H-M "P N N A"
_symmetry_group_IT_number 52
_symmetry_cell_setting 'orthorhombic'
loop_
_space_group_symop_operation_xyz
x,y,z
1/2-x,-y,z
x,1/2-y,1/2-z
1/2-x,1/2+y,1/2-z
-x,-y,-z
1/2+x,y,-z
-x,1/2+y,1/2+z
1/2+x,1/2-y,1/2+z
loop_
_atom_site_type_symbol
_atom_site_label
_atom_site_fract_x
_atom_site_fract_y
_atom_site_fract_z
Si Si1 0.088667 0.817931 0.566421
Si Si2 0.400659 0.587127 0.776076
Si Si3 0.968167 0.056301 0.153858
Si Si4 0.750000 0.500000 0.118115
Si Si5 0.845515 0.766763 0.820937
Si Si6 0.750000 0.000000 0.902932
Si Si7 0.076484 0.672480 0.432445
Si Si8 0.557576 0.522461 0.868007
O O1 0.088277 0.689787 0.620251
O O2 0.196270 0.882466 0.569686
O O3 0.051918 0.734340 0.502558
O O4 0.015308 0.953889 0.580059
O O5 0.377171 0.750000 0.750000
O O6 0.398584 0.482003 0.712712
O O7 0.328702 0.560314 0.833554
O O8 0.505197 0.569339 0.803062
O O9 0.991281 0.913141 0.105596
O O10 0.063984 0.124634 0.181407
O O11 0.805542 0.750000 0.750000
O O12 0.765796 0.849809 0.860989
O O13 0.863584 0.602448 0.852722
O O14 0.659553 0.951349 0.944061
O O15 0.106554 0.824558 0.394052
#
# Coordination Sequence:
#
# PCOD8215844 Si02
#       8
#     8   8   8   4   8   4   8   8
#     4  10  23  42  63  91 126 170 213 253 307 378
#     4  11  21  39  62  97 129 155 208 258 319 383
#     4  10  21  39  68  89 120 163 209 261 309 368
#     4  10  26  38  59  99 134 166 200 258 330 384
#     4  10  20  38  59  88 118 154 196 253 318 372
#     4  10  26  38  55  89 122 158 202 252 316 372
#     4  11  22  44  61  89 125 163 219 257 303 374
#     4  10  21  37  68  90 115 166 209 260 304 363
#
# _framework density 21.431749
#
# number of rings (size 3 to 8) (size 9 to 14) (size 15 to 20)
#    0.000    1.714    2.857    0.857    2.000    2.857 
#    2.571    2.857    0.000    0.000    0.000    0.000 
#    0.000    0.000    0.000    0.000    0.000    0.000 
#
# Total GULP energy -693850.894385 kJ/mol
# GULP energy per Si atom -12390.194543 kJ/mol
# Density = 2.138297 g / cm^3
# Si number density = 21.431749 Si / 1000 Ang^3
#
#
#
# Elastic Constant Matrix: (Units=GPa)
#
#
# Indices 1 2 3 4 5 6 
#
# 1 41.7112 11.2689 -0.1440 0.0000 0.0000 0.0000
# 2 11.2689 84.7956 2.6767 0.0000 0.0000 0.0000
# 3 -0.1440 2.6767 69.3179 0.0000 0.0000 0.0000
# 4 0.0000 0.0000 0.0000 18.7498 0.0000 0.0000
# 5 0.0000 0.0000 0.0000 0.0000 29.7421 0.0000
# 6 0.0000 0.0000 0.0000 0.0000 0.0000 67.6568
#
#
#
# Elastic Compliance Matrix: (Units=1/GPa)
#
#
# Indices 1 2 3 4 5 6 
#
# 1 0.024869 -0.003311 0.000180 0.000000 0.000000 0.000000
# 2 -0.003311 0.012248 -0.000480 0.000000 0.000000 0.000000
# 3 0.000180 -0.000480 0.014445 0.000000 0.000000 0.000000
# 4 0.000000 0.000000 0.000000 0.053334 0.000000 0.000000
# 5 0.000000 0.000000 0.000000 0.000000 0.033622 0.000000
# 6 0.000000 0.000000 0.000000 0.000000 0.000000 0.014780
#
#
# Mechanical properties :
#
#
# Convention : Reuss Voigt Hill
#
# Bulk Modulus (GPa) = 22.55262 24.82533 23.68897
# Shear Modulus (GPa) = 28.52221 35.36461 31.94341
#
# Velocity S-wave (km/s) = 3.65202 4.06655 3.86485
# Velocity P-wave (km/s) = 5.32249 5.80153 5.56716
#
# Compressibility (1/GPa) = 0.04434075
#
# Stress axis : x y z
#
# Youngs Moduli (GPa) = 40.21000 81.64472 69.22724
#
# Poissons Ratio (x) = 0.27030 -0.01243
# Poissons Ratio (y) = 0.13312 0.03322
# Poissons Ratio (z) = -0.00722 0.03918
#
# Static dielectric constant tensor:
#      x y z
#    x 3.648660 0.000000 0.000000 
#    y 0.000000 3.444380 0.000000 
#    z 0.000000 0.000000 4.007840 
# 
# 
# High freq. dielectric constant tensor:
#      x y z
#    x 1.813930 0.000000 0.000000 
#    y 0.000000 1.857030 0.000000 
#    z 0.000000 0.000000 1.841370 
# 
# From -- ./inp_files/37375.got.cif
#   From: 2010.06.25/outbox.cif.g09.slc.cpg/sg52_19_cif.got.tgz:37375.got - 2010.06.26 19:32:48.
