data_PCOD8215230
_publ_section_title
;
Structure prediction by ZEFSAII (Michael W. Deem and Ramdas Pophale) SiO2 
 PCOD8215230
Probable space group: P N N A
;
_chemical_formula_sum "Si O2"
_cell_formula_units_Z 44
_cell_length_a 8.844089
_cell_length_b 16.094750
_cell_length_c 16.333129
_cell_angle_alpha 90.000000
_cell_angle_beta 90.000000
_cell_angle_gamma 90.000000
_cell_volume 2324.913138
_symmetry_space_group_name_H-M "P N N A"
_symmetry_group_IT_number 52
_symmetry_cell_setting 'orthorhombic'
loop_
_space_group_symop_operation_xyz
x,y,z
1/2-x,-y,z
x,1/2-y,1/2-z
1/2-x,1/2+y,1/2-z
-x,-y,-z
1/2+x,y,-z
-x,1/2+y,1/2+z
1/2+x,1/2-y,1/2+z
loop_
_atom_site_type_symbol
_atom_site_label
_atom_site_fract_x
_atom_site_fract_y
_atom_site_fract_z
Si Si1 0.913635 0.596939 0.687093
Si Si2 0.250000 0.000000 0.046284
Si Si3 0.750000 0.500000 0.824378
Si Si4 0.614999 0.252391 0.009750
Si Si5 0.137791 0.861283 0.930099
Si Si6 0.261593 0.250000 0.250000
Si Si7 0.136162 0.839440 0.399548
O O1 0.851168 0.557332 0.603783
O O2 0.881003 0.540549 0.766853
O O3 0.842097 0.686766 0.699963
O O4 0.091941 0.609414 0.663072
O O5 0.148761 0.940609 0.989545
O O6 0.833500 0.436643 0.885036
O O7 0.707485 0.191843 0.071453
O O8 0.525503 0.324123 0.058864
O O9 0.497543 0.197111 0.960487
O O10 0.726627 0.300011 0.949653
O O11 0.372330 0.202611 0.310954
#
# Coordination Sequence:
#
# PCOD8215230 Si02
#       7
#     8   4   4   8   8   4   8
#     4  10  19  34  57  83 109 153 192 230 294 359
#     4  11  20  32  56  88 117 138 190 244 297 344
#     4   9  22  36  62  82 113 156 202 248 293 344
#     4  10  21  35  62  85 116 151 205 234 294 349
#     4  11  19  35  54  89 116 152 183 245 293 357
#     4  10  18  38  60  78 118 156 192 228 290 374
#     4  10  20  39  60  90 110 157 199 245 292 349
#
# _framework density 18.925436999999999
#
# number of rings (size 3 to 8) (size 9 to 14) (size 15 to 20)
#    0.000    1.818    3.636    1.636    0.000    0.727 
#    0.000    0.909    0.000    0.000    0.000    0.000 
#    0.000    0.000    0.000    0.000    0.000    0.000 
#
# Total GULP energy -545303.384180 kJ/mol
# GULP energy per Si atom -12393.258731 kJ/mol
# Density = 1.888236 g / cm^3
# Si number density = 18.925437 Si / 1000 Ang^3
#
#
#
# Elastic Constant Matrix: (Units=GPa)
#
#
# Indices 1 2 3 4 5 6 
#
# 1 88.3089 35.7540 36.6161 0.0000 0.0000 0.0000
# 2 35.7540 117.2763 33.7229 0.0000 0.0000 0.0000
# 3 36.6161 33.7229 60.9499 0.0000 0.0000 0.0000
# 4 0.0000 0.0000 0.0000 32.2579 0.0000 0.0000
# 5 0.0000 0.0000 0.0000 0.0000 77.8387 0.0000
# 6 0.0000 0.0000 0.0000 0.0000 0.0000 13.3385
#
#
#
# Elastic Compliance Matrix: (Units=1/GPa)
#
#
# Indices 1 2 3 4 5 6 
#
# 1 0.015655 -0.002460 -0.008044 0.000000 0.000000 0.000000
# 2 -0.002460 0.010527 -0.004347 0.000000 0.000000 0.000000
# 3 -0.008044 -0.004347 0.023644 0.000000 0.000000 0.000000
# 4 0.000000 0.000000 0.000000 0.031000 0.000000 0.000000
# 5 0.000000 0.000000 0.000000 0.000000 0.012847 0.000000
# 6 0.000000 0.000000 0.000000 0.000000 0.000000 0.074971
#
#
# Mechanical properties :
#
#
# Convention : Reuss Voigt Hill
#
# Bulk Modulus (GPa) = 49.68822 53.19122 51.43972
# Shear Modulus (GPa) = 24.38389 35.38316 29.88353
#
# Velocity S-wave (km/s) = 3.59335 4.32859 3.97799
# Velocity P-wave (km/s) = 6.59757 7.29033 6.95258
#
# Compressibility (1/GPa) = 0.02012550
#
# Stress axis : x y z
#
# Youngs Moduli (GPa) = 63.87697 94.99716 42.29344
#
# Poissons Ratio (x) = 0.23367 0.34021
# Poissons Ratio (y) = 0.15712 0.18383
# Poissons Ratio (z) = 0.51383 0.41291
#
# Static dielectric constant tensor:
#      x y z
#    x 3.565710 0.000000 0.000000 
#    y 0.000000 3.724390 0.000000 
#    z 0.000000 0.000000 3.506600 
# 
# 
# High freq. dielectric constant tensor:
#      x y z
#    x 1.716890 0.000000 0.000000 
#    y 0.000000 1.749440 0.000000 
#    z 0.000000 0.000000 1.725020 
# 
# From -- ./inp_files/24673.got.cif
#   From: 2010.06.25/outbox.cif.g09.slc.cpg/sg52_13_cif.got.tgz:24673.got - 2010.06.26 19:32:48.
