data_PCOD8215517
_publ_section_title
;
Structure prediction by ZEFSAII (Michael W. Deem and Ramdas Pophale) SiO2 
 PCOD8215517
Probable space group: P N N A
;
_chemical_formula_sum "Si O2"
_cell_formula_units_Z 40
_cell_length_a 24.098991
_cell_length_b 8.555470
_cell_length_c 8.557447
_cell_angle_alpha 90.000000
_cell_angle_beta 90.000000
_cell_angle_gamma 90.000000
_cell_volume 1764.358972
_symmetry_space_group_name_H-M "P N N A"
_symmetry_group_IT_number 52
_symmetry_cell_setting 'orthorhombic'
loop_
_space_group_symop_operation_xyz
x,y,z
1/2-x,-y,z
x,1/2-y,1/2-z
1/2-x,1/2+y,1/2-z
-x,-y,-z
1/2+x,y,-z
-x,1/2+y,1/2+z
1/2+x,1/2-y,1/2+z
loop_
_atom_site_type_symbol
_atom_site_label
_atom_site_fract_x
_atom_site_fract_y
_atom_site_fract_z
Si Si1 0.157922 0.403853 0.643635
Si Si2 0.262651 0.732607 0.066944
Si Si3 0.056139 0.052790 0.420596
Si Si4 0.668388 0.945587 0.449646
Si Si5 0.055740 0.076739 0.062057
O O1 0.143391 0.250000 0.750000
O O2 0.207868 0.376959 0.520812
O O3 0.176085 0.539236 0.763162
O O4 0.105969 0.475272 0.549143
O O5 0.259487 0.750000 0.250000
O O6 0.301147 0.584033 0.039937
O O7 0.199870 0.713371 0.000402
O O8 0.061552 0.013451 0.237831
O O9 0.058854 0.236911 0.446133
O O10 0.103857 0.952872 0.505931
O O11 0.000000 0.000000 0.500000
O O12 0.000000 0.000000 0.000000
#
# Coordination Sequence:
#
# PCOD8215517 Si02
#       5
#     8   8   8   8   8
#     4  10  19  38  69  91 133 172 217 276 336 397
#     4  10  20  39  66  94 128 173 228 271 327 402
#     4  11  23  42  68  94 139 171 220 282 334 406
#     4  10  21  39  66  94 127 175 221 271 341 399
#     4  11  23  39  68 101 125 179 226 269 346 402
#
# _framework density 22.671122
#
# number of rings (size 3 to 8) (size 9 to 14) (size 15 to 20)
#    0.000    1.600    4.000    2.400    0.000    0.000 
#    3.600   22.000   26.400    0.000    0.000    0.000 
#    0.000    0.000    0.000    0.000    0.000    0.000 
#
# Total GULP energy -495867.506837 kJ/mol
# GULP energy per Si atom -12396.687671 kJ/mol
# Density = 2.261952 g / cm^3
# Si number density = 22.671122 Si / 1000 Ang^3
#
#
#
# Elastic Constant Matrix: (Units=GPa)
#
#
# Indices 1 2 3 4 5 6 
#
# 1 200.3176 40.3416 96.8904 0.0000 0.0000 0.0000
# 2 40.3416 14.3208 40.3877 0.0000 0.0000 0.0000
# 3 96.8904 40.3877 229.0662 0.0000 0.0000 0.0000
# 4 0.0000 0.0000 0.0000 21.7161 0.0000 0.0000
# 5 0.0000 0.0000 0.0000 0.0000 48.2824 0.0000
# 6 0.0000 0.0000 0.0000 0.0000 0.0000 42.9382
#
#
#
# Elastic Compliance Matrix: (Units=1/GPa)
#
#
# Indices 1 2 3 4 5 6 
#
# 1 0.011876 -0.038365 0.001741 0.000000 0.000000 0.000000
# 2 -0.038365 0.262826 -0.030112 0.000000 0.000000 0.000000
# 3 0.001741 -0.030112 0.008938 0.000000 0.000000 0.000000
# 4 0.000000 0.000000 0.000000 0.046049 0.000000 0.000000
# 5 0.000000 0.000000 0.000000 0.000000 0.020711 0.000000
# 6 0.000000 0.000000 0.000000 0.000000 0.000000 0.023289
#
#
# Mechanical properties :
#
#
# Convention : Reuss Voigt Hill
#
# Bulk Modulus (GPa) = 6.65925 88.77156 47.71540
# Shear Modulus (GPa) = 8.97313 40.32632 24.64973
#
# Velocity S-wave (km/s) = 1.99162 4.22210 3.30096
# Velocity P-wave (km/s) = 2.86922 7.93785 5.96833
#
# Compressibility (1/GPa) = 0.15016715
#
# Stress axis : x y z
#
# Youngs Moduli (GPa) = 84.20108 3.80480 111.87648
#
# Poissons Ratio (x) = 0.14597 -0.19477
# Poissons Ratio (y) = 3.23039 3.36886
# Poissons Ratio (z) = -0.14659 0.11457
#
# Static dielectric constant tensor:
#      x y z
#    x 4.393740 0.000000 0.000000 
#    y 0.000000 4.316450 0.000000 
#    z 0.000000 0.000000 4.421280 
# 
# 
# High freq. dielectric constant tensor:
#      x y z
#    x 1.903980 0.000000 0.000000 
#    y 0.000000 1.863480 0.000000 
#    z 0.000000 0.000000 1.917710 
# 
# From -- ./inp_files/13942.got.cif
#   From: 2010.06.25/outbox.cif.g09.slc.cpg/sg52_7_cif.got.tgz:13942.got - 2010.06.26 19:32:48.
