data_PCOD8215365
_publ_section_title
;
Structure prediction by ZEFSAII (Michael W. Deem and Ramdas Pophale) SiO2 
 PCOD8215365
Probable space group: P N N A
;
_chemical_formula_sum "Si O2"
_cell_formula_units_Z 32
_cell_length_a 12.498388
_cell_length_b 8.129925
_cell_length_c 13.802977
_cell_angle_alpha 90.000000
_cell_angle_beta 90.000000
_cell_angle_gamma 90.000000
_cell_volume 1402.533703
_symmetry_space_group_name_H-M "P N N A"
_symmetry_group_IT_number 52
_symmetry_cell_setting 'orthorhombic'
loop_
_space_group_symop_operation_xyz
x,y,z
1/2-x,-y,z
x,1/2-y,1/2-z
1/2-x,1/2+y,1/2-z
-x,-y,-z
1/2+x,y,-z
-x,1/2+y,1/2+z
1/2+x,1/2-y,1/2+z
loop_
_atom_site_type_symbol
_atom_site_label
_atom_site_fract_x
_atom_site_fract_y
_atom_site_fract_z
Si Si1 0.398293 0.807355 0.354338
Si Si2 0.956705 0.914713 0.306509
Si Si3 0.818252 0.732288 0.450943
Si Si4 0.395168 0.401991 0.623630
O O1 0.353427 0.750000 0.250000
O O2 0.306761 0.786095 0.436085
O O3 0.496154 0.696155 0.393800
O O4 0.436093 0.996487 0.345288
O O5 0.991474 0.750000 0.250000
O O6 0.881251 0.876635 0.396807
O O7 0.892488 0.039631 0.235833
O O8 0.703614 0.717808 0.399591
O O9 0.884611 0.561318 0.445232
#
# Coordination Sequence:
#
# PCOD8215365 Si02
#       4
#     8   8   8   8
#     4  10  20  35  56  81 112 151 191 235 286 348
#     4   9  19  33  53  84 116 146 190 242 291 340
#     4  10  19  34  56  82 113 149 188 238 295 350
#     4   9  20  33  53  83 111 144 188 239 290 344
#
# _framework density 22.815853000000001
#
# number of rings (size 3 to 8) (size 9 to 14) (size 15 to 20)
#    0.000    2.500    0.000    1.500    0.000   18.000 
#    0.000    0.000    0.000   22.500    0.000    0.000 
#    0.000    0.000    0.000    0.000    0.000    0.000 
#
# Total GULP energy -396728.414577 kJ/mol
# GULP energy per Si atom -12397.762956 kJ/mol
# Density = 2.276392 g / cm^3
# Si number density = 22.815853 Si / 1000 Ang^3
#
#
#
# Elastic Constant Matrix: (Units=GPa)
#
#
# Indices 1 2 3 4 5 6 
#
# 1 21.9703 16.6743 13.6131 0.0000 0.0000 0.0000
# 2 16.6743 67.3897 34.4771 0.0000 0.0000 0.0000
# 3 13.6131 34.4771 125.1272 0.0000 0.0000 0.0000
# 4 0.0000 0.0000 0.0000 22.2784 0.0000 0.0000
# 5 0.0000 0.0000 0.0000 0.0000 24.0391 0.0000
# 6 0.0000 0.0000 0.0000 0.0000 0.0000 14.2945
#
#
#
# Elastic Compliance Matrix: (Units=1/GPa)
#
#
# Indices 1 2 3 4 5 6 
#
# 1 0.056804 -0.012681 -0.002686 0.000000 0.000000 0.000000
# 2 -0.012681 0.020105 -0.004160 0.000000 0.000000 0.000000
# 3 -0.002686 -0.004160 0.009430 0.000000 0.000000 0.000000
# 4 0.000000 0.000000 0.000000 0.044887 0.000000 0.000000
# 5 0.000000 0.000000 0.000000 0.000000 0.041599 0.000000
# 6 0.000000 0.000000 0.000000 0.000000 0.000000 0.069957
#
#
# Mechanical properties :
#
#
# Convention : Reuss Voigt Hill
#
# Bulk Modulus (GPa) = 21.14800 38.22403 29.68601
# Shear Modulus (GPa) = 16.80117 22.10389 19.45253
#
# Velocity S-wave (km/s) = 2.71658 3.11592 2.92308
# Velocity P-wave (km/s) = 4.37365 5.45298 4.94286
#
# Compressibility (1/GPa) = 0.04728580
#
# Stress axis : x y z
#
# Youngs Moduli (GPa) = 17.60426 49.73874 106.04088
#
# Poissons Ratio (x) = 0.63074 0.28482
# Poissons Ratio (y) = 0.22324 0.44114
# Poissons Ratio (z) = 0.04728 0.20692
#
# Static dielectric constant tensor:
#      x y z
#    x 3.529390 0.000000 0.000000 
#    y 0.000000 4.361580 0.000000 
#    z 0.000000 0.000000 4.150220 
# 
# 
# High freq. dielectric constant tensor:
#      x y z
#    x 1.851050 0.000000 0.000000 
#    y 0.000000 1.912100 0.000000 
#    z 0.000000 0.000000 1.904940 
# 
# From -- ./inp_files/18865.got.cif
#   From: 2010.06.25/outbox.cif.g09.slc.cpg/sg52_10_cif.got.tgz:18865.got - 2010.06.26 19:32:48.
