data_PCOD8215222
_publ_section_title
;
Structure prediction by ZEFSAII (Michael W. Deem and Ramdas Pophale) SiO2 
 PCOD8215222
Probable space group: P N N A
;
_chemical_formula_sum "Si O2"
_cell_formula_units_Z 64
_cell_length_a 8.935059
_cell_length_b 17.873783
_cell_length_c 20.430253
_cell_angle_alpha 90.000000
_cell_angle_beta 90.000000
_cell_angle_gamma 90.000000
_cell_volume 3262.778940
_symmetry_space_group_name_H-M "P N N A"
_symmetry_group_IT_number 52
_symmetry_cell_setting 'orthorhombic'
loop_
_space_group_symop_operation_xyz
x,y,z
1/2-x,-y,z
x,1/2-y,1/2-z
1/2-x,1/2+y,1/2-z
-x,-y,-z
1/2+x,y,-z
-x,1/2+y,1/2+z
1/2+x,1/2-y,1/2+z
loop_
_atom_site_type_symbol
_atom_site_label
_atom_site_fract_x
_atom_site_fract_y
_atom_site_fract_z
Si Si1 0.411979 0.511202 0.120363
Si Si2 0.514891 0.710618 0.589901
Si Si3 0.535420 0.138831 0.331966
Si Si4 0.423136 0.563224 0.266319
Si Si5 0.769617 0.741510 0.998985
Si Si6 0.100693 0.599102 0.300536
Si Si7 0.855458 0.174137 0.285337
Si Si8 0.973616 0.339527 0.078927
O O1 0.250000 0.500000 0.086684
O O2 0.501772 0.433657 0.123797
O O3 0.378134 0.545428 0.191913
O O4 0.508666 0.570396 0.078522
O O5 0.511752 0.789322 0.627048
O O6 0.658857 0.706768 0.542827
O O7 0.362307 0.704219 0.547779
O O8 0.525316 0.641337 0.638877
O O9 0.440461 0.141968 0.265815
O O10 0.709490 0.133863 0.313636
O O11 0.281485 0.598879 0.304236
O O12 0.466665 0.485047 0.301292
O O13 0.563107 0.620124 0.267496
O O14 0.676526 0.680171 0.039732
O O15 0.881045 0.697779 0.951811
O O16 0.807425 0.250000 0.250000
O O17 0.963961 0.191169 0.346555
#
# Coordination Sequence:
#
# PCOD8215222 Si02
#       8
#     8   8   8   8   8   8   8   8
#     4  10  18  37  59  84 122 156 190 243 303 368
#     4  11  22  39  61  85 118 162 210 260 301 357
#     4  11  21  37  60  92 124 151 196 252 311 368
#     4   9  20  37  56  93 121 149 189 239 312 379
#     4  10  23  41  57  84 118 166 216 253 288 353
#     4  10  20  37  64  89 118 154 197 249 313 370
#     4  11  23  36  60  95 125 150 191 250 316 372
#     4  10  22  40  58  80 121 159 207 247 298 355
#
# _framework density 19.615182000000001
#
# number of rings (size 3 to 8) (size 9 to 14) (size 15 to 20)
#    0.000    1.750    3.750    1.875    3.500    4.500 
#    0.000    6.875    0.000    3.000    0.000    0.000 
#    0.000    0.000    0.000    0.000    0.000    0.000 
#
# Total GULP energy -793636.985834 kJ/mol
# GULP energy per Si atom -12400.577904 kJ/mol
# Density = 1.957054 g / cm^3
# Si number density = 19.615182 Si / 1000 Ang^3
#
#
#
# Elastic Constant Matrix: (Units=GPa)
#
#
# Indices 1 2 3 4 5 6 
#
# 1 114.4313 36.1934 28.8674 0.0000 0.0000 0.0000
# 2 36.1934 54.0815 22.6973 0.0000 0.0000 0.0000
# 3 28.8674 22.6973 62.9643 0.0000 0.0000 0.0000
# 4 0.0000 0.0000 0.0000 32.2467 0.0000 0.0000
# 5 0.0000 0.0000 0.0000 0.0000 19.4901 0.0000
# 6 0.0000 0.0000 0.0000 0.0000 0.0000 24.4621
#
#
#
# Elastic Compliance Matrix: (Units=1/GPa)
#
#
# Indices 1 2 3 4 5 6 
#
# 1 0.011533 -0.006479 -0.002952 0.000000 0.000000 0.000000
# 2 -0.006479 0.025427 -0.006195 0.000000 0.000000 0.000000
# 3 -0.002952 -0.006195 0.019469 0.000000 0.000000 0.000000
# 4 0.000000 0.000000 0.000000 0.031011 0.000000 0.000000
# 5 0.000000 0.000000 0.000000 0.000000 0.051308 0.000000
# 6 0.000000 0.000000 0.000000 0.000000 0.000000 0.040880
#
#
# Mechanical properties :
#
#
# Convention : Reuss Voigt Hill
#
# Bulk Modulus (GPa) = 39.72120 45.22148 42.47134
# Shear Modulus (GPa) = 22.80276 24.82105 23.81190
#
# Velocity S-wave (km/s) = 3.41325 3.56111 3.48796
# Velocity P-wave (km/s) = 5.98564 6.32558 6.15796
#
# Compressibility (1/GPa) = 0.02517548
#
# Stress axis : x y z
#
# Youngs Moduli (GPa) = 86.70859 39.32838 51.36471
#
# Poissons Ratio (x) = 0.25482 0.15162
# Poissons Ratio (y) = 0.56182 0.31822
# Poissons Ratio (z) = 0.25595 0.24365
#
# Static dielectric constant tensor:
#      x y z
#    x 3.714320 0.000000 0.000000 
#    y 0.000000 3.489400 0.000000 
#    z 0.000000 0.000000 3.543540 
# 
# 
# High freq. dielectric constant tensor:
#      x y z
#    x 1.775990 0.000000 0.000000 
#    y 0.000000 1.747070 0.000000 
#    z 0.000000 0.000000 1.747450 
# 
# From -- ./inp_files/36183.got.cif
#   From: 2010.06.25/outbox.cif.g09.slc.cpg/sg52_19_cif.got.tgz:36183.got - 2010.06.26 19:32:48.
