data_PCOD8215065
_publ_section_title
;
Structure prediction by ZEFSAII (Michael W. Deem and Ramdas Pophale) SiO2 
 PCOD8215065
Probable space group: P N N A
;
_chemical_formula_sum "Si O2"
_cell_formula_units_Z 48
_cell_length_a 8.818056
_cell_length_b 21.767347
_cell_length_c 15.414372
_cell_angle_alpha 90.000000
_cell_angle_beta 90.000000
_cell_angle_gamma 90.000000
_cell_volume 2958.722190
_symmetry_space_group_name_H-M "P N N A"
_symmetry_group_IT_number 52
_symmetry_cell_setting 'orthorhombic'
loop_
_space_group_symop_operation_xyz
x,y,z
1/2-x,-y,z
x,1/2-y,1/2-z
1/2-x,1/2+y,1/2-z
-x,-y,-z
1/2+x,y,-z
-x,1/2+y,1/2+z
1/2+x,1/2-y,1/2+z
loop_
_atom_site_type_symbol
_atom_site_label
_atom_site_fract_x
_atom_site_fract_y
_atom_site_fract_z
Si Si1 0.294609 0.295560 0.175923
Si Si2 0.447354 0.256368 0.486699
Si Si3 0.712989 0.287851 0.381845
Si Si4 0.765423 0.427794 0.081775
Si Si5 0.127059 0.163042 0.707086
Si Si6 0.579037 0.366368 0.933777
O O1 0.232322 0.250000 0.250000
O O2 0.323490 0.257066 0.087881
O O3 0.445873 0.328705 0.211783
O O4 0.163959 0.345157 0.154523
O O5 0.577302 0.300870 0.449601
O O6 0.372555 0.292095 0.567904
O O7 0.517021 0.191167 0.512857
O O8 0.698861 0.218335 0.347642
O O9 0.699555 0.336281 0.303576
O O10 0.750000 0.500000 0.085360
O O11 0.669648 0.400736 0.162227
O O12 0.941652 0.410747 0.091979
O O13 0.700673 0.402894 0.991314
#
# Coordination Sequence:
#
# PCOD8215065 Si02
#       6
#     8   8   8   8   8   8
#     4  11  19  30  51  75 107 135 162 208 265 308
#     4  11  16  30  48  73 102 133 160 196 257 315
#     4  10  18  29  52  69 106 132 160 204 265 310
#     4  12  23  36  51  71 103 147 184 212 245 293
#     4  10  18  34  48  72 102 138 165 211 260 302
#     4  12  20  33  50  73 104 136 178 210 241 306
#
# _framework density 16.223219
#
# number of rings (size 3 to 8) (size 9 to 14) (size 15 to 20)
#    0.000    1.000   11.667    0.500    0.000    1.333 
#    0.000    0.000    0.000    0.000    0.000    1.167 
#    0.000    0.000    0.000    0.000    0.000    0.000 
#
# Total GULP energy -595201.632324 kJ/mol
# GULP energy per Si atom -12400.034007 kJ/mol
# Density = 1.618629 g / cm^3
# Si number density = 16.223219 Si / 1000 Ang^3
#
#
#
# Elastic Constant Matrix: (Units=GPa)
#
#
# Indices 1 2 3 4 5 6 
#
# 1 78.7241 39.3786 47.5966 0.0000 0.0000 0.0000
# 2 39.3786 77.0199 50.7961 0.0000 0.0000 0.0000
# 3 47.5966 50.7961 102.5912 0.0000 0.0000 0.0000
# 4 0.0000 0.0000 0.0000 16.1303 0.0000 0.0000
# 5 0.0000 0.0000 0.0000 0.0000 32.1910 0.0000
# 6 0.0000 0.0000 0.0000 0.0000 0.0000 16.8372
#
#
#
# Elastic Compliance Matrix: (Units=1/GPa)
#
#
# Indices 1 2 3 4 5 6 
#
# 1 0.019297 -0.005883 -0.006040 0.000000 0.000000 0.000000
# 2 -0.005883 0.021073 -0.007704 0.000000 0.000000 0.000000
# 3 -0.006040 -0.007704 0.016364 0.000000 0.000000 0.000000
# 4 0.000000 0.000000 0.000000 0.061995 0.000000 0.000000
# 5 0.000000 0.000000 0.000000 0.000000 0.031065 0.000000
# 6 0.000000 0.000000 0.000000 0.000000 0.000000 0.059392
#
#
# Mechanical properties :
#
#
# Convention : Reuss Voigt Hill
#
# Bulk Modulus (GPa) = 57.20936 59.31974 58.26455
# Shear Modulus (GPa) = 19.66442 21.06932 20.36687
#
# Velocity S-wave (km/s) = 3.48532 3.60768 3.54703
# Velocity P-wave (km/s) = 7.17893 7.34832 7.26412
#
# Compressibility (1/GPa) = 0.01747966
#
# Stress axis : x y z
#
# Youngs Moduli (GPa) = 51.82173 47.45514 61.10820
#
# Poissons Ratio (x) = 0.27916 0.36910
# Poissons Ratio (y) = 0.30484 0.47081
# Poissons Ratio (z) = 0.31301 0.36562
#
# Static dielectric constant tensor:
#      x y z
#    x 3.260660 0.000000 0.000000 
#    y 0.000000 2.636770 0.000000 
#    z 0.000000 0.000000 3.229530 
# 
# 
# High freq. dielectric constant tensor:
#      x y z
#    x 1.638720 0.000000 0.000000 
#    y 0.000000 1.561940 0.000000 
#    z 0.000000 0.000000 1.624870 
# 
# From -- ./inp_files/24844.got.cif
#   From: 2010.06.25/outbox.cif.g09.slc.cpg/sg52_13_cif.got.tgz:24844.got - 2010.06.26 19:32:48.
