data_PCOD8215346
_publ_section_title
;
Structure prediction by ZEFSAII (Michael W. Deem and Ramdas Pophale) SiO2 
 PCOD8215346
Probable space group: P N N A
;
_chemical_formula_sum "Si O2"
_cell_formula_units_Z 60
_cell_length_a 12.079794
_cell_length_b 7.807999
_cell_length_c 29.724748
_cell_angle_alpha 90.000000
_cell_angle_beta 90.000000
_cell_angle_gamma 90.000000
_cell_volume 2803.609085
_symmetry_space_group_name_H-M "P N N A"
_symmetry_group_IT_number 52
_symmetry_cell_setting 'orthorhombic'
loop_
_space_group_symop_operation_xyz
x,y,z
1/2-x,-y,z
x,1/2-y,1/2-z
1/2-x,1/2+y,1/2-z
-x,-y,-z
1/2+x,y,-z
-x,1/2+y,1/2+z
1/2+x,1/2-y,1/2+z
loop_
_atom_site_type_symbol
_atom_site_label
_atom_site_fract_x
_atom_site_fract_y
_atom_site_fract_z
Si Si1 0.424367 0.672006 0.876522
Si Si2 0.496536 0.333981 0.913398
Si Si3 0.846203 0.331441 0.621519
Si Si4 0.635515 0.297822 0.660685
Si Si5 0.021158 0.250000 0.250000
Si Si6 0.869899 0.571004 0.223473
Si Si7 0.260336 0.295758 0.938634
Si Si8 0.222182 0.198648 0.461318
O O1 0.466493 0.533989 0.913394
O O2 0.529215 0.786390 0.865574
O O3 0.375988 0.598359 0.830025
O O4 0.326820 0.779014 0.901869
O O5 0.535888 0.305696 0.862114
O O6 0.384251 0.231751 0.925811
O O7 0.593954 0.279827 0.947206
O O8 0.760241 0.220419 0.653360
O O9 0.847297 0.530975 0.631990
O O10 0.809906 0.300232 0.569746
O O11 0.605470 0.316465 0.712160
O O12 0.952728 0.418619 0.237325
O O13 0.750000 0.500000 0.236947
O O14 0.894494 0.750000 0.250000
O O15 0.250000 0.500000 0.935672
O O16 0.233586 0.227444 0.988445
O O17 0.250000 0.000000 0.459052
#
# Coordination Sequence:
#
# PCOD8215346 Si02
#       8
#     8   8   8   8   4   8   8   8
#     4  11  21  39  64  93 126 162 217 271 320 397
#     4  10  19  37  60  85 127 163 207 261 329 382
#     4  10  22  42  63  90 129 166 216 267 333 398
#     4  10  23  43  63  90 125 174 203 274 341 394
#     4  12  24  46  70  96 134 174 226 278 340 406
#     4  12  25  43  69 101 132 176 225 274 336 408
#     4   9  21  32  59  95 124 164 212 270 323 389
#     4  10  19  33  62  92 122 168 218 267 320 397
#
# _framework density 21.400987000000001
#
# number of rings (size 3 to 8) (size 9 to 14) (size 15 to 20)
#    0.000    1.600    3.333    2.000    1.867    1.600 
#    6.000    1.333    5.867    0.000    0.000    0.000 
#    0.000    0.000    0.000    0.000    0.000    0.000 
#
# Total GULP energy -743392.376898 kJ/mol
# GULP energy per Si atom -12389.872948 kJ/mol
# Density = 2.135228 g / cm^3
# Si number density = 21.400987 Si / 1000 Ang^3
#
#
#
# Elastic Constant Matrix: (Units=GPa)
#
#
# Indices 1 2 3 4 5 6 
#
# 1 162.9698 21.2076 60.1817 0.0000 0.0000 0.0000
# 2 21.2076 55.7221 15.1178 0.0000 0.0000 0.0000
# 3 60.1817 15.1178 123.4039 0.0000 0.0000 0.0000
# 4 0.0000 0.0000 0.0000 13.2692 0.0000 0.0000
# 5 0.0000 0.0000 0.0000 0.0000 28.2526 0.0000
# 6 0.0000 0.0000 0.0000 0.0000 0.0000 18.6431
#
#
#
# Elastic Compliance Matrix: (Units=1/GPa)
#
#
# Indices 1 2 3 4 5 6 
#
# 1 0.007688 -0.001975 -0.003508 0.000000 0.000000 0.000000
# 2 -0.001975 0.019070 -0.001373 0.000000 0.000000 0.000000
# 3 -0.003508 -0.001373 0.009982 0.000000 0.000000 0.000000
# 4 0.000000 0.000000 0.000000 0.075363 0.000000 0.000000
# 5 0.000000 0.000000 0.000000 0.000000 0.035395 0.000000
# 6 0.000000 0.000000 0.000000 0.000000 0.000000 0.053639
#
#
# Mechanical properties :
#
#
# Convention : Reuss Voigt Hill
#
# Bulk Modulus (GPa) = 43.42139 59.45668 51.43903
# Shear Modulus (GPa) = 22.46938 28.40556 25.43747
#
# Velocity S-wave (km/s) = 3.24377 3.64717 3.45137
# Velocity P-wave (km/s) = 5.86198 6.75117 6.32223
#
# Compressibility (1/GPa) = 0.02303012
#
# Stress axis : x y z
#
# Youngs Moduli (GPa) = 130.06725 52.43761 100.17750
#
# Poissons Ratio (x) = 0.10354 0.35138
# Poissons Ratio (y) = 0.25682 0.13757
# Poissons Ratio (z) = 0.45622 0.07201
#
# Static dielectric constant tensor:
#      x y z
#    x 4.819850 0.000000 0.000000 
#    y 0.000000 3.596980 0.000000 
#    z 0.000000 0.000000 3.893690 
# 
# 
# High freq. dielectric constant tensor:
#      x y z
#    x 1.864920 0.000000 0.000000 
#    y 0.000000 1.811010 0.000000 
#    z 0.000000 0.000000 1.836810 
# 
# From -- ./inp_files/42761.got.cif
#   From: 2010.06.25/outbox.cif.g09.slc.cpg/sg52_22_cif.got.tgz:42761.got - 2010.06.26 19:32:48.
