data_PCOD8215293
_publ_section_title
;
Structure prediction by ZEFSAII (Michael W. Deem and Ramdas Pophale) SiO2 
 PCOD8215293
Probable space group: P N N A
;
_chemical_formula_sum "Si O2"
_cell_formula_units_Z 48
_cell_length_a 16.696250
_cell_length_b 27.002405
_cell_length_c 5.094104
_cell_angle_alpha 90.000000
_cell_angle_beta 90.000000
_cell_angle_gamma 90.000000
_cell_volume 2296.620267
_symmetry_space_group_name_H-M "P N N A"
_symmetry_group_IT_number 52
_symmetry_cell_setting 'orthorhombic'
loop_
_space_group_symop_operation_xyz
x,y,z
1/2-x,-y,z
x,1/2-y,1/2-z
1/2-x,1/2+y,1/2-z
-x,-y,-z
1/2+x,y,-z
-x,1/2+y,1/2+z
1/2+x,1/2-y,1/2+z
loop_
_atom_site_type_symbol
_atom_site_label
_atom_site_fract_x
_atom_site_fract_y
_atom_site_fract_z
Si Si1 0.199487 0.106165 0.476394
Si Si2 0.965648 0.280647 0.010690
Si Si3 0.190677 0.693795 0.169046
Si Si4 0.265706 0.056447 0.977967
Si Si5 0.017051 0.381229 0.049603
Si Si6 0.085345 0.887535 0.064452
O O1 0.231517 0.162359 0.422137
O O2 0.220580 0.091884 0.772982
O O3 0.105304 0.097046 0.440682
O O4 0.238809 0.068131 0.273764
O O5 0.000184 0.250000 0.250000
O O6 0.027510 0.324518 0.955186
O O7 0.958010 0.250000 0.750000
O O8 0.874753 0.301156 0.067791
O O9 0.217954 0.750000 0.250000
O O10 0.140871 0.661659 0.389555
O O11 0.250000 0.000000 0.904007
O O12 0.360413 0.066945 0.965070
O O13 0.980239 0.379105 0.340303
O O14 0.959343 0.406341 0.831450
#
# Coordination Sequence:
#
# PCOD8215293 Si02
#       6
#     8   8   8   8   8   8
#     4  11  24  39  61  92 122 151 195 252 300 339
#     4  10  19  32  53  79 111 159 202 228 275 350
#     4   9  19  36  58  86 118 159 203 237 279 347
#     4  11  23  44  66  87 114 155 202 247 296 358
#     4  11  21  38  57  86 124 152 188 248 300 347
#     4  10  21  39  63  84 115 158 197 234 292 361
#
# _framework density 20.900276999999999
#
# number of rings (size 3 to 8) (size 9 to 14) (size 15 to 20)
#    0.000    1.667    0.000    7.500    0.000    3.333 
#    0.000    7.500    0.000    0.000    0.000    0.000 
#    0.000    0.000    0.000    0.000    0.000    0.000 
#
# Total GULP energy -594729.699646 kJ/mol
# GULP energy per Si atom -12390.202076 kJ/mol
# Density = 2.085271 g / cm^3
# Si number density = 20.900277 Si / 1000 Ang^3
#
#
#
# Elastic Constant Matrix: (Units=GPa)
#
#
# Indices 1 2 3 4 5 6 
#
# 1 85.5344 18.0512 13.8641 0.0000 0.0000 0.0000
# 2 18.0512 76.2699 2.6538 0.0000 0.0000 0.0000
# 3 13.8641 2.6538 83.7925 0.0000 0.0000 0.0000
# 4 0.0000 0.0000 0.0000 15.4543 0.0000 0.0000
# 5 0.0000 0.0000 0.0000 0.0000 28.6828 0.0000
# 6 0.0000 0.0000 0.0000 0.0000 0.0000 12.9323
#
#
#
# Elastic Compliance Matrix: (Units=1/GPa)
#
#
# Indices 1 2 3 4 5 6 
#
# 1 0.012631 -0.002920 -0.001997 0.000000 0.000000 0.000000
# 2 -0.002920 0.013801 0.000046 0.000000 0.000000 0.000000
# 3 -0.001997 0.000046 0.012263 0.000000 0.000000 0.000000
# 4 0.000000 0.000000 0.000000 0.064707 0.000000 0.000000
# 5 0.000000 0.000000 0.000000 0.000000 0.034864 0.000000
# 6 0.000000 0.000000 0.000000 0.000000 0.000000 0.077326
#
#
# Mechanical properties :
#
#
# Convention : Reuss Voigt Hill
#
# Bulk Modulus (GPa) = 34.53930 34.97055 34.75493
# Shear Modulus (GPa) = 21.27786 25.48238 23.38012
#
# Velocity S-wave (km/s) = 3.19418 3.49554 3.34825
# Velocity P-wave (km/s) = 5.49230 5.74980 5.62252
#
# Compressibility (1/GPa) = 0.02895252
#
# Stress axis : x y z
#
# Youngs Moduli (GPa) = 79.16903 72.45945 81.54429
#
# Poissons Ratio (x) = 0.21158 0.16288
# Poissons Ratio (y) = 0.23117 -0.00376
# Poissons Ratio (z) = 0.15814 -0.00334
#
# Static dielectric constant tensor:
#      x y z
#    x 3.806520 0.000000 0.000000 
#    y 0.000000 3.705330 0.000000 
#    z 0.000000 0.000000 3.744390 
# 
# 
# High freq. dielectric constant tensor:
#      x y z
#    x 1.802500 0.000000 0.000000 
#    y 0.000000 1.802320 0.000000 
#    z 0.000000 0.000000 1.827100 
# 
# From -- ./inp_files/2485.got.cif
#   From: 2010.06.25/outbox.cif.g09.slc.cpg/sg52_2_cif.got.tgz:2485.got - 2010.06.26 19:32:48.
