data_PCOD8215946
_publ_section_title
;
Structure prediction by ZEFSAII (Michael W. Deem and Ramdas Pophale) SiO2 
 PCOD8215946
Probable space group: P N N A
;
_chemical_formula_sum "Si O2"
_cell_formula_units_Z 64
_cell_length_a 16.920612
_cell_length_b 9.008135
_cell_length_c 21.327493
_cell_angle_alpha 90.000000
_cell_angle_beta 90.000000
_cell_angle_gamma 90.000000
_cell_volume 3250.803818
_symmetry_space_group_name_H-M "P N N A"
_symmetry_group_IT_number 52
_symmetry_cell_setting 'orthorhombic'
loop_
_space_group_symop_operation_xyz
x,y,z
1/2-x,-y,z
x,1/2-y,1/2-z
1/2-x,1/2+y,1/2-z
-x,-y,-z
1/2+x,y,-z
-x,1/2+y,1/2+z
1/2+x,1/2-y,1/2+z
loop_
_atom_site_type_symbol
_atom_site_label
_atom_site_fract_x
_atom_site_fract_y
_atom_site_fract_z
Si Si1 0.814783 0.391081 0.420767
Si Si2 0.931080 0.284300 0.317664
Si Si3 0.931968 0.613138 0.485806
Si Si4 0.710485 0.836106 0.527250
Si Si5 0.947094 0.261649 0.903359
Si Si6 0.940779 0.970024 0.675494
Si Si7 0.849435 0.750627 0.896192
Si Si8 0.425252 0.513283 0.317654
O O1 0.750000 0.500000 0.388788
O O2 0.862485 0.301862 0.368089
O O3 0.862297 0.509656 0.461794
O O4 0.778463 0.260769 0.464108
O O5 0.891846 0.250000 0.250000
O O6 0.989477 0.148357 0.329799
O O7 0.983555 0.433262 0.321478
O O8 0.907033 0.706400 0.546428
O O9 0.000000 0.500000 0.500000
O O10 0.969740 0.728280 0.436987
O O11 0.618515 0.828068 0.548157
O O12 0.759107 0.752988 0.581883
O O13 0.750000 0.000000 0.516068
O O14 0.974333 0.380058 0.852625
O O15 0.912451 0.124566 0.863749
O O16 0.869605 0.912074 0.631340
O O17 0.907621 0.010130 0.744345
O O18 0.861416 0.865502 0.839668
#
# Coordination Sequence:
#
# PCOD8215946 Si02
#       8
#     8   8   8   8   8   8   8   8
#     4  12  23  42  68  93 125 168 215 258 324 391
#     4   9  20  42  68  92 125 164 208 262 317 378
#     4  12  21  37  66  96 114 161 213 267 308 374
#     4  12  26  41  57  93 140 168 202 271 326 373
#     4  12  23  38  65  92 131 158 219 264 311 377
#     4  10  22  39  63  94 129 164 205 263 318 371
#     4  11  21  40  59  88 129 169 210 249 326 373
#     4  10  20  39  67  93 120 166 219 259 302 377
#
# _framework density 19.687438
#
# number of rings (size 3 to 8) (size 9 to 14) (size 15 to 20)
#    0.000    1.000    6.250    2.250    0.000    1.500 
#    0.000    4.375    2.750    0.000    0.000    0.000 
#    0.000    0.000    0.000    0.000    0.000    0.000 
#
# Total GULP energy -793153.826282 kJ/mol
# GULP energy per Si atom -12393.028536 kJ/mol
# Density = 1.964263 g / cm^3
# Si number density = 19.687438 Si / 1000 Ang^3
#
#
#
# Elastic Constant Matrix: (Units=GPa)
#
#
# Indices 1 2 3 4 5 6 
#
# 1 51.6380 9.8547 17.8097 0.0000 0.0000 0.0000
# 2 9.8547 82.9440 30.0285 0.0000 0.0000 0.0000
# 3 17.8097 30.0285 100.5951 0.0000 0.0000 0.0000
# 4 0.0000 0.0000 0.0000 32.9426 0.0000 0.0000
# 5 0.0000 0.0000 0.0000 0.0000 33.0550 0.0000
# 6 0.0000 0.0000 0.0000 0.0000 0.0000 25.9364
#
#
#
# Elastic Compliance Matrix: (Units=1/GPa)
#
#
# Indices 1 2 3 4 5 6 
#
# 1 0.020744 -0.001273 -0.003293 0.000000 0.000000 0.000000
# 2 -0.001273 0.013595 -0.003833 0.000000 0.000000 0.000000
# 3 -0.003293 -0.003833 0.011668 0.000000 0.000000 0.000000
# 4 0.000000 0.000000 0.000000 0.030356 0.000000 0.000000
# 5 0.000000 0.000000 0.000000 0.000000 0.030253 0.000000
# 6 0.000000 0.000000 0.000000 0.000000 0.000000 0.038556
#
#
# Mechanical properties :
#
#
# Convention : Reuss Voigt Hill
#
# Bulk Modulus (GPa) = 34.23404 38.95143 36.59274
# Shear Modulus (GPa) = 29.11972 30.21908 29.66940
#
# Velocity S-wave (km/s) = 3.85008 3.92208 3.88625
# Velocity P-wave (km/s) = 6.09842 6.35124 6.22611
#
# Compressibility (1/GPa) = 0.02921070
#
# Stress axis : x y z
#
# Youngs Moduli (GPa) = 48.20653 73.55547 85.70475
#
# Poissons Ratio (x) = 0.09360 0.28220
# Poissons Ratio (y) = 0.06135 0.32850
# Poissons Ratio (z) = 0.15873 0.28194
#
# Static dielectric constant tensor:
#      x y z
#    x 3.015880 0.000000 0.000000 
#    y 0.000000 3.806850 0.000000 
#    z 0.000000 0.000000 3.565140 
# 
# 
# High freq. dielectric constant tensor:
#      x y z
#    x 1.747560 0.000000 0.000000 
#    y 0.000000 1.776780 0.000000 
#    z 0.000000 0.000000 1.771670 
# 
# From -- ./inp_files/37698.got.cif
#   From: 2010.06.25/outbox.cif.g09.slc.cpg/sg52_19_cif.got.tgz:37698.got - 2010.06.26 19:32:48.
