data_PCOD8215757
_publ_section_title
;
Structure prediction by ZEFSAII (Michael W. Deem and Ramdas Pophale) SiO2 
 PCOD8215757
Probable space group: P N N A
;
_chemical_formula_sum "Si O2"
_cell_formula_units_Z 36
_cell_length_a 19.101515
_cell_length_b 7.813103
_cell_length_c 10.483912
_cell_angle_alpha 90.000000
_cell_angle_beta 90.000000
_cell_angle_gamma 90.000000
_cell_volume 1564.641087
_symmetry_space_group_name_H-M "P N N A"
_symmetry_group_IT_number 52
_symmetry_cell_setting 'orthorhombic'
loop_
_space_group_symop_operation_xyz
x,y,z
1/2-x,-y,z
x,1/2-y,1/2-z
1/2-x,1/2+y,1/2-z
-x,-y,-z
1/2+x,y,-z
-x,1/2+y,1/2+z
1/2+x,1/2-y,1/2+z
loop_
_atom_site_type_symbol
_atom_site_label
_atom_site_fract_x
_atom_site_fract_y
_atom_site_fract_z
Si Si1 0.487781 0.106941 0.657831
Si Si2 0.855101 0.831650 0.618472
Si Si3 0.371895 0.314148 0.032642
Si Si4 0.239984 0.299350 0.893953
Si Si5 0.539044 0.750000 0.750000
O O1 0.453583 0.250000 0.750000
O O2 0.561075 0.188718 0.611829
O O3 0.433317 0.086656 0.543464
O O4 0.493460 0.918196 0.720506
O O5 0.825700 0.750000 0.750000
O O6 0.820359 0.741076 0.493439
O O7 0.835059 0.033784 0.615082
O O8 0.314332 0.218799 0.944045
O O9 0.410995 0.189391 0.131867
O O10 0.250000 0.500000 0.893483
O O11 0.220636 0.250000 0.750000
#
# Coordination Sequence:
#
# PCOD8215757 Si02
#       5
#     8   8   8   8   4
#     4  10  21  41  63  98 132 165 215 268 322 383
#     4   9  19  38  63  87 124 164 212 266 312 375
#     4  10  21  40  61  91 133 162 212 273 318 383
#     4  10  22  43  59  89 127 168 207 265 327 382
#     4  10  20  36  62  94 122 174 210 256 334 366
#
# _framework density 23.008469999999999
#
# number of rings (size 3 to 8) (size 9 to 14) (size 15 to 20)
#    0.000    2.222    0.000    3.333    1.556    0.889 
#   30.000    2.222    0.000    0.000    0.000    0.000 
#    0.000    0.000    0.000    0.000    0.000    0.000 
#
# Total GULP energy -445994.575810 kJ/mol
# GULP energy per Si atom -12388.738217 kJ/mol
# Density = 2.295610 g / cm^3
# Si number density = 23.008470 Si / 1000 Ang^3
#
#
#
# Elastic Constant Matrix: (Units=GPa)
#
#
# Indices 1 2 3 4 5 6 
#
# 1 91.6552 23.7356 52.1594 0.0000 0.0000 0.0000
# 2 23.7356 69.7175 52.2142 0.0000 0.0000 0.0000
# 3 52.1594 52.2142 180.3996 0.0000 0.0000 0.0000
# 4 0.0000 0.0000 0.0000 38.1860 0.0000 0.0000
# 5 0.0000 0.0000 0.0000 0.0000 33.8108 0.0000
# 6 0.0000 0.0000 0.0000 0.0000 0.0000 14.2181
#
#
#
# Elastic Compliance Matrix: (Units=1/GPa)
#
#
# Indices 1 2 3 4 5 6 
#
# 1 0.013297 -0.002104 -0.003236 0.000000 0.000000 0.000000
# 2 -0.002104 0.018646 -0.004789 0.000000 0.000000 0.000000
# 3 -0.003236 -0.004789 0.007865 0.000000 0.000000 0.000000
# 4 0.000000 0.000000 0.000000 0.026188 0.000000 0.000000
# 5 0.000000 0.000000 0.000000 0.000000 0.029576 0.000000
# 6 0.000000 0.000000 0.000000 0.000000 0.000000 0.070333
#
#
# Mechanical properties :
#
#
# Convention : Reuss Voigt Hill
#
# Bulk Modulus (GPa) = 51.14621 66.44341 58.79481
# Shear Modulus (GPa) = 25.95014 31.48721 28.71868
#
# Velocity S-wave (km/s) = 3.36199 3.70334 3.53679
# Velocity P-wave (km/s) = 6.11132 6.87218 6.50289
#
# Compressibility (1/GPa) = 0.01955179
#
# Stress axis : x y z
#
# Youngs Moduli (GPa) = 75.20756 53.63024 127.14913
#
# Poissons Ratio (x) = 0.11282 0.41140
# Poissons Ratio (y) = 0.15821 0.60888
# Poissons Ratio (z) = 0.24334 0.25682
#
# Static dielectric constant tensor:
#      x y z
#    x 4.291080 0.000000 0.000000 
#    y 0.000000 3.770430 0.000000 
#    z 0.000000 0.000000 4.788250 
# 
# 
# High freq. dielectric constant tensor:
#      x y z
#    x 1.904750 0.000000 0.000000 
#    y 0.000000 1.872710 0.000000 
#    z 0.000000 0.000000 1.923800 
# 
# From -- ./inp_files/12927.got.cif
#   From: 2010.06.25/outbox.cif.g09.slc.cpg/sg52_7_cif.got.tgz:12927.got - 2010.06.26 19:32:48.
