data_PCOD8215906
_publ_section_title
;
Structure prediction by ZEFSAII (Michael W. Deem and Ramdas Pophale) SiO2 
 PCOD8215906
Probable space group: P N N A
;
_chemical_formula_sum "Si O2"
_cell_formula_units_Z 20
_cell_length_a 11.796623
_cell_length_b 6.898763
_cell_length_c 8.909067
_cell_angle_alpha 90.000000
_cell_angle_beta 90.000000
_cell_angle_gamma 90.000000
_cell_volume 725.038637
_symmetry_space_group_name_H-M "P N N A"
_symmetry_group_IT_number 52
_symmetry_cell_setting 'orthorhombic'
loop_
_space_group_symop_operation_xyz
x,y,z
1/2-x,-y,z
x,1/2-y,1/2-z
1/2-x,1/2+y,1/2-z
-x,-y,-z
1/2+x,y,-z
-x,1/2+y,1/2+z
1/2+x,1/2-y,1/2+z
loop_
_atom_site_type_symbol
_atom_site_label
_atom_site_fract_x
_atom_site_fract_y
_atom_site_fract_z
Si Si1 0.750000 0.000000 0.463022
Si Si2 0.068142 0.023648 0.778493
Si Si3 0.348419 0.617599 0.407383
O O1 0.646779 0.929869 0.352518
O O2 0.695978 0.164295 0.567828
O O3 0.039894 0.250000 0.750000
O O4 0.130818 0.006988 0.936953
O O5 0.954461 0.895883 0.792978
O O6 0.250000 0.500000 0.323615
#
# Coordination Sequence:
#
# PCOD8215906 Si02
#       3
#     4   8   8
#     4  10  20  40  70 102 142 188 234 292 356 416
#     4   9  19  38  67  97 140 189 233 291 360 418
#     4  10  20  38  68  95 139 185 240 288 350 430
#
# _framework density 27.58474
#
# number of rings (size 3 to 8) (size 9 to 14) (size 15 to 20)
#    0.000    2.400    2.000    0.000    0.000    0.000 
#    0.000   26.000   22.000    0.000    0.000    0.000 
#    0.000    0.400    0.000    0.000    0.000    0.000 
#
# Total GULP energy -247818.999417 kJ/mol
# GULP energy per Si atom -12390.949971 kJ/mol
# Density = 2.752196 g / cm^3
# Si number density = 27.584740 Si / 1000 Ang^3
#
#
#
# Elastic Constant Matrix: (Units=GPa)
#
#
# Indices 1 2 3 4 5 6 
#
# 1 250.5019 92.5525 67.3028 0.0000 0.0000 0.0000
# 2 92.5525 112.1034 55.7029 0.0000 0.0000 0.0000
# 3 67.3028 55.7029 59.8717 0.0000 0.0000 0.0000
# 4 0.0000 0.0000 0.0000 32.7205 0.0000 0.0000
# 5 0.0000 0.0000 0.0000 0.0000 -653.8015 0.0000
# 6 0.0000 0.0000 0.0000 0.0000 0.0000 40.9073
#
#
#
# Elastic Compliance Matrix: (Units=1/GPa)
#
#
# Indices 1 2 3 4 5 6 
#
# 1 0.006251 -0.003104 -0.004139 0.000000 0.000000 0.000000
# 2 -0.003104 0.018131 -0.013379 0.000000 0.000000 0.000000
# 3 -0.004139 -0.013379 0.033802 0.000000 0.000000 0.000000
# 4 0.000000 0.000000 0.000000 0.030562 0.000000 0.000000
# 5 0.000000 0.000000 0.000000 0.000000 -0.001530 0.000000
# 6 0.000000 0.000000 0.000000 0.000000 0.000000 0.024446
#
#
# Mechanical properties :
#
#
# Convention : Reuss Voigt Hill
#
# Bulk Modulus (GPa) = 59.03105 94.84373 76.93739
# Shear Modulus (GPa) = 31.53522 -102.24017 -35.35247
#
# Velocity S-wave (km/s) = 3.38481 -6.09463 -3.58382
# Velocity P-wave (km/s) = 6.05989 3.88184 3.29041
#
# Compressibility (1/GPa) = 0.01694024
#
# Stress axis : x y z
#
# Youngs Moduli (GPa) = 159.97877 55.15352 29.58390
#
# Poissons Ratio (x) = 0.17121 0.12243
# Poissons Ratio (y) = 0.49662 0.39581
# Poissons Ratio (z) = 0.66207 0.73791
#
# Static dielectric constant tensor:
#      x y z
#    x 5.429390 0.000000 0.000000 
#    y 0.000000 4.670980 0.000000 
#    z 0.000000 0.000000 4.953160 
# 
# 
# High freq. dielectric constant tensor:
#      x y z
#    x 2.122870 0.000000 0.000000 
#    y 0.000000 2.116540 0.000000 
#    z 0.000000 0.000000 2.125170 
# 
# From -- ./inp_files/16180.got.cif
#   From: 2010.06.25/outbox.cif.g09.slc.cpg/sg52_9_cif.got.tgz:16180.got - 2010.06.26 19:32:48.
