data_PCOD8215993
_publ_section_title
;
Structure prediction by ZEFSAII (Michael W. Deem and Ramdas Pophale) SiO2 
 PCOD8215993
Probable space group: P N N A
;
_chemical_formula_sum "Si O2"
_cell_formula_units_Z 52
_cell_length_a 13.582227
_cell_length_b 9.224429
_cell_length_c 19.477244
_cell_angle_alpha 90.000000
_cell_angle_beta 90.000000
_cell_angle_gamma 90.000000
_cell_volume 2440.270568
_symmetry_space_group_name_H-M "P N N A"
_symmetry_group_IT_number 52
_symmetry_cell_setting 'orthorhombic'
loop_
_space_group_symop_operation_xyz
x,y,z
1/2-x,-y,z
x,1/2-y,1/2-z
1/2-x,1/2+y,1/2-z
-x,-y,-z
1/2+x,y,-z
-x,1/2+y,1/2+z
1/2+x,1/2-y,1/2+z
loop_
_atom_site_type_symbol
_atom_site_label
_atom_site_fract_x
_atom_site_fract_y
_atom_site_fract_z
Si Si1 0.138881 0.459900 0.841950
Si Si2 0.948630 0.908967 0.941218
Si Si3 0.016128 0.250000 0.750000
Si Si4 0.612835 0.684082 0.619595
Si Si5 0.492860 0.222692 0.670838
Si Si6 0.214973 0.161502 0.318565
Si Si7 0.457947 0.851459 0.530769
O O1 0.250000 0.500000 0.822373
O O2 0.087272 0.375364 0.779298
O O3 0.129220 0.371991 0.913336
O O4 0.083101 0.607857 0.857615
O O5 0.020459 0.865330 0.877041
O O6 0.869092 0.017970 0.906437
O O7 0.910151 0.756631 0.973507
O O8 0.000000 0.000000 0.000000
O O9 0.945463 0.317575 0.692059
O O10 0.718570 0.761007 0.623907
O O11 0.551177 0.773402 0.564368
O O12 0.469701 0.250000 0.750000
O O13 0.602318 0.160645 0.658425
O O14 0.229261 0.250000 0.250000
O O15 0.250000 0.000000 0.304744
O O16 0.500000 0.000000 0.500000
#
# Coordination Sequence:
#
# PCOD8215993 Si02
#       7
#     8   8   4   8   8   8   8
#     4  11  24  42  66  96 129 185 233 284 346 416
#     4  10  22  41  67  95 134 182 225 281 344 411
#     4  10  20  40  68  94 132 168 218 290 350 406
#     4  10  21  39  69  96 132 173 216 277 350 415
#     4  11  24  41  67  98 139 171 225 291 347 413
#     4  11  24  38  63 103 138 173 218 272 352 430
#     4  10  20  42  65  92 131 174 230 281 333 404
#
# _framework density 21.309113
#
# number of rings (size 3 to 8) (size 9 to 14) (size 15 to 20)
#    0.000    1.538    2.308    2.769    5.385    0.000 
#    2.769    1.538    0.000    0.000    0.000    0.000 
#    0.000    0.000    0.000    0.000    0.000    0.000 
#
# Total GULP energy -644431.108084 kJ/mol
# GULP energy per Si atom -12392.905925 kJ/mol
# Density = 2.126061 g / cm^3
# Si number density = 21.309113 Si / 1000 Ang^3
#
#
#
# Elastic Constant Matrix: (Units=GPa)
#
#
# Indices 1 2 3 4 5 6 
#
# 1 103.7291 38.9853 14.2126 0.0000 0.0000 0.0000
# 2 38.9853 152.3379 52.0009 0.0000 0.0000 0.0000
# 3 14.2126 52.0009 117.2703 0.0000 0.0000 0.0000
# 4 0.0000 0.0000 0.0000 44.6774 0.0000 0.0000
# 5 0.0000 0.0000 0.0000 0.0000 16.0297 0.0000
# 6 0.0000 0.0000 0.0000 0.0000 0.0000 -58.6465
#
#
#
# Elastic Compliance Matrix: (Units=1/GPa)
#
#
# Indices 1 2 3 4 5 6 
#
# 1 0.010667 -0.002697 -0.000097 0.000000 0.000000 0.000000
# 2 -0.002697 0.008417 -0.003405 0.000000 0.000000 0.000000
# 3 -0.000097 -0.003405 0.010049 0.000000 0.000000 0.000000
# 4 0.000000 0.000000 0.000000 0.022383 0.000000 0.000000
# 5 0.000000 0.000000 0.000000 0.000000 0.062384 0.000000
# 6 0.000000 0.000000 0.000000 0.000000 0.000000 -0.017051
#
#
# Mechanical properties :
#
#
# Convention : Reuss Voigt Hill
#
# Bulk Modulus (GPa) = 59.75531 64.85942 62.30737
# Shear Modulus (GPa) = 43.54416 18.28800 30.91608
#
# Velocity S-wave (km/s) = 4.52536 2.93273 3.81312
# Velocity P-wave (km/s) = 7.44367 6.47853 6.97780
#
# Compressibility (1/GPa) = 0.01673491
#
# Stress axis : x y z
#
# Youngs Moduli (GPa) = 93.74399 118.80753 99.51092
#
# Poissons Ratio (x) = 0.32040 0.00965
# Poissons Ratio (y) = 0.25281 0.33888
# Poissons Ratio (z) = 0.00909 0.40460
#
# Static dielectric constant tensor:
#      x y z
#    x 4.948800 0.000000 0.000000 
#    y 0.000000 4.320130 0.000000 
#    z 0.000000 0.000000 4.336150 
# 
# 
# High freq. dielectric constant tensor:
#      x y z
#    x 1.798550 0.000000 0.000000 
#    y 0.000000 1.855820 0.000000 
#    z 0.000000 0.000000 1.856820 
# 
# From -- ./inp_files/37274.got.cif
#   From: 2010.06.25/outbox.cif.g09.slc.cpg/sg52_19_cif.got.tgz:37274.got - 2010.06.26 19:32:48.
