data_PCOD8215312
_publ_section_title
;
Structure prediction by ZEFSAII (Michael W. Deem and Ramdas Pophale) SiO2 
 PCOD8215312
Probable space group: P N N A
;
_chemical_formula_sum "Si O2"
_cell_formula_units_Z 48
_cell_length_a 8.834308
_cell_length_b 31.374639
_cell_length_c 9.027732
_cell_angle_alpha 90.000000
_cell_angle_beta 90.000000
_cell_angle_gamma 90.000000
_cell_volume 2502.245587
_symmetry_space_group_name_H-M "P N N A"
_symmetry_group_IT_number 52
_symmetry_cell_setting 'orthorhombic'
loop_
_space_group_symop_operation_xyz
x,y,z
1/2-x,-y,z
x,1/2-y,1/2-z
1/2-x,1/2+y,1/2-z
-x,-y,-z
1/2+x,y,-z
-x,1/2+y,1/2+z
1/2+x,1/2-y,1/2+z
loop_
_atom_site_type_symbol
_atom_site_label
_atom_site_fract_x
_atom_site_fract_y
_atom_site_fract_z
Si Si1 0.261900 0.372562 0.181085
Si Si2 0.889381 0.636367 0.125489
Si Si3 0.580232 0.332924 0.564448
Si Si4 0.618717 0.081653 0.109442
Si Si5 0.188886 0.954184 0.136867
Si Si6 0.267589 0.296354 0.685818
O O1 0.430098 0.357842 0.138610
O O2 0.200051 0.339888 0.303850
O O3 0.256584 0.420729 0.240600
O O4 0.149751 0.372815 0.043017
O O5 0.830117 0.597238 0.227928
O O6 0.803028 0.678689 0.175872
O O7 0.550233 0.376951 0.475681
O O8 0.423459 0.317087 0.631412
O O9 0.650223 0.297721 0.452243
O O10 0.491906 0.045230 0.125871
O O11 0.756523 0.059847 0.026045
O O12 0.250000 0.000000 0.184961
O O13 0.299228 0.250000 0.750000
#
# Coordination Sequence:
#
# PCOD8215312 Si02
#       6
#     8   8   8   8   8   8
#     4  10  21  37  59  79 110 150 185 222 272 336
#     4  10  20  37  56  81 108 145 187 221 273 335
#     4  10  20  39  59  79 110 149 183 219 270 332
#     4   9  18  34  56  76 104 142 182 220 267 331
#     4  10  19  33  53  81 108 139 182 230 272 317
#     4  11  23  38  59  86 112 141 183 232 273 317
#
# _framework density 19.182770000000001
#
# number of rings (size 3 to 8) (size 9 to 14) (size 15 to 20)
#    0.000    2.000    0.000    6.500    0.000    4.000 
#    0.000    5.833    0.000    0.000    0.000    0.000 
#    0.000    0.000    0.000    0.000    0.000    0.000 
#
# Total GULP energy -595208.886542 kJ/mol
# GULP energy per Si atom -12400.185136 kJ/mol
# Density = 1.913911 g / cm^3
# Si number density = 19.182770 Si / 1000 Ang^3
#
#
#
# Elastic Constant Matrix: (Units=GPa)
#
#
# Indices 1 2 3 4 5 6 
#
# 1 65.0849 11.8919 19.0052 0.0000 0.0000 0.0000
# 2 11.8919 64.8924 14.1764 0.0000 0.0000 0.0000
# 3 19.0052 14.1764 104.9996 0.0000 0.0000 0.0000
# 4 0.0000 0.0000 0.0000 15.0634 0.0000 0.0000
# 5 0.0000 0.0000 0.0000 0.0000 35.5034 0.0000
# 6 0.0000 0.0000 0.0000 0.0000 0.0000 20.9681
#
#
#
# Elastic Compliance Matrix: (Units=1/GPa)
#
#
# Indices 1 2 3 4 5 6 
#
# 1 0.016594 -0.002457 -0.002672 0.000000 0.000000 0.000000
# 2 -0.002457 0.016242 -0.001748 0.000000 0.000000 0.000000
# 3 -0.002672 -0.001748 0.010243 0.000000 0.000000 0.000000
# 4 0.000000 0.000000 0.000000 0.066386 0.000000 0.000000
# 5 0.000000 0.000000 0.000000 0.000000 0.028166 0.000000
# 6 0.000000 0.000000 0.000000 0.000000 0.000000 0.047692
#
#
# Mechanical properties :
#
#
# Convention : Reuss Voigt Hill
#
# Bulk Modulus (GPa) = 34.10037 36.12490 35.11263
# Shear Modulus (GPa) = 23.94029 26.96719 25.45374
#
# Velocity S-wave (km/s) = 3.53655 3.75347 3.64662
# Velocity P-wave (km/s) = 5.87294 6.13658 6.00620
#
# Compressibility (1/GPa) = 0.02932519
#
# Stress axis : x y z
#
# Youngs Moduli (GPa) = 60.26387 61.56753 97.62320
#
# Poissons Ratio (x) = 0.15128 0.26082
# Poissons Ratio (y) = 0.14808 0.17066
# Poissons Ratio (z) = 0.16101 0.10763
#
# Static dielectric constant tensor:
#      x y z
#    x 3.557620 0.000000 0.000000 
#    y 0.000000 3.342490 0.000000 
#    z 0.000000 0.000000 3.677980 
# 
# 
# High freq. dielectric constant tensor:
#      x y z
#    x 1.756750 0.000000 0.000000 
#    y 0.000000 1.723810 0.000000 
#    z 0.000000 0.000000 1.752030 
# 
# From -- ./inp_files/7679.got.cif
#   From: 2010.06.25/outbox.cif.g09.slc.cpg/sg52_4_cif.got.tgz:7679.got - 2010.06.26 19:32:48.
