data_PCOD8215002
_publ_section_title
;
Structure prediction by ZEFSAII (Michael W. Deem and Ramdas Pophale) SiO2 
 PCOD8215002
Probable space group: P N N A
;
_chemical_formula_sum "Si O2"
_cell_formula_units_Z 64
_cell_length_a 12.931489
_cell_length_b 15.326253
_cell_length_c 17.284550
_cell_angle_alpha 90.000000
_cell_angle_beta 90.000000
_cell_angle_gamma 90.000000
_cell_volume 3425.646952
_symmetry_space_group_name_H-M "P N N A"
_symmetry_group_IT_number 52
_symmetry_cell_setting 'orthorhombic'
loop_
_space_group_symop_operation_xyz
x,y,z
1/2-x,-y,z
x,1/2-y,1/2-z
1/2-x,1/2+y,1/2-z
-x,-y,-z
1/2+x,y,-z
-x,1/2+y,1/2+z
1/2+x,1/2-y,1/2+z
loop_
_atom_site_type_symbol
_atom_site_label
_atom_site_fract_x
_atom_site_fract_y
_atom_site_fract_z
Si Si1 0.086981 0.031392 0.441610
Si Si2 0.211097 0.622271 0.029859
Si Si3 0.593192 0.614534 0.131805
Si Si4 0.003356 0.929389 0.107975
Si Si5 0.862662 0.471189 0.286473
Si Si6 0.923918 0.309846 0.387572
Si Si7 0.324447 0.317303 0.448171
Si Si8 0.107556 0.399663 0.454237
O O1 0.167681 0.099978 0.479495
O O2 0.025681 0.081468 0.374327
O O3 0.152129 0.946489 0.413259
O O4 0.000000 0.000000 0.500000
O O5 0.199003 0.716306 0.068948
O O6 0.159971 0.608611 0.946058
O O7 0.642408 0.550602 0.195547
O O8 0.590227 0.716628 0.153984
O O9 0.082857 0.847400 0.109871
O O10 0.945248 0.952581 0.188942
O O11 0.913327 0.908178 0.046038
O O12 0.075552 0.009434 0.083499
O O13 0.750000 0.500000 0.314289
O O14 0.894033 0.381686 0.326040
O O15 0.852517 0.324821 0.462005
O O16 0.041616 0.321055 0.416518
O O17 0.226091 0.379225 0.435702
#
# Coordination Sequence:
#
# PCOD8215002 Si02
#       8
#     8   8   8   8   8   8   8   8
#     4   9  18  33  55  78 106 127 174 230 275 317
#     4   9  19  33  55  84 103 133 174 234 282 317
#     4  10  20  34  57  78 107 140 180 221 275 329
#     4   9  19  31  47  79 109 144 180 221 266 325
#     4  11  22  34  53  73 113 149 179 213 273 339
#     4   9  19  33  50  82 108 139 182 228 259 319
#     4  10  17  30  55  79 109 137 183 228 273 319
#     4   9  16  29  53  77 107 140 180 225 275 305
#
# _framework density 18.682603
#
# number of rings (size 3 to 8) (size 9 to 14) (size 15 to 20)
#    0.000    2.500    0.000    3.000    3.500    1.000 
#    0.000    0.000   13.750    0.000    0.000    0.000 
#    0.000    0.000    0.000    0.000    0.000    0.000 
#
# Total GULP energy -792954.682431 kJ/mol
# GULP energy per Si atom -12389.916913 kJ/mol
# Density = 1.864008 g / cm^3
# Si number density = 18.682603 Si / 1000 Ang^3
#
#
#
# Elastic Constant Matrix: (Units=GPa)
#
#
# Indices 1 2 3 4 5 6 
#
# 1 120.4501 54.0339 24.2631 0.0000 0.0000 0.0000
# 2 54.0339 103.0637 25.8728 0.0000 0.0000 0.0000
# 3 24.2631 25.8728 43.3852 0.0000 0.0000 0.0000
# 4 0.0000 0.0000 0.0000 24.7828 0.0000 0.0000
# 5 0.0000 0.0000 0.0000 0.0000 16.9051 0.0000
# 6 0.0000 0.0000 0.0000 0.0000 0.0000 31.1015
#
#
#
# Elastic Compliance Matrix: (Units=1/GPa)
#
#
# Indices 1 2 3 4 5 6 
#
# 1 0.011234 -0.005072 -0.003258 0.000000 0.000000 0.000000
# 2 -0.005072 0.013701 -0.005334 0.000000 0.000000 0.000000
# 3 -0.003258 -0.005334 0.028052 0.000000 0.000000 0.000000
# 4 0.000000 0.000000 0.000000 0.040351 0.000000 0.000000
# 5 0.000000 0.000000 0.000000 0.000000 0.059154 0.000000
# 6 0.000000 0.000000 0.000000 0.000000 0.000000 0.032153
#
#
# Mechanical properties :
#
#
# Convention : Reuss Voigt Hill
#
# Bulk Modulus (GPa) = 38.97220 52.80430 45.88825
# Shear Modulus (GPa) = 22.67324 25.40648 24.03986
#
# Velocity S-wave (km/s) = 3.48746 3.69168 3.59102
# Velocity P-wave (km/s) = 6.09278 6.81884 6.46601
#
# Compressibility (1/GPa) = 0.02565932
#
# Stress axis : x y z
#
# Youngs Moduli (GPa) = 89.01869 72.98869 35.64765
#
# Poissons Ratio (x) = 0.37017 0.11614
# Poissons Ratio (y) = 0.45147 0.19015
# Poissons Ratio (z) = 0.29001 0.38933
#
# Static dielectric constant tensor:
#      x y z
#    x 3.653940 0.000000 0.000000 
#    y 0.000000 3.785590 0.000000 
#    z 0.000000 0.000000 3.053740 
# 
# 
# High freq. dielectric constant tensor:
#      x y z
#    x 1.737160 0.000000 0.000000 
#    y 0.000000 1.736200 0.000000 
#    z 0.000000 0.000000 1.673170 
# 
# From -- ./inp_files/32427.got.cif
#   From: 2010.06.25/outbox.cif.g09.slc.cpg/sg52_17_cif.got.tgz:32427.got - 2010.06.26 19:32:48.
