data_PCOD8215243
_publ_section_title
;
Structure prediction by ZEFSAII (Michael W. Deem and Ramdas Pophale) SiO2 
 PCOD8215243
Probable space group: P N N A
;
_chemical_formula_sum "Si O2"
_cell_formula_units_Z 44
_cell_length_a 14.350152
_cell_length_b 16.195629
_cell_length_c 8.938259
_cell_angle_alpha 90.000000
_cell_angle_beta 90.000000
_cell_angle_gamma 90.000000
_cell_volume 2077.338431
_symmetry_space_group_name_H-M "P N N A"
_symmetry_group_IT_number 52
_symmetry_cell_setting 'orthorhombic'
loop_
_space_group_symop_operation_xyz
x,y,z
1/2-x,-y,z
x,1/2-y,1/2-z
1/2-x,1/2+y,1/2-z
-x,-y,-z
1/2+x,y,-z
-x,1/2+y,1/2+z
1/2+x,1/2-y,1/2+z
loop_
_atom_site_type_symbol
_atom_site_label
_atom_site_fract_x
_atom_site_fract_y
_atom_site_fract_z
Si Si1 0.985216 0.115546 0.455977
Si Si2 0.085624 0.750000 0.750000
Si Si3 0.465609 0.157855 0.211229
Si Si4 0.669628 0.617838 0.464716
Si Si5 0.861720 0.564886 0.381171
Si Si6 0.151471 0.475685 0.943541
O O1 0.979369 0.203477 0.372737
O O2 0.956580 0.112681 0.630632
O O3 0.091590 0.081750 0.442790
O O4 0.910354 0.053024 0.386088
O O5 0.148865 0.683903 0.665147
O O6 0.496530 0.250000 0.250000
O O7 0.542759 0.115826 0.103244
O O8 0.368244 0.152907 0.122639
O O9 0.781114 0.607478 0.480771
O O10 0.621930 0.529430 0.431552
O O11 0.824449 0.571887 0.210141
O O12 0.250000 0.500000 0.021166
#
# Coordination Sequence:
#
# PCOD8215243 Si02
#       6
#     8   4   8   8   8   8
#     4  10  22  37  65  92 126 166 207 270 323 380
#     4  12  20  38  64  96 128 164 214 264 322 390
#     4  11  23  41  61  94 131 164 208 271 325 370
#     4  11  22  40  65  93 127 168 214 262 317 391
#     4  10  21  40  67  91 120 174 219 248 320 399
#     4  10  18  40  66  91 118 166 220 257 314 387
#
# _framework density 21.180948000000001
#
# number of rings (size 3 to 8) (size 9 to 14) (size 15 to 20)
#    0.000    1.455    5.455    0.545    1.273    0.000 
#    3.273    0.000    4.000    0.000    0.000    0.000 
#    0.000    0.000    0.000    0.000    0.000    0.000 
#
# Total GULP energy -545488.081955 kJ/mol
# GULP energy per Si atom -12397.456408 kJ/mol
# Density = 2.113274 g / cm^3
# Si number density = 21.180948 Si / 1000 Ang^3
#
#
#
# Elastic Constant Matrix: (Units=GPa)
#
#
# Indices 1 2 3 4 5 6 
#
# 1 122.1164 41.5962 42.5170 0.0000 0.0000 0.0000
# 2 41.5962 116.7651 27.2293 0.0000 0.0000 0.0000
# 3 42.5170 27.2293 74.2961 0.0000 0.0000 0.0000
# 4 0.0000 0.0000 0.0000 25.7274 0.0000 0.0000
# 5 0.0000 0.0000 0.0000 0.0000 22.7092 0.0000
# 6 0.0000 0.0000 0.0000 0.0000 0.0000 28.1072
#
#
#
# Elastic Compliance Matrix: (Units=1/GPa)
#
#
# Indices 1 2 3 4 5 6 
#
# 1 0.010935 -0.002664 -0.005281 0.000000 0.000000 0.000000
# 2 -0.002664 0.010014 -0.002145 0.000000 0.000000 0.000000
# 3 -0.005281 -0.002145 0.017268 0.000000 0.000000 0.000000
# 4 0.000000 0.000000 0.000000 0.038869 0.000000 0.000000
# 5 0.000000 0.000000 0.000000 0.000000 0.044035 0.000000
# 6 0.000000 0.000000 0.000000 0.000000 0.000000 0.035578
#
#
# Mechanical properties :
#
#
# Convention : Reuss Voigt Hill
#
# Bulk Modulus (GPa) = 55.44676 59.54030 57.49353
# Shear Modulus (GPa) = 27.33843 28.76442 28.05142
#
# Velocity S-wave (km/s) = 3.59654 3.68915 3.64314
# Velocity P-wave (km/s) = 6.59403 6.80571 6.70071
#
# Compressibility (1/GPa) = 0.01803532
#
# Stress axis : x y z
#
# Youngs Moduli (GPa) = 91.44822 99.86512 57.90935
#
# Poissons Ratio (x) = 0.26603 0.30585
# Poissons Ratio (y) = 0.24361 0.12424
# Poissons Ratio (z) = 0.48298 0.21426
#
# Static dielectric constant tensor:
#      x y z
#    x 3.690090 0.000000 0.000000 
#    y 0.000000 3.862380 0.000000 
#    z 0.000000 0.000000 3.712400 
# 
# 
# High freq. dielectric constant tensor:
#      x y z
#    x 1.819090 0.000000 0.000000 
#    y 0.000000 1.835200 0.000000 
#    z 0.000000 0.000000 1.812410 
# 
# From -- ./inp_files/10362.got.cif
#   From: 2010.06.25/outbox.cif.g09.slc.cpg/sg52_6_cif.got.tgz:10362.got - 2010.06.26 19:32:48.
