data_PCOD8215935
_publ_section_title
;
Structure prediction by ZEFSAII (Michael W. Deem and Ramdas Pophale) SiO2 
 PCOD8215935
Probable space group: P N N A
;
_chemical_formula_sum "Si O2"
_cell_formula_units_Z 48
_cell_length_a 14.700470
_cell_length_b 21.123492
_cell_length_c 7.517447
_cell_angle_alpha 90.000000
_cell_angle_beta 90.000000
_cell_angle_gamma 90.000000
_cell_volume 2334.357188
_symmetry_space_group_name_H-M "P N N A"
_symmetry_group_IT_number 52
_symmetry_cell_setting 'orthorhombic'
loop_
_space_group_symop_operation_xyz
x,y,z
1/2-x,-y,z
x,1/2-y,1/2-z
1/2-x,1/2+y,1/2-z
-x,-y,-z
1/2+x,y,-z
-x,1/2+y,1/2+z
1/2+x,1/2-y,1/2+z
loop_
_atom_site_type_symbol
_atom_site_label
_atom_site_fract_x
_atom_site_fract_y
_atom_site_fract_z
Si Si1 0.790258 0.813358 0.552104
Si Si2 0.107749 0.612436 0.099267
Si Si3 0.356134 0.013097 0.696250
Si Si4 0.081666 0.126277 0.723664
Si Si5 0.673608 0.168852 0.941558
Si Si6 0.811161 0.059048 0.938437
O O1 0.686174 0.836063 0.568710
O O2 0.833509 0.844067 0.379347
O O3 0.847580 0.834582 0.729020
O O4 0.788408 0.738632 0.521222
O O5 0.121772 0.572691 0.278239
O O6 0.012285 0.649068 0.131266
O O7 0.100865 0.562210 0.941006
O O8 0.250000 0.000000 0.653092
O O9 0.413525 0.948945 0.699337
O O10 0.370281 0.042982 0.889782
O O11 0.088182 0.150927 0.929839
O O12 0.750785 0.119031 0.992304
O O13 0.750000 0.000000 0.878858
#
# Coordination Sequence:
#
# PCOD8215935 Si02
#       6
#     8   8   8   8   8   8
#     4  10  23  43  64  85 130 166 205 266 316 370
#     4  11  24  38  64  98 121 168 215 260 312 379
#     4  11  20  38  62  91 133 166 209 258 322 377
#     4  12  23  39  65  95 125 169 213 261 316 382
#     4  10  21  42  63  87 120 165 208 254 318 376
#     4  10  20  39  65  86 123 172 205 256 320 374
#
# _framework density 20.562404000000001
#
# number of rings (size 3 to 8) (size 9 to 14) (size 15 to 20)
#    0.000    1.333    5.000    1.500    2.333    2.000 
#   12.000    0.000    3.667    0.000    0.000    0.000 
#    0.000    0.000    0.000    0.000    0.000    0.000 
#
# Total GULP energy -595143.223010 kJ/mol
# GULP energy per Si atom -12398.817146 kJ/mol
# Density = 2.051560 g / cm^3
# Si number density = 20.562404 Si / 1000 Ang^3
#
#
#
# Elastic Constant Matrix: (Units=GPa)
#
#
# Indices 1 2 3 4 5 6 
#
# 1 88.0426 17.8857 16.7172 0.0000 0.0000 0.0000
# 2 17.8857 110.7685 15.7807 0.0000 0.0000 0.0000
# 3 16.7172 15.7807 49.8601 0.0000 0.0000 0.0000
# 4 0.0000 0.0000 0.0000 27.0192 0.0000 0.0000
# 5 0.0000 0.0000 0.0000 0.0000 61.9631 0.0000
# 6 0.0000 0.0000 0.0000 0.0000 0.0000 13.4564
#
#
#
# Elastic Compliance Matrix: (Units=1/GPa)
#
#
# Indices 1 2 3 4 5 6 
#
# 1 0.012355 -0.001471 -0.003677 0.000000 0.000000 0.000000
# 2 -0.001471 0.009629 -0.002554 0.000000 0.000000 0.000000
# 3 -0.003677 -0.002554 0.022097 0.000000 0.000000 0.000000
# 4 0.000000 0.000000 0.000000 0.037011 0.000000 0.000000
# 5 0.000000 0.000000 0.000000 0.000000 0.016139 0.000000
# 6 0.000000 0.000000 0.000000 0.000000 0.000000 0.074314
#
#
# Mechanical properties :
#
#
# Convention : Reuss Voigt Hill
#
# Bulk Modulus (GPa) = 34.87115 38.82648 36.84882
# Shear Modulus (GPa) = 25.44410 33.70691 29.57551
#
# Velocity S-wave (km/s) = 3.52150 4.05316 3.79665
# Velocity P-wave (km/s) = 5.79052 6.38963 6.09744
#
# Compressibility (1/GPa) = 0.02867700
#
# Stress axis : x y z
#
# Youngs Moduli (GPa) = 80.93801 103.84967 45.25425
#
# Poissons Ratio (x) = 0.15278 0.16639
# Poissons Ratio (y) = 0.11907 0.11560
# Poissons Ratio (z) = 0.29760 0.26528
#
# Static dielectric constant tensor:
#      x y z
#    x 0.532770 0.000000 0.000000 
#    y 0.000000 3.584980 0.000000 
#    z 0.000000 0.000000 4.047060 
# 
# 
# High freq. dielectric constant tensor:
#      x y z
#    x 1.773860 0.000000 0.000000 
#    y 0.000000 1.810880 0.000000 
#    z 0.000000 0.000000 1.822820 
# 
# From -- ./inp_files/10659.got.cif
#   From: 2010.06.25/outbox.cif.g09.slc.cpg/sg52_6_cif.got.tgz:10659.got - 2010.06.26 19:32:48.
