data_PCOD8215739
_publ_section_title
;
Structure prediction by ZEFSAII (Michael W. Deem and Ramdas Pophale) SiO2 
 PCOD8215739
Probable space group: P N N A
;
_chemical_formula_sum "Si O2"
_cell_formula_units_Z 60
_cell_length_a 17.151747
_cell_length_b 14.994709
_cell_length_c 12.310092
_cell_angle_alpha 90.000000
_cell_angle_beta 90.000000
_cell_angle_gamma 90.000000
_cell_volume 3165.976613
_symmetry_space_group_name_H-M "P N N A"
_symmetry_group_IT_number 52
_symmetry_cell_setting 'orthorhombic'
loop_
_space_group_symop_operation_xyz
x,y,z
1/2-x,-y,z
x,1/2-y,1/2-z
1/2-x,1/2+y,1/2-z
-x,-y,-z
1/2+x,y,-z
-x,1/2+y,1/2+z
1/2+x,1/2-y,1/2+z
loop_
_atom_site_type_symbol
_atom_site_label
_atom_site_fract_x
_atom_site_fract_y
_atom_site_fract_z
Si Si1 0.087426 0.649643 0.561220
Si Si2 0.678784 0.780581 0.861296
Si Si3 0.301763 0.915417 0.229792
Si Si4 0.328457 0.250000 0.750000
Si Si5 0.811128 0.827976 0.556567
Si Si6 0.904548 0.846724 0.937909
Si Si7 0.715593 0.094413 0.333025
Si Si8 0.838007 0.967446 0.116988
O O1 0.122893 0.665046 0.441083
O O2 0.118209 0.721588 0.648057
O O3 0.104172 0.549557 0.599660
O O4 0.995963 0.658476 0.547009
O O5 0.632998 0.750000 0.750000
O O6 0.752041 0.833592 0.814404
O O7 0.720235 0.702487 0.931940
O O8 0.323678 0.907337 0.356509
O O9 0.382546 0.913157 0.161910
O O10 0.250000 0.000000 0.204179
O O11 0.278159 0.163759 0.716602
O O12 0.874632 0.752920 0.582395
O O13 0.827536 0.862883 0.435594
O O14 0.860151 0.884388 0.042735
O O15 0.653653 0.070792 0.238879
O O16 0.750000 0.000000 0.372226
O O17 0.750000 0.000000 0.093270
#
# Coordination Sequence:
#
# PCOD8215739 Si02
#       8
#     8   8   8   4   8   8   8   8
#     4  12  23  38  62  89 125 163 195 250 318 372
#     4   9  19  37  59  83 113 151 204 246 298 357
#     4  10  20  36  60  84 111 153 205 255 290 356
#     4  12  22  38  64  88 124 162 198 256 312 370
#     4  10  20  38  58  87 116 159 202 251 301 362
#     4  11  23  37  61  88 125 158 203 250 315 372
#     4  11  21  38  64  92 119 156 213 259 303 362
#     4  11  21  39  61  93 118 156 209 258 300 355
#
# _framework density 18.951498000000001
#
# number of rings (size 3 to 8) (size 9 to 14) (size 15 to 20)
#    0.000    1.333    4.000    5.600    1.867    0.000 
#    2.400    0.000    0.000    1.600    0.000    0.000 
#    0.000    0.000    0.000    0.000    0.000    0.000 
#
# Total GULP energy -743726.789770 kJ/mol
# GULP energy per Si atom -12395.446496 kJ/mol
# Density = 1.890836 g / cm^3
# Si number density = 18.951498 Si / 1000 Ang^3
#
#
#
# Elastic Constant Matrix: (Units=GPa)
#
#
# Indices 1 2 3 4 5 6 
#
# 1 82.8917 14.3774 43.0353 0.0000 0.0000 0.0000
# 2 14.3774 70.9860 25.7383 0.0000 0.0000 0.0000
# 3 43.0353 25.7383 146.6455 0.0000 0.0000 0.0000
# 4 0.0000 0.0000 0.0000 36.8316 0.0000 0.0000
# 5 0.0000 0.0000 0.0000 0.0000 7.1279 0.0000
# 6 0.0000 0.0000 0.0000 0.0000 0.0000 19.9149
#
#
#
# Elastic Compliance Matrix: (Units=1/GPa)
#
#
# Indices 1 2 3 4 5 6 
#
# 1 0.014376 -0.001476 -0.003960 0.000000 0.000000 0.000000
# 2 -0.001476 0.015196 -0.002234 0.000000 0.000000 0.000000
# 3 -0.003960 -0.002234 0.008373 0.000000 0.000000 0.000000
# 4 0.000000 0.000000 0.000000 0.027151 0.000000 0.000000
# 5 0.000000 0.000000 0.000000 0.000000 0.140293 0.000000
# 6 0.000000 0.000000 0.000000 0.000000 0.000000 0.050214
#
#
# Mechanical properties :
#
#
# Convention : Reuss Voigt Hill
#
# Bulk Modulus (GPa) = 44.23615 51.86946 48.05281
# Shear Modulus (GPa) = 17.95476 27.26635 22.61056
#
# Velocity S-wave (km/s) = 3.08134 3.79719 3.45784
# Velocity P-wave (km/s) = 6.00433 6.83037 6.43062
#
# Compressibility (1/GPa) = 0.02260595
#
# Stress axis : x y z
#
# Youngs Moduli (GPa) = 69.56176 65.80581 119.42707
#
# Poissons Ratio (x) = 0.09712 0.47290
# Poissons Ratio (y) = 0.10267 0.26680
# Poissons Ratio (z) = 0.27545 0.14701
#
# Static dielectric constant tensor:
#      x y z
#    x 3.172430 0.000000 0.000000 
#    y 0.000000 3.669280 0.000000 
#    z 0.000000 0.000000 3.849030 
# 
# 
# High freq. dielectric constant tensor:
#      x y z
#    x 1.697420 0.000000 0.000000 
#    y 0.000000 1.741610 0.000000 
#    z 0.000000 0.000000 1.756900 
# 
# From -- ./inp_files/20852.got.cif
#   From: 2010.06.25/outbox.cif.g09.slc.cpg/sg52_11_cif.got.tgz:20852.got - 2010.06.26 19:32:48.
