data_PCOD8215035
_publ_section_title
;
Structure prediction by ZEFSAII (Michael W. Deem and Ramdas Pophale) SiO2 
 PCOD8215035
Probable space group: P N N A
;
_chemical_formula_sum "Si O2"
_cell_formula_units_Z 48
_cell_length_a 8.745556
_cell_length_b 12.403396
_cell_length_c 21.724984
_cell_angle_alpha 90.000000
_cell_angle_beta 90.000000
_cell_angle_gamma 90.000000
_cell_volume 2356.608826
_symmetry_space_group_name_H-M "P N N A"
_symmetry_group_IT_number 52
_symmetry_cell_setting 'orthorhombic'
loop_
_space_group_symop_operation_xyz
x,y,z
1/2-x,-y,z
x,1/2-y,1/2-z
1/2-x,1/2+y,1/2-z
-x,-y,-z
1/2+x,y,-z
-x,1/2+y,1/2+z
1/2+x,1/2-y,1/2+z
loop_
_atom_site_type_symbol
_atom_site_label
_atom_site_fract_x
_atom_site_fract_y
_atom_site_fract_z
Si Si1 0.003296 0.857820 0.936237
Si Si2 0.750000 0.000000 0.735574
Si Si3 0.750000 0.000000 0.000281
Si Si4 0.885058 0.674314 0.694258
Si Si5 0.897886 0.948002 0.410517
Si Si6 0.851591 0.174423 0.642509
Si Si7 0.392138 0.868084 0.456999
O O1 0.001636 0.832445 0.862910
O O2 0.992441 0.740199 0.967648
O O3 0.862426 0.933835 0.955957
O O4 0.160339 0.915617 0.956004
O O5 0.624814 0.054586 0.779485
O O6 0.832013 0.087399 0.695009
O O7 0.947252 0.750000 0.750000
O O8 0.714470 0.713898 0.670574
O O9 0.840547 0.911730 0.477387
O O10 0.968682 0.842408 0.375165
O O11 0.750000 0.000000 0.376124
O O12 0.022554 0.042594 0.415923
O O13 0.763135 0.154873 0.579054
#
# Coordination Sequence:
#
# PCOD8215035 Si02
#       7
#     8   4   4   8   8   8   8
#     4  10  22  39  61  90 119 157 200 251 304 368
#     4  10  17  36  60  82 104 149 204 246 276 340
#     4  10  23  40  60  92 124 157 198 254 318 358
#     4   9  20  35  61  87 109 157 206 253 293 346
#     4  11  21  31  52  87 119 151 179 230 305 355
#     4  10  19  36  56  84 114 146 198 244 282 358
#     4  10  20  34  54  81 119 154 185 229 293 357
#
# _framework density 20.368251000000001
#
# number of rings (size 3 to 8) (size 9 to 14) (size 15 to 20)
#    0.000    2.000    1.667    2.500    7.000    0.000 
#    0.000    0.000    1.833    0.000    8.667    0.000 
#    0.000    0.000    0.000    0.000    0.000    0.000 
#
# Total GULP energy -594673.067064 kJ/mol
# GULP energy per Si atom -12389.022231 kJ/mol
# Density = 2.032189 g / cm^3
# Si number density = 20.368251 Si / 1000 Ang^3
#
#
#
# Elastic Constant Matrix: (Units=GPa)
#
#
# Indices 1 2 3 4 5 6 
#
# 1 70.9046 9.7957 26.4821 0.0000 0.0000 0.0000
# 2 9.7957 84.5936 18.6357 0.0000 0.0000 0.0000
# 3 26.4821 18.6357 83.7213 0.0000 0.0000 0.0000
# 4 0.0000 0.0000 0.0000 111.2736 0.0000 0.0000
# 5 0.0000 0.0000 0.0000 0.0000 3.1061 0.0000
# 6 0.0000 0.0000 0.0000 0.0000 0.0000 33.8451
#
#
#
# Elastic Compliance Matrix: (Units=1/GPa)
#
#
# Indices 1 2 3 4 5 6 
#
# 1 0.016041 -0.000778 -0.004901 0.000000 0.000000 0.000000
# 2 -0.000778 0.012469 -0.002529 0.000000 0.000000 0.000000
# 3 -0.004901 -0.002529 0.014058 0.000000 0.000000 0.000000
# 4 0.000000 0.000000 0.000000 0.008987 0.000000 0.000000
# 5 0.000000 0.000000 0.000000 0.000000 0.321949 0.000000
# 6 0.000000 0.000000 0.000000 0.000000 0.000000 0.029546
#
#
# Mechanical properties :
#
#
# Convention : Reuss Voigt Hill
#
# Bulk Modulus (GPa) = 38.23917 38.78294 38.51106
# Shear Modulus (GPa) = 11.67725 41.93203 26.80464
#
# Velocity S-wave (km/s) = 2.39698 4.54221 3.63161
# Velocity P-wave (km/s) = 5.14542 6.82577 6.04427
#
# Compressibility (1/GPa) = 0.02615119
#
# Stress axis : x y z
#
# Youngs Moduli (GPa) = 62.33887 80.20205 71.13574
#
# Poissons Ratio (x) = 0.06239 0.34863
# Poissons Ratio (y) = 0.04849 0.17993
# Poissons Ratio (z) = 0.30552 0.20286
#
# Static dielectric constant tensor:
#      x y z
#    x 3.625960 0.000000 0.000000 
#    y 0.000000 4.323590 0.000000 
#    z 0.000000 0.000000 3.828030 
# 
# 
# High freq. dielectric constant tensor:
#      x y z
#    x 1.757650 0.000000 0.000000 
#    y 0.000000 1.804920 0.000000 
#    z 0.000000 0.000000 1.794790 
# 
# From -- ./inp_files/39500.got.cif
#   From: 2010.06.25/outbox.cif.g09.slc.cpg/sg52_20_cif.got.tgz:39500.got - 2010.06.26 19:32:48.
