data_PCOD8215786
_publ_section_title
;
Structure prediction by ZEFSAII (Michael W. Deem and Ramdas Pophale) SiO2 
 PCOD8215786
Probable space group: P N N A
;
_chemical_formula_sum "Si O2"
_cell_formula_units_Z 48
_cell_length_a 14.459459
_cell_length_b 9.442642
_cell_length_c 18.192374
_cell_angle_alpha 90.000000
_cell_angle_beta 90.000000
_cell_angle_gamma 90.000000
_cell_volume 2483.904787
_symmetry_space_group_name_H-M "P N N A"
_symmetry_group_IT_number 52
_symmetry_cell_setting 'orthorhombic'
loop_
_space_group_symop_operation_xyz
x,y,z
1/2-x,-y,z
x,1/2-y,1/2-z
1/2-x,1/2+y,1/2-z
-x,-y,-z
1/2+x,y,-z
-x,1/2+y,1/2+z
1/2+x,1/2-y,1/2+z
loop_
_atom_site_type_symbol
_atom_site_label
_atom_site_fract_x
_atom_site_fract_y
_atom_site_fract_z
Si Si1 0.963341 0.591397 0.222694
Si Si2 0.620033 0.634177 0.963269
Si Si3 0.908837 0.866734 0.438777
Si Si4 0.328139 0.111427 0.297754
Si Si5 0.256636 0.154133 0.949895
Si Si6 0.825969 0.398260 0.288459
O O1 0.945588 0.750000 0.250000
O O2 0.913426 0.569916 0.143711
O O3 0.922998 0.479760 0.280792
O O4 0.070976 0.551911 0.221808
O O5 0.512803 0.679475 0.959064
O O6 0.671637 0.635966 0.885125
O O7 0.630247 0.483081 0.004171
O O8 0.669744 0.753648 0.008436
O O9 0.843097 0.729785 0.443545
O O10 0.306203 0.250000 0.250000
O O11 0.250000 0.000000 0.275562
O O12 0.301594 0.126407 0.871758
O O13 0.250000 0.000000 0.989302
O O14 0.750000 0.500000 0.249876
O O15 0.830672 0.250000 0.250000
#
# Coordination Sequence:
#
# PCOD8215786 Si02
#       6
#     8   8   8   8   8   8
#     4  10  20  37  58  83 116 151 187 231 284 339
#     4  10  22  40  61  83 110 153 198 235 278 336
#     4  10  20  38  62  83 112 154 196 234 276 337
#     4  10  22  40  62  83 109 147 192 242 289 336
#     4  11  22  34  54  86 119 148 182 233 290 339
#     4  11  21  33  53  82 115 150 184 225 280 341
#
# _framework density 19.324411999999999
#
# number of rings (size 3 to 8) (size 9 to 14) (size 15 to 20)
#    0.000    1.667    0.000    6.000    0.000    2.000 
#    0.000    1.667    0.000    0.000    0.000    0.000 
#    0.000    0.000    0.000    0.000    0.000    0.000 
#
# Total GULP energy -595133.589676 kJ/mol
# GULP energy per Si atom -12398.616452 kJ/mol
# Density = 1.928043 g / cm^3
# Si number density = 19.324412 Si / 1000 Ang^3
#
#
#
# Elastic Constant Matrix: (Units=GPa)
#
#
# Indices 1 2 3 4 5 6 
#
# 1 117.2914 86.6659 55.7041 0.0000 0.0000 0.0000
# 2 86.6659 144.2506 57.9306 0.0000 0.0000 0.0000
# 3 55.7041 57.9306 90.8272 0.0000 0.0000 0.0000
# 4 0.0000 0.0000 0.0000 36.9550 0.0000 0.0000
# 5 0.0000 0.0000 0.0000 0.0000 25.8135 0.0000
# 6 0.0000 0.0000 0.0000 0.0000 0.0000 63.6418
#
#
#
# Elastic Compliance Matrix: (Units=1/GPa)
#
#
# Indices 1 2 3 4 5 6 
#
# 1 0.017019 -0.008111 -0.005265 0.000000 0.000000 0.000000
# 2 -0.008111 0.013185 -0.003435 0.000000 0.000000 0.000000
# 3 -0.005265 -0.003435 0.016430 0.000000 0.000000 0.000000
# 4 0.000000 0.000000 0.000000 0.027060 0.000000 0.000000
# 5 0.000000 0.000000 0.000000 0.000000 0.038739 0.000000
# 6 0.000000 0.000000 0.000000 0.000000 0.000000 0.015713
#
#
# Mechanical properties :
#
#
# Convention : Reuss Voigt Hill
#
# Bulk Modulus (GPa) = 76.84894 83.66336 80.25615
# Shear Modulus (GPa) = 30.10153 35.41998 32.76075
#
# Velocity S-wave (km/s) = 3.95105 4.28590 4.12187
# Velocity P-wave (km/s) = 7.78900 8.23893 8.01712
#
# Compressibility (1/GPa) = 0.01301254
#
# Stress axis : x y z
#
# Youngs Moduli (GPa) = 58.75757 75.84423 60.86567
#
# Poissons Ratio (x) = 0.61516 0.32043
# Poissons Ratio (y) = 0.47657 0.20908
# Poissons Ratio (z) = 0.30933 0.26053
#
# Static dielectric constant tensor:
#      x y z
#    x 3.618050 0.000000 0.000000 
#    y 0.000000 4.173600 0.000000 
#    z 0.000000 0.000000 3.585850 
# 
# 
# High freq. dielectric constant tensor:
#      x y z
#    x 1.764330 0.000000 0.000000 
#    y 0.000000 1.751920 0.000000 
#    z 0.000000 0.000000 1.753670 
# 
# From -- ./inp_files/33044.got.cif
#   From: 2010.06.25/outbox.cif.g09.slc.cpg/sg52_17_cif.got.tgz:33044.got - 2010.06.26 19:32:48.
