data_PCOD8215391
_publ_section_title
;
Structure prediction by ZEFSAII (Michael W. Deem and Ramdas Pophale) SiO2 
 PCOD8215391
Probable space group: P N N A
;
_chemical_formula_sum "Si O2"
_cell_formula_units_Z 60
_cell_length_a 12.835736
_cell_length_b 11.677886
_cell_length_c 23.896768
_cell_angle_alpha 90.000000
_cell_angle_beta 90.000000
_cell_angle_gamma 90.000000
_cell_volume 3581.988397
_symmetry_space_group_name_H-M "P N N A"
_symmetry_group_IT_number 52
_symmetry_cell_setting 'orthorhombic'
loop_
_space_group_symop_operation_xyz
x,y,z
1/2-x,-y,z
x,1/2-y,1/2-z
1/2-x,1/2+y,1/2-z
-x,-y,-z
1/2+x,y,-z
-x,1/2+y,1/2+z
1/2+x,1/2-y,1/2+z
loop_
_atom_site_type_symbol
_atom_site_label
_atom_site_fract_x
_atom_site_fract_y
_atom_site_fract_z
Si Si1 0.815448 0.775561 0.636582
Si Si2 0.050284 0.250000 0.750000
Si Si3 0.633125 0.041412 0.314027
Si Si4 0.526971 0.387515 0.074350
Si Si5 0.634994 0.032376 0.831739
Si Si6 0.356224 0.564172 0.036704
Si Si7 0.417031 0.293457 0.359230
Si Si8 0.466191 0.871056 0.273671
O O1 0.867679 0.649881 0.633242
O O2 0.829851 0.830467 0.576345
O O3 0.693935 0.766882 0.650940
O O4 0.869049 0.851788 0.684601
O O5 0.120536 0.140658 0.732793
O O6 0.978743 0.278309 0.697741
O O7 0.605975 0.084684 0.375826
O O8 0.750000 0.000000 0.311997
O O9 0.561315 0.931111 0.304257
O O10 0.435795 0.480845 0.068552
O O11 0.474214 0.264742 0.087888
O O12 0.592945 0.379835 0.017959
O O13 0.568316 0.044192 0.775562
O O14 0.750000 0.000000 0.811542
O O15 0.591578 0.929718 0.870921
O O16 0.250000 0.500000 0.019869
O O17 0.505922 0.750000 0.250000
#
# Coordination Sequence:
#
# PCOD8215391 Si02
#       8
#     8   4   8   8   8   8   8   8
#     4  10  20  32  54  83 111 144 177 217 280 335
#     4  10  22  34  54  82 112 142 182 216 276 324
#     4  11  22  37  53  76 108 151 184 222 261 322
#     4  10  22  35  54  78 105 136 185 230 275 320
#     4   9  19  31  52  79 113 141 171 214 274 333
#     4  11  20  36  55  78 104 138 180 235 283 324
#     4  10  19  35  53  82 111 144 172 225 275 333
#     4  10  20  33  50  79 113 145 178 214 265 330
#
# _framework density 16.750471999999998
#
# number of rings (size 3 to 8) (size 9 to 14) (size 15 to 20)
#    0.000    1.867    4.000    0.400    5.600    0.533 
#    0.000    0.667    0.000    0.000    0.000    0.933 
#    0.000    0.000    0.000    0.000    0.000    0.000 
#
# Total GULP energy -743924.418328 kJ/mol
# GULP energy per Si atom -12398.740305 kJ/mol
# Density = 1.671235 g / cm^3
# Si number density = 16.750472 Si / 1000 Ang^3
#
#
#
# Elastic Constant Matrix: (Units=GPa)
#
#
# Indices 1 2 3 4 5 6 
#
# 1 110.0713 57.3374 45.0070 0.0000 0.0000 0.0000
# 2 57.3374 109.6314 55.6407 0.0000 0.0000 0.0000
# 3 45.0070 55.6407 89.6111 0.0000 0.0000 0.0000
# 4 0.0000 0.0000 0.0000 26.8480 0.0000 0.0000
# 5 0.0000 0.0000 0.0000 0.0000 15.9695 0.0000
# 6 0.0000 0.0000 0.0000 0.0000 0.0000 27.4787
#
#
#
# Elastic Compliance Matrix: (Units=1/GPa)
#
#
# Indices 1 2 3 4 5 6 
#
# 1 0.013165 -0.005153 -0.003412 0.000000 0.000000 0.000000
# 2 -0.005153 0.015336 -0.006934 0.000000 0.000000 0.000000
# 3 -0.003412 -0.006934 0.017178 0.000000 0.000000 0.000000
# 4 0.000000 0.000000 0.000000 0.037247 0.000000 0.000000
# 5 0.000000 0.000000 0.000000 0.000000 0.062619 0.000000
# 6 0.000000 0.000000 0.000000 0.000000 0.000000 0.036392
#
#
# Mechanical properties :
#
#
# Convention : Reuss Voigt Hill
#
# Bulk Modulus (GPa) = 68.11973 69.47599 68.79786
# Shear Modulus (GPa) = 22.95376 24.14781 23.55079
#
# Velocity S-wave (km/s) = 3.70582 3.80099 3.75370
# Velocity P-wave (km/s) = 7.68547 7.79938 7.74264
#
# Compressibility (1/GPa) = 0.01468003
#
# Stress axis : x y z
#
# Youngs Moduli (GPa) = 75.96088 65.20660 58.21249
#
# Poissons Ratio (x) = 0.33604 0.19863
# Poissons Ratio (y) = 0.39146 0.40364
# Poissons Ratio (z) = 0.25919 0.45214
#
# Static dielectric constant tensor:
#      x y z
#    x 3.108910 0.000000 0.000000 
#    y 0.000000 3.467430 0.000000 
#    z 0.000000 0.000000 3.025020 
# 
# 
# High freq. dielectric constant tensor:
#      x y z
#    x 1.643540 0.000000 0.000000 
#    y 0.000000 1.654400 0.000000 
#    z 0.000000 0.000000 1.632050 
# 
# From -- ./inp_files/36876.got.cif
#   From: 2010.06.25/outbox.cif.g09.slc.cpg/sg52_19_cif.got.tgz:36876.got - 2010.06.26 19:32:48.
