data_PCOD8215137
_publ_section_title
;
Structure prediction by ZEFSAII (Michael W. Deem and Ramdas Pophale) SiO2 
 PCOD8215137
Probable space group: P N N A
;
_chemical_formula_sum "Si O2"
_cell_formula_units_Z 48
_cell_length_a 22.824045
_cell_length_b 13.015469
_cell_length_c 8.573104
_cell_angle_alpha 90.000000
_cell_angle_beta 90.000000
_cell_angle_gamma 90.000000
_cell_volume 2546.774714
_symmetry_space_group_name_H-M "P N N A"
_symmetry_group_IT_number 52
_symmetry_cell_setting 'orthorhombic'
loop_
_space_group_symop_operation_xyz
x,y,z
1/2-x,-y,z
x,1/2-y,1/2-z
1/2-x,1/2+y,1/2-z
-x,-y,-z
1/2+x,y,-z
-x,1/2+y,1/2+z
1/2+x,1/2-y,1/2+z
loop_
_atom_site_type_symbol
_atom_site_label
_atom_site_fract_x
_atom_site_fract_y
_atom_site_fract_z
Si Si1 0.003518 0.250000 0.750000
Si Si2 0.250000 0.000000 0.260707
Si Si3 0.432037 0.108130 0.021186
Si Si4 0.187764 0.681746 0.400252
Si Si5 0.077304 0.307057 0.018200
Si Si6 0.959560 0.598916 0.673519
Si Si7 0.296283 0.693312 0.088630
O O1 0.043875 0.175052 0.644260
O O2 0.964653 0.180406 0.858402
O O3 0.208354 0.931281 0.151580
O O4 0.284864 0.925590 0.376272
O O5 0.368436 0.160585 0.988254
O O6 0.425419 0.998798 0.105539
O O7 0.469905 0.095264 0.861733
O O8 0.169408 0.750000 0.250000
O O9 0.240412 0.754672 0.012623
O O10 0.053732 0.391750 0.142104
O O11 0.066285 0.194477 0.082936
O O12 0.146658 0.310518 0.979948
O O13 0.312363 0.750000 0.250000
#
# Coordination Sequence:
#
# PCOD8215137 Si02
#       7
#     4   4   8   8   8   8   8
#     4  10  22  32  52  72 104 130 172 210 266 286
#     4   8  16  26  44  74  98 130 160 208 252 282
#     4  10  18  33  47  80 103 134 162 218 253 313
#     4   9  17  26  45  74 104 128 164 209 247 300
#     4  10  18  35  50  76  96 136 171 214 242 322
#     4   9  19  30  54  69 107 132 169 202 260 300
#     4   9  16  28  48  75  96 129 167 204 250 298
#
# _framework density 18.847367999999999
#
# number of rings (size 3 to 8) (size 9 to 14) (size 15 to 20)
#    0.000    3.000    2.500    1.000    2.333    0.667 
#    0.000    0.000    0.000    4.000    8.667    0.000 
#    0.000    0.000    0.000    0.000    0.000    0.000 
#
# Total GULP energy -594639.827278 kJ/mol
# GULP energy per Si atom -12388.329735 kJ/mol
# Density = 1.880447 g / cm^3
# Si number density = 18.847368 Si / 1000 Ang^3
#
#
#
# Elastic Constant Matrix: (Units=GPa)
#
#
# Indices 1 2 3 4 5 6 
#
# 1 145.9823 30.2978 32.4427 0.0000 0.0000 0.0000
# 2 30.2978 93.4544 5.4507 0.0000 0.0000 0.0000
# 3 32.4427 5.4507 45.0553 0.0000 0.0000 0.0000
# 4 0.0000 0.0000 0.0000 14.7390 0.0000 0.0000
# 5 0.0000 0.0000 0.0000 0.0000 -5.9236 0.0000
# 6 0.0000 0.0000 0.0000 0.0000 0.0000 20.7533
#
#
#
# Elastic Compliance Matrix: (Units=1/GPa)
#
#
# Indices 1 2 3 4 5 6 
#
# 1 0.008686 -0.002469 -0.005956 0.000000 0.000000 0.000000
# 2 -0.002469 0.011478 0.000389 0.000000 0.000000 0.000000
# 3 -0.005956 0.000389 0.026437 0.000000 0.000000 0.000000
# 4 0.000000 0.000000 0.000000 0.067847 0.000000 0.000000
# 5 0.000000 0.000000 0.000000 0.000000 -0.168815 0.000000
# 6 0.000000 0.000000 0.000000 0.000000 0.000000 0.048185
#
#
# Mechanical properties :
#
#
# Convention : Reuss Voigt Hill
#
# Bulk Modulus (GPa) = 32.75517 46.76383 39.75950
# Shear Modulus (GPa) = 249.18777 20.33379 134.76078
#
# Velocity S-wave (km/s) = 11.51089 3.28817 8.46501
# Velocity P-wave (km/s) = 13.93142 6.26752 10.80199
#
# Compressibility (1/GPa) = 0.03052953
#
# Stress axis : x y z
#
# Youngs Moduli (GPa) = 115.12612 87.12280 37.82649
#
# Poissons Ratio (x) = 0.21508 0.22529
# Poissons Ratio (y) = 0.28421 -0.01471
# Poissons Ratio (z) = 0.68568 -0.03389
#
# Static dielectric constant tensor:
#      x y z
#    x 3.808760 0.000000 0.000000 
#    y 0.000000 4.110800 0.000000 
#    z 0.000000 0.000000 3.234300 
# 
# 
# High freq. dielectric constant tensor:
#      x y z
#    x 1.744750 0.000000 0.000000 
#    y 0.000000 1.740770 0.000000 
#    z 0.000000 0.000000 1.669170 
# 
# From -- ./inp_files/14390.got.cif
#   From: 2010.06.25/outbox.cif.g09.slc.cpg/sg52_8_cif.got.tgz:14390.got - 2010.06.26 19:32:48.
