data_PCOD8215792
_publ_section_title
;
Structure prediction by ZEFSAII (Michael W. Deem and Ramdas Pophale) SiO2 
 PCOD8215792
Probable space group: P N N A
;
_chemical_formula_sum "Si O2"
_cell_formula_units_Z 44
_cell_length_a 9.110273
_cell_length_b 26.105405
_cell_length_c 9.121826
_cell_angle_alpha 90.000000
_cell_angle_beta 90.000000
_cell_angle_gamma 90.000000
_cell_volume 2169.419854
_symmetry_space_group_name_H-M "P N N A"
_symmetry_group_IT_number 52
_symmetry_cell_setting 'orthorhombic'
loop_
_space_group_symop_operation_xyz
x,y,z
1/2-x,-y,z
x,1/2-y,1/2-z
1/2-x,1/2+y,1/2-z
-x,-y,-z
1/2+x,y,-z
-x,1/2+y,1/2+z
1/2+x,1/2-y,1/2+z
loop_
_atom_site_type_symbol
_atom_site_label
_atom_site_fract_x
_atom_site_fract_y
_atom_site_fract_z
Si Si1 0.823409 0.288067 0.936739
Si Si2 0.001327 0.929729 0.414982
Si Si3 0.823736 0.677239 0.569130
Si Si4 0.536357 0.846251 0.815316
Si Si5 0.460531 0.840161 0.371720
Si Si6 0.750000 0.000000 0.506602
O O1 0.745140 0.233863 0.920923
O O2 0.925256 0.299774 0.795255
O O3 0.697886 0.331153 0.945153
O O4 0.924151 0.295444 0.080911
O O5 0.983938 0.895568 0.271811
O O6 0.009345 0.895860 0.565919
O O7 0.863580 0.967868 0.408218
O O8 0.152947 0.961157 0.396298
O O9 0.681900 0.640302 0.588025
O O10 0.943341 0.664495 0.695955
O O11 0.900369 0.671215 0.414009
#
# Coordination Sequence:
#
# PCOD8215792 Si02
#       6
#     8   8   8   8   8   4
#     4  10  21  37  54  83 119 160 200 231 267 330
#     4  10  21  39  63  91 112 149 192 250 298 354
#     4  11  22  37  57  85 122 162 194 237 283 336
#     4  10  22  38  57  84 121 152 196 239 288 341
#     4  10  20  37  59  83 119 151 194 238 283 335
#     4  10  20  38  68  90 112 142 198 244 304 366
#
# _framework density 20.281921000000001
#
# number of rings (size 3 to 8) (size 9 to 14) (size 15 to 20)
#    0.000    1.818    0.000    6.545    0.000    5.818 
#    0.000    7.273    0.000   18.545    0.000    0.000 
#    0.000    0.000    0.000    0.000    0.000    0.000 
#
# Total GULP energy -545264.362665 kJ/mol
# GULP energy per Si atom -12392.371879 kJ/mol
# Density = 2.023576 g / cm^3
# Si number density = 20.281921 Si / 1000 Ang^3
#
#
#
# Elastic Constant Matrix: (Units=GPa)
#
#
# Indices 1 2 3 4 5 6 
#
# 1 87.7252 40.5079 43.1599 0.0000 0.0000 0.0000
# 2 40.5079 106.5587 58.8324 0.0000 0.0000 0.0000
# 3 43.1599 58.8324 70.7945 0.0000 0.0000 0.0000
# 4 0.0000 0.0000 0.0000 11.1181 0.0000 0.0000
# 5 0.0000 0.0000 0.0000 0.0000 44.3901 0.0000
# 6 0.0000 0.0000 0.0000 0.0000 0.0000 33.7476
#
#
#
# Elastic Compliance Matrix: (Units=1/GPa)
#
#
# Indices 1 2 3 4 5 6 
#
# 1 0.016383 -0.001318 -0.008892 0.000000 0.000000 0.000000
# 2 -0.001318 0.017447 -0.013695 0.000000 0.000000 0.000000
# 3 -0.008892 -0.013695 0.030928 0.000000 0.000000 0.000000
# 4 0.000000 0.000000 0.000000 0.089944 0.000000 0.000000
# 5 0.000000 0.000000 0.000000 0.000000 0.022528 0.000000
# 6 0.000000 0.000000 0.000000 0.000000 0.000000 0.029632
#
#
# Mechanical properties :
#
#
# Convention : Reuss Voigt Hill
#
# Bulk Modulus (GPa) = 59.01131 61.11987 60.06559
# Shear Modulus (GPa) = 19.20705 26.02302 22.61503
#
# Velocity S-wave (km/s) = 3.08068 3.58588 3.34284
# Velocity P-wave (km/s) = 6.46628 6.88079 6.67675
#
# Compressibility (1/GPa) = 0.01694590
#
# Stress axis : x y z
#
# Youngs Moduli (GPa) = 61.03924 57.31641 32.33343
#
# Poissons Ratio (x) = 0.07557 0.28752
# Poissons Ratio (y) = 0.08047 0.44281
# Poissons Ratio (z) = 0.54278 0.78496
#
# Static dielectric constant tensor:
#      x y z
#    x 4.155070 0.000000 0.000000 
#    y 0.000000 3.663500 0.000000 
#    z 0.000000 0.000000 3.520980 
# 
# 
# High freq. dielectric constant tensor:
#      x y z
#    x 1.816010 0.000000 0.000000 
#    y 0.000000 1.777030 0.000000 
#    z 0.000000 0.000000 1.767370 
# 
# From -- ./inp_files/7644.got.cif
#   From: 2010.06.25/outbox.cif.g09.slc.cpg/sg52_4_cif.got.tgz:7644.got - 2010.06.26 19:32:48.
