data_PCOD8215983
_publ_section_title
;
Structure prediction by ZEFSAII (Michael W. Deem and Ramdas Pophale) SiO2 
 PCOD8215983
Probable space group: P N N A
;
_chemical_formula_sum "Si O2"
_cell_formula_units_Z 40
_cell_length_a 22.324469
_cell_length_b 13.848930
_cell_length_c 5.884026
_cell_angle_alpha 90.000000
_cell_angle_beta 90.000000
_cell_angle_gamma 90.000000
_cell_volume 1819.164368
_symmetry_space_group_name_H-M "P N N A"
_symmetry_group_IT_number 52
_symmetry_cell_setting 'orthorhombic'
loop_
_space_group_symop_operation_xyz
x,y,z
1/2-x,-y,z
x,1/2-y,1/2-z
1/2-x,1/2+y,1/2-z
-x,-y,-z
1/2+x,y,-z
-x,1/2+y,1/2+z
1/2+x,1/2-y,1/2+z
loop_
_atom_site_type_symbol
_atom_site_label
_atom_site_fract_x
_atom_site_fract_y
_atom_site_fract_z
Si Si1 0.844152 0.492268 0.410112
Si Si2 0.766647 0.350662 0.115225
Si Si3 0.430040 0.513396 0.969326
Si Si4 0.128994 0.850802 0.294637
Si Si5 0.839383 0.863286 0.706796
O O1 0.792794 0.441054 0.257749
O O2 0.871302 0.408872 0.563516
O O3 0.815858 0.579335 0.566440
O O4 0.901904 0.537634 0.277498
O O5 0.761418 0.250000 0.250000
O O6 0.804592 0.329467 0.888910
O O7 0.701977 0.384121 0.015543
O O8 0.406117 0.405985 0.011007
O O9 0.404764 0.592410 0.148428
O O10 0.500000 0.500000 0.000000
O O11 0.095557 0.750000 0.250000
O O12 0.844040 0.750000 0.750000
#
# Coordination Sequence:
#
# PCOD8215983 Si02
#       5
#     8   8   8   8   8
#     4  10  24  45  70  94 146 179 227 289 344 417
#     4  11  23  41  68 101 143 182 228 283 348 427
#     4  10  25  47  67  98 131 183 238 286 351 412
#     4  10  20  40  67 103 131 176 230 280 354 410
#     4  11  27  45  65 105 143 182 231 284 362 419
#
# _framework density 21.988118
#
# number of rings (size 3 to 8) (size 9 to 14) (size 15 to 20)
#    0.000    1.600    2.000    0.600    2.800   12.000 
#    7.200    0.000    0.000    0.000    0.000    0.000 
#    0.000    0.000    0.000    0.000    0.000    0.000 
#
# Total GULP energy -495676.351922 kJ/mol
# GULP energy per Si atom -12391.908798 kJ/mol
# Density = 2.193807 g / cm^3
# Si number density = 21.988118 Si / 1000 Ang^3
#
#
#
# Elastic Constant Matrix: (Units=GPa)
#
#
# Indices 1 2 3 4 5 6 
#
# 1 133.8037 44.9169 47.7363 0.0000 0.0000 0.0000
# 2 44.9169 169.1089 54.8291 0.0000 0.0000 0.0000
# 3 47.7363 54.8291 115.2613 0.0000 0.0000 0.0000
# 4 0.0000 0.0000 0.0000 43.1631 0.0000 0.0000
# 5 0.0000 0.0000 0.0000 0.0000 23.4978 0.0000
# 6 0.0000 0.0000 0.0000 0.0000 0.0000 15.0306
#
#
#
# Elastic Compliance Matrix: (Units=1/GPa)
#
#
# Indices 1 2 3 4 5 6 
#
# 1 0.009043 -0.001404 -0.003077 0.000000 0.000000 0.000000
# 2 -0.001404 0.007210 -0.002848 0.000000 0.000000 0.000000
# 3 -0.003077 -0.002848 0.011305 0.000000 0.000000 0.000000
# 4 0.000000 0.000000 0.000000 0.023168 0.000000 0.000000
# 5 0.000000 0.000000 0.000000 0.000000 0.042557 0.000000
# 6 0.000000 0.000000 0.000000 0.000000 0.000000 0.066531
#
#
# Mechanical properties :
#
#
# Convention : Reuss Voigt Hill
#
# Bulk Modulus (GPa) = 77.52617 79.23762 78.38189
# Shear Modulus (GPa) = 27.96853 34.38441 31.17647
#
# Velocity S-wave (km/s) = 3.57036 3.95875 3.76956
# Velocity P-wave (km/s) = 7.23404 7.55052 7.39397
#
# Compressibility (1/GPa) = 0.01289887
#
# Stress axis : x y z
#
# Youngs Moduli (GPa) = 110.58486 138.70164 88.45492
#
# Poissons Ratio (x) = 0.19476 0.27219
# Poissons Ratio (y) = 0.15528 0.25193
# Poissons Ratio (z) = 0.34029 0.39503
#
# Static dielectric constant tensor:
#      x y z
#    x 3.829350 0.000000 0.000000 
#    y 0.000000 4.155970 0.000000 
#    z 0.000000 0.000000 4.542970 
# 
# 
# High freq. dielectric constant tensor:
#      x y z
#    x 1.827600 0.000000 0.000000 
#    y 0.000000 1.881670 0.000000 
#    z 0.000000 0.000000 1.883940 
# 
# From -- ./inp_files/5029.got.cif
#   From: 2010.06.25/outbox.cif.g09.slc.cpg/sg52_3_cif.got.tgz:5029.got - 2010.06.26 19:32:48.
