data_PCOD8215666
_publ_section_title
;
Structure prediction by ZEFSAII (Michael W. Deem and Ramdas Pophale) SiO2 
 PCOD8215666
Probable space group: P N N A
;
_chemical_formula_sum "Si O2"
_cell_formula_units_Z 60
_cell_length_a 8.035702
_cell_length_b 25.248948
_cell_length_c 15.101864
_cell_angle_alpha 90.000000
_cell_angle_beta 90.000000
_cell_angle_gamma 90.000000
_cell_volume 3064.062824
_symmetry_space_group_name_H-M "P N N A"
_symmetry_group_IT_number 52
_symmetry_cell_setting 'orthorhombic'
loop_
_space_group_symop_operation_xyz
x,y,z
1/2-x,-y,z
x,1/2-y,1/2-z
1/2-x,1/2+y,1/2-z
-x,-y,-z
1/2+x,y,-z
-x,1/2+y,1/2+z
1/2+x,1/2-y,1/2+z
loop_
_atom_site_type_symbol
_atom_site_label
_atom_site_fract_x
_atom_site_fract_y
_atom_site_fract_z
Si Si1 0.417400 0.968745 0.167999
Si Si2 0.767824 0.165965 0.377023
Si Si3 0.449276 0.209751 0.458106
Si Si4 0.731437 0.890911 0.946645
Si Si5 0.562867 0.750000 0.250000
Si Si6 0.653823 0.224548 0.912977
Si Si7 0.108603 0.065833 0.888333
Si Si8 0.698337 0.557298 0.211812
O O1 0.373273 0.917364 0.112562
O O2 0.507763 0.948737 0.256367
O O3 0.250000 0.000000 0.194363
O O4 0.545146 0.004688 0.109115
O O5 0.573487 0.177207 0.395206
O O6 0.790404 0.103894 0.358652
O O7 0.877126 0.172863 0.464664
O O8 0.826463 0.204754 0.297408
O O9 0.541325 0.258716 0.504312
O O10 0.300223 0.232416 0.397611
O O11 0.768865 0.829473 0.947662
O O12 0.547582 0.896356 0.907185
O O13 0.745335 0.919710 0.042365
O O14 0.449751 0.780143 0.177615
O O15 0.180178 0.075492 0.791069
O O16 0.750000 0.500000 0.171357
#
# Coordination Sequence:
#
# PCOD8215666 Si02
#       8
#     8   8   8   8   4   8   8   8
#     4   9  19  34  50  75 110 147 185 227 272 320
#     4  10  21  41  62  83 112 148 183 227 281 335
#     4   9  21  39  58  78 111 145 179 228 281 327
#     4  11  19  30  50  74 110 155 192 219 261 333
#     4  10  22  34  56  86 112 146 184 226 280 330
#     4  10  20  35  53  82 112 144 187 229 270 325
#     4  10  21  31  47  76 109 149 188 229 273 319
#     4  10  21  38  57  80 108 138 182 236 285 332
#
# _framework density 19.581842000000002
#
# number of rings (size 3 to 8) (size 9 to 14) (size 15 to 20)
#    0.000    2.133    0.000    2.800    0.000    9.600 
#    0.000    8.667    0.000    0.000    0.000    0.000 
#    0.000    0.000    0.000    0.000    0.000    0.000 
#
# Total GULP energy -743872.590382 kJ/mol
# GULP energy per Si atom -12397.876506 kJ/mol
# Density = 1.953727 g / cm^3
# Si number density = 19.581842 Si / 1000 Ang^3
#
#
#
# Elastic Constant Matrix: (Units=GPa)
#
#
# Indices 1 2 3 4 5 6 
#
# 1 98.5310 42.9158 41.0068 0.0000 0.0000 0.0000
# 2 42.9158 124.5018 49.6664 0.0000 0.0000 0.0000
# 3 41.0068 49.6664 66.0872 0.0000 0.0000 0.0000
# 4 0.0000 0.0000 0.0000 23.1007 0.0000 0.0000
# 5 0.0000 0.0000 0.0000 0.0000 24.0508 0.0000
# 6 0.0000 0.0000 0.0000 0.0000 0.0000 21.0657
#
#
#
# Elastic Compliance Matrix: (Units=1/GPa)
#
#
# Indices 1 2 3 4 5 6 
#
# 1 0.014004 -0.001943 -0.007229 0.000000 0.000000 0.000000
# 2 -0.001943 0.011741 -0.007618 0.000000 0.000000 0.000000
# 3 -0.007229 -0.007618 0.025342 0.000000 0.000000 0.000000
# 4 0.000000 0.000000 0.000000 0.043289 0.000000 0.000000
# 5 0.000000 0.000000 0.000000 0.000000 0.041579 0.000000
# 6 0.000000 0.000000 0.000000 0.000000 0.000000 0.047471
#
#
# Mechanical properties :
#
#
# Convention : Reuss Voigt Hill
#
# Bulk Modulus (GPa) = 57.12071 61.81089 59.46580
# Shear Modulus (GPa) = 22.43760 24.01217 23.22488
#
# Velocity S-wave (km/s) = 3.38869 3.50558 3.44763
# Velocity P-wave (km/s) = 6.67417 6.92960 6.80309
#
# Compressibility (1/GPa) = 0.01750679
#
# Stress axis : x y z
#
# Youngs Moduli (GPa) = 71.40752 85.17356 39.46037
#
# Poissons Ratio (x) = 0.16553 0.28526
# Poissons Ratio (y) = 0.13878 0.30059
# Poissons Ratio (z) = 0.51620 0.64882
#
# Static dielectric constant tensor:
#      x y z
#    x 3.988420 0.000000 0.000000 
#    y 0.000000 3.435240 0.000000 
#    z 0.000000 0.000000 3.267760 
# 
# 
# High freq. dielectric constant tensor:
#      x y z
#    x 1.783360 0.000000 0.000000 
#    y 0.000000 1.760300 0.000000 
#    z 0.000000 0.000000 1.730000 
# 
# From -- ./inp_files/25197.got.cif
#   From: 2010.06.25/outbox.cif.g09.slc.cpg/sg52_13_cif.got.tgz:25197.got - 2010.06.26 19:32:48.
