data_PCOD8215066
_publ_section_title
;
Structure prediction by ZEFSAII (Michael W. Deem and Ramdas Pophale) SiO2 
 PCOD8215066
Probable space group: P N N A
;
_chemical_formula_sum "Si O2"
_cell_formula_units_Z 48
_cell_length_a 9.150671
_cell_length_b 19.009942
_cell_length_c 15.220808
_cell_angle_alpha 90.000000
_cell_angle_beta 90.000000
_cell_angle_gamma 90.000000
_cell_volume 2647.716249
_symmetry_space_group_name_H-M "P N N A"
_symmetry_group_IT_number 52
_symmetry_cell_setting 'orthorhombic'
loop_
_space_group_symop_operation_xyz
x,y,z
1/2-x,-y,z
x,1/2-y,1/2-z
1/2-x,1/2+y,1/2-z
-x,-y,-z
1/2+x,y,-z
-x,1/2+y,1/2+z
1/2+x,1/2-y,1/2+z
loop_
_atom_site_type_symbol
_atom_site_label
_atom_site_fract_x
_atom_site_fract_y
_atom_site_fract_z
Si Si1 0.918242 0.302188 0.118036
Si Si2 0.367253 0.148103 0.804898
Si Si3 0.978974 0.571221 0.554290
Si Si4 0.842498 0.727615 0.009199
Si Si5 0.948125 0.693587 0.325929
Si Si6 0.184556 0.855774 0.071974
O O1 0.915034 0.220195 0.146891
O O2 0.920099 0.351506 0.203937
O O3 0.774412 0.320757 0.060678
O O4 0.058207 0.318431 0.056979
O O5 0.440100 0.079159 0.850764
O O6 0.190895 0.142609 0.811144
O O7 0.055961 0.631805 0.498226
O O8 0.000000 0.500000 0.500000
O O9 0.805894 0.582751 0.569219
O O10 0.941480 0.765779 0.081606
O O11 0.759857 0.782459 0.947363
O O12 0.957426 0.750000 0.250000
O O13 0.099264 0.648337 0.333480
#
# Coordination Sequence:
#
# PCOD8215066 Si02
#       6
#     8   8   8   8   8   8
#     4  10  18  29  52  69 108 143 179 221 285 351
#     4  10  18  34  48  72 104 149 186 228 279 344
#     4  12  23  36  51  71 105 155 196 231 273 326
#     4  11  16  30  48  73 103 143 177 214 284 345
#     4  11  19  30  51  75 107 143 179 232 282 346
#     4  12  20  33  50  73 104 143 188 224 273 339
#
# _framework density 18.128830000000001
#
# number of rings (size 3 to 8) (size 9 to 14) (size 15 to 20)
#    0.000    1.000   11.667    0.500    0.000    1.333 
#    0.000    0.000    0.000    0.000    0.000    0.000 
#    0.000    1.333    6.333    0.167    0.000    0.000 
#
# Total GULP energy -594697.886101 kJ/mol
# GULP energy per Si atom -12389.539294 kJ/mol
# Density = 1.808757 g / cm^3
# Si number density = 18.128830 Si / 1000 Ang^3
#
#
#
# Elastic Constant Matrix: (Units=GPa)
#
#
# Indices 1 2 3 4 5 6 
#
# 1 126.6928 34.5070 73.5249 0.0000 0.0000 0.0000
# 2 34.5070 42.0066 37.9207 0.0000 0.0000 0.0000
# 3 73.5249 37.9207 125.7852 0.0000 0.0000 0.0000
# 4 0.0000 0.0000 0.0000 29.9872 0.0000 0.0000
# 5 0.0000 0.0000 0.0000 0.0000 33.9274 0.0000
# 6 0.0000 0.0000 0.0000 0.0000 0.0000 16.9200
#
#
#
# Elastic Compliance Matrix: (Units=1/GPa)
#
#
# Indices 1 2 3 4 5 6 
#
# 1 0.012701 -0.005127 -0.005879 0.000000 0.000000 0.000000
# 2 -0.005127 0.034776 -0.007487 0.000000 0.000000 0.000000
# 3 -0.005879 -0.007487 0.013643 0.000000 0.000000 0.000000
# 4 0.000000 0.000000 0.000000 0.033348 0.000000 0.000000
# 5 0.000000 0.000000 0.000000 0.000000 0.029475 0.000000
# 6 0.000000 0.000000 0.000000 0.000000 0.000000 0.059102
#
#
# Mechanical properties :
#
#
# Convention : Reuss Voigt Hill
#
# Bulk Modulus (GPa) = 41.43272 65.15443 53.29357
# Shear Modulus (GPa) = 21.92261 26.06904 23.99582
#
# Velocity S-wave (km/s) = 3.48123 3.79620 3.64212
# Velocity P-wave (km/s) = 6.25002 7.43186 6.86641
#
# Compressibility (1/GPa) = 0.02413552
#
# Stress axis : x y z
#
# Youngs Moduli (GPa) = 78.73387 28.75525 73.29515
#
# Poissons Ratio (x) = 0.14742 0.43087
# Poissons Ratio (y) = 0.40365 0.54879
# Poissons Ratio (z) = 0.46284 0.21530
#
# Static dielectric constant tensor:
#      x y z
#    x 3.996050 0.000000 0.000000 
#    y 0.000000 2.725320 0.000000 
#    z 0.000000 0.000000 3.784070 
# 
# 
# High freq. dielectric constant tensor:
#      x y z
#    x 1.726670 0.000000 0.000000 
#    y 0.000000 1.617590 0.000000 
#    z 0.000000 0.000000 1.700670 
# 
# From -- ./inp_files/24852.got.cif
#   From: 2010.06.25/outbox.cif.g09.slc.cpg/sg52_13_cif.got.tgz:24852.got - 2010.06.26 19:32:48.
