data_PCOD8215155
_publ_section_title
;
Structure prediction by ZEFSAII (Michael W. Deem and Ramdas Pophale) SiO2 
 PCOD8215155
Probable space group: P N N A
;
_chemical_formula_sum "Si O2"
_cell_formula_units_Z 40
_cell_length_a 9.322864
_cell_length_b 13.948006
_cell_length_c 15.513174
_cell_angle_alpha 90.000000
_cell_angle_beta 90.000000
_cell_angle_gamma 90.000000
_cell_volume 2017.261213
_symmetry_space_group_name_H-M "P N N A"
_symmetry_group_IT_number 52
_symmetry_cell_setting 'orthorhombic'
loop_
_space_group_symop_operation_xyz
x,y,z
1/2-x,-y,z
x,1/2-y,1/2-z
1/2-x,1/2+y,1/2-z
-x,-y,-z
1/2+x,y,-z
-x,1/2+y,1/2+z
1/2+x,1/2-y,1/2+z
loop_
_atom_site_type_symbol
_atom_site_label
_atom_site_fract_x
_atom_site_fract_y
_atom_site_fract_z
Si Si1 0.370943 0.129646 0.037252
Si Si2 0.572067 0.073763 0.904213
Si Si3 0.077380 0.503784 0.091024
Si Si4 0.600494 0.703601 0.835601
Si Si5 0.584289 0.153302 0.720851
O O1 0.200469 0.116154 0.037130
O O2 0.420366 0.226856 0.083100
O O3 0.445423 0.040147 0.085985
O O4 0.429432 0.128534 0.938381
O O5 0.607951 0.088714 0.804653
O O6 0.250000 0.500000 0.080564
O O7 0.031328 0.601282 0.140134
O O8 0.015247 0.414264 0.147288
O O9 0.000000 0.500000 0.000000
O O10 0.527071 0.750000 0.750000
O O11 0.768218 0.691823 0.817929
O O12 0.495576 0.250000 0.750000
#
# Coordination Sequence:
#
# PCOD8215155 Si02
#       5
#     8   8   8   8   8
#     4  10  20  32  57  83 114 146 183 243 275 345
#     4  10  20  35  55  85 116 143 193 232 292 328
#     4  10  23  37  60  87 115 150 193 241 284 340
#     4  10  18  33  59  86 105 149 200 230 270 335
#     4  10  19  34  59  82 107 154 191 235 268 348
#
# _framework density 19.828863999999999
#
# number of rings (size 3 to 8) (size 9 to 14) (size 15 to 20)
#    0.000    2.000    4.000    1.200    8.400    0.000 
#    0.000    0.000   13.200    0.000    0.000    0.000 
#    0.000    0.000    0.000    0.000    0.000    0.000 
#
# Total GULP energy -495633.156349 kJ/mol
# GULP energy per Si atom -12390.828909 kJ/mol
# Density = 1.978373 g / cm^3
# Si number density = 19.828864 Si / 1000 Ang^3
#
#
#
# Elastic Constant Matrix: (Units=GPa)
#
#
# Indices 1 2 3 4 5 6 
#
# 1 36.8889 12.6080 35.3742 0.0000 0.0000 0.0000
# 2 12.6080 162.8804 68.4143 0.0000 0.0000 0.0000
# 3 35.3742 68.4143 118.1500 0.0000 0.0000 0.0000
# 4 0.0000 0.0000 0.0000 42.6011 0.0000 0.0000
# 5 0.0000 0.0000 0.0000 0.0000 22.5832 0.0000
# 6 0.0000 0.0000 0.0000 0.0000 0.0000 11.3734
#
#
#
# Elastic Compliance Matrix: (Units=1/GPa)
#
#
# Indices 1 2 3 4 5 6 
#
# 1 0.038768 0.002477 -0.013041 0.000000 0.000000 0.000000
# 2 0.002477 0.008271 -0.005531 0.000000 0.000000 0.000000
# 3 -0.013041 -0.005531 0.015571 0.000000 0.000000 0.000000
# 4 0.000000 0.000000 0.000000 0.023474 0.000000 0.000000
# 5 0.000000 0.000000 0.000000 0.000000 0.044281 0.000000
# 6 0.000000 0.000000 0.000000 0.000000 0.000000 0.087925
#
#
# Mechanical properties :
#
#
# Convention : Reuss Voigt Hill
#
# Bulk Modulus (GPa) = 32.87415 61.19024 47.03220
# Shear Modulus (GPa) = 19.18514 28.74639 23.96576
#
# Velocity S-wave (km/s) = 3.11390 3.81166 3.48031
# Velocity P-wave (km/s) = 5.43539 7.09209 6.31828
#
# Compressibility (1/GPa) = 0.03041903
#
# Stress axis : x y z
#
# Youngs Moduli (GPa) = 25.79474 120.90691 64.22224
#
# Poissons Ratio (x) = -0.29947 0.83754
# Poissons Ratio (y) = -0.06389 0.35520
# Poissons Ratio (z) = 0.33640 0.66871
#
# Static dielectric constant tensor:
#      x y z
#    x 3.139890 0.000000 0.000000 
#    y 0.000000 4.269340 0.000000 
#    z 0.000000 0.000000 3.754330 
# 
# 
# High freq. dielectric constant tensor:
#      x y z
#    x 1.705540 0.000000 0.000000 
#    y 0.000000 1.798750 0.000000 
#    z 0.000000 0.000000 1.775730 
# 
# From -- ./inp_files/24434.got.cif
#   From: 2010.06.25/outbox.cif.g09.slc.cpg/sg52_13_cif.got.tgz:24434.got - 2010.06.26 19:32:48.
