data_PCOD8215015
_publ_section_title
;
Structure prediction by ZEFSAII (Michael W. Deem and Ramdas Pophale) SiO2 
 PCOD8215015
Probable space group: P N N A
;
_chemical_formula_sum "Si O2"
_cell_formula_units_Z 64
_cell_length_a 8.982087
_cell_length_b 20.413700
_cell_length_c 19.355488
_cell_angle_alpha 90.000000
_cell_angle_beta 90.000000
_cell_angle_gamma 90.000000
_cell_volume 3548.976395
_symmetry_space_group_name_H-M "P N N A"
_symmetry_group_IT_number 52
_symmetry_cell_setting 'orthorhombic'
loop_
_space_group_symop_operation_xyz
x,y,z
1/2-x,-y,z
x,1/2-y,1/2-z
1/2-x,1/2+y,1/2-z
-x,-y,-z
1/2+x,y,-z
-x,1/2+y,1/2+z
1/2+x,1/2-y,1/2+z
loop_
_atom_site_type_symbol
_atom_site_label
_atom_site_fract_x
_atom_site_fract_y
_atom_site_fract_z
Si Si1 0.987080 0.246231 0.851725
Si Si2 0.446035 0.876581 0.302998
Si Si3 0.582777 0.982977 0.686726
Si Si4 0.191929 0.377049 0.047974
Si Si5 0.144904 0.442157 0.917565
Si Si6 0.641986 0.850341 0.748239
Si Si7 0.942228 0.206288 0.504169
Si Si8 0.288046 0.306727 0.868058
O O1 0.931012 0.179002 0.817489
O O2 0.898969 0.306711 0.818151
O O3 0.164028 0.257703 0.836738
O O4 0.951472 0.240683 0.933755
O O5 0.355337 0.888978 0.374091
O O6 0.324125 0.849967 0.247858
O O7 0.583513 0.826114 0.311848
O O8 0.498040 0.950989 0.282914
O O9 0.514869 0.956625 0.615235
O O10 0.577694 0.924108 0.742676
O O11 0.750000 0.000000 0.667263
O O12 0.108380 0.312535 0.017783
O O13 0.140881 0.439287 0.001277
O O14 0.365682 0.359481 0.036757
O O15 0.250000 0.500000 0.891287
O O16 0.209130 0.373420 0.890640
O O17 0.859107 0.230176 0.434566
#
# Coordination Sequence:
#
# PCOD8215015 Si02
#       8
#     8   8   8   8   8   8   8   8
#     4  11  19  35  53  67 100 141 181 221 259 318
#     4  10  20  34  50  74 105 136 176 223 258 304
#     4  10  20  32  48  70 102 138 181 224 253 304
#     4  10  20  29  45  69 103 135 175 213 257 300
#     4  11  19  31  43  71 101 140 181 214 257 298
#     4  10  21  33  51  71  96 142 186 217 260 305
#     4  10  17  32  49  69  98 132 174 221 256 306
#     4  10  20  33  52  74 102 135 176 220 272 307
#
# _framework density 18.033367999999999
#
# number of rings (size 3 to 8) (size 9 to 14) (size 15 to 20)
#    0.000    1.750    6.250    0.000    1.750    2.000 
#    0.000    2.500    0.000    0.000    0.000    0.000 
#    0.000    9.000    0.000    0.000    0.000   15.625 
#
# Total GULP energy -792891.248755 kJ/mol
# GULP energy per Si atom -12388.925762 kJ/mol
# Density = 1.799232 g / cm^3
# Si number density = 18.033368 Si / 1000 Ang^3
#
#
#
# Elastic Constant Matrix: (Units=GPa)
#
#
# Indices 1 2 3 4 5 6 
#
# 1 69.1222 35.8329 21.3411 0.0000 0.0000 0.0000
# 2 35.8329 67.6580 41.1758 0.0000 0.0000 0.0000
# 3 21.3411 41.1758 55.2283 0.0000 0.0000 0.0000
# 4 0.0000 0.0000 0.0000 28.7761 0.0000 0.0000
# 5 0.0000 0.0000 0.0000 0.0000 19.5022 0.0000
# 6 0.0000 0.0000 0.0000 0.0000 0.0000 24.9928
#
#
#
# Elastic Compliance Matrix: (Units=1/GPa)
#
#
# Indices 1 2 3 4 5 6 
#
# 1 0.019945 -0.010751 0.000308 0.000000 0.000000 0.000000
# 2 -0.010751 0.032852 -0.020339 0.000000 0.000000 0.000000
# 3 0.000308 -0.020339 0.033151 0.000000 0.000000 0.000000
# 4 0.000000 0.000000 0.000000 0.034751 0.000000 0.000000
# 5 0.000000 0.000000 0.000000 0.000000 0.051276 0.000000
# 6 0.000000 0.000000 0.000000 0.000000 0.000000 0.040012
#
#
# Mechanical properties :
#
#
# Convention : Reuss Voigt Hill
#
# Bulk Modulus (GPa) = 41.00765 43.18978 42.09872
# Shear Modulus (GPa) = 17.75076 20.89813 19.32444
#
# Velocity S-wave (km/s) = 3.14080 3.40789 3.27707
# Velocity P-wave (km/s) = 5.99517 6.28386 6.14121
#
# Compressibility (1/GPa) = 0.02438569
#
# Stress axis : x y z
#
# Youngs Moduli (GPa) = 50.13725 30.43969 30.16494
#
# Poissons Ratio (x) = 0.32726 -0.00930
# Poissons Ratio (y) = 0.53902 0.61351
# Poissons Ratio (z) = -0.01545 0.61910
#
# Static dielectric constant tensor:
#      x y z
#    x 3.621270 0.000000 0.000000 
#    y 0.000000 3.202230 0.000000 
#    z 0.000000 0.000000 3.042910 
# 
# 
# High freq. dielectric constant tensor:
#      x y z
#    x 1.718450 0.000000 0.000000 
#    y 0.000000 1.656640 0.000000 
#    z 0.000000 0.000000 1.653860 
# 
# From -- ./inp_files/31666.got.cif
#   From: 2010.06.25/outbox.cif.g09.slc.cpg/sg52_16_cif.got.tgz:31666.got - 2010.06.26 19:32:48.
