data_PCOD8215457
_publ_section_title
;
Structure prediction by ZEFSAII (Michael W. Deem and Ramdas Pophale) SiO2 
 PCOD8215457
Probable space group: P N N A
;
_chemical_formula_sum "Si O2"
_cell_formula_units_Z 48
_cell_length_a 9.142100
_cell_length_b 9.089136
_cell_length_c 28.221462
_cell_angle_alpha 90.000000
_cell_angle_beta 90.000000
_cell_angle_gamma 90.000000
_cell_volume 2345.028243
_symmetry_space_group_name_H-M "P N N A"
_symmetry_group_IT_number 52
_symmetry_cell_setting 'orthorhombic'
loop_
_space_group_symop_operation_xyz
x,y,z
1/2-x,-y,z
x,1/2-y,1/2-z
1/2-x,1/2+y,1/2-z
-x,-y,-z
1/2+x,y,-z
-x,1/2+y,1/2+z
1/2+x,1/2-y,1/2+z
loop_
_atom_site_type_symbol
_atom_site_label
_atom_site_fract_x
_atom_site_fract_y
_atom_site_fract_z
Si Si1 0.612975 0.087847 0.765649
Si Si2 0.861326 0.633147 0.468986
Si Si3 0.080527 0.498023 0.163159
Si Si4 0.329796 0.654992 0.885121
Si Si5 0.435498 0.195073 0.849638
Si Si6 0.600582 0.052519 0.932212
O O1 0.667774 0.250000 0.750000
O O2 0.478156 0.104685 0.802272
O O3 0.750000 0.000000 0.788876
O O4 0.558252 0.994772 0.720145
O O5 0.750000 0.500000 0.457005
O O6 0.830691 0.778729 0.438008
O O7 0.858454 0.669199 0.525636
O O8 0.027870 0.587890 0.457521
O O9 0.250000 0.500000 0.148929
O O10 0.990397 0.631673 0.138439
O O11 0.025277 0.343525 0.144483
O O12 0.250000 0.500000 0.888130
O O13 0.237833 0.767678 0.851134
O O14 0.480434 0.103759 0.895250
O O15 0.750000 0.000000 0.906484
#
# Coordination Sequence:
#
# PCOD8215457 Si02
#       6
#     8   8   8   8   8   8
#     4   9  18  36  61  85 116 149 193 246 295 346
#     4  10  20  39  59  83 121 155 190 246 301 350
#     4   9  20  37  60  84 117 158 196 247 295 348
#     4  10  21  39  62  83 121 158 192 244 302 356
#     4  10  19  36  61  84 116 156 194 244 298 356
#     4  10  21  34  60  88 115 151 201 243 293 353
#
# _framework density 20.468836
#
# number of rings (size 3 to 8) (size 9 to 14) (size 15 to 20)
#    0.000    2.333    1.667    0.500    2.333    0.000 
#    3.000    4.167   29.333    0.000    0.000    0.000 
#    0.000    0.000    0.000    0.000    0.000    0.000 
#
# Total GULP energy -594746.120754 kJ/mol
# GULP energy per Si atom -12390.544182 kJ/mol
# Density = 2.042225 g / cm^3
# Si number density = 20.468836 Si / 1000 Ang^3
#
#
#
# Elastic Constant Matrix: (Units=GPa)
#
#
# Indices 1 2 3 4 5 6 
#
# 1 123.4316 24.1634 35.0912 0.0000 0.0000 0.0000
# 2 24.1634 40.0276 34.4111 0.0000 0.0000 0.0000
# 3 35.0912 34.4111 93.6377 0.0000 0.0000 0.0000
# 4 0.0000 0.0000 0.0000 25.8288 0.0000 0.0000
# 5 0.0000 0.0000 0.0000 0.0000 24.6548 0.0000
# 6 0.0000 0.0000 0.0000 0.0000 0.0000 29.5626
#
#
#
# Elastic Compliance Matrix: (Units=1/GPa)
#
#
# Indices 1 2 3 4 5 6 
#
# 1 0.009466 -0.003895 -0.002116 0.000000 0.000000 0.000000
# 2 -0.003895 0.038123 -0.012550 0.000000 0.000000 0.000000
# 3 -0.002116 -0.012550 0.016085 0.000000 0.000000 0.000000
# 4 0.000000 0.000000 0.000000 0.038716 0.000000 0.000000
# 5 0.000000 0.000000 0.000000 0.000000 0.040560 0.000000
# 6 0.000000 0.000000 0.000000 0.000000 0.000000 0.033827
#
#
# Mechanical properties :
#
#
# Convention : Reuss Voigt Hill
#
# Bulk Modulus (GPa) = 37.66345 49.38093 43.52219
# Shear Modulus (GPa) = 22.44672 26.90467 24.67570
#
# Velocity S-wave (km/s) = 3.31513 3.62943 3.47583
# Velocity P-wave (km/s) = 5.75272 6.46073 6.11697
#
# Compressibility (1/GPa) = 0.02655094
#
# Stress axis : x y z
#
# Youngs Moduli (GPa) = 105.64429 26.23058 62.17154
#
# Poissons Ratio (x) = 0.10217 0.13155
# Poissons Ratio (y) = 0.41150 0.78027
# Poissons Ratio (z) = 0.22353 0.32920
#
# Static dielectric constant tensor:
#      x y z
#    x 3.962880 0.000000 0.000000 
#    y 0.000000 3.546500 0.000000 
#    z 0.000000 0.000000 3.794010 
# 
# 
# High freq. dielectric constant tensor:
#      x y z
#    x 1.807420 0.000000 0.000000 
#    y 0.000000 1.772150 0.000000 
#    z 0.000000 0.000000 1.796940 
# 
# From -- ./inp_files/44381.got.cif
#   From: 2010.06.25/outbox.cif.g09.slc.cpg/sg52_23_cif.got.tgz:44381.got - 2010.06.26 19:32:48.
