data_PCOD8215503
_publ_section_title
;
Structure prediction by ZEFSAII (Michael W. Deem and Ramdas Pophale) SiO2 
 PCOD8215503
Probable space group: P N N A
;
_chemical_formula_sum "Si O2"
_cell_formula_units_Z 64
_cell_length_a 21.800209
_cell_length_b 15.472427
_cell_length_c 8.918632
_cell_angle_alpha 90.000000
_cell_angle_beta 90.000000
_cell_angle_gamma 90.000000
_cell_volume 3008.273680
_symmetry_space_group_name_H-M "P N N A"
_symmetry_group_IT_number 52
_symmetry_cell_setting 'orthorhombic'
loop_
_space_group_symop_operation_xyz
x,y,z
1/2-x,-y,z
x,1/2-y,1/2-z
1/2-x,1/2+y,1/2-z
-x,-y,-z
1/2+x,y,-z
-x,1/2+y,1/2+z
1/2+x,1/2-y,1/2+z
loop_
_atom_site_type_symbol
_atom_site_label
_atom_site_fract_x
_atom_site_fract_y
_atom_site_fract_z
Si Si1 0.873401 0.998233 0.942262
Si Si2 0.606095 0.215221 0.407374
Si Si3 0.491419 0.314084 0.882358
Si Si4 0.315962 0.343624 0.278536
Si Si5 0.521997 0.001260 0.740270
Si Si6 0.112287 0.906375 0.479112
Si Si7 0.612960 0.460908 0.221262
Si Si8 0.176193 0.319603 0.365948
O O1 0.945805 0.005215 0.904167
O O2 0.848497 0.917181 0.843274
O O3 0.844265 0.091498 0.902221
O O4 0.858819 0.974647 0.113897
O O5 0.581277 0.250000 0.250000
O O6 0.548720 0.215651 0.518951
O O7 0.637040 0.121859 0.372640
O O8 0.658840 0.279960 0.471297
O O9 0.476177 0.250000 0.750000
O O10 0.504706 0.402439 0.798599
O O11 0.429208 0.322350 0.981736
O O12 0.348658 0.250000 0.250000
O O13 0.247905 0.325534 0.333674
O O14 0.325747 0.386861 0.114566
O O15 0.568935 0.969716 0.614988
O O16 0.460234 0.945015 0.738270
O O17 0.132636 0.954093 0.630586
O O18 0.146285 0.250000 0.250000
#
# Coordination Sequence:
#
# PCOD8215503 Si02
#       8
#     8   8   8   8   8   8   8   8
#     4  11  22  40  67  94 135 174 215 274 335 401
#     4  12  22  37  62 100 142 168 215 280 344 397
#     4  11  21  35  60 100 135 173 220 264 338 421
#     4  10  25  46  66  87 122 174 232 282 327 392
#     4  10  19  38  59  90 135 174 207 255 324 411
#     4  10  21  41  64  86 131 175 214 269 323 407
#     4  11  21  38  62 102 135 170 209 264 346 406
#     4  11  24  43  68  94 124 171 234 284 328 393
#
# _framework density 21.274659
#
# number of rings (size 3 to 8) (size 9 to 14) (size 15 to 20)
#    0.000    1.250    3.750    3.375    1.750    2.500 
#    0.000    2.500    0.000    0.000    0.000    0.000 
#    0.000    0.000    0.000    0.000    0.000    0.000 
#
# Total GULP energy -793020.117320 kJ/mol
# GULP energy per Si atom -12390.939333 kJ/mol
# Density = 2.122624 g / cm^3
# Si number density = 21.274659 Si / 1000 Ang^3
#
#
#
# Elastic Constant Matrix: (Units=GPa)
#
#
# Indices 1 2 3 4 5 6 
#
# 1 70.2096 35.8639 29.2596 0.0000 0.0000 0.0000
# 2 35.8639 132.7316 38.8576 0.0000 0.0000 0.0000
# 3 29.2596 38.8576 95.6249 0.0000 0.0000 0.0000
# 4 0.0000 0.0000 0.0000 39.2609 0.0000 0.0000
# 5 0.0000 0.0000 0.0000 0.0000 20.3763 0.0000
# 6 0.0000 0.0000 0.0000 0.0000 0.0000 2.0123
#
#
#
# Elastic Compliance Matrix: (Units=1/GPa)
#
#
# Indices 1 2 3 4 5 6 
#
# 1 0.017749 -0.003639 -0.003952 0.000000 0.000000 0.000000
# 2 -0.003639 0.009297 -0.002665 0.000000 0.000000 0.000000
# 3 -0.003952 -0.002665 0.012750 0.000000 0.000000 0.000000
# 4 0.000000 0.000000 0.000000 0.025471 0.000000 0.000000
# 5 0.000000 0.000000 0.000000 0.000000 0.049077 0.000000
# 6 0.000000 0.000000 0.000000 0.000000 0.000000 0.496954
#
#
# Mechanical properties :
#
#
# Convention : Reuss Voigt Hill
#
# Bulk Modulus (GPa) = 51.85475 56.28092 54.06784
# Shear Modulus (GPa) = 7.83409 25.30224 16.56817
#
# Velocity S-wave (km/s) = 1.92103 3.45238 2.79368
# Velocity P-wave (km/s) = 5.41732 6.51182 5.98962
#
# Compressibility (1/GPa) = 0.01928464
#
# Stress axis : x y z
#
# Youngs Moduli (GPa) = 56.34180 107.55885 78.43373
#
# Poissons Ratio (x) = 0.39137 0.30999
# Poissons Ratio (y) = 0.20501 0.20899
# Poissons Ratio (z) = 0.22268 0.28660
#
# Static dielectric constant tensor:
#      x y z
#    x 3.612480 0.000000 0.000000 
#    y 0.000000 4.311960 0.000000 
#    z 0.000000 0.000000 4.032490 
# 
# 
# High freq. dielectric constant tensor:
#      x y z
#    x 1.798480 0.000000 0.000000 
#    y 0.000000 1.850260 0.000000 
#    z 0.000000 0.000000 1.841260 
# 
# From -- ./inp_files/14489.got.cif
#   From: 2010.06.25/outbox.cif.g09.slc.cpg/sg52_8_cif.got.tgz:14489.got - 2010.06.26 19:32:48.
