data_PCOD8215626
_publ_section_title
;
Structure prediction by ZEFSAII (Michael W. Deem and Ramdas Pophale) SiO2 
 PCOD8215626
Probable space group: P N N A
;
_chemical_formula_sum "Si O2"
_cell_formula_units_Z 44
_cell_length_a 14.095843
_cell_length_b 8.373392
_cell_length_c 19.081250
_cell_angle_alpha 90.000000
_cell_angle_beta 90.000000
_cell_angle_gamma 90.000000
_cell_volume 2252.160300
_symmetry_space_group_name_H-M "P N N A"
_symmetry_group_IT_number 52
_symmetry_cell_setting 'orthorhombic'
loop_
_space_group_symop_operation_xyz
x,y,z
1/2-x,-y,z
x,1/2-y,1/2-z
1/2-x,1/2+y,1/2-z
-x,-y,-z
1/2+x,y,-z
-x,1/2+y,1/2+z
1/2+x,1/2-y,1/2+z
loop_
_atom_site_type_symbol
_atom_site_label
_atom_site_fract_x
_atom_site_fract_y
_atom_site_fract_z
Si Si1 0.512049 0.257706 0.873061
Si Si2 0.052807 0.596044 0.380632
Si Si3 0.360080 0.524969 0.854030
Si Si4 0.358702 0.750000 0.250000
Si Si5 0.546312 0.166425 0.479933
Si Si6 0.463104 0.750000 0.750000
Si Si7 0.250000 0.000000 0.160834
O O1 0.413841 0.357474 0.870879
O O2 0.573531 0.327542 0.809085
O O3 0.492343 0.067756 0.870211
O O4 0.577222 0.271971 0.943635
O O5 0.165830 0.566891 0.388131
O O6 0.025122 0.700608 0.448212
O O7 0.033545 0.690857 0.309755
O O8 0.250000 0.500000 0.841239
O O9 0.371145 0.639451 0.922631
O O10 0.398378 0.610402 0.783842
O O11 0.292028 0.874591 0.213940
O O12 0.500000 0.000000 0.500000
#
# Coordination Sequence:
#
# PCOD8215626 Si02
#       7
#     8   8   8   4   8   4   4
#     4  10  20  38  58  81 116 155 191 242 303 349
#     4  10  20  37  59  85 117 157 194 238 300 353
#     4  10  21  38  57  86 114 150 207 240 292 351
#     4  10  21  35  56  86 118 154 192 241 297 346
#     4   9  20  39  59  80 117 159 188 238 301 352
#     4  10  21  35  58  78 120 158 186 249 297 348
#     4  10  20  34  54  90 116 144 200 244 280 360
#
# _framework density 19.536795999999999
#
# number of rings (size 3 to 8) (size 9 to 14) (size 15 to 20)
#    0.000    2.182    0.000    3.273    0.000    5.091 
#   14.727    2.727    0.000    0.000    0.000    0.000 
#    0.000    0.000    0.000    0.000    0.000    0.000 
#
# Total GULP energy -545077.269063 kJ/mol
# GULP energy per Si atom -12388.119751 kJ/mol
# Density = 1.949233 g / cm^3
# Si number density = 19.536796 Si / 1000 Ang^3
#
#
#
# Elastic Constant Matrix: (Units=GPa)
#
#
# Indices 1 2 3 4 5 6 
#
# 1 117.7808 39.9555 29.0499 0.0000 0.0000 0.0000
# 2 39.9555 97.3767 17.6724 0.0000 0.0000 0.0000
# 3 29.0499 17.6724 111.2129 0.0000 0.0000 0.0000
# 4 0.0000 0.0000 0.0000 21.7088 0.0000 0.0000
# 5 0.0000 0.0000 0.0000 0.0000 13.2796 0.0000
# 6 0.0000 0.0000 0.0000 0.0000 0.0000 39.1973
#
#
#
# Elastic Compliance Matrix: (Units=1/GPa)
#
#
# Indices 1 2 3 4 5 6 
#
# 1 0.010311 -0.003853 -0.002081 0.000000 0.000000 0.000000
# 2 -0.003853 0.012014 -0.000903 0.000000 0.000000 0.000000
# 3 -0.002081 -0.000903 0.009679 0.000000 0.000000 0.000000
# 4 0.000000 0.000000 0.000000 0.046064 0.000000 0.000000
# 5 0.000000 0.000000 0.000000 0.000000 0.075303 0.000000
# 6 0.000000 0.000000 0.000000 0.000000 0.000000 0.025512
#
#
# Mechanical properties :
#
#
# Convention : Reuss Voigt Hill
#
# Bulk Modulus (GPa) = 54.55448 55.52511 55.03980
# Shear Modulus (GPa) = 25.16778 30.81665 27.99221
#
# Velocity S-wave (km/s) = 3.59308 3.97591 3.78933
# Velocity P-wave (km/s) = 6.72296 7.03986 6.88324
#
# Compressibility (1/GPa) = 0.01833030
#
# Stress axis : x y z
#
# Youngs Moduli (GPa) = 96.98670 83.23492 103.31877
#
# Poissons Ratio (x) = 0.32070 0.21500
# Poissons Ratio (y) = 0.37369 0.09326
# Poissons Ratio (z) = 0.20183 0.07514
#
# Static dielectric constant tensor:
#      x y z
#    x 3.616440 0.000000 0.000000 
#    y 0.000000 7.792060 0.000000 
#    z 0.000000 0.000000 4.667670 
# 
# 
# High freq. dielectric constant tensor:
#      x y z
#    x 1.729390 0.000000 0.000000 
#    y 0.000000 1.773730 0.000000 
#    z 0.000000 0.000000 1.779910 
# 
# From -- ./inp_files/32997.got.cif
#   From: 2010.06.25/outbox.cif.g09.slc.cpg/sg52_17_cif.got.tgz:32997.got - 2010.06.26 19:32:48.
