data_PCOD8215681
_publ_section_title
;
Structure prediction by ZEFSAII (Michael W. Deem and Ramdas Pophale) SiO2 
 PCOD8215681
Probable space group: P N N A
;
_chemical_formula_sum "Si O2"
_cell_formula_units_Z 36
_cell_length_a 5.180711
_cell_length_b 20.436200
_cell_length_c 16.047605
_cell_angle_alpha 90.000000
_cell_angle_beta 90.000000
_cell_angle_gamma 90.000000
_cell_volume 1699.024872
_symmetry_space_group_name_H-M "P N N A"
_symmetry_group_IT_number 52
_symmetry_cell_setting 'orthorhombic'
loop_
_space_group_symop_operation_xyz
x,y,z
1/2-x,-y,z
x,1/2-y,1/2-z
1/2-x,1/2+y,1/2-z
-x,-y,-z
1/2+x,y,-z
-x,1/2+y,1/2+z
1/2+x,1/2-y,1/2+z
loop_
_atom_site_type_symbol
_atom_site_label
_atom_site_fract_x
_atom_site_fract_y
_atom_site_fract_z
Si Si1 0.002420 0.072728 0.036715
Si Si2 0.250000 0.000000 0.651956
Si Si3 0.585419 0.118805 0.445894
Si Si4 0.491687 0.823316 0.724976
Si Si5 0.997727 0.399722 0.273203
O O1 0.008788 0.069038 0.135772
O O2 0.751086 0.110389 0.000989
O O3 0.000000 0.000000 0.000000
O O4 0.071635 0.046669 0.595140
O O5 0.443976 0.042447 0.708008
O O6 0.368053 0.128190 0.515068
O O7 0.547054 0.173263 0.374622
O O8 0.558167 0.750000 0.750000
O O9 0.229426 0.846050 0.770296
O O10 0.727330 0.868948 0.752236
#
# Coordination Sequence:
#
# PCOD8215681 Si02
#       5
#     8   4   8   8   8
#     4  10  20  35  56  87 128 162 194 250 310 366
#     4  10  22  38  64  98 132 164 200 252 326 398
#     4  11  23  40  63  95 127 159 199 257 315 369
#     4  11  25  46  66  87 122 172 220 259 301 368
#     4  11  23  40  65  94 125 169 212 255 318 384
#
# _framework density 21.188624000000001
#
# number of rings (size 3 to 8) (size 9 to 14) (size 15 to 20)
#    0.000    1.333    0.000    6.667    0.000   12.444 
#    0.000    6.667    0.000    0.000    0.000    0.000 
#    0.000    0.000    0.000    0.000    0.000    0.000 
#
# Total GULP energy -446436.612909 kJ/mol
# GULP energy per Si atom -12401.017025 kJ/mol
# Density = 2.114040 g / cm^3
# Si number density = 21.188624 Si / 1000 Ang^3
#
#
#
# Elastic Constant Matrix: (Units=GPa)
#
#
# Indices 1 2 3 4 5 6 
#
# 1 138.6758 4.3376 45.6612 0.0000 0.0000 0.0000
# 2 4.3376 82.9480 43.7153 0.0000 0.0000 0.0000
# 3 45.6612 43.7153 155.4647 0.0000 0.0000 0.0000
# 4 0.0000 0.0000 0.0000 22.5452 0.0000 0.0000
# 5 0.0000 0.0000 0.0000 0.0000 36.6179 0.0000
# 6 0.0000 0.0000 0.0000 0.0000 0.0000 21.1888
#
#
#
# Elastic Compliance Matrix: (Units=1/GPa)
#
#
# Indices 1 2 3 4 5 6 
#
# 1 0.008049 0.000969 -0.002636 0.000000 0.000000 0.000000
# 2 0.000969 0.014270 -0.004297 0.000000 0.000000 0.000000
# 3 -0.002636 -0.004297 0.008415 0.000000 0.000000 0.000000
# 4 0.000000 0.000000 0.000000 0.044355 0.000000 0.000000
# 5 0.000000 0.000000 0.000000 0.000000 0.027309 0.000000
# 6 0.000000 0.000000 0.000000 0.000000 0.000000 0.047195
#
#
# Mechanical properties :
#
#
# Convention : Reuss Voigt Hill
#
# Bulk Modulus (GPa) = 53.18068 62.72408 57.95238
# Shear Modulus (GPa) = 29.79910 34.96199 32.38055
#
# Velocity S-wave (km/s) = 3.75423 4.06647 3.91347
# Velocity P-wave (km/s) = 6.62914 7.19133 6.91595
#
# Compressibility (1/GPa) = 0.01880382
#
# Stress axis : x y z
#
# Youngs Moduli (GPa) = 124.24174 70.07867 118.83669
#
# Poissons Ratio (x) = -0.06787 0.31329
# Poissons Ratio (y) = -0.12033 0.51064
# Poissons Ratio (z) = 0.32754 0.30113
#
# Static dielectric constant tensor:
#      x y z
#    x 2.872440 0.000000 0.000000 
#    y 0.000000 3.544830 0.000000 
#    z 0.000000 0.000000 4.017500 
# 
# 
# High freq. dielectric constant tensor:
#      x y z
#    x 1.858500 0.000000 0.000000 
#    y 0.000000 1.791530 0.000000 
#    z 0.000000 0.000000 1.848570 
# 
# From -- ./inp_files/23567.got.cif
#   From: 2010.06.25/outbox.cif.g09.slc.cpg/sg52_12_cif.got.tgz:23567.got - 2010.06.26 19:32:48.
