data_PCOD8215588
_publ_section_title
;
Structure prediction by ZEFSAII (Michael W. Deem and Ramdas Pophale) SiO2 
 PCOD8215588
Probable space group: P N N A
;
_chemical_formula_sum "Si O2"
_cell_formula_units_Z 64
_cell_length_a 27.028924
_cell_length_b 8.713299
_cell_length_c 14.784883
_cell_angle_alpha 90.000000
_cell_angle_beta 90.000000
_cell_angle_gamma 90.000000
_cell_volume 3482.004006
_symmetry_space_group_name_H-M "P N N A"
_symmetry_group_IT_number 52
_symmetry_cell_setting 'orthorhombic'
loop_
_space_group_symop_operation_xyz
x,y,z
1/2-x,-y,z
x,1/2-y,1/2-z
1/2-x,1/2+y,1/2-z
-x,-y,-z
1/2+x,y,-z
-x,1/2+y,1/2+z
1/2+x,1/2-y,1/2+z
loop_
_atom_site_type_symbol
_atom_site_label
_atom_site_fract_x
_atom_site_fract_y
_atom_site_fract_z
Si Si1 0.810877 0.332233 0.656296
Si Si2 0.875777 0.850101 0.517757
Si Si3 0.578095 0.215529 0.145513
Si Si4 0.460574 0.697739 0.158039
Si Si5 0.481477 0.357255 0.163733
Si Si6 0.107588 0.697201 0.037031
Si Si7 0.036554 0.916693 0.928358
Si Si8 0.195694 0.311958 0.347172
O O1 0.827170 0.250000 0.750000
O O2 0.841890 0.269170 0.572691
O O3 0.822019 0.512762 0.656283
O O4 0.753961 0.296430 0.636558
O O5 0.876955 0.764246 0.420755
O O6 0.923647 0.802686 0.574886
O O7 0.828359 0.790302 0.573323
O O8 0.876597 0.031906 0.497225
O O9 0.592133 0.250000 0.250000
O O10 0.530481 0.312130 0.107173
O O11 0.565725 0.037019 0.133958
O O12 0.432604 0.750000 0.250000
O O13 0.485435 0.536145 0.182013
O O14 0.504410 0.814518 0.138096
O O15 0.486194 0.250000 0.250000
O O16 0.429429 0.322829 0.119728
O O17 0.079851 0.809742 0.968619
O O18 0.000000 0.000000 0.000000
O O19 0.179925 0.250000 0.250000
#
# Coordination Sequence:
#
# PCOD8215588 Si02
#       8
#     8   8   8   8   8   8   8   8
#     4  10  21  36  56  86 118 153 192 234 288 355
#     4  11  22  37  55  83 113 151 193 240 284 352
#     4  11  22  37  57  78 111 151 191 237 289 341
#     4  11  22  33  53  81 111 149 191 233 283 339
#     4  10  20  33  49  75 112 148 188 230 277 335
#     4  11  22  34  55  79 111 151 193 233 286 338
#     4  12  22  37  55  79 113 154 193 242 283 341
#     4  10  21  37  58  84 120 153 188 237 293 348
#
# _framework density 18.380220000000001
#
# number of rings (size 3 to 8) (size 9 to 14) (size 15 to 20)
#    0.000    1.250    2.500    4.500    0.000    5.500 
#    0.000    0.000    0.000    0.000    0.000    7.875 
#    0.000    0.000    0.000    0.000    0.000    0.000 
#
# Total GULP energy -793323.165468 kJ/mol
# GULP energy per Si atom -12395.674460 kJ/mol
# Density = 1.833839 g / cm^3
# Si number density = 18.380220 Si / 1000 Ang^3
#
#
#
# Elastic Constant Matrix: (Units=GPa)
#
#
# Indices 1 2 3 4 5 6 
#
# 1 60.3984 35.9795 36.0797 0.0000 0.0000 0.0000
# 2 35.9795 127.6028 55.9945 0.0000 0.0000 0.0000
# 3 36.0797 55.9945 104.2259 0.0000 0.0000 0.0000
# 4 0.0000 0.0000 0.0000 32.6359 0.0000 0.0000
# 5 0.0000 0.0000 0.0000 0.0000 23.7038 0.0000
# 6 0.0000 0.0000 0.0000 0.0000 0.0000 28.7719
#
#
#
# Elastic Compliance Matrix: (Units=1/GPa)
#
#
# Indices 1 2 3 4 5 6 
#
# 1 0.022181 -0.003775 -0.005650 0.000000 0.000000 0.000000
# 2 -0.003775 0.010897 -0.004547 0.000000 0.000000 0.000000
# 3 -0.005650 -0.004547 0.013994 0.000000 0.000000 0.000000
# 4 0.000000 0.000000 0.000000 0.030641 0.000000 0.000000
# 5 0.000000 0.000000 0.000000 0.000000 0.042187 0.000000
# 6 0.000000 0.000000 0.000000 0.000000 0.000000 0.034756
#
#
# Mechanical properties :
#
#
# Convention : Reuss Voigt Hill
#
# Bulk Modulus (GPa) = 52.28502 60.92605 56.60554
# Shear Modulus (GPa) = 26.45845 27.96722 27.21284
#
# Velocity S-wave (km/s) = 3.79820 3.90499 3.85197
# Velocity P-wave (km/s) = 6.90965 7.31789 7.11670
#
# Compressibility (1/GPa) = 0.01912594
#
# Stress axis : x y z
#
# Youngs Moduli (GPa) = 45.08451 91.77124 71.46128
#
# Poissons Ratio (x) = 0.34641 0.40378
# Poissons Ratio (y) = 0.17018 0.32497
# Poissons Ratio (z) = 0.25474 0.41733
#
# Static dielectric constant tensor:
#      x y z
#    x 3.331010 0.000000 0.000000 
#    y 0.000000 4.057600 0.000000 
#    z 0.000000 0.000000 3.276980 
# 
# 
# High freq. dielectric constant tensor:
#      x y z
#    x 1.689620 0.000000 0.000000 
#    y 0.000000 1.738840 0.000000 
#    z 0.000000 0.000000 1.698550 
# 
# From -- ./inp_files/29225.got.cif
#   From: 2010.06.25/outbox.cif.g09.slc.cpg/sg52_15_cif.got.tgz:29225.got - 2010.06.26 19:32:48.
