data_PCOD8215041
_publ_section_title
;
Structure prediction by ZEFSAII (Michael W. Deem and Ramdas Pophale) SiO2 
 PCOD8215041
Probable space group: P N N A
;
_chemical_formula_sum "Si O2"
_cell_formula_units_Z 56
_cell_length_a 16.631633
_cell_length_b 8.807265
_cell_length_c 21.909151
_cell_angle_alpha 90.000000
_cell_angle_beta 90.000000
_cell_angle_gamma 90.000000
_cell_volume 3209.234894
_symmetry_space_group_name_H-M "P N N A"
_symmetry_group_IT_number 52
_symmetry_cell_setting 'orthorhombic'
loop_
_space_group_symop_operation_xyz
x,y,z
1/2-x,-y,z
x,1/2-y,1/2-z
1/2-x,1/2+y,1/2-z
-x,-y,-z
1/2+x,y,-z
-x,1/2+y,1/2+z
1/2+x,1/2-y,1/2+z
loop_
_atom_site_type_symbol
_atom_site_label
_atom_site_fract_x
_atom_site_fract_y
_atom_site_fract_z
Si Si1 0.642009 0.110804 0.109703
Si Si2 0.010577 0.799379 0.060048
Si Si3 0.250000 0.500000 0.711021
Si Si4 0.076373 0.108316 0.063216
Si Si5 0.425567 0.218173 0.881676
Si Si6 0.872077 0.403231 0.005623
Si Si7 0.139711 0.750000 0.750000
Si Si8 0.200352 0.275392 0.003296
O O1 0.558245 0.211350 0.113503
O O2 0.701315 0.173635 0.057626
O O3 0.694777 0.115592 0.171143
O O4 0.618760 0.935450 0.096865
O O5 0.077050 0.927810 0.077103
O O6 0.057059 0.644234 0.042418
O O7 0.958044 0.862624 0.004343
O O8 0.193827 0.600036 0.753777
O O9 0.021552 0.197592 0.111887
O O10 0.166843 0.176973 0.061063
O O11 0.393304 0.351263 0.925703
O O12 0.413216 0.255511 0.810882
O O13 0.861728 0.583636 0.006304
O O14 0.789810 0.327647 0.981926
#
# Coordination Sequence:
#
# PCOD8215041 Si02
#       8
#     8   8   4   8   8   8   4   8
#     4   9  17  30  45  58  80 116 147 174 213 253
#     4   8  15  27  42  60  81 110 143 173 207 257
#     4  10  20  32  46  64  86 116 152 186 216 254
#     4   8  15  27  42  59  81 110 145 172 208 257
#     4   9  18  31  44  60  83 114 148 181 210 247
#     4  10  19  27  39  64  93 114 140 173 212 260
#     4  10  20  32  46  62  86 114 148 186 214 242
#     4  10  18  26  40  63  90 117 139 170 215 264
#
# _framework density 17.449642000000001
#
# number of rings (size 3 to 8) (size 9 to 14) (size 15 to 20)
#    0.000    2.857    0.000    4.286    0.000    9.143 
#    0.000    0.000    0.000    0.000    0.000    0.000 
#    0.000   14.857    0.000    0.143    0.000    0.000 
#
# Total GULP energy -693815.599940 kJ/mol
# GULP energy per Si atom -12389.564285 kJ/mol
# Density = 1.740993 g / cm^3
# Si number density = 17.449642 Si / 1000 Ang^3
#
#
#
# Elastic Constant Matrix: (Units=GPa)
#
#
# Indices 1 2 3 4 5 6 
#
# 1 45.9778 6.6413 31.1238 0.0000 0.0000 0.0000
# 2 6.6413 41.4812 24.4356 0.0000 0.0000 0.0000
# 3 31.1238 24.4356 61.8853 0.0000 0.0000 0.0000
# 4 0.0000 0.0000 0.0000 19.4395 0.0000 0.0000
# 5 0.0000 0.0000 0.0000 0.0000 11.2662 0.0000
# 6 0.0000 0.0000 0.0000 0.0000 0.0000 28.3350
#
#
#
# Elastic Compliance Matrix: (Units=1/GPa)
#
#
# Indices 1 2 3 4 5 6 
#
# 1 0.034103 0.006051 -0.019541 0.000000 0.000000 0.000000
# 2 0.006051 0.032488 -0.015871 0.000000 0.000000 0.000000
# 3 -0.019541 -0.015871 0.032253 0.000000 0.000000 0.000000
# 4 0.000000 0.000000 0.000000 0.051442 0.000000 0.000000
# 5 0.000000 0.000000 0.000000 0.000000 0.088761 0.000000
# 6 0.000000 0.000000 0.000000 0.000000 0.000000 0.035292
#
#
# Mechanical properties :
#
#
# Convention : Reuss Voigt Hill
#
# Bulk Modulus (GPa) = 24.92364 30.41619 27.66992
# Shear Modulus (GPa) = 14.43271 17.61770 16.02521
#
# Velocity S-wave (km/s) = 2.87907 3.18092 3.03375
# Velocity P-wave (km/s) = 5.03649 5.56414 5.30688
#
# Compressibility (1/GPa) = 0.04012255
#
# Stress axis : x y z
#
# Youngs Moduli (GPa) = 29.32270 30.78081 31.00472
#
# Poissons Ratio (x) = -0.18625 0.60585
# Poissons Ratio (y) = -0.17743 0.49208
# Poissons Ratio (z) = 0.57298 0.48852
#
# Static dielectric constant tensor:
#      x y z
#    x 3.589940 0.000000 0.000000 
#    y 0.000000 3.337140 0.000000 
#    z 0.000000 0.000000 2.859070 
# 
# 
# High freq. dielectric constant tensor:
#      x y z
#    x 1.678170 0.000000 0.000000 
#    y 0.000000 1.678810 0.000000 
#    z 0.000000 0.000000 1.609450 
# 
# From -- ./inp_files/40890.got.cif
#   From: 2010.06.25/outbox.cif.g09.slc.cpg/sg52_21_cif.got.tgz:40890.got - 2010.06.26 19:32:48.
