data_PCOD8215766
_publ_section_title
;
Structure prediction by ZEFSAII (Michael W. Deem and Ramdas Pophale) SiO2 
 PCOD8215766
Probable space group: P N N A
;
_chemical_formula_sum "Si O2"
_cell_formula_units_Z 48
_cell_length_a 9.260866
_cell_length_b 8.780576
_cell_length_c 28.354332
_cell_angle_alpha 90.000000
_cell_angle_beta 90.000000
_cell_angle_gamma 90.000000
_cell_volume 2305.653425
_symmetry_space_group_name_H-M "P N N A"
_symmetry_group_IT_number 52
_symmetry_cell_setting 'orthorhombic'
loop_
_space_group_symop_operation_xyz
x,y,z
1/2-x,-y,z
x,1/2-y,1/2-z
1/2-x,1/2+y,1/2-z
-x,-y,-z
1/2+x,y,-z
-x,1/2+y,1/2+z
1/2+x,1/2-y,1/2+z
loop_
_atom_site_type_symbol
_atom_site_label
_atom_site_fract_x
_atom_site_fract_y
_atom_site_fract_z
Si Si1 0.261792 0.677101 0.645738
Si Si2 0.038793 0.822470 0.199036
Si Si3 0.178767 0.335606 0.456391
Si Si4 0.829305 0.162529 0.047261
Si Si5 0.719625 0.323009 0.860904
Si Si6 0.496964 0.820068 0.201196
O O1 0.250000 0.500000 0.634138
O O2 0.419788 0.731976 0.660829
O O3 0.209861 0.752846 0.596011
O O4 0.166344 0.707118 0.692353
O O5 0.009138 0.750000 0.250000
O O6 0.186704 0.766479 0.177569
O O7 0.045392 0.003832 0.202075
O O8 0.250000 0.500000 0.447427
O O9 0.251080 0.255739 0.502644
O O10 0.235411 0.229458 0.414348
O O11 0.003607 0.348496 0.459367
O O12 0.750000 0.000000 0.046624
O O13 0.750000 0.500000 0.856849
O O14 0.562239 0.274960 0.843295
O O15 0.444997 0.750000 0.250000
#
# Coordination Sequence:
#
# PCOD8215766 Si02
#       6
#     8   8   8   8   8   8
#     4   9  20  36  62  94 126 157 204 255 307 373
#     4  11  23  40  64  94 123 165 208 256 315 369
#     4  11  22  38  68  97 125 164 208 262 314 368
#     4  10  20  36  65 101 127 156 209 257 311 373
#     4  12  26  42  60  88 127 168 214 255 307 371
#     4  11  21  40  66  90 125 160 204 260 311 372
#
# _framework density 20.818393
#
# number of rings (size 3 to 8) (size 9 to 14) (size 15 to 20)
#    0.000    1.333    1.667    5.500    7.000    0.000 
#    0.000    3.333    0.000    0.000    0.000    0.000 
#    0.000    0.000    0.000    0.000    0.000    0.000 
#
# Total GULP energy -594698.391939 kJ/mol
# GULP energy per Si atom -12389.549832 kJ/mol
# Density = 2.077101 g / cm^3
# Si number density = 20.818393 Si / 1000 Ang^3
#
#
#
# Elastic Constant Matrix: (Units=GPa)
#
#
# Indices 1 2 3 4 5 6 
#
# 1 101.8934 25.1671 44.1031 0.0000 0.0000 0.0000
# 2 25.1671 88.8630 41.8843 0.0000 0.0000 0.0000
# 3 44.1031 41.8843 170.5617 0.0000 0.0000 0.0000
# 4 0.0000 0.0000 0.0000 -47.1937 0.0000 0.0000
# 5 0.0000 0.0000 0.0000 0.0000 1.3102 0.0000
# 6 0.0000 0.0000 0.0000 0.0000 0.0000 10.7046
#
#
#
# Elastic Compliance Matrix: (Units=1/GPa)
#
#
# Indices 1 2 3 4 5 6 
#
# 1 0.011380 -0.002076 -0.002433 0.000000 0.000000 0.000000
# 2 -0.002076 0.013105 -0.002681 0.000000 0.000000 0.000000
# 3 -0.002433 -0.002681 0.007150 0.000000 0.000000 0.000000
# 4 0.000000 0.000000 0.000000 -0.021189 0.000000 0.000000
# 5 0.000000 0.000000 0.000000 0.000000 0.763232 0.000000
# 6 0.000000 0.000000 0.000000 0.000000 0.000000 0.093417
#
#
# Mechanical properties :
#
#
# Convention : Reuss Voigt Hill
#
# Bulk Modulus (GPa) = 57.95460 64.84747 61.40103
# Shear Modulus (GPa) = 5.63553 9.64181 7.63867
#
# Velocity S-wave (km/s) = 1.64708 2.15440 1.91759
# Velocity P-wave (km/s) = 5.61389 6.11599 5.87031
#
# Compressibility (1/GPa) = 0.01725488
#
# Stress axis : x y z
#
# Youngs Moduli (GPa) = 87.87361 76.30609 139.85121
#
# Poissons Ratio (x) = 0.15844 0.34022
# Poissons Ratio (y) = 0.18245 0.37498
# Poissons Ratio (z) = 0.21377 0.20460
#
# Static dielectric constant tensor:
#      x y z
#    x 3.921160 0.000000 0.000000 
#    y 0.000000 3.319450 0.000000 
#    z 0.000000 0.000000 4.334730 
# 
# 
# High freq. dielectric constant tensor:
#      x y z
#    x 1.831640 0.000000 0.000000 
#    y 0.000000 1.766740 0.000000 
#    z 0.000000 0.000000 1.844100 
# 
# From -- ./inp_files/44402.got.cif
#   From: 2010.06.25/outbox.cif.g09.slc.cpg/sg52_23_cif.got.tgz:44402.got - 2010.06.26 19:32:48.
