data_PCOD8215961
_publ_section_title
;
Structure prediction by ZEFSAII (Michael W. Deem and Ramdas Pophale) SiO2 
 PCOD8215961
Probable space group: P N N A
;
_chemical_formula_sum "Si O2"
_cell_formula_units_Z 56
_cell_length_a 23.805496
_cell_length_b 20.708250
_cell_length_c 5.343529
_cell_angle_alpha 90.000000
_cell_angle_beta 90.000000
_cell_angle_gamma 90.000000
_cell_volume 2634.200360
_symmetry_space_group_name_H-M "P N N A"
_symmetry_group_IT_number 52
_symmetry_cell_setting 'orthorhombic'
loop_
_space_group_symop_operation_xyz
x,y,z
1/2-x,-y,z
x,1/2-y,1/2-z
1/2-x,1/2+y,1/2-z
-x,-y,-z
1/2+x,y,-z
-x,1/2+y,1/2+z
1/2+x,1/2-y,1/2+z
loop_
_atom_site_type_symbol
_atom_site_label
_atom_site_fract_x
_atom_site_fract_y
_atom_site_fract_z
Si Si1 0.671872 0.445011 0.350344
Si Si2 0.205182 0.910762 0.826782
Si Si3 0.160597 0.714195 0.502481
Si Si4 0.455180 0.184181 0.156296
Si Si5 0.893042 0.547714 0.836191
Si Si6 0.492168 0.432398 0.639060
Si Si7 0.894653 0.088827 0.505801
O O1 0.727957 0.404760 0.286624
O O2 0.688686 0.518062 0.414898
O O3 0.640800 0.420274 0.602769
O O4 0.633108 0.436436 0.106210
O O5 0.187657 0.857075 0.028828
O O6 0.169368 0.895822 0.574730
O O7 0.184285 0.750000 0.750000
O O8 0.093261 0.706057 0.537419
O O9 0.178116 0.750000 0.250000
O O10 0.487221 0.250000 0.250000
O O11 0.421227 0.153944 0.389654
O O12 0.496588 0.130450 0.042579
O O13 0.956625 0.575398 0.835734
O O14 0.895021 0.469875 0.795036
O O15 0.500000 0.500000 0.500000
O O16 0.431754 0.434812 0.769220
#
# Coordination Sequence:
#
# PCOD8215961 Si02
#       7
#     8   8   8   8   8   8   8
#     4  10  24  38  62  91 125 170 205 267 311 377
#     4  10  20  40  61  92 128 161 210 259 325 378
#     4  11  23  39  61  94 130 166 203 258 328 391
#     4  11  24  37  61  96 134 168 211 263 334 400
#     4  11  23  39  59  93 128 165 218 253 319 379
#     4  12  23  39  63  95 128 176 214 270 331 393
#     4  11  22  39  63  95 132 165 207 273 331 391
#
# _framework density 21.258824000000001
#
# number of rings (size 3 to 8) (size 9 to 14) (size 15 to 20)
#    0.000    1.143    2.857    4.714    2.000    8.000 
#    0.000    0.000    0.000    0.857    3.714    0.000 
#    0.000    0.000    0.000    0.000    0.000    0.000 
#
# Total GULP energy -694091.340503 kJ/mol
# GULP energy per Si atom -12394.488223 kJ/mol
# Density = 2.121044 g / cm^3
# Si number density = 21.258824 Si / 1000 Ang^3
#
#
#
# Elastic Constant Matrix: (Units=GPa)
#
#
# Indices 1 2 3 4 5 6 
#
# 1 99.1863 36.6701 41.2735 0.0000 0.0000 0.0000
# 2 36.6701 108.0788 41.8426 0.0000 0.0000 0.0000
# 3 41.2735 41.8426 118.2350 0.0000 0.0000 0.0000
# 4 0.0000 0.0000 0.0000 33.7907 0.0000 0.0000
# 5 0.0000 0.0000 0.0000 0.0000 16.1516 0.0000
# 6 0.0000 0.0000 0.0000 0.0000 0.0000 27.9199
#
#
#
# Elastic Compliance Matrix: (Units=1/GPa)
#
#
# Indices 1 2 3 4 5 6 
#
# 1 0.012569 -0.002973 -0.003335 0.000000 0.000000 0.000000
# 2 -0.002973 0.011425 -0.003005 0.000000 0.000000 0.000000
# 3 -0.003335 -0.003005 0.010686 0.000000 0.000000 0.000000
# 4 0.000000 0.000000 0.000000 0.029594 0.000000 0.000000
# 5 0.000000 0.000000 0.000000 0.000000 0.061913 0.000000
# 6 0.000000 0.000000 0.000000 0.000000 0.000000 0.035817
#
#
# Mechanical properties :
#
#
# Convention : Reuss Voigt Hill
#
# Bulk Modulus (GPa) = 62.29882 62.78583 62.54232
# Shear Modulus (GPa) = 26.88427 29.28669 28.08548
#
# Velocity S-wave (km/s) = 3.56000 3.71566 3.63867
# Velocity P-wave (km/s) = 6.80196 6.92866 6.86560
#
# Compressibility (1/GPa) = 0.01605167
#
# Stress axis : x y z
#
# Youngs Moduli (GPa) = 79.55921 87.52890 93.58392
#
# Poissons Ratio (x) = 0.26025 0.31214
# Poissons Ratio (y) = 0.23656 0.28124
# Poissons Ratio (z) = 0.26536 0.26304
#
# Static dielectric constant tensor:
#      x y z
#    x 3.945090 0.000000 0.000000 
#    y 0.000000 3.959300 0.000000 
#    z 0.000000 0.000000 3.693470 
# 
# 
# High freq. dielectric constant tensor:
#      x y z
#    x 1.810400 0.000000 0.000000 
#    y 0.000000 1.818440 0.000000 
#    z 0.000000 0.000000 1.837080 
# 
# From -- ./inp_files/5216.got.cif
#   From: 2010.06.25/outbox.cif.g09.slc.cpg/sg52_3_cif.got.tgz:5216.got - 2010.06.26 19:32:48.
