data_PCOD8215549
_publ_section_title
;
Structure prediction by ZEFSAII (Michael W. Deem and Ramdas Pophale) SiO2 
 PCOD8215549
Probable space group: P N N A
;
_chemical_formula_sum "Si O2"
_cell_formula_units_Z 32
_cell_length_a 14.198318
_cell_length_b 16.825171
_cell_length_c 7.295857
_cell_angle_alpha 90.000000
_cell_angle_beta 90.000000
_cell_angle_gamma 90.000000
_cell_volume 1742.900919
_symmetry_space_group_name_H-M "P N N A"
_symmetry_group_IT_number 52
_symmetry_cell_setting 'orthorhombic'
loop_
_space_group_symop_operation_xyz
x,y,z
1/2-x,-y,z
x,1/2-y,1/2-z
1/2-x,1/2+y,1/2-z
-x,-y,-z
1/2+x,y,-z
-x,1/2+y,1/2+z
1/2+x,1/2-y,1/2+z
loop_
_atom_site_type_symbol
_atom_site_label
_atom_site_fract_x
_atom_site_fract_y
_atom_site_fract_z
Si Si1 0.545345 0.054771 0.849437
Si Si2 0.760305 0.590291 0.513180
Si Si3 0.127200 0.841962 0.727589
Si Si4 0.832870 0.057394 0.622179
O O1 0.630354 0.106201 0.939828
O O2 0.466685 0.115844 0.791720
O O3 0.579829 0.000391 0.677515
O O4 0.500000 0.000000 0.000000
O O5 0.750000 0.500000 0.446339
O O6 0.720491 0.643922 0.350154
O O7 0.699042 0.604247 0.695847
O O8 0.105396 0.750000 0.750000
O O9 0.144150 0.873713 0.522310
O O10 0.750000 0.000000 0.546558
#
# Coordination Sequence:
#
# PCOD8215549 Si02
#       4
#     8   8   8   8
#     4  10  19  40  65  85 114 161 206 243 282 367
#     4   9  19  40  61  82 116 155 199 242 292 355
#     4  12  23  38  59  92 124 152 196 255 309 348
#     4   9  20  38  65  84 110 161 204 236 286 365
#
# _framework density 18.360195000000001
#
# number of rings (size 3 to 8) (size 9 to 14) (size 15 to 20)
#    0.000    2.500    5.000    1.500    0.000    1.000 
#    9.000    0.000    0.000    0.000    0.000    0.000 
#    0.000    0.000    0.000    0.000    0.000    0.000 
#
# Total GULP energy -396528.112995 kJ/mol
# GULP energy per Si atom -12391.503531 kJ/mol
# Density = 1.831841 g / cm^3
# Si number density = 18.360195 Si / 1000 Ang^3
#
#
#
# Elastic Constant Matrix: (Units=GPa)
#
#
# Indices 1 2 3 4 5 6 
#
# 1 100.2026 40.5563 51.3114 0.0000 0.0000 0.0000
# 2 40.5563 108.9340 68.5054 0.0000 0.0000 0.0000
# 3 51.3114 68.5054 99.1305 0.0000 0.0000 0.0000
# 4 0.0000 0.0000 0.0000 1.2044 0.0000 0.0000
# 5 0.0000 0.0000 0.0000 0.0000 15.0697 0.0000
# 6 0.0000 0.0000 0.0000 0.0000 0.0000 22.5516
#
#
#
# Elastic Compliance Matrix: (Units=1/GPa)
#
#
# Indices 1 2 3 4 5 6 
#
# 1 0.013657 -0.001130 -0.006288 0.000000 0.000000 0.000000
# 2 -0.001130 0.016329 -0.010700 0.000000 0.000000 0.000000
# 3 -0.006288 -0.010700 0.020737 0.000000 0.000000 0.000000
# 4 0.000000 0.000000 0.000000 0.830299 0.000000 0.000000
# 5 0.000000 0.000000 0.000000 0.000000 0.066358 0.000000
# 6 0.000000 0.000000 0.000000 0.000000 0.000000 0.044343
#
#
# Mechanical properties :
#
#
# Convention : Reuss Voigt Hill
#
# Bulk Modulus (GPa) = 69.02575 69.89035 69.45805
# Shear Modulus (GPa) = 4.84126 17.62474 11.23300
#
# Velocity S-wave (km/s) = 1.62559 3.10166 2.47617
# Velocity P-wave (km/s) = 6.41875 7.13974 6.78882
#
# Compressibility (1/GPa) = 0.01448735
#
# Stress axis : x y z
#
# Youngs Moduli (GPa) = 73.22127 61.23978 48.22386
#
# Poissons Ratio (x) = 0.06921 0.30324
# Poissons Ratio (y) = 0.08275 0.51597
# Poissons Ratio (z) = 0.46043 0.65524
#
# Static dielectric constant tensor:
#      x y z
#    x 3.439180 0.000000 0.000000 
#    y 0.000000 3.041770 0.000000 
#    z 0.000000 0.000000 3.228360 
# 
# 
# High freq. dielectric constant tensor:
#      x y z
#    x 1.727470 0.000000 0.000000 
#    y 0.000000 1.677380 0.000000 
#    z 0.000000 0.000000 1.714410 
# 
# From -- ./inp_files/9836.got.cif
#   From: 2010.06.25/outbox.cif.g09.slc.cpg/sg52_5_cif.got.tgz:9836.got - 2010.06.26 19:32:48.
