data_PCOD8215236
_publ_section_title
;
Structure prediction by ZEFSAII (Michael W. Deem and Ramdas Pophale) SiO2 
 PCOD8215236
Probable space group: P N N A
;
_chemical_formula_sum "Si O2"
_cell_formula_units_Z 64
_cell_length_a 17.749542
_cell_length_b 9.458355
_cell_length_c 20.972638
_cell_angle_alpha 90.000000
_cell_angle_beta 90.000000
_cell_angle_gamma 90.000000
_cell_volume 3520.917283
_symmetry_space_group_name_H-M "P N N A"
_symmetry_group_IT_number 52
_symmetry_cell_setting 'orthorhombic'
loop_
_space_group_symop_operation_xyz
x,y,z
1/2-x,-y,z
x,1/2-y,1/2-z
1/2-x,1/2+y,1/2-z
-x,-y,-z
1/2+x,y,-z
-x,1/2+y,1/2+z
1/2+x,1/2-y,1/2+z
loop_
_atom_site_type_symbol
_atom_site_label
_atom_site_fract_x
_atom_site_fract_y
_atom_site_fract_z
Si Si1 0.458344 0.460541 0.165799
Si Si2 0.054795 0.886721 0.970423
Si Si3 0.056769 0.941319 0.190443
Si Si4 0.416375 0.749542 0.822204
Si Si5 0.440967 0.775157 0.124517
Si Si6 0.284437 0.653825 0.442148
Si Si7 0.132094 0.744458 0.408005
Si Si8 0.178447 0.083858 0.916879
O O1 0.427020 0.414009 0.235172
O O2 0.544725 0.401927 0.159516
O O3 0.451670 0.626942 0.159142
O O4 0.404111 0.392237 0.112966
O O5 0.005408 0.779041 0.929067
O O6 0.115104 0.965453 0.926619
O O7 0.094469 0.802111 0.026290
O O8 0.000000 0.000000 0.000000
O O9 0.122508 0.875010 0.146850
O O10 0.980223 0.866895 0.168668
O O11 0.046424 0.107203 0.178387
O O12 0.384984 0.750000 0.750000
O O13 0.348059 0.791578 0.868974
O O14 0.359171 0.802951 0.094948
O O15 0.250000 0.500000 0.424578
O O16 0.220708 0.766767 0.421584
O O17 0.300638 0.661148 0.517276
O O18 0.250000 0.000000 0.887877
#
# Coordination Sequence:
#
# PCOD8215236 Si02
#       8
#     8   8   8   8   8   8   8   8
#     4  10  24  37  56  90 124 152 190 240 299 346
#     4  12  18  33  62  87 108 149 198 248 275 340
#     4  10  18  38  64  84 111 159 204 235 270 348
#     4   9  19  38  64  86 116 153 191 243 289 351
#     4  12  22  35  60  88 117 150 201 242 291 338
#     4  11  20  35  58  86 114 149 196 251 277 338
#     4  11  20  38  57  83 119 152 196 237 297 343
#     4  11  19  35  64  93 103 148 206 240 282 344
#
# _framework density 18.177083
#
# number of rings (size 3 to 8) (size 9 to 14) (size 15 to 20)
#    0.000    1.250    7.500    2.250    0.000    1.000 
#    0.000    3.750    5.500    0.000    0.000    0.000 
#    0.000    0.000    0.000    0.000    0.000    0.000 
#
# Total GULP energy -793434.257533 kJ/mol
# GULP energy per Si atom -12397.410274 kJ/mol
# Density = 1.813571 g / cm^3
# Si number density = 18.177083 Si / 1000 Ang^3
#
#
#
# Elastic Constant Matrix: (Units=GPa)
#
#
# Indices 1 2 3 4 5 6 
#
# 1 101.1461 18.4385 36.2827 0.0000 0.0000 0.0000
# 2 18.4385 82.8557 13.2805 0.0000 0.0000 0.0000
# 3 36.2827 13.2805 72.6546 0.0000 0.0000 0.0000
# 4 0.0000 0.0000 0.0000 28.2046 0.0000 0.0000
# 5 0.0000 0.0000 0.0000 0.0000 24.5899 0.0000
# 6 0.0000 0.0000 0.0000 0.0000 0.0000 24.7573
#
#
#
# Elastic Compliance Matrix: (Units=1/GPa)
#
#
# Indices 1 2 3 4 5 6 
#
# 1 0.012301 -0.001806 -0.005813 0.000000 0.000000 0.000000
# 2 -0.001806 0.012699 -0.001419 0.000000 0.000000 0.000000
# 3 -0.005813 -0.001419 0.016926 0.000000 0.000000 0.000000
# 4 0.000000 0.000000 0.000000 0.035455 0.000000 0.000000
# 5 0.000000 0.000000 0.000000 0.000000 0.040667 0.000000
# 6 0.000000 0.000000 0.000000 0.000000 0.000000 0.040392
#
#
# Mechanical properties :
#
#
# Convention : Reuss Voigt Hill
#
# Bulk Modulus (GPa) = 41.92944 43.62887 42.77916
# Shear Modulus (GPa) = 27.10525 28.08733 27.59629
#
# Velocity S-wave (km/s) = 3.86577 3.93517 3.90062
# Velocity P-wave (km/s) = 6.56070 6.68593 6.62361
#
# Compressibility (1/GPa) = 0.02384959
#
# Stress axis : x y z
#
# Youngs Moduli (GPa) = 81.29394 78.74930 59.08035
#
# Poissons Ratio (x) = 0.14220 0.34343
# Poissons Ratio (y) = 0.14679 0.08386
# Poissons Ratio (z) = 0.47255 0.11178
#
# Static dielectric constant tensor:
#      x y z
#    x 3.273420 0.000000 0.000000 
#    y 0.000000 3.123740 0.000000 
#    z 0.000000 0.000000 3.593890 
# 
# 
# High freq. dielectric constant tensor:
#      x y z
#    x 1.698240 0.000000 0.000000 
#    y 0.000000 1.686260 0.000000 
#    z 0.000000 0.000000 1.708350 
# 
# From -- ./inp_files/37681.got.cif
#   From: 2010.06.25/outbox.cif.g09.slc.cpg/sg52_19_cif.got.tgz:37681.got - 2010.06.26 19:32:48.
