data_PCOD8215419
_publ_section_title
;
Structure prediction by ZEFSAII (Michael W. Deem and Ramdas Pophale) SiO2 
 PCOD8215419
Probable space group: P N N A
;
_chemical_formula_sum "Si O2"
_cell_formula_units_Z 48
_cell_length_a 19.646172
_cell_length_b 14.533065
_cell_length_c 8.855126
_cell_angle_alpha 90.000000
_cell_angle_beta 90.000000
_cell_angle_gamma 90.000000
_cell_volume 2528.307559
_symmetry_space_group_name_H-M "P N N A"
_symmetry_group_IT_number 52
_symmetry_cell_setting 'orthorhombic'
loop_
_space_group_symop_operation_xyz
x,y,z
1/2-x,-y,z
x,1/2-y,1/2-z
1/2-x,1/2+y,1/2-z
-x,-y,-z
1/2+x,y,-z
-x,1/2+y,1/2+z
1/2+x,1/2-y,1/2+z
loop_
_atom_site_type_symbol
_atom_site_label
_atom_site_fract_x
_atom_site_fract_y
_atom_site_fract_z
Si Si1 0.065292 0.734847 0.426509
Si Si2 0.049759 0.570264 0.915538
Si Si3 0.156906 0.354674 0.291987
Si Si4 0.674705 0.505688 0.934942
Si Si5 0.694972 0.846582 0.823714
Si Si6 0.483271 0.910148 0.091538
O O1 0.054450 0.750000 0.250000
O O2 0.060606 0.832311 0.505659
O O3 0.136697 0.676398 0.449493
O O4 0.004424 0.676899 0.494036
O O5 0.024310 0.586758 0.747605
O O6 0.124774 0.525218 0.924686
O O7 0.000000 0.500000 0.000000
O O8 0.140240 0.250000 0.250000
O O9 0.157193 0.406092 0.131668
O O10 0.228953 0.375271 0.381111
O O11 0.097529 0.399860 0.391086
O O12 0.750000 0.500000 0.003723
O O13 0.667024 0.580900 0.799515
O O14 0.712450 0.750000 0.750000
O O15 0.500000 0.000000 0.000000
#
# Coordination Sequence:
#
# PCOD8215419 Si02
#       6
#     8   8   8   8   8   8
#     4  11  21  39  63  90 122 158 205 256 313 366
#     4  12  22  38  61  90 124 162 205 257 313 371
#     4  10  20  36  60  91 118 153 210 255 300 368
#     4  10  19  35  61  92 123 160 204 254 312 372
#     4   9  17  35  62  89 116 154 205 252 299 378
#     4  12  25  40  58  89 127 165 206 253 307 370
#
# _framework density 18.985033999999999
#
# number of rings (size 3 to 8) (size 9 to 14) (size 15 to 20)
#    0.000    1.333    5.000    3.500    0.000    0.000 
#    0.000    1.667    0.000    2.000    0.000    0.000 
#    0.000    0.000    0.000    0.000    0.000    0.000 
#
# Total GULP energy -594659.397943 kJ/mol
# GULP energy per Si atom -12388.737457 kJ/mol
# Density = 1.894182 g / cm^3
# Si number density = 18.985034 Si / 1000 Ang^3
#
#
#
# Elastic Constant Matrix: (Units=GPa)
#
#
# Indices 1 2 3 4 5 6 
#
# 1 148.3202 22.8424 44.2954 0.0000 0.0000 0.0000
# 2 22.8424 83.8433 28.3593 0.0000 0.0000 0.0000
# 3 44.2954 28.3593 83.3565 0.0000 0.0000 0.0000
# 4 0.0000 0.0000 0.0000 30.0184 0.0000 0.0000
# 5 0.0000 0.0000 0.0000 0.0000 21.3242 0.0000
# 6 0.0000 0.0000 0.0000 0.0000 0.0000 35.8856
#
#
#
# Elastic Compliance Matrix: (Units=1/GPa)
#
#
# Indices 1 2 3 4 5 6 
#
# 1 0.008067 -0.000845 -0.003999 0.000000 0.000000 0.000000
# 2 -0.000845 0.013567 -0.004167 0.000000 0.000000 0.000000
# 3 -0.003999 -0.004167 0.015539 0.000000 0.000000 0.000000
# 4 0.000000 0.000000 0.000000 0.033313 0.000000 0.000000
# 5 0.000000 0.000000 0.000000 0.000000 0.046895 0.000000
# 6 0.000000 0.000000 0.000000 0.000000 0.000000 0.027866
#
#
# Mechanical properties :
#
#
# Convention : Reuss Voigt Hill
#
# Bulk Modulus (GPa) = 52.21614 56.27936 54.24775
# Shear Modulus (GPa) = 29.47215 32.11383 30.79299
#
# Velocity S-wave (km/s) = 3.94431 4.11729 4.03173
# Velocity P-wave (km/s) = 6.95032 7.23265 7.09289
#
# Compressibility (1/GPa) = 0.01915117
#
# Stress axis : x y z
#
# Youngs Moduli (GPa) = 123.96749 73.71089 64.35298
#
# Poissons Ratio (x) = 0.06229 0.25735
# Poissons Ratio (y) = 0.10476 0.26813
# Poissons Ratio (z) = 0.49576 0.30712
#
# Static dielectric constant tensor:
#      x y z
#    x 4.162270 0.000000 0.000000 
#    y 0.000000 3.693940 0.000000 
#    z 0.000000 0.000000 3.207380 
# 
# 
# High freq. dielectric constant tensor:
#      x y z
#    x 1.761980 0.000000 0.000000 
#    y 0.000000 1.767460 0.000000 
#    z 0.000000 0.000000 1.682780 
# 
# From -- ./inp_files/13278.got.cif
#   From: 2010.06.25/outbox.cif.g09.slc.cpg/sg52_7_cif.got.tgz:13278.got - 2010.06.26 19:32:48.
