data_PCOD8215973
_publ_section_title
;
Structure prediction by ZEFSAII (Michael W. Deem and Ramdas Pophale) SiO2 
 PCOD8215973
Probable space group: P N N A
;
_chemical_formula_sum "Si O2"
_cell_formula_units_Z 64
_cell_length_a 23.194880
_cell_length_b 14.831804
_cell_length_c 8.899707
_cell_angle_alpha 90.000000
_cell_angle_beta 90.000000
_cell_angle_gamma 90.000000
_cell_volume 3061.694236
_symmetry_space_group_name_H-M "P N N A"
_symmetry_group_IT_number 52
_symmetry_cell_setting 'orthorhombic'
loop_
_space_group_symop_operation_xyz
x,y,z
1/2-x,-y,z
x,1/2-y,1/2-z
1/2-x,1/2+y,1/2-z
-x,-y,-z
1/2+x,y,-z
-x,1/2+y,1/2+z
1/2+x,1/2-y,1/2+z
loop_
_atom_site_type_symbol
_atom_site_label
_atom_site_fract_x
_atom_site_fract_y
_atom_site_fract_z
Si Si1 0.449780 0.436732 0.441841
Si Si2 0.193480 0.557759 0.960220
Si Si3 0.760564 0.764937 0.426805
Si Si4 0.548958 0.175842 0.126347
Si Si5 0.788447 0.579556 0.543118
Si Si6 0.124862 0.465555 0.211845
Si Si7 0.373226 0.507631 0.681403
Si Si8 0.123609 0.214347 0.410181
O O1 0.500000 0.500000 0.500000
O O2 0.481225 0.341561 0.410340
O O3 0.425046 0.475074 0.285583
O O4 0.398995 0.431552 0.566715
O O5 0.250000 0.500000 0.921352
O O6 0.210918 0.663343 0.969147
O O7 0.143306 0.540953 0.836582
O O8 0.167328 0.531105 0.120619
O O9 0.760195 0.750000 0.250000
O O10 0.751053 0.670379 0.516386
O O11 0.823161 0.800642 0.476065
O O12 0.554350 0.250000 0.250000
O O13 0.579664 0.087115 0.194672
O O14 0.578544 0.213169 0.975169
O O15 0.750000 0.500000 0.609196
O O16 0.839869 0.591252 0.661881
O O17 0.814623 0.550759 0.382681
O O18 0.096956 0.386782 0.107593
O O19 0.145332 0.250000 0.250000
#
# Coordination Sequence:
#
# PCOD8215973 Si02
#       8
#     8   8   8   8   8   8   8   8
#     4   9  21  44  67  90 124 174 224 270 342 403
#     4  12  24  38  64 100 142 175 216 271 330 398
#     4  12  24  39  60  94 136 177 223 269 323 404
#     4  11  22  40  69  97 121 167 226 289 337 387
#     4  11  22  39  62  88 127 181 220 261 334 395
#     4  11  23  41  63  96 134 168 216 284 338 397
#     4  10  20  40  64  91 128 176 218 266 332 405
#     4  12  21  37  64 100 126 160 223 290 332 383
#
# _framework density 20.903458000000001
#
# number of rings (size 3 to 8) (size 9 to 14) (size 15 to 20)
#    0.000    1.000    3.750    4.875    0.000    0.000 
#    0.000   10.625    0.000    4.500    0.000    0.000 
#    0.000    0.000    0.000    0.000    0.000    0.000 
#
# Total GULP energy -793314.954309 kJ/mol
# GULP energy per Si atom -12395.546161 kJ/mol
# Density = 2.085588 g / cm^3
# Si number density = 20.903458 Si / 1000 Ang^3
#
#
#
# Elastic Constant Matrix: (Units=GPa)
#
#
# Indices 1 2 3 4 5 6 
#
# 1 88.0688 61.6304 39.1547 0.0000 0.0000 0.0000
# 2 61.6304 120.2981 49.4189 0.0000 0.0000 0.0000
# 3 39.1547 49.4189 95.6441 0.0000 0.0000 0.0000
# 4 0.0000 0.0000 0.0000 25.5455 0.0000 0.0000
# 5 0.0000 0.0000 0.0000 0.0000 33.9337 0.0000
# 6 0.0000 0.0000 0.0000 0.0000 0.0000 37.7073
#
#
#
# Elastic Compliance Matrix: (Units=1/GPa)
#
#
# Indices 1 2 3 4 5 6 
#
# 1 0.018534 -0.008097 -0.003404 0.000000 0.000000 0.000000
# 2 -0.008097 0.014090 -0.003965 0.000000 0.000000 0.000000
# 3 -0.003404 -0.003965 0.013898 0.000000 0.000000 0.000000
# 4 0.000000 0.000000 0.000000 0.039146 0.000000 0.000000
# 5 0.000000 0.000000 0.000000 0.000000 0.029469 0.000000
# 6 0.000000 0.000000 0.000000 0.000000 0.000000 0.026520
#
#
# Mechanical properties :
#
#
# Convention : Reuss Voigt Hill
#
# Bulk Modulus (GPa) = 64.14620 67.15767 65.65194
# Shear Modulus (GPa) = 28.12359 29.69110 28.90734
#
# Velocity S-wave (km/s) = 3.67195 3.77290 3.72277
# Velocity P-wave (km/s) = 6.98077 7.15381 7.06782
#
# Compressibility (1/GPa) = 0.01558939
#
# Stress axis : x y z
#
# Youngs Moduli (GPa) = 53.95356 70.97240 71.95378
#
# Poissons Ratio (x) = 0.57467 0.24492
# Poissons Ratio (y) = 0.43687 0.28533
# Poissons Ratio (z) = 0.18365 0.28144
#
# Static dielectric constant tensor:
#      x y z
#    x 4.470250 0.000000 0.000000 
#    y 0.000000 3.536520 0.000000 
#    z 0.000000 0.000000 3.921950 
# 
# 
# High freq. dielectric constant tensor:
#      x y z
#    x 1.792090 0.000000 0.000000 
#    y 0.000000 1.817320 0.000000 
#    z 0.000000 0.000000 1.826660 
# 
# From -- ./inp_files/14502.got.cif
#   From: 2010.06.25/outbox.cif.g09.slc.cpg/sg52_8_cif.got.tgz:14502.got - 2010.06.26 19:32:48.
