data_PCOD8215191
_publ_section_title
;
Structure prediction by ZEFSAII (Michael W. Deem and Ramdas Pophale) SiO2 
 PCOD8215191
Probable space group: P N N A
;
_chemical_formula_sum "Si O2"
_cell_formula_units_Z 56
_cell_length_a 19.545567
_cell_length_b 9.297026
_cell_length_c 16.017076
_cell_angle_alpha 90.000000
_cell_angle_beta 90.000000
_cell_angle_gamma 90.000000
_cell_volume 2910.553290
_symmetry_space_group_name_H-M "P N N A"
_symmetry_group_IT_number 52
_symmetry_cell_setting 'orthorhombic'
loop_
_space_group_symop_operation_xyz
x,y,z
1/2-x,-y,z
x,1/2-y,1/2-z
1/2-x,1/2+y,1/2-z
-x,-y,-z
1/2+x,y,-z
-x,1/2+y,1/2+z
1/2+x,1/2-y,1/2+z
loop_
_atom_site_type_symbol
_atom_site_label
_atom_site_fract_x
_atom_site_fract_y
_atom_site_fract_z
Si Si1 0.511605 0.665248 0.019004
Si Si2 0.675143 0.001084 0.648509
Si Si3 0.624683 0.792723 0.913622
Si Si4 0.587550 0.451229 0.695588
Si Si5 0.936398 0.169986 0.168808
Si Si6 0.174053 0.511221 0.560729
Si Si7 0.634892 0.261670 0.552525
O O1 0.551421 0.698282 0.104957
O O2 0.441237 0.747135 0.019993
O O3 0.500000 0.500000 0.000000
O O4 0.552532 0.734855 0.944143
O O5 0.669579 0.838935 0.617187
O O6 0.750000 0.000000 0.691713
O O7 0.614311 0.054075 0.709314
O O8 0.672252 0.108599 0.568272
O O9 0.603151 0.889329 0.835622
O O10 0.667717 0.876653 0.984132
O O11 0.507132 0.412046 0.692039
O O12 0.633859 0.344362 0.640892
O O13 0.905819 0.250000 0.250000
O O14 0.881677 0.054385 0.131708
O O15 0.250000 0.500000 0.600431
O O16 0.167366 0.351640 0.522565
#
# Coordination Sequence:
#
# PCOD8215191 Si02
#       7
#     8   8   8   8   8   8   8
#     4  10  18  35  61  87 113 144 193 250 292 334
#     4  12  23  34  52  84 127 164 194 234 289 349
#     4  10  21  35  56  87 116 153 198 245 288 347
#     4  10  21  36  54  83 118 156 196 237 285 350
#     4  10  21  38  64  86 113 152 194 247 303 353
#     4  10  21  39  63  84 113 153 200 245 297 359
#     4  10  20  36  58  82 113 153 201 238 289 347
#
# _framework density 19.240328000000002
#
# number of rings (size 3 to 8) (size 9 to 14) (size 15 to 20)
#    0.000    1.714    1.429    4.286    0.000    8.000 
#    0.000    0.000    3.143    0.000    0.000    0.000 
#    0.000    0.000    0.000    0.000    0.000    0.000 
#
# Total GULP energy -694060.138002 kJ/mol
# GULP energy per Si atom -12393.931036 kJ/mol
# Density = 1.919654 g / cm^3
# Si number density = 19.240328 Si / 1000 Ang^3
#
#
#
# Elastic Constant Matrix: (Units=GPa)
#
#
# Indices 1 2 3 4 5 6 
#
# 1 105.4137 27.8479 40.9787 0.0000 0.0000 0.0000
# 2 27.8479 123.8145 41.9147 0.0000 0.0000 0.0000
# 3 40.9787 41.9147 76.2631 0.0000 0.0000 0.0000
# 4 0.0000 0.0000 0.0000 29.1922 0.0000 0.0000
# 5 0.0000 0.0000 0.0000 0.0000 19.0613 0.0000
# 6 0.0000 0.0000 0.0000 0.0000 0.0000 19.8783
#
#
#
# Elastic Compliance Matrix: (Units=1/GPa)
#
#
# Indices 1 2 3 4 5 6 
#
# 1 0.012032 -0.000636 -0.006116 0.000000 0.000000 0.000000
# 2 -0.000636 0.009956 -0.005130 0.000000 0.000000 0.000000
# 3 -0.006116 -0.005130 0.019218 0.000000 0.000000 0.000000
# 4 0.000000 0.000000 0.000000 0.034256 0.000000 0.000000
# 5 0.000000 0.000000 0.000000 0.000000 0.052462 0.000000
# 6 0.000000 0.000000 0.000000 0.000000 0.000000 0.050306
#
#
# Mechanical properties :
#
#
# Convention : Reuss Voigt Hill
#
# Bulk Modulus (GPa) = 57.33044 58.55266 57.94155
# Shear Modulus (GPa) = 24.06059 26.60971 25.33515
#
# Velocity S-wave (km/s) = 3.54012 3.72293 3.63267
# Velocity P-wave (km/s) = 6.82434 6.99847 6.91195
#
# Compressibility (1/GPa) = 0.01744274
#
# Stress axis : x y z
#
# Youngs Moduli (GPa) = 83.11304 100.43782 52.03357
#
# Poissons Ratio (x) = 0.06386 0.31822
# Poissons Ratio (y) = 0.05285 0.26696
# Poissons Ratio (z) = 0.50829 0.51529
#
# Static dielectric constant tensor:
#      x y z
#    x 3.485510 0.000000 0.000000 
#    y 0.000000 2.729110 0.000000 
#    z 0.000000 0.000000 -1.181210 
# 
# 
# High freq. dielectric constant tensor:
#      x y z
#    x 1.746330 0.000000 0.000000 
#    y 0.000000 1.761140 0.000000 
#    z 0.000000 0.000000 1.727550 
# 
# From -- ./inp_files/28753.got.cif
#   From: 2010.06.25/outbox.cif.g09.slc.cpg/sg52_15_cif.got.tgz:28753.got - 2010.06.26 19:32:48.
