data_PCOD8215119
_publ_section_title
;
Structure prediction by ZEFSAII (Michael W. Deem and Ramdas Pophale) SiO2 
 PCOD8215119
Probable space group: P N N A
;
_chemical_formula_sum "Si O2"
_cell_formula_units_Z 36
_cell_length_a 16.990541
_cell_length_b 17.768600
_cell_length_c 6.659242
_cell_angle_alpha 90.000000
_cell_angle_beta 90.000000
_cell_angle_gamma 90.000000
_cell_volume 2010.412686
_symmetry_space_group_name_H-M "P N N A"
_symmetry_group_IT_number 52
_symmetry_cell_setting 'orthorhombic'
loop_
_space_group_symop_operation_xyz
x,y,z
1/2-x,-y,z
x,1/2-y,1/2-z
1/2-x,1/2+y,1/2-z
-x,-y,-z
1/2+x,y,-z
-x,1/2+y,1/2+z
1/2+x,1/2-y,1/2+z
loop_
_atom_site_type_symbol
_atom_site_label
_atom_site_fract_x
_atom_site_fract_y
_atom_site_fract_z
Si Si1 0.227736 0.120451 0.034930
Si Si2 0.007648 0.457318 0.201845
Si Si3 0.873636 0.021007 0.010674
Si Si4 0.617547 0.322631 0.866971
Si Si5 0.816664 0.750000 0.250000
O O1 0.314039 0.085776 0.062609
O O2 0.233968 0.192972 0.888234
O O3 0.170779 0.057204 0.937091
O O4 0.195366 0.143575 0.255811
O O5 0.063955 0.508441 0.336385
O O6 0.043544 0.376704 0.153038
O O7 0.920590 0.448997 0.295745
O O8 0.000000 0.500000 0.000000
O O9 0.588706 0.250000 0.750000
O O10 0.632179 0.302455 0.100490
#
# Coordination Sequence:
#
# PCOD8215119 Si02
#       5
#     8   8   8   8   4
#     4   9  18  34  54  77 103 138 177 220 260 307
#     4  10  19  33  54  78 104 138 177 214 266 317
#     4   9  19  34  53  77 107 133 176 226 258 303
#     4   9  19  34  53  75 104 140 176 214 261 320
#     4  10  18  32  56  76 104 140 176 208 266 318
#
# _framework density 17.906773000000001
#
# number of rings (size 3 to 8) (size 9 to 14) (size 15 to 20)
#    0.000    2.667    0.000    1.333    0.000    3.556 
#    2.000    4.444    0.000    0.000    0.000    0.000 
#    0.000    0.000    0.000    0.000    0.000    0.000 
#
# Total GULP energy -446242.707034 kJ/mol
# GULP energy per Si atom -12395.630751 kJ/mol
# Density = 1.786602 g / cm^3
# Si number density = 17.906773 Si / 1000 Ang^3
#
#
#
# Elastic Constant Matrix: (Units=GPa)
#
#
# Indices 1 2 3 4 5 6 
#
# 1 103.4171 51.8375 44.1424 0.0000 0.0000 0.0000
# 2 51.8375 108.6216 44.2272 0.0000 0.0000 0.0000
# 3 44.1424 44.2272 102.5545 0.0000 0.0000 0.0000
# 4 0.0000 0.0000 0.0000 33.6695 0.0000 0.0000
# 5 0.0000 0.0000 0.0000 0.0000 16.4931 0.0000
# 6 0.0000 0.0000 0.0000 0.0000 0.0000 27.7063
#
#
#
# Elastic Compliance Matrix: (Units=1/GPa)
#
#
# Indices 1 2 3 4 5 6 
#
# 1 0.013812 -0.005059 -0.003763 0.000000 0.000000 0.000000
# 2 -0.005059 0.013020 -0.003437 0.000000 0.000000 0.000000
# 3 -0.003763 -0.003437 0.012853 0.000000 0.000000 0.000000
# 4 0.000000 0.000000 0.000000 0.029700 0.000000 0.000000
# 5 0.000000 0.000000 0.000000 0.000000 0.060631 0.000000
# 6 0.000000 0.000000 0.000000 0.000000 0.000000 0.036093
#
#
# Mechanical properties :
#
#
# Convention : Reuss Voigt Hill
#
# Bulk Modulus (GPa) = 65.93891 66.11194 66.02543
# Shear Modulus (GPa) = 25.55134 27.19953 26.37544
#
# Velocity S-wave (km/s) = 3.78154 3.90160 3.84204
# Velocity P-wave (km/s) = 7.48132 7.56947 7.52552
#
# Compressibility (1/GPa) = 0.01516555
#
# Stress axis : x y z
#
# Youngs Moduli (GPa) = 72.40222 76.80333 77.80211
#
# Poissons Ratio (x) = 0.38856 0.29278
# Poissons Ratio (y) = 0.36629 0.26744
# Poissons Ratio (z) = 0.27246 0.26401
#
# Static dielectric constant tensor:
#      x y z
#    x 3.242930 0.000000 0.000000 
#    y 0.000000 3.421270 0.000000 
#    z 0.000000 0.000000 3.380930 
# 
# 
# High freq. dielectric constant tensor:
#      x y z
#    x 1.675480 0.000000 0.000000 
#    y 0.000000 1.703450 0.000000 
#    z 0.000000 0.000000 1.695030 
# 
# From -- ./inp_files/2143.got.cif
#   From: 2010.06.25/outbox.cif.g09.slc.cpg/sg52_2_cif.got.tgz:2143.got - 2010.06.26 19:32:48.
