data_PCOD8215982
_publ_section_title
;
Structure prediction by ZEFSAII (Michael W. Deem and Ramdas Pophale) SiO2 
 PCOD8215982
Probable space group: P N N A
;
_chemical_formula_sum "Si O2"
_cell_formula_units_Z 40
_cell_length_a 13.415521
_cell_length_b 8.802929
_cell_length_c 16.320831
_cell_angle_alpha 90.000000
_cell_angle_beta 90.000000
_cell_angle_gamma 90.000000
_cell_volume 1927.422881
_symmetry_space_group_name_H-M "P N N A"
_symmetry_group_IT_number 52
_symmetry_cell_setting 'orthorhombic'
loop_
_space_group_symop_operation_xyz
x,y,z
1/2-x,-y,z
x,1/2-y,1/2-z
1/2-x,1/2+y,1/2-z
-x,-y,-z
1/2+x,y,-z
-x,1/2+y,1/2+z
1/2+x,1/2-y,1/2+z
loop_
_atom_site_type_symbol
_atom_site_label
_atom_site_fract_x
_atom_site_fract_y
_atom_site_fract_z
Si Si1 0.958315 0.077824 0.603066
Si Si2 0.885015 0.754068 0.004937
Si Si3 0.365076 0.514251 0.646347
Si Si4 0.014351 0.254801 0.156412
Si Si5 0.750000 0.000000 0.528972
Si Si6 0.975814 0.750000 0.250000
O O1 0.019652 0.147631 0.526893
O O2 0.954490 0.200126 0.675625
O O3 0.015258 0.927505 0.635159
O O4 0.843881 0.045601 0.583946
O O5 0.880419 0.905508 0.058197
O O6 0.785688 0.650219 0.021474
O O7 0.899674 0.798974 0.908820
O O8 0.250000 0.500000 0.665195
O O9 0.417191 0.350193 0.645184
O O10 0.407164 0.612244 0.720714
O O11 0.055404 0.250000 0.250000
#
# Coordination Sequence:
#
# PCOD8215982 Si02
#       6
#     8   8   8   8   4   4
#     4  10  22  42  66  89 132 167 209 261 315 389
#     4  10  24  42  67  93 131 167 214 264 318 382
#     4  11  25  39  65  94 129 168 219 262 323 382
#     4  11  21  41  66  90 126 166 206 267 322 369
#     4  10  20  40  66  96 112 174 222 244 328 378
#     4  10  22  44  56  94 130 166 202 272 318 370
#
# _framework density 20.753098000000001
#
# number of rings (size 3 to 8) (size 9 to 14) (size 15 to 20)
#    0.000    1.600    2.000    3.000    7.000    0.000 
#   10.800    0.000    2.200    0.000    0.000    0.000 
#    0.000    0.000    0.000    0.000    0.000    0.000 
#
# Total GULP energy -495795.500641 kJ/mol
# GULP energy per Si atom -12394.887516 kJ/mol
# Density = 2.070586 g / cm^3
# Si number density = 20.753098 Si / 1000 Ang^3
#
#
#
# Elastic Constant Matrix: (Units=GPa)
#
#
# Indices 1 2 3 4 5 6 
#
# 1 120.9517 49.4652 28.1617 0.0000 0.0000 0.0000
# 2 49.4652 92.5122 27.0385 0.0000 0.0000 0.0000
# 3 28.1617 27.0385 122.2756 0.0000 0.0000 0.0000
# 4 0.0000 0.0000 0.0000 18.0682 0.0000 0.0000
# 5 0.0000 0.0000 0.0000 0.0000 6.7472 0.0000
# 6 0.0000 0.0000 0.0000 0.0000 0.0000 30.0505
#
#
#
# Elastic Compliance Matrix: (Units=1/GPa)
#
#
# Indices 1 2 3 4 5 6 
#
# 1 0.010769 -0.005381 -0.001290 0.000000 0.000000 0.000000
# 2 -0.005381 0.014245 -0.001911 0.000000 0.000000 0.000000
# 3 -0.001290 -0.001911 0.008898 0.000000 0.000000 0.000000
# 4 0.000000 0.000000 0.000000 0.055346 0.000000 0.000000
# 5 0.000000 0.000000 0.000000 0.000000 0.148210 0.000000
# 6 0.000000 0.000000 0.000000 0.000000 0.000000 0.033277
#
#
# Mechanical properties :
#
#
# Convention : Reuss Voigt Hill
#
# Bulk Modulus (GPa) = 59.70883 60.56335 60.13609
# Shear Modulus (GPa) = 17.03628 26.37812 21.70720
#
# Velocity S-wave (km/s) = 2.86825 3.56904 3.23766
# Velocity P-wave (km/s) = 6.30893 6.79928 6.55869
#
# Compressibility (1/GPa) = 0.01674794
#
# Stress axis : x y z
#
# Youngs Moduli (GPa) = 92.86118 70.20073 112.38570
#
# Poissons Ratio (x) = 0.37774 0.14502
# Poissons Ratio (y) = 0.49967 0.21473
# Poissons Ratio (z) = 0.11982 0.13413
#
# Static dielectric constant tensor:
#      x y z
#    x 3.485470 0.000000 0.000000 
#    y 0.000000 4.061860 0.000000 
#    z 0.000000 0.000000 3.964370 
# 
# 
# High freq. dielectric constant tensor:
#      x y z
#    x 1.785500 0.000000 0.000000 
#    y 0.000000 1.826890 0.000000 
#    z 0.000000 0.000000 1.824320 
# 
# From -- ./inp_files/32033.got.cif
#   From: 2010.06.25/outbox.cif.g09.slc.cpg/sg52_17_cif.got.tgz:32033.got - 2010.06.26 19:32:48.
