data_PCOD8215629
_publ_section_title
;
Structure prediction by ZEFSAII (Michael W. Deem and Ramdas Pophale) SiO2 
 PCOD8215629
Probable space group: P N N A
;
_chemical_formula_sum "Si O2"
_cell_formula_units_Z 60
_cell_length_a 5.303060
_cell_length_b 26.618862
_cell_length_c 19.388869
_cell_angle_alpha 90.000000
_cell_angle_beta 90.000000
_cell_angle_gamma 90.000000
_cell_volume 2736.960325
_symmetry_space_group_name_H-M "P N N A"
_symmetry_group_IT_number 52
_symmetry_cell_setting 'orthorhombic'
loop_
_space_group_symop_operation_xyz
x,y,z
1/2-x,-y,z
x,1/2-y,1/2-z
1/2-x,1/2+y,1/2-z
-x,-y,-z
1/2+x,y,-z
-x,1/2+y,1/2+z
1/2+x,1/2-y,1/2+z
loop_
_atom_site_type_symbol
_atom_site_label
_atom_site_fract_x
_atom_site_fract_y
_atom_site_fract_z
Si Si1 0.526647 0.250000 0.750000
Si Si2 0.786856 0.946089 0.260451
Si Si3 0.185730 0.338498 0.808189
Si Si4 0.800651 0.571450 0.679946
Si Si5 0.435488 0.695213 0.536617
Si Si6 0.735169 0.555483 0.527068
Si Si7 0.848854 0.322596 0.679361
Si Si8 0.077649 0.186167 0.536816
O O1 0.383141 0.295475 0.787006
O O2 0.690096 0.271354 0.685897
O O3 0.714201 0.896526 0.305632
O O4 0.573195 0.949724 0.201076
O O5 0.073153 0.941547 0.232685
O O6 0.750000 0.000000 0.300603
O O7 0.966676 0.332967 0.753337
O O8 0.077518 0.329383 0.883615
O O9 0.721885 0.547460 0.608242
O O10 0.836388 0.630877 0.666462
O O11 0.183576 0.672770 0.501657
O O12 0.446951 0.681642 0.618036
O O13 0.426109 0.754523 0.528458
O O14 0.750000 0.500000 0.492001
O O15 0.485912 0.584866 0.499535
O O16 0.825689 0.163712 0.501149
#
# Coordination Sequence:
#
# PCOD8215629 Si02
#       8
#     4   8   8   8   8   8   8   8
#     4  12  22  40  64  92 136 160 222 268 318 390
#     4  11  23  42  66  93 123 161 209 269 328 385
#     4  11  25  41  67  98 130 170 218 268 329 387
#     4  11  23  40  60  90 123 161 213 267 325 374
#     4  10  23  38  58  87 131 178 220 260 315 374
#     4  10  20  34  55  80 111 158 207 256 310 363
#     4  11  25  39  62  93 129 173 218 263 325 376
#     4  10  23  40  63  91 127 166 211 256 321 396
#
# _framework density 21.922129999999999
#
# number of rings (size 3 to 8) (size 9 to 14) (size 15 to 20)
#    0.000    1.333    1.333    4.000    9.333    2.133 
#    0.000    0.000    0.000    0.800    0.000    0.000 
#    0.000    0.000    0.000    0.000    0.000    0.000 
#
# Total GULP energy -743560.877610 kJ/mol
# GULP energy per Si atom -12392.681294 kJ/mol
# Density = 2.187223 g / cm^3
# Si number density = 21.922130 Si / 1000 Ang^3
#
#
#
# Elastic Constant Matrix: (Units=GPa)
#
#
# Indices 1 2 3 4 5 6 
#
# 1 137.8321 37.4799 51.2408 0.0000 0.0000 0.0000
# 2 37.4799 104.1522 12.7131 0.0000 0.0000 0.0000
# 3 51.2408 12.7131 129.4230 0.0000 0.0000 0.0000
# 4 0.0000 0.0000 0.0000 7.1767 0.0000 0.0000
# 5 0.0000 0.0000 0.0000 0.0000 15.2726 0.0000
# 6 0.0000 0.0000 0.0000 0.0000 0.0000 21.6105
#
#
#
# Elastic Compliance Matrix: (Units=1/GPa)
#
#
# Indices 1 2 3 4 5 6 
#
# 1 0.009318 -0.002938 -0.003401 0.000000 0.000000 0.000000
# 2 -0.002938 0.010644 0.000118 0.000000 0.000000 0.000000
# 3 -0.003401 0.000118 0.009061 0.000000 0.000000 0.000000
# 4 0.000000 0.000000 0.000000 0.139339 0.000000 0.000000
# 5 0.000000 0.000000 0.000000 0.000000 0.065477 0.000000
# 6 0.000000 0.000000 0.000000 0.000000 0.000000 0.046274
#
#
# Mechanical properties :
#
#
# Convention : Reuss Voigt Hill
#
# Bulk Modulus (GPa) = 60.30723 63.80830 62.05776
# Shear Modulus (GPa) = 16.77382 26.81020 21.79201
#
# Velocity S-wave (km/s) = 2.76914 3.50090 3.15630
# Velocity P-wave (km/s) = 6.14766 6.74624 6.45389
#
# Compressibility (1/GPa) = 0.01658176
#
# Stress axis : x y z
#
# Youngs Moduli (GPa) = 107.31421 93.94699 110.35774
#
# Poissons Ratio (x) = 0.27604 0.37529
# Poissons Ratio (y) = 0.31531 -0.01299
# Poissons Ratio (z) = 0.36494 -0.01106
#
# Static dielectric constant tensor:
#      x y z
#    x 4.309580 0.000000 0.000000 
#    y 0.000000 4.437760 0.000000 
#    z 0.000000 0.000000 3.797930 
# 
# 
# High freq. dielectric constant tensor:
#      x y z
#    x 1.875760 0.000000 0.000000 
#    y 0.000000 1.867370 0.000000 
#    z 0.000000 0.000000 1.828490 
# 
# From -- ./inp_files/30382.got.cif
#   From: 2010.06.25/outbox.cif.g09.slc.cpg/sg52_16_cif.got.tgz:30382.got - 2010.06.26 19:32:48.
