data_PCOD8215329
_publ_section_title
;
Structure prediction by ZEFSAII (Michael W. Deem and Ramdas Pophale) SiO2 
 PCOD8215329
Probable space group: P N N A
;
_chemical_formula_sum "Si O2"
_cell_formula_units_Z 48
_cell_length_a 9.023101
_cell_length_b 16.044812
_cell_length_c 18.105681
_cell_angle_alpha 90.000000
_cell_angle_beta 90.000000
_cell_angle_gamma 90.000000
_cell_volume 2621.231122
_symmetry_space_group_name_H-M "P N N A"
_symmetry_group_IT_number 52
_symmetry_cell_setting 'orthorhombic'
loop_
_space_group_symop_operation_xyz
x,y,z
1/2-x,-y,z
x,1/2-y,1/2-z
1/2-x,1/2+y,1/2-z
-x,-y,-z
1/2+x,y,-z
-x,1/2+y,1/2+z
1/2+x,1/2-y,1/2+z
loop_
_atom_site_type_symbol
_atom_site_label
_atom_site_fract_x
_atom_site_fract_y
_atom_site_fract_z
Si Si1 0.928915 0.331843 0.793994
Si Si2 0.095909 0.727428 0.926063
Si Si3 0.236358 0.403235 0.831261
Si Si4 0.073054 0.665975 0.708126
Si Si5 0.770300 0.592847 0.673072
Si Si6 0.754914 0.751677 0.579388
O O1 0.983813 0.250000 0.750000
O O2 0.850107 0.394371 0.737406
O O3 0.813028 0.309763 0.857680
O O4 0.065904 0.376169 0.833883
O O5 0.168454 0.644031 0.893193
O O6 0.130466 0.806616 0.872924
O O7 0.920180 0.715125 0.934285
O O8 0.161608 0.745342 0.005431
O O9 0.250000 0.500000 0.848938
O O10 0.295247 0.381600 0.749389
O O11 0.020438 0.750000 0.750000
O O12 0.934287 0.604177 0.706142
O O13 0.750000 0.500000 0.641705
O O14 0.749773 0.655933 0.605299
#
# Coordination Sequence:
#
# PCOD8215329 Si02
#       6
#     8   8   8   8   8   8
#     4  10  19  33  55  79 105 140 177 210 257 319
#     4  10  20  37  55  74 105 143 178 211 257 320
#     4  11  21  34  54  83 108 133 174 225 264 301
#     4   9  18  35  55  74 105 144 174 208 261 316
#     4  10  19  34  55  82 108 135 174 221 260 302
#     4  10  21  37  57  76 104 145 180 209 258 320
#
# _framework density 18.312007000000001
#
# number of rings (size 3 to 8) (size 9 to 14) (size 15 to 20)
#    0.000    2.000    0.000    7.000    0.000    1.333 
#    0.000    8.333    0.000    0.000    0.000    0.000 
#    0.000    0.000    0.000    0.000    0.000    0.000 
#
# Total GULP energy -595326.692735 kJ/mol
# GULP energy per Si atom -12402.639432 kJ/mol
# Density = 1.827033 g / cm^3
# Si number density = 18.312007 Si / 1000 Ang^3
#
#
#
# Elastic Constant Matrix: (Units=GPa)
#
#
# Indices 1 2 3 4 5 6 
#
# 1 126.2458 58.4164 51.5431 0.0000 0.0000 0.0000
# 2 58.4164 119.0629 38.4837 0.0000 0.0000 0.0000
# 3 51.5431 38.4837 102.3023 0.0000 0.0000 0.0000
# 4 0.0000 0.0000 0.0000 13.7211 0.0000 0.0000
# 5 0.0000 0.0000 0.0000 0.0000 32.6426 0.0000
# 6 0.0000 0.0000 0.0000 0.0000 0.0000 12.8317
#
#
#
# Elastic Compliance Matrix: (Units=1/GPa)
#
#
# Indices 1 2 3 4 5 6 
#
# 1 0.011667 -0.004354 -0.004240 0.000000 0.000000 0.000000
# 2 -0.004354 0.011186 -0.002014 0.000000 0.000000 0.000000
# 3 -0.004240 -0.002014 0.012669 0.000000 0.000000 0.000000
# 4 0.000000 0.000000 0.000000 0.072880 0.000000 0.000000
# 5 0.000000 0.000000 0.000000 0.000000 0.030635 0.000000
# 6 0.000000 0.000000 0.000000 0.000000 0.000000 0.077932
#
#
# Mechanical properties :
#
#
# Convention : Reuss Voigt Hill
#
# Bulk Modulus (GPa) = 69.90463 71.61082 70.75773
# Shear Modulus (GPa) = 20.57998 25.11693 22.84845
#
# Velocity S-wave (km/s) = 3.35603 3.70754 3.53616
# Velocity P-wave (km/s) = 7.29892 7.58411 7.44288
#
# Compressibility (1/GPa) = 0.01430520
#
# Stress axis : x y z
#
# Youngs Moduli (GPa) = 85.71354 89.39717 78.93161
#
# Poissons Ratio (x) = 0.38919 0.33470
# Poissons Ratio (y) = 0.37316 0.15901
# Poissons Ratio (z) = 0.36346 0.18009
#
# Static dielectric constant tensor:
#      x y z
#    x 3.437590 0.000000 0.000000 
#    y 0.000000 3.220970 0.000000 
#    z 0.000000 0.000000 3.410570 
# 
# 
# High freq. dielectric constant tensor:
#      x y z
#    x 1.723790 0.000000 0.000000 
#    y 0.000000 1.695780 0.000000 
#    z 0.000000 0.000000 1.704960 
# 
# From -- ./inp_files/31208.got.cif
#   From: 2010.06.25/outbox.cif.g09.slc.cpg/sg52_16_cif.got.tgz:31208.got - 2010.06.26 19:32:48.
