data_PCOD8215745
_publ_section_title
;
Structure prediction by ZEFSAII (Michael W. Deem and Ramdas Pophale) SiO2 
 PCOD8215745
Probable space group: P N N A
;
_chemical_formula_sum "Si O2"
_cell_formula_units_Z 48
_cell_length_a 19.101182
_cell_length_b 10.839589
_cell_length_c 11.036198
_cell_angle_alpha 90.000000
_cell_angle_beta 90.000000
_cell_angle_gamma 90.000000
_cell_volume 2285.033344
_symmetry_space_group_name_H-M "P N N A"
_symmetry_group_IT_number 52
_symmetry_cell_setting 'orthorhombic'
loop_
_space_group_symop_operation_xyz
x,y,z
1/2-x,-y,z
x,1/2-y,1/2-z
1/2-x,1/2+y,1/2-z
-x,-y,-z
1/2+x,y,-z
-x,1/2+y,1/2+z
1/2+x,1/2-y,1/2+z
loop_
_atom_site_type_symbol
_atom_site_label
_atom_site_fract_x
_atom_site_fract_y
_atom_site_fract_z
Si Si1 0.946806 0.913899 0.569539
Si Si2 0.750000 0.000000 0.200195
Si Si3 0.188079 0.731512 0.607728
Si Si4 0.679902 0.130568 0.413256
Si Si5 0.040861 0.681147 0.531835
Si Si6 0.495807 0.468640 0.302359
Si Si7 0.410839 0.750000 0.750000
O O1 0.866955 0.928744 0.520178
O O2 0.975842 0.773656 0.554693
O O3 0.000000 0.000000 0.500000
O O4 0.943952 0.961767 0.708791
O O5 0.780880 0.094724 0.101369
O O6 0.687832 0.046004 0.291855
O O7 0.180247 0.750000 0.750000
O O8 0.241899 0.829724 0.545046
O O9 0.114278 0.752910 0.542144
O O10 0.638318 0.254291 0.369516
O O11 0.040425 0.574050 0.631846
O O12 0.042421 0.618923 0.399620
O O13 0.545660 0.375434 0.229097
#
# Coordination Sequence:
#
# PCOD8215745 Si02
#       7
#     8   4   8   8   8   8   4
#     4  12  24  38  65  92 128 170 213 263 326 391
#     4  10  20  36  60  92 122 156 208 258 328 368
#     4  10  21  34  59  91 125 155 206 270 320 384
#     4  11  22  36  61  91 127 162 206 265 319 390
#     4  11  24  40  62  96 125 165 217 268 325 389
#     4  11  23  39  65  92 131 164 214 268 323 394
#     4  12  18  42  60  98 122 166 206 260 332 378
#
# _framework density 21.006257999999999
#
# number of rings (size 3 to 8) (size 9 to 14) (size 15 to 20)
#    0.000    1.000    5.833    2.500    4.667    0.000 
#    0.000    0.000    0.000    5.000    0.000    0.000 
#    0.000    0.000    0.000    0.000    0.000    0.000 
#
# Total GULP energy -594668.317389 kJ/mol
# GULP energy per Si atom -12388.923279 kJ/mol
# Density = 2.095845 g / cm^3
# Si number density = 21.006258 Si / 1000 Ang^3
#
#
#
# Elastic Constant Matrix: (Units=GPa)
#
#
# Indices 1 2 3 4 5 6 
#
# 1 127.9962 16.2513 40.6938 0.0000 0.0000 0.0000
# 2 16.2513 66.1545 16.0713 0.0000 0.0000 0.0000
# 3 40.6938 16.0713 88.0063 0.0000 0.0000 0.0000
# 4 0.0000 0.0000 0.0000 29.3916 0.0000 0.0000
# 5 0.0000 0.0000 0.0000 0.0000 31.4309 0.0000
# 6 0.0000 0.0000 0.0000 0.0000 0.0000 27.5869
#
#
#
# Elastic Compliance Matrix: (Units=1/GPa)
#
#
# Indices 1 2 3 4 5 6 
#
# 1 0.009264 -0.001292 -0.004047 0.000000 0.000000 0.000000
# 2 -0.001292 0.015998 -0.002324 0.000000 0.000000 0.000000
# 3 -0.004047 -0.002324 0.013659 0.000000 0.000000 0.000000
# 4 0.000000 0.000000 0.000000 0.034023 0.000000 0.000000
# 5 0.000000 0.000000 0.000000 0.000000 0.031816 0.000000
# 6 0.000000 0.000000 0.000000 0.000000 0.000000 0.036249
#
#
# Mechanical properties :
#
#
# Convention : Reuss Voigt Hill
#
# Bulk Modulus (GPa) = 42.38543 47.57665 44.98104
# Shear Modulus (GPa) = 30.45056 31.62459 31.03757
#
# Velocity S-wave (km/s) = 3.81148 3.88427 3.84805
# Velocity P-wave (km/s) = 6.29216 6.54329 6.41895
#
# Compressibility (1/GPa) = 0.02359301
#
# Stress axis : x y z
#
# Youngs Moduli (GPa) = 107.94904 62.50708 73.21328
#
# Poissons Ratio (x) = 0.08078 0.29633
# Poissons Ratio (y) = 0.13951 0.17014
# Poissons Ratio (z) = 0.43692 0.14526
#
# Static dielectric constant tensor:
#      x y z
#    x 3.988750 0.000000 0.000000 
#    y 0.000000 4.374920 0.000000 
#    z 0.000000 0.000000 3.668870 
# 
# 
# High freq. dielectric constant tensor:
#      x y z
#    x 1.813750 0.000000 0.000000 
#    y 0.000000 1.841870 0.000000 
#    z 0.000000 0.000000 1.784820 
# 
# From -- ./inp_files/20675.got.cif
#   From: 2010.06.25/outbox.cif.g09.slc.cpg/sg52_11_cif.got.tgz:20675.got - 2010.06.26 19:32:48.
