data_PCOD8215116
_publ_section_title
;
Structure prediction by ZEFSAII (Michael W. Deem and Ramdas Pophale) SiO2 
 PCOD8215116
Probable space group: P N N A
;
_chemical_formula_sum "Si O2"
_cell_formula_units_Z 48
_cell_length_a 9.047208
_cell_length_b 15.824191
_cell_length_c 17.443222
_cell_angle_alpha 90.000000
_cell_angle_beta 90.000000
_cell_angle_gamma 90.000000
_cell_volume 2497.254472
_symmetry_space_group_name_H-M "P N N A"
_symmetry_group_IT_number 52
_symmetry_cell_setting 'orthorhombic'
loop_
_space_group_symop_operation_xyz
x,y,z
1/2-x,-y,z
x,1/2-y,1/2-z
1/2-x,1/2+y,1/2-z
-x,-y,-z
1/2+x,y,-z
-x,1/2+y,1/2+z
1/2+x,1/2-y,1/2+z
loop_
_atom_site_type_symbol
_atom_site_label
_atom_site_fract_x
_atom_site_fract_y
_atom_site_fract_z
Si Si1 0.250000 0.500000 0.413295
Si Si2 0.995507 0.256123 0.483454
Si Si3 0.663407 0.250000 0.750000
Si Si4 0.954551 0.568944 0.717105
Si Si5 0.257815 0.322808 0.097198
Si Si6 0.250000 0.000000 0.343631
Si Si7 0.253288 0.869789 0.955529
Si Si8 0.250000 0.000000 0.831637
O O1 0.114165 0.469302 0.360896
O O2 0.207797 0.578954 0.467389
O O3 0.881062 0.212144 0.540659
O O4 0.897402 0.320123 0.431198
O O5 0.087667 0.190674 0.431210
O O6 0.114495 0.305931 0.532463
O O7 0.563984 0.329595 0.722741
O O8 0.770620 0.277988 0.819665
O O9 0.887648 0.524232 0.791048
O O10 0.124881 0.541523 0.720918
O O11 0.291669 0.421878 0.102350
O O12 0.312579 0.927354 0.887134
#
# Coordination Sequence:
#
# PCOD8215116 Si02
#       8
#     4   8   4   8   8   4   8   4
#     4  10  18  32  54  80 114 150 174 210 270 346
#     4  10  20  35  55  83 113 144 182 224 271 327
#     4  10  20  38  60  78 110 154 188 218 272 342
#     4  10  20  35  55  77 107 144 185 226 273 326
#     4  10  21  38  60  82 108 144 188 231 274 326
#     4   9  22  41  56  73  98 145 194 226 274 333
#     4  10  19  30  50  82 115 141 173 210 270 343
#     4  11  20  31  50  81 112 139 172 226 276 317
#
# _framework density 19.221108999999998
#
# number of rings (size 3 to 8) (size 9 to 14) (size 15 to 20)
#    0.000    2.000    0.000    5.000    0.000    6.000 
#    0.000    8.333    0.000    5.000    0.000    0.000 
#    0.000    0.000    0.000    0.000    0.000    0.000 
#
# Total GULP energy -595017.938391 kJ/mol
# GULP energy per Si atom -12396.207050 kJ/mol
# Density = 1.917736 g / cm^3
# Si number density = 19.221109 Si / 1000 Ang^3
#
#
#
# Elastic Constant Matrix: (Units=GPa)
#
#
# Indices 1 2 3 4 5 6 
#
# 1 90.7171 45.6936 22.0129 0.0000 0.0000 0.0000
# 2 45.6936 136.0707 33.8250 0.0000 0.0000 0.0000
# 3 22.0129 33.8250 65.2922 0.0000 0.0000 0.0000
# 4 0.0000 0.0000 0.0000 27.4673 0.0000 0.0000
# 5 0.0000 0.0000 0.0000 0.0000 11.9669 0.0000
# 6 0.0000 0.0000 0.0000 0.0000 0.0000 23.2564
#
#
#
# Elastic Compliance Matrix: (Units=1/GPa)
#
#
# Indices 1 2 3 4 5 6 
#
# 1 0.013628 -0.003942 -0.002553 0.000000 0.000000 0.000000
# 2 -0.003942 0.009576 -0.003632 0.000000 0.000000 0.000000
# 3 -0.002553 -0.003632 0.018058 0.000000 0.000000 0.000000
# 4 0.000000 0.000000 0.000000 0.036407 0.000000 0.000000
# 5 0.000000 0.000000 0.000000 0.000000 0.083564 0.000000
# 6 0.000000 0.000000 0.000000 0.000000 0.000000 0.042999
#
#
# Mechanical properties :
#
#
# Convention : Reuss Voigt Hill
#
# Bulk Modulus (GPa) = 47.59807 55.01588 51.30698
# Shear Modulus (GPa) = 21.59953 25.24138 23.42045
#
# Velocity S-wave (km/s) = 3.35586 3.62776 3.49445
# Velocity P-wave (km/s) = 6.31133 6.79943 6.55992
#
# Compressibility (1/GPa) = 0.02100925
#
# Stress axis : x y z
#
# Youngs Moduli (GPa) = 73.37734 104.43173 55.37785
#
# Poissons Ratio (x) = 0.41166 0.14135
# Poissons Ratio (y) = 0.28925 0.20112
# Poissons Ratio (z) = 0.18730 0.37927
#
# Static dielectric constant tensor:
#      x y z
#    x 3.508210 0.000000 0.000000 
#    y 0.000000 3.831050 0.000000 
#    z 0.000000 0.000000 3.456140 
# 
# 
# High freq. dielectric constant tensor:
#      x y z
#    x 1.738130 0.000000 0.000000 
#    y 0.000000 1.757410 0.000000 
#    z 0.000000 0.000000 1.735760 
# 
# From -- ./inp_files/31305.got.cif
#   From: 2010.06.25/outbox.cif.g09.slc.cpg/sg52_16_cif.got.tgz:31305.got - 2010.06.26 19:32:48.
