data_PCOD8215569
_publ_section_title
;
Structure prediction by ZEFSAII (Michael W. Deem and Ramdas Pophale) SiO2 
 PCOD8215569
Probable space group: P N N A
;
_chemical_formula_sum "Si O2"
_cell_formula_units_Z 32
_cell_length_a 8.006237
_cell_length_b 17.929516
_cell_length_c 8.665558
_cell_angle_alpha 90.000000
_cell_angle_beta 90.000000
_cell_angle_gamma 90.000000
_cell_volume 1243.923125
_symmetry_space_group_name_H-M "P N N A"
_symmetry_group_IT_number 52
_symmetry_cell_setting 'orthorhombic'
loop_
_space_group_symop_operation_xyz
x,y,z
1/2-x,-y,z
x,1/2-y,1/2-z
1/2-x,1/2+y,1/2-z
-x,-y,-z
1/2+x,y,-z
-x,1/2+y,1/2+z
1/2+x,1/2-y,1/2+z
loop_
_atom_site_type_symbol
_atom_site_label
_atom_site_fract_x
_atom_site_fract_y
_atom_site_fract_z
Si Si1 0.936408 0.335072 0.717863
Si Si2 0.426717 0.834238 0.208149
Si Si3 0.438147 0.081807 0.532498
Si Si4 0.259044 0.415779 0.665668
O O1 0.985662 0.250000 0.750000
O O2 0.756773 0.340830 0.626560
O O3 0.898983 0.375170 0.877631
O O4 0.087428 0.372949 0.623015
O O5 0.474796 0.750000 0.250000
O O6 0.415184 0.877621 0.371049
O O7 0.575402 0.871053 0.102882
O O8 0.273490 0.081076 0.645821
O O9 0.500000 0.000000 0.500000
O O10 0.250000 0.500000 0.596326
#
# Coordination Sequence:
#
# PCOD8215569 Si02
#       4
#     8   8   8   8
#     4  11  20  32  48  75 110 139 169 210 263 316
#     4   9  21  33  47  73 114 136 167 212 264 311
#     4  10  20  34  53  80 108 133 171 216 262 307
#     4  10  20  31  53  75 103 134 172 212 263 301
#
# _framework density 25.725061
#
# number of rings (size 3 to 8) (size 9 to 14) (size 15 to 20)
#    1.500    0.500    2.500    2.250    0.000    3.000 
#    0.000    0.000    0.000    0.000    0.000    7.000 
#    0.000    0.000    0.000    0.000    0.000    0.000 
#
# Total GULP energy -396450.894919 kJ/mol
# GULP energy per Si atom -12389.090466 kJ/mol
# Density = 2.566651 g / cm^3
# Si number density = 25.725061 Si / 1000 Ang^3
#
#
#
# Elastic Constant Matrix: (Units=GPa)
#
#
# Indices 1 2 3 4 5 6 
#
# 1 223.4259 102.9717 27.5379 0.0000 0.0000 0.0000
# 2 102.9717 222.6191 -5.7042 0.0000 0.0000 0.0000
# 3 27.5379 -5.7042 33.3082 0.0000 0.0000 0.0000
# 4 0.0000 0.0000 0.0000 1.7657 0.0000 0.0000
# 5 0.0000 0.0000 0.0000 0.0000 36.6388 0.0000
# 6 0.0000 0.0000 0.0000 0.0000 0.0000 42.8575
#
#
#
# Elastic Compliance Matrix: (Units=1/GPa)
#
#
# Indices 1 2 3 4 5 6 
#
# 1 0.006741 -0.003275 -0.006134 0.000000 0.000000 0.000000
# 2 -0.003275 0.006103 0.003753 0.000000 0.000000 0.000000
# 3 -0.006134 0.003753 0.035737 0.000000 0.000000 0.000000
# 4 0.000000 0.000000 0.000000 0.566364 0.000000 0.000000
# 5 0.000000 0.000000 0.000000 0.000000 0.027293 0.000000
# 6 0.000000 0.000000 0.000000 0.000000 0.000000 0.023333
#
#
# Mechanical properties :
#
#
# Convention : Reuss Voigt Hill
#
# Bulk Modulus (GPa) = 26.83249 80.99601 53.91425
# Shear Modulus (GPa) = 7.25365 39.88890 23.57128
#
# Velocity S-wave (km/s) = 1.68101 3.94202 3.03029
# Velocity P-wave (km/s) = 3.77106 7.23000 5.76601
#
# Compressibility (1/GPa) = 0.03726826
#
# Stress axis : x y z
#
# Youngs Moduli (GPa) = 148.33727 163.84940 27.98217
#
# Poissons Ratio (x) = 0.53667 0.17165
# Poissons Ratio (y) = 0.48586 -0.10502
# Poissons Ratio (z) = 0.90996 -0.61495
#
# Static dielectric constant tensor:
#      x y z
#    x 4.926030 0.000000 0.000000 
#    y 0.000000 5.240390 0.000000 
#    z 0.000000 0.000000 4.156280 
# 
# 
# High freq. dielectric constant tensor:
#      x y z
#    x 2.052340 0.000000 0.000000 
#    y 0.000000 2.027570 0.000000 
#    z 0.000000 0.000000 2.017260 
# 
# From -- ./inp_files/16753.got.cif
#   From: 2010.06.25/outbox.cif.g09.slc.cpg/sg52_9_cif.got.tgz:16753.got - 2010.06.26 19:32:48.
