data_PCOD8215581
_publ_section_title
;
Structure prediction by ZEFSAII (Michael W. Deem and Ramdas Pophale) SiO2 
 PCOD8215581
Probable space group: P N N A
;
_chemical_formula_sum "Si O2"
_cell_formula_units_Z 52
_cell_length_a 18.918780
_cell_length_b 13.934744
_cell_length_c 10.677278
_cell_angle_alpha 90.000000
_cell_angle_beta 90.000000
_cell_angle_gamma 90.000000
_cell_volume 2814.833247
_symmetry_space_group_name_H-M "P N N A"
_symmetry_group_IT_number 52
_symmetry_cell_setting 'orthorhombic'
loop_
_space_group_symop_operation_xyz
x,y,z
1/2-x,-y,z
x,1/2-y,1/2-z
1/2-x,1/2+y,1/2-z
-x,-y,-z
1/2+x,y,-z
-x,1/2+y,1/2+z
1/2+x,1/2-y,1/2+z
loop_
_atom_site_type_symbol
_atom_site_label
_atom_site_fract_x
_atom_site_fract_y
_atom_site_fract_z
Si Si1 0.270619 0.347152 0.810690
Si Si2 0.990638 0.004501 0.803512
Si Si3 0.423256 0.156943 0.663592
Si Si4 0.390523 0.567299 0.505532
Si Si5 0.750000 0.000000 0.109916
Si Si6 0.499396 0.396485 0.062565
Si Si7 0.865716 0.774065 0.397091
O O1 0.296976 0.250000 0.750000
O O2 0.344912 0.389290 0.860319
O O3 0.238627 0.409059 0.698531
O O4 0.210757 0.326819 0.915934
O O5 0.027866 0.919544 0.730400
O O6 0.920164 0.962820 0.869221
O O7 0.046460 0.049453 0.898370
O O8 0.969968 0.089183 0.704505
O O9 0.426681 0.250000 0.750000
O O10 0.451759 0.175565 0.521956
O O11 0.321693 0.499240 0.527423
O O12 0.370062 0.679871 0.514682
O O13 0.577194 0.351831 0.063453
O O14 0.500000 0.500000 0.000000
O O15 0.872610 0.750000 0.250000
#
# Coordination Sequence:
#
# PCOD8215581 Si02
#       7
#     8   8   8   8   4   8   8
#     4  10  20  32  55  85 113 138 197 245 303 343
#     4  10  20  36  53  85 110 154 190 238 302 358
#     4  10  20  35  55  85 115 147 190 248 297 346
#     4  11  21  33  60  81 118 150 198 245 298 369
#     4  12  18  34  56  84 112 150 192 260 294 356
#     4  10  21  36  57  82 117 148 193 243 297 362
#     4  11  19  36  56  86 111 151 193 244 302 360
#
# _framework density 18.473564
#
# number of rings (size 3 to 8) (size 9 to 14) (size 15 to 20)
#    0.000    1.538    6.154    0.923    2.154    0.000 
#    0.000    0.000    6.769    0.000    0.000    0.000 
#    0.000    0.000    0.000    0.000    0.000    0.000 
#
# Total GULP energy -644209.924002 kJ/mol
# GULP energy per Si atom -12388.652385 kJ/mol
# Density = 1.843152 g / cm^3
# Si number density = 18.473564 Si / 1000 Ang^3
#
#
#
# Elastic Constant Matrix: (Units=GPa)
#
#
# Indices 1 2 3 4 5 6 
#
# 1 145.4518 35.3747 64.2316 0.0000 0.0000 0.0000
# 2 35.3747 72.8299 30.7491 0.0000 0.0000 0.0000
# 3 64.2316 30.7491 97.6390 0.0000 0.0000 0.0000
# 4 0.0000 0.0000 0.0000 32.9300 0.0000 0.0000
# 5 0.0000 0.0000 0.0000 0.0000 24.7294 0.0000
# 6 0.0000 0.0000 0.0000 0.0000 0.0000 26.6499
#
#
#
# Elastic Compliance Matrix: (Units=1/GPa)
#
#
# Indices 1 2 3 4 5 6 
#
# 1 0.010044 -0.002409 -0.005849 0.000000 0.000000 0.000000
# 2 -0.002409 0.016414 -0.003584 0.000000 0.000000 0.000000
# 3 -0.005849 -0.003584 0.015218 0.000000 0.000000 0.000000
# 4 0.000000 0.000000 0.000000 0.030367 0.000000 0.000000
# 5 0.000000 0.000000 0.000000 0.000000 0.040438 0.000000
# 6 0.000000 0.000000 0.000000 0.000000 0.000000 0.037524
#
#
# Mechanical properties :
#
#
# Convention : Reuss Voigt Hill
#
# Bulk Modulus (GPa) = 55.58088 64.07016 59.82552
# Shear Modulus (GPa) = 27.82628 29.23287 28.52957
#
# Velocity S-wave (km/s) = 3.88529 3.98228 3.93408
# Velocity P-wave (km/s) = 7.09079 7.47677 7.28634
#
# Compressibility (1/GPa) = 0.01799180
#
# Stress axis : x y z
#
# Youngs Moduli (GPa) = 99.56409 60.92308 65.71121
#
# Poissons Ratio (x) = 0.14677 0.38432
# Poissons Ratio (y) = 0.23986 0.23553
# Poissons Ratio (z) = 0.58231 0.21837
#
# Static dielectric constant tensor:
#      x y z
#    x 3.721690 0.000000 0.000000 
#    y 0.000000 3.736300 0.000000 
#    z 0.000000 0.000000 3.625050 
# 
# 
# High freq. dielectric constant tensor:
#      x y z
#    x 1.723610 0.000000 0.000000 
#    y 0.000000 1.719920 0.000000 
#    z 0.000000 0.000000 1.687830 
# 
# From -- ./inp_files/20799.got.cif
#   From: 2010.06.25/outbox.cif.g09.slc.cpg/sg52_11_cif.got.tgz:20799.got - 2010.06.26 19:32:48.
