data_PCOD8215285
_publ_section_title
;
Structure prediction by ZEFSAII (Michael W. Deem and Ramdas Pophale) SiO2 
 PCOD8215285
Probable space group: P N N A
;
_chemical_formula_sum "Si O2"
_cell_formula_units_Z 36
_cell_length_a 27.236293
_cell_length_b 4.914299
_cell_length_c 14.087690
_cell_angle_alpha 90.000000
_cell_angle_beta 90.000000
_cell_angle_gamma 90.000000
_cell_volume 1885.599093
_symmetry_space_group_name_H-M "P N N A"
_symmetry_group_IT_number 52
_symmetry_cell_setting 'orthorhombic'
loop_
_space_group_symop_operation_xyz
x,y,z
1/2-x,-y,z
x,1/2-y,1/2-z
1/2-x,1/2+y,1/2-z
-x,-y,-z
1/2+x,y,-z
-x,1/2+y,1/2+z
1/2+x,1/2-y,1/2+z
loop_
_atom_site_type_symbol
_atom_site_label
_atom_site_fract_x
_atom_site_fract_y
_atom_site_fract_z
Si Si1 0.750000 0.500000 0.185721
Si Si2 0.848678 0.760737 0.361823
Si Si3 0.103815 0.743817 0.547147
Si Si4 0.004640 0.777414 0.643843
Si Si5 0.561241 0.782237 0.856487
O O1 0.771142 0.250000 0.250000
O O2 0.793334 0.626692 0.121258
O O3 0.859372 0.750000 0.250000
O O4 0.856510 0.466867 0.410012
O O5 0.886695 0.959389 0.411288
O O6 0.105511 0.756613 0.432279
O O7 0.047573 0.678803 0.573961
O O8 0.026148 0.750000 0.750000
O O9 0.957611 0.587321 0.630014
O O10 0.984936 0.081448 0.624718
O O11 0.582778 0.750000 0.750000
#
# Coordination Sequence:
#
# PCOD8215285 Si02
#       5
#     4   8   8   8   8
#     4  10  20  38  56  76 110 142 160 198 268 338
#     4  11  22  35  54  80 107 133 165 209 262 323
#     4  12  21  33  53  79 104 138 180 219 253 301
#     4  10  19  32  49  71 105 144 177 216 260 304
#     4  10  21  35  50  71 105 146 183 217 257 297
#
# _framework density 19.092075000000001
#
# number of rings (size 3 to 8) (size 9 to 14) (size 15 to 20)
#    0.000    1.333    0.000    8.667    0.000    1.778 
#    0.000    0.000    0.000    0.000    0.000    3.111 
#    0.000    1.778    0.000    0.000    0.000    0.000 
#
# Total GULP energy -446407.366503 kJ/mol
# GULP energy per Si atom -12400.204625 kJ/mol
# Density = 1.904862 g / cm^3
# Si number density = 19.092075 Si / 1000 Ang^3
#
#
#
# Elastic Constant Matrix: (Units=GPa)
#
#
# Indices 1 2 3 4 5 6 
#
# 1 56.4589 8.3547 44.0673 0.0000 0.0000 0.0000
# 2 8.3547 77.3200 23.6717 0.0000 0.0000 0.0000
# 3 44.0673 23.6717 125.5787 0.0000 0.0000 0.0000
# 4 0.0000 0.0000 0.0000 23.8174 0.0000 0.0000
# 5 0.0000 0.0000 0.0000 0.0000 15.3574 0.0000
# 6 0.0000 0.0000 0.0000 0.0000 0.0000 20.3470
#
#
#
# Elastic Compliance Matrix: (Units=1/GPa)
#
#
# Indices 1 2 3 4 5 6 
#
# 1 0.024393 -0.000016 -0.008557 0.000000 0.000000 0.000000
# 2 -0.000016 0.013725 -0.002582 0.000000 0.000000 0.000000
# 3 -0.008557 -0.002582 0.011452 0.000000 0.000000 0.000000
# 4 0.000000 0.000000 0.000000 0.041986 0.000000 0.000000
# 5 0.000000 0.000000 0.000000 0.000000 0.065115 0.000000
# 6 0.000000 0.000000 0.000000 0.000000 0.000000 0.049147
#
#
# Mechanical properties :
#
#
# Convention : Reuss Voigt Hill
#
# Bulk Modulus (GPa) = 36.68114 45.72722 41.20418
# Shear Modulus (GPa) = 21.07784 24.12196 22.59990
#
# Velocity S-wave (km/s) = 3.32627 3.55837 3.44427
# Velocity P-wave (km/s) = 5.83151 6.39418 6.11932
#
# Compressibility (1/GPa) = 0.02726197
#
# Stress axis : x y z
#
# Youngs Moduli (GPa) = 40.99499 72.85777 87.31719
#
# Poissons Ratio (x) = 0.00117 0.74716
# Poissons Ratio (y) = 0.00066 0.22542
# Poissons Ratio (z) = 0.35079 0.18809
#
# Static dielectric constant tensor:
#      x y z
#    x 3.108710 0.000000 0.000000 
#    y 0.000000 3.709640 0.000000 
#    z 0.000000 0.000000 3.632370 
# 
# 
# High freq. dielectric constant tensor:
#      x y z
#    x 1.696880 0.000000 0.000000 
#    y 0.000000 1.768870 0.000000 
#    z 0.000000 0.000000 1.731660 
# 
# From -- ./inp_files/29283.got.cif
#   From: 2010.06.25/outbox.cif.g09.slc.cpg/sg52_15_cif.got.tgz:29283.got - 2010.06.26 19:32:48.
