data_PCOD8215129
_publ_section_title
;
Structure prediction by ZEFSAII (Michael W. Deem and Ramdas Pophale) SiO2 
 PCOD8215129
Probable space group: P N N A
;
_chemical_formula_sum "Si O2"
_cell_formula_units_Z 36
_cell_length_a 14.219693
_cell_length_b 8.681794
_cell_length_c 14.053102
_cell_angle_alpha 90.000000
_cell_angle_beta 90.000000
_cell_angle_gamma 90.000000
_cell_volume 1734.889807
_symmetry_space_group_name_H-M "P N N A"
_symmetry_group_IT_number 52
_symmetry_cell_setting 'orthorhombic'
loop_
_space_group_symop_operation_xyz
x,y,z
1/2-x,-y,z
x,1/2-y,1/2-z
1/2-x,1/2+y,1/2-z
-x,-y,-z
1/2+x,y,-z
-x,1/2+y,1/2+z
1/2+x,1/2-y,1/2+z
loop_
_atom_site_type_symbol
_atom_site_label
_atom_site_fract_x
_atom_site_fract_y
_atom_site_fract_z
Si Si1 0.642999 0.812459 0.493402
Si Si2 0.662254 0.346595 0.940003
Si Si3 0.930547 0.135956 0.830741
Si Si4 0.250000 0.500000 0.233689
Si Si5 0.505969 0.815804 0.146498
O O1 0.754211 0.770818 0.496998
O O2 0.581322 0.727450 0.572393
O O3 0.604200 0.754700 0.391514
O O4 0.628838 0.994992 0.510404
O O5 0.574944 0.232940 0.928964
O O6 0.706243 0.370201 0.834879
O O7 0.970878 0.250000 0.750000
O O8 0.830101 0.068345 0.800241
O O9 0.006793 0.000936 0.847474
O O10 0.484844 0.750000 0.250000
#
# Coordination Sequence:
#
# PCOD8215129 Si02
#       5
#     8   8   8   4   8
#     4  10  22  37  58  90 127 153 205 263 320 373
#     4  10  20  38  63  89 118 161 203 264 321 365
#     4  12  20  33  56  89 129 153 201 266 320 368
#     4  10  18  32  58  90 114 148 204 260 322 362
#     4  12  23  37  60  91 121 167 210 253 314 382
#
# _framework density 20.750596999999999
#
# number of rings (size 3 to 8) (size 9 to 14) (size 15 to 20)
#    0.000    1.333    6.667    2.667    0.000    0.000 
#    0.000    0.000    0.000   14.667    0.000    0.000 
#    0.000    0.000    0.000    0.000    0.000    0.000 
#
# Total GULP energy -446367.954606 kJ/mol
# GULP energy per Si atom -12399.109850 kJ/mol
# Density = 2.070337 g / cm^3
# Si number density = 20.750597 Si / 1000 Ang^3
#
#
#
# Elastic Constant Matrix: (Units=GPa)
#
#
# Indices 1 2 3 4 5 6 
#
# 1 92.0015 43.0490 45.2911 0.0000 0.0000 0.0000
# 2 43.0490 114.0661 41.6815 0.0000 0.0000 0.0000
# 3 45.2911 41.6815 60.7252 0.0000 0.0000 0.0000
# 4 0.0000 0.0000 0.0000 15.9824 0.0000 0.0000
# 5 0.0000 0.0000 0.0000 0.0000 23.6243 0.0000
# 6 0.0000 0.0000 0.0000 0.0000 0.0000 12.2089
#
#
#
# Elastic Compliance Matrix: (Units=1/GPa)
#
#
# Indices 1 2 3 4 5 6 
#
# 1 0.017684 -0.002475 -0.011491 0.000000 0.000000 0.000000
# 2 -0.002475 0.012048 -0.006424 0.000000 0.000000 0.000000
# 3 -0.011491 -0.006424 0.029447 0.000000 0.000000 0.000000
# 4 0.000000 0.000000 0.000000 0.062569 0.000000 0.000000
# 5 0.000000 0.000000 0.000000 0.000000 0.042329 0.000000
# 6 0.000000 0.000000 0.000000 0.000000 0.000000 0.081908
#
#
# Mechanical properties :
#
#
# Convention : Reuss Voigt Hill
#
# Bulk Modulus (GPa) = 54.34682 58.53734 56.44208
# Shear Modulus (GPa) = 17.07078 19.48120 18.27599
#
# Velocity S-wave (km/s) = 2.87132 3.06735 2.97095
# Velocity P-wave (km/s) = 6.10246 6.38874 6.24724
#
# Compressibility (1/GPa) = 0.01840034
#
# Stress axis : x y z
#
# Youngs Moduli (GPa) = 56.54740 82.99877 33.95936
#
# Poissons Ratio (x) = 0.20545 0.39021
# Poissons Ratio (y) = 0.13997 0.21815
# Poissons Ratio (z) = 0.64976 0.53317
#
# Static dielectric constant tensor:
#      x y z
#    x 3.737890 0.000000 0.000000 
#    y 0.000000 3.945750 0.000000 
#    z 0.000000 0.000000 3.708980 
# 
# 
# High freq. dielectric constant tensor:
#      x y z
#    x 1.788670 0.000000 0.000000 
#    y 0.000000 1.816680 0.000000 
#    z 0.000000 0.000000 1.792000 
# 
# From -- ./inp_files/26785.got.cif
#   From: 2010.06.25/outbox.cif.g09.slc.cpg/sg52_14_cif.got.tgz:26785.got - 2010.06.26 19:32:48.
