data_PCOD8215776
_publ_section_title
;
Structure prediction by ZEFSAII (Michael W. Deem and Ramdas Pophale) SiO2 
 PCOD8215776
Probable space group: P N N A
;
_chemical_formula_sum "Si O2"
_cell_formula_units_Z 28
_cell_length_a 5.141235
_cell_length_b 13.199976
_cell_length_c 23.713402
_cell_angle_alpha 90.000000
_cell_angle_beta 90.000000
_cell_angle_gamma 90.000000
_cell_volume 1609.290549
_symmetry_space_group_name_H-M "P N N A"
_symmetry_group_IT_number 52
_symmetry_cell_setting 'orthorhombic'
loop_
_space_group_symop_operation_xyz
x,y,z
1/2-x,-y,z
x,1/2-y,1/2-z
1/2-x,1/2+y,1/2-z
-x,-y,-z
1/2+x,y,-z
-x,1/2+y,1/2+z
1/2+x,1/2-y,1/2+z
loop_
_atom_site_type_symbol
_atom_site_label
_atom_site_fract_x
_atom_site_fract_y
_atom_site_fract_z
Si Si1 0.237743 0.619621 0.836937
Si Si2 0.757971 0.767064 0.637395
Si Si3 0.764619 0.617017 0.535671
Si Si4 0.497164 0.750000 0.250000
O O1 0.250000 0.500000 0.837423
O O2 0.503996 0.664019 0.860421
O O3 0.179465 0.658054 0.772736
O O4 0.002696 0.659367 0.877186
O O5 0.719384 0.680793 0.591641
O O6 0.814401 0.712857 0.698025
O O7 0.750000 0.500000 0.553404
O O8 0.543385 0.644032 0.490415
#
# Coordination Sequence:
#
# PCOD8215776 Si02
#       4
#     8   8   8   4
#     4  10  20  37  56  81 119 149 183 235 284 338
#     4  10  20  38  56  86 116 148 190 231 288 341
#     4  10  21  39  61  87 116 150 190 239 291 337
#     4   8  22  34  56  88 110 156 188 232 284 348
#
# _framework density 17.398972000000001
#
# number of rings (size 3 to 8) (size 9 to 14) (size 15 to 20)
#    1.714    0.571    0.000    3.429    0.000    0.000 
#   10.286    0.000    0.000   17.143    0.000    0.000 
#    0.000    0.000    0.000    0.000    0.000    0.000 
#
# Total GULP energy -346925.740851 kJ/mol
# GULP energy per Si atom -12390.205030 kJ/mol
# Density = 1.735937 g / cm^3
# Si number density = 17.398972 Si / 1000 Ang^3
#
#
#
# Elastic Constant Matrix: (Units=GPa)
#
#
# Indices 1 2 3 4 5 6 
#
# 1 132.3507 56.2558 23.6504 0.0000 0.0000 0.0000
# 2 56.2558 117.0663 70.8343 0.0000 0.0000 0.0000
# 3 23.6504 70.8343 85.5123 0.0000 0.0000 0.0000
# 4 0.0000 0.0000 0.0000 24.0100 0.0000 0.0000
# 5 0.0000 0.0000 0.0000 0.0000 7.9740 0.0000
# 6 0.0000 0.0000 0.0000 0.0000 0.0000 24.7208
#
#
#
# Elastic Compliance Matrix: (Units=1/GPa)
#
#
# Indices 1 2 3 4 5 6 
#
# 1 0.009729 -0.006109 0.002370 0.000000 0.000000 0.000000
# 2 -0.006109 0.020962 -0.015674 0.000000 0.000000 0.000000
# 3 0.002370 -0.015674 0.024023 0.000000 0.000000 0.000000
# 4 0.000000 0.000000 0.000000 0.041649 0.000000 0.000000
# 5 0.000000 0.000000 0.000000 0.000000 0.125407 0.000000
# 6 0.000000 0.000000 0.000000 0.000000 0.000000 0.040452
#
#
# Mechanical properties :
#
#
# Convention : Reuss Voigt Hill
#
# Bulk Modulus (GPa) = 62.94755 70.71225 66.82990
# Shear Modulus (GPa) = 16.32148 23.62022 19.97085
#
# Velocity S-wave (km/s) = 3.06612 3.68851 3.39162
# Velocity P-wave (km/s) = 6.98514 7.67268 7.33697
#
# Compressibility (1/GPa) = 0.01588624
#
# Stress axis : x y z
#
# Youngs Moduli (GPa) = 102.78669 47.70523 41.62722
#
# Poissons Ratio (x) = 0.29143 -0.09864
# Poissons Ratio (y) = 0.62793 0.65248
# Poissons Ratio (z) = -0.24357 0.74775
#
# Static dielectric constant tensor:
#      x y z
#    x 3.519330 0.000000 0.000000 
#    y 0.000000 3.202310 0.000000 
#    z 0.000000 0.000000 2.999020 
# 
# 
# High freq. dielectric constant tensor:
#      x y z
#    x 1.695120 0.000000 0.000000 
#    y 0.000000 1.655800 0.000000 
#    z 0.000000 0.000000 1.650840 
# 
# From -- ./inp_files/34739.got.cif
#   From: 2010.06.25/outbox.cif.g09.slc.cpg/sg52_18_cif.got.tgz:34739.got - 2010.06.26 19:32:48.
