data_PCOD8215107
_publ_section_title
;
Structure prediction by ZEFSAII (Michael W. Deem and Ramdas Pophale) SiO2 
 PCOD8215107
Probable space group: P N N A
;
_chemical_formula_sum "Si O2"
_cell_formula_units_Z 56
_cell_length_a 28.099262
_cell_length_b 16.171336
_cell_length_c 6.352568
_cell_angle_alpha 90.000000
_cell_angle_beta 90.000000
_cell_angle_gamma 90.000000
_cell_volume 2886.623461
_symmetry_space_group_name_H-M "P N N A"
_symmetry_group_IT_number 52
_symmetry_cell_setting 'orthorhombic'
loop_
_space_group_symop_operation_xyz
x,y,z
1/2-x,-y,z
x,1/2-y,1/2-z
1/2-x,1/2+y,1/2-z
-x,-y,-z
1/2+x,y,-z
-x,1/2+y,1/2+z
1/2+x,1/2-y,1/2+z
loop_
_atom_site_type_symbol
_atom_site_label
_atom_site_fract_x
_atom_site_fract_y
_atom_site_fract_z
Si Si1 0.665228 0.976618 0.781724
Si Si2 0.169529 0.127148 0.475176
Si Si3 0.066067 0.499730 0.426066
Si Si4 0.763701 0.339123 0.717402
Si Si5 0.931889 0.835239 0.641489
Si Si6 0.481771 0.941433 0.681974
Si Si7 0.720628 0.426323 0.362855
O O1 0.696021 0.900636 0.695270
O O2 0.654958 0.033274 0.580014
O O3 0.615407 0.951675 0.889217
O O4 0.694718 0.031249 0.943320
O O5 0.214522 0.159999 0.346327
O O6 0.122577 0.182205 0.434865
O O7 0.184116 0.124399 0.719693
O O8 0.064955 0.410997 0.306212
O O9 0.060518 0.481762 0.676507
O O10 0.025972 0.565318 0.345944
O O11 0.786768 0.250000 0.750000
O O12 0.755505 0.358617 0.469787
O O13 0.950373 0.750000 0.750000
O O14 0.963476 0.857090 0.431871
O O15 0.500000 0.000000 0.500000
O O16 0.750000 0.500000 0.242105
#
# Coordination Sequence:
#
# PCOD8215107 Si02
#       7
#     8   8   8   8   8   8   8
#     4   9  18  32  52  73  99 133 180 222 255 318
#     4  10  18  32  51  74 100 140 175 212 263 323
#     4   9  18  34  56  78 100 139 184 218 268 327
#     4  10  20  32  46  69 107 139 171 220 264 311
#     4  10  20  32  51  82 113 134 166 222 279 326
#     4   9  18  34  56  77 102 137 177 222 268 321
#     4   9  17  30  49  71  93 131 179 217 257 311
#
# _framework density 19.399826999999998
#
# number of rings (size 3 to 8) (size 9 to 14) (size 15 to 20)
#    0.000    2.571    0.000    3.429    0.000    1.143 
#    0.000    1.429    9.429    0.000    0.000    0.000 
#    0.000    0.000    0.000    0.000    0.000    0.000 
#
# Total GULP energy -693774.763689 kJ/mol
# GULP energy per Si atom -12388.835066 kJ/mol
# Density = 1.935567 g / cm^3
# Si number density = 19.399827 Si / 1000 Ang^3
#
#
#
# Elastic Constant Matrix: (Units=GPa)
#
#
# Indices 1 2 3 4 5 6 
#
# 1 83.5916 32.5688 13.4618 0.0000 0.0000 0.0000
# 2 32.5688 83.1636 31.8734 0.0000 0.0000 0.0000
# 3 13.4618 31.8734 82.0960 0.0000 0.0000 0.0000
# 4 0.0000 0.0000 0.0000 23.8012 0.0000 0.0000
# 5 0.0000 0.0000 0.0000 0.0000 19.8988 0.0000
# 6 0.0000 0.0000 0.0000 0.0000 0.0000 19.1715
#
#
#
# Elastic Compliance Matrix: (Units=1/GPa)
#
#
# Indices 1 2 3 4 5 6 
#
# 1 0.014120 -0.005454 -0.000198 0.000000 0.000000 0.000000
# 2 -0.005454 0.016233 -0.005408 0.000000 0.000000 0.000000
# 3 -0.000198 -0.005408 0.014313 0.000000 0.000000 0.000000
# 4 0.000000 0.000000 0.000000 0.042015 0.000000 0.000000
# 5 0.000000 0.000000 0.000000 0.000000 0.050254 0.000000
# 6 0.000000 0.000000 0.000000 0.000000 0.000000 0.052161
#
#
# Mechanical properties :
#
#
# Convention : Reuss Voigt Hill
#
# Bulk Modulus (GPa) = 44.35344 44.96214 44.65779
# Shear Modulus (GPa) = 22.85920 23.97078 23.41499
#
# Velocity S-wave (km/s) = 3.43639 3.51895 3.47792
# Velocity P-wave (km/s) = 6.21751 6.30377 6.26079
#
# Compressibility (1/GPa) = 0.02254616
#
# Stress axis : x y z
#
# Youngs Moduli (GPa) = 70.82316 61.60277 69.86661
#
# Poissons Ratio (x) = 0.33597 0.01383
# Poissons Ratio (y) = 0.38625 0.37785
# Poissons Ratio (z) = 0.01402 0.33316
#
# Static dielectric constant tensor:
#      x y z
#    x 3.757660 0.000000 0.000000 
#    y 0.000000 3.387070 0.000000 
#    z 0.000000 0.000000 3.675040 
# 
# 
# High freq. dielectric constant tensor:
#      x y z
#    x 1.752700 0.000000 0.000000 
#    y 0.000000 1.717860 0.000000 
#    z 0.000000 0.000000 1.757050 
# 
# From -- ./inp_files/6417.got.cif
#   From: 2010.06.25/outbox.cif.g09.slc.cpg/sg52_4_cif.got.tgz:6417.got - 2010.06.26 19:32:48.
