data_PCOD8215324
_publ_section_title
;
Structure prediction by ZEFSAII (Michael W. Deem and Ramdas Pophale) SiO2 
 PCOD8215324
Probable space group: P N N A
;
_chemical_formula_sum "Si O2"
_cell_formula_units_Z 40
_cell_length_a 23.872970
_cell_length_b 4.877725
_cell_length_c 16.356026
_cell_angle_alpha 90.000000
_cell_angle_beta 90.000000
_cell_angle_gamma 90.000000
_cell_volume 1904.590248
_symmetry_space_group_name_H-M "P N N A"
_symmetry_group_IT_number 52
_symmetry_cell_setting 'orthorhombic'
loop_
_space_group_symop_operation_xyz
x,y,z
1/2-x,-y,z
x,1/2-y,1/2-z
1/2-x,1/2+y,1/2-z
-x,-y,-z
1/2+x,y,-z
-x,1/2+y,1/2+z
1/2+x,1/2-y,1/2+z
loop_
_atom_site_type_symbol
_atom_site_label
_atom_site_fract_x
_atom_site_fract_y
_atom_site_fract_z
Si Si1 0.123181 0.133215 0.544434
Si Si2 0.049383 0.991131 0.694898
Si Si3 0.364347 0.106445 0.168487
Si Si4 0.190317 0.623419 0.497722
Si Si5 0.432366 0.899654 0.377610
O O1 0.097339 0.072909 0.631802
O O2 0.144945 0.442867 0.545656
O O3 0.075110 0.130012 0.474989
O O4 0.176587 0.935108 0.524587
O O5 0.031831 0.250000 0.750000
O O6 0.075161 0.750000 0.750000
O O7 0.996390 0.858652 0.647946
O O8 0.338688 0.250000 0.250000
O O9 0.417006 0.289011 0.142218
O O10 0.391033 0.801647 0.174468
O O11 0.315509 0.103903 0.100692
O O12 0.250000 0.500000 0.523149
#
# Coordination Sequence:
#
# PCOD8215324 Si02
#       5
#     8   8   8   8   8
#     4  10  22  39  59  83 113 146 189 234 273 337
#     4  12  23  36  58  86 117 147 182 230 283 334
#     4  10  19  33  54  84 118 145 180 223 265 324
#     4  10  21  39  61  81 106 150 195 235 283 329
#     4  10  20  35  56  82 115 154 181 208 267 338
#
# _framework density 21.001894
#
# number of rings (size 3 to 8) (size 9 to 14) (size 15 to 20)
#    0.000    1.600    0.000    6.000    0.000    0.000 
#    0.000   14.000    0.000   12.000    0.000    0.000 
#    0.000    0.000    0.000    0.000    0.000    0.000 
#
# Total GULP energy -495846.179707 kJ/mol
# GULP energy per Si atom -12396.154493 kJ/mol
# Density = 2.095409 g / cm^3
# Si number density = 21.001894 Si / 1000 Ang^3
#
#
#
# Elastic Constant Matrix: (Units=GPa)
#
#
# Indices 1 2 3 4 5 6 
#
# 1 50.5734 2.3310 30.6693 0.0000 0.0000 0.0000
# 2 2.3310 84.7775 24.6559 0.0000 0.0000 0.0000
# 3 30.6693 24.6559 104.4347 0.0000 0.0000 0.0000
# 4 0.0000 0.0000 0.0000 36.6369 0.0000 0.0000
# 5 0.0000 0.0000 0.0000 0.0000 14.7234 0.0000
# 6 0.0000 0.0000 0.0000 0.0000 0.0000 17.8066
#
#
#
# Elastic Compliance Matrix: (Units=1/GPa)
#
#
# Indices 1 2 3 4 5 6 
#
# 1 0.024236 0.001507 -0.007473 0.000000 0.000000 0.000000
# 2 0.001507 0.012759 -0.003455 0.000000 0.000000 0.000000
# 3 -0.007473 -0.003455 0.012586 0.000000 0.000000 0.000000
# 4 0.000000 0.000000 0.000000 0.027295 0.000000 0.000000
# 5 0.000000 0.000000 0.000000 0.000000 0.067919 0.000000
# 6 0.000000 0.000000 0.000000 0.000000 0.000000 0.056159
#
#
# Mechanical properties :
#
#
# Convention : Reuss Voigt Hill
#
# Bulk Modulus (GPa) = 32.53248 39.45533 35.99390
# Shear Modulus (GPa) = 21.73525 25.97535 23.85530
#
# Velocity S-wave (km/s) = 3.22051 3.52065 3.37391
# Velocity P-wave (km/s) = 5.41782 5.94592 5.68800
#
# Compressibility (1/GPa) = 0.03073851
#
# Stress axis : x y z
#
# Youngs Moduli (GPa) = 41.26145 78.37662 79.45572
#
# Poissons Ratio (x) = -0.11812 0.59378
# Poissons Ratio (y) = -0.06218 0.27450
# Poissons Ratio (z) = 0.30835 0.27078
#
# Static dielectric constant tensor:
#      x y z
#    x 3.285670 0.000000 0.000000 
#    y 0.000000 4.001080 0.000000 
#    z 0.000000 0.000000 3.781580 
# 
# 
# High freq. dielectric constant tensor:
#      x y z
#    x 1.784270 0.000000 0.000000 
#    y 0.000000 1.846400 0.000000 
#    z 0.000000 0.000000 1.815680 
# 
# From -- ./inp_files/29008.got.cif
#   From: 2010.06.25/outbox.cif.g09.slc.cpg/sg52_15_cif.got.tgz:29008.got - 2010.06.26 19:32:48.
