data_PCOD8215813
_publ_section_title
;
Structure prediction by ZEFSAII (Michael W. Deem and Ramdas Pophale) SiO2 
 PCOD8215813
Probable space group: P N N A
;
_chemical_formula_sum "Si O2"
_cell_formula_units_Z 48
_cell_length_a 15.842211
_cell_length_b 15.866254
_cell_length_c 8.730760
_cell_angle_alpha 90.000000
_cell_angle_beta 90.000000
_cell_angle_gamma 90.000000
_cell_volume 2194.533657
_symmetry_space_group_name_H-M "P N N A"
_symmetry_group_IT_number 52
_symmetry_cell_setting 'orthorhombic'
loop_
_space_group_symop_operation_xyz
x,y,z
1/2-x,-y,z
x,1/2-y,1/2-z
1/2-x,1/2+y,1/2-z
-x,-y,-z
1/2+x,y,-z
-x,1/2+y,1/2+z
1/2+x,1/2-y,1/2+z
loop_
_atom_site_type_symbol
_atom_site_label
_atom_site_fract_x
_atom_site_fract_y
_atom_site_fract_z
Si Si1 0.151565 0.414463 0.920812
Si Si2 0.364120 0.747803 0.430622
Si Si3 0.659561 0.918238 0.545863
Si Si4 0.409325 0.585351 0.593527
Si Si5 0.601279 0.567136 0.616686
Si Si6 0.828802 0.238249 0.930118
O O1 0.243205 0.417880 0.996111
O O2 0.109306 0.506235 0.959845
O O3 0.152602 0.403077 0.738130
O O4 0.102038 0.336096 0.997930
O O5 0.375890 0.750000 0.250000
O O6 0.418296 0.671688 0.499359
O O7 0.267917 0.731853 0.484498
O O8 0.654852 0.935217 0.727786
O O9 0.626176 0.823678 0.502511
O O10 0.502116 0.561506 0.654783
O O11 0.371158 0.511998 0.486714
O O12 0.622045 0.653340 0.522498
O O13 0.830508 0.250000 0.750000
#
# Coordination Sequence:
#
# PCOD8215813 Si02
#       6
#     8   8   8   8   8   8
#     4  10  21  37  59  91 122 155 204 256 303 356
#     4  10  20  37  62  90 120 159 203 245 300 369
#     4   9  19  38  60  86 120 161 202 242 303 368
#     4  11  24  39  59  92 126 159 205 260 306 357
#     4  10  22  41  61  85 123 167 205 246 308 369
#     4   8  17  34  59  84 108 151 203 240 284 356
#
# _framework density 21.872529
#
# number of rings (size 3 to 8) (size 9 to 14) (size 15 to 20)
#    0.000    2.333    0.000    2.500    0.000   10.667 
#    0.000    5.833    0.000    0.000    0.000    0.000 
#    0.000    0.000    0.000    0.000    0.000    0.000 
#
# Total GULP energy -594859.335489 kJ/mol
# GULP energy per Si atom -12392.902823 kJ/mol
# Density = 2.182275 g / cm^3
# Si number density = 21.872529 Si / 1000 Ang^3
#
#
#
# Elastic Constant Matrix: (Units=GPa)
#
#
# Indices 1 2 3 4 5 6 
#
# 1 42.8078 5.9808 30.2199 0.0000 0.0000 0.0000
# 2 5.9808 192.8522 66.8795 0.0000 0.0000 0.0000
# 3 30.2199 66.8795 135.2258 0.0000 0.0000 0.0000
# 4 0.0000 0.0000 0.0000 28.6704 0.0000 0.0000
# 5 0.0000 0.0000 0.0000 0.0000 21.6811 0.0000
# 6 0.0000 0.0000 0.0000 0.0000 0.0000 18.7658
#
#
#
# Elastic Compliance Matrix: (Units=1/GPa)
#
#
# Indices 1 2 3 4 5 6 
#
# 1 0.028128 0.001578 -0.007067 0.000000 0.000000 0.000000
# 2 0.001578 0.006347 -0.003492 0.000000 0.000000 0.000000
# 3 -0.007067 -0.003492 0.010701 0.000000 0.000000 0.000000
# 4 0.000000 0.000000 0.000000 0.034879 0.000000 0.000000
# 5 0.000000 0.000000 0.000000 0.000000 0.046123 0.000000
# 6 0.000000 0.000000 0.000000 0.000000 0.000000 0.053289
#
#
# Mechanical properties :
#
#
# Convention : Reuss Voigt Hill
#
# Bulk Modulus (GPa) = 36.74251 64.11625 50.42938
# Shear Modulus (GPa) = 24.21299 31.67715 27.94507
#
# Velocity S-wave (km/s) = 3.33078 3.80973 3.57828
# Velocity P-wave (km/s) = 5.62379 6.98064 6.33863
#
# Compressibility (1/GPa) = 0.02721643
#
# Stress axis : x y z
#
# Youngs Moduli (GPa) = 35.55131 157.54593 93.44638
#
# Poissons Ratio (x) = -0.24866 0.66035
# Poissons Ratio (y) = -0.05611 0.32631
# Poissons Ratio (z) = 0.25123 0.55015
#
# Static dielectric constant tensor:
#      x y z
#    x 3.481360 0.000000 0.000000 
#    y 0.000000 5.197980 0.000000 
#    z 0.000000 0.000000 3.631170 
# 
# 
# High freq. dielectric constant tensor:
#      x y z
#    x 1.818460 0.000000 0.000000 
#    y 0.000000 1.897380 0.000000 
#    z 0.000000 0.000000 1.838860 
# 
# From -- ./inp_files/12048.got.cif
#   From: 2010.06.25/outbox.cif.g09.slc.cpg/sg52_7_cif.got.tgz:12048.got - 2010.06.26 19:32:48.
