data_PCOD8215763
_publ_section_title
;
Structure prediction by ZEFSAII (Michael W. Deem and Ramdas Pophale) SiO2 
 PCOD8215763
Probable space group: P N N A
;
_chemical_formula_sum "Si O2"
_cell_formula_units_Z 28
_cell_length_a 13.355394
_cell_length_b 5.004943
_cell_length_c 19.008054
_cell_angle_alpha 90.000000
_cell_angle_beta 90.000000
_cell_angle_gamma 90.000000
_cell_volume 1270.555082
_symmetry_space_group_name_H-M "P N N A"
_symmetry_group_IT_number 52
_symmetry_cell_setting 'orthorhombic'
loop_
_space_group_symop_operation_xyz
x,y,z
1/2-x,-y,z
x,1/2-y,1/2-z
1/2-x,1/2+y,1/2-z
-x,-y,-z
1/2+x,y,-z
-x,1/2+y,1/2+z
1/2+x,1/2-y,1/2+z
loop_
_atom_site_type_symbol
_atom_site_label
_atom_site_fract_x
_atom_site_fract_y
_atom_site_fract_z
Si Si1 0.750000 0.000000 0.628833
Si Si2 0.361672 0.250000 0.250000
Si Si3 0.312771 0.750000 0.750000
Si Si4 0.039812 0.480526 0.078169
Si Si5 0.985484 0.513659 0.336340
O O1 0.791796 0.222806 0.682127
O O2 0.658114 0.104391 0.580280
O O3 0.438187 0.496603 0.268779
O O4 0.250000 0.500000 0.781949
O O5 0.376557 0.611210 0.687997
O O6 0.030123 0.773667 0.109372
O O7 0.976324 0.270155 0.124613
O O8 0.000000 0.500000 0.000000
#
# Coordination Sequence:
#
# PCOD8215763 Si02
#       5
#     4   4   4   8   8
#     4  10  20  36  64  96 122 162 214 258 338 384
#     4   9  18  34  65  94 120 152 207 284 331 368
#     4  11  22  40  65  98 128 168 225 274 339 404
#     4  11  23  41  60  89 132 173 214 260 319 402
#     4  10  22  40  63  90 128 163 212 281 330 376
#
# _framework density 22.037610000000001
#
# number of rings (size 3 to 8) (size 9 to 14) (size 15 to 20)
#    0.000    1.714    0.000    4.286    0.000   11.429 
#    7.714    0.000    0.000    0.000    0.000    0.000 
#    0.000    0.000    0.000    0.000    0.000    0.000 
#
# Total GULP energy -346874.737701 kJ/mol
# GULP energy per Si atom -12388.383489 kJ/mol
# Density = 2.198745 g / cm^3
# Si number density = 22.037610 Si / 1000 Ang^3
#
#
#
# Elastic Constant Matrix: (Units=GPa)
#
#
# Indices 1 2 3 4 5 6 
#
# 1 150.2463 24.9079 66.3128 0.0000 0.0000 0.0000
# 2 24.9079 82.5430 29.3148 0.0000 0.0000 0.0000
# 3 66.3128 29.3148 125.1113 0.0000 0.0000 0.0000
# 4 0.0000 0.0000 0.0000 34.1523 0.0000 0.0000
# 5 0.0000 0.0000 0.0000 0.0000 41.5106 0.0000
# 6 0.0000 0.0000 0.0000 0.0000 0.0000 28.6855
#
#
#
# Elastic Compliance Matrix: (Units=1/GPa)
#
#
# Indices 1 2 3 4 5 6 
#
# 1 0.008777 -0.001087 -0.004397 0.000000 0.000000 0.000000
# 2 -0.001087 0.013349 -0.002552 0.000000 0.000000 0.000000
# 3 -0.004397 -0.002552 0.010921 0.000000 0.000000 0.000000
# 4 0.000000 0.000000 0.000000 0.029281 0.000000 0.000000
# 5 0.000000 0.000000 0.000000 0.000000 0.024090 0.000000
# 6 0.000000 0.000000 0.000000 0.000000 0.000000 0.034861
#
#
# Mechanical properties :
#
#
# Convention : Reuss Voigt Hill
#
# Bulk Modulus (GPa) = 58.90807 66.55238 62.73023
# Shear Modulus (GPa) = 34.96281 36.69403 35.82842
#
# Velocity S-wave (km/s) = 3.98742 4.08495 4.03648
# Velocity P-wave (km/s) = 6.92734 7.24666 7.08880
#
# Compressibility (1/GPa) = 0.01697560
#
# Stress axis : x y z
#
# Youngs Moduli (GPa) = 113.93830 74.91142 91.56264
#
# Poissons Ratio (x) = 0.08141 0.40263
# Poissons Ratio (y) = 0.12382 0.23365
# Poissons Ratio (z) = 0.50102 0.19116
#
# Static dielectric constant tensor:
#      x y z
#    x 4.608770 0.000000 0.000000 
#    y 0.000000 3.881570 0.000000 
#    z 0.000000 0.000000 3.962420 
# 
# 
# High freq. dielectric constant tensor:
#      x y z
#    x 1.879780 0.000000 0.000000 
#    y 0.000000 1.865640 0.000000 
#    z 0.000000 0.000000 1.839900 
# 
# From -- ./inp_files/32554.got.cif
#   From: 2010.06.25/outbox.cif.g09.slc.cpg/sg52_17_cif.got.tgz:32554.got - 2010.06.26 19:32:48.
