data_PCOD8215530
_publ_section_title
;
Structure prediction by ZEFSAII (Michael W. Deem and Ramdas Pophale) SiO2 
 PCOD8215530
Probable space group: P N N A
;
_chemical_formula_sum "Si O2"
_cell_formula_units_Z 48
_cell_length_a 9.646252
_cell_length_b 20.602484
_cell_length_c 11.554138
_cell_angle_alpha 90.000000
_cell_angle_beta 90.000000
_cell_angle_gamma 90.000000
_cell_volume 2296.231864
_symmetry_space_group_name_H-M "P N N A"
_symmetry_group_IT_number 52
_symmetry_cell_setting 'orthorhombic'
loop_
_space_group_symop_operation_xyz
x,y,z
1/2-x,-y,z
x,1/2-y,1/2-z
1/2-x,1/2+y,1/2-z
-x,-y,-z
1/2+x,y,-z
-x,1/2+y,1/2+z
1/2+x,1/2-y,1/2+z
loop_
_atom_site_type_symbol
_atom_site_label
_atom_site_fract_x
_atom_site_fract_y
_atom_site_fract_z
Si Si1 0.467178 0.559064 0.874516
Si Si2 0.839598 0.206569 0.866724
Si Si3 0.496142 0.086529 0.623775
Si Si4 0.265503 0.651818 0.781117
Si Si5 0.235123 0.571450 0.266700
Si Si6 0.649391 0.270879 0.425294
O O1 0.424002 0.484011 0.885161
O O2 0.362505 0.588328 0.780392
O O3 0.626745 0.563374 0.837292
O O4 0.449985 0.600079 0.993780
O O5 0.838918 0.250000 0.750000
O O6 0.814074 0.129568 0.849064
O O7 0.987027 0.211030 0.931581
O O8 0.715948 0.233207 0.947402
O O9 0.386344 0.139142 0.668206
O O10 0.618861 0.091945 0.714499
O O11 0.261063 0.677061 0.649332
O O12 0.343404 0.702288 0.862907
O O13 0.250000 0.500000 0.329375
#
# Coordination Sequence:
#
# PCOD8215530 Si02
#       6
#     8   8   8   8   8   8
#     4  10  19  39  61  95 141 171 218 280 339 396
#     4  12  26  49  68  98 134 180 218 289 335 403
#     4  10  22  33  65 102 128 177 223 271 341 403
#     4  11  22  42  63  97 132 171 219 283 328 407
#     4  10  22  42  65  95 134 176 224 278 332 394
#     4  11  27  44  68  93 132 176 229 268 344 405
#
# _framework density 20.903814000000001
#
# number of rings (size 3 to 8) (size 9 to 14) (size 15 to 20)
#    0.000    1.333    3.333    1.500    9.333    2.667 
#    0.000    2.500    0.000    0.000    0.000    0.000 
#    0.000    0.000    0.000    0.000    0.000    0.000 
#
# Total GULP energy -595117.561814 kJ/mol
# GULP energy per Si atom -12398.282538 kJ/mol
# Density = 2.085624 g / cm^3
# Si number density = 20.903814 Si / 1000 Ang^3
#
#
#
# Elastic Constant Matrix: (Units=GPa)
#
#
# Indices 1 2 3 4 5 6 
#
# 1 105.7678 29.8193 30.0965 0.0000 0.0000 0.0000
# 2 29.8193 65.5271 16.2417 0.0000 0.0000 0.0000
# 3 30.0965 16.2417 77.2506 0.0000 0.0000 0.0000
# 4 0.0000 0.0000 0.0000 30.0390 0.0000 0.0000
# 5 0.0000 0.0000 0.0000 0.0000 30.0141 0.0000
# 6 0.0000 0.0000 0.0000 0.0000 0.0000 37.7471
#
#
#
# Elastic Compliance Matrix: (Units=1/GPa)
#
#
# Indices 1 2 3 4 5 6 
#
# 1 0.011743 -0.004441 -0.003641 0.000000 0.000000 0.000000
# 2 -0.004441 0.017780 -0.002008 0.000000 0.000000 0.000000
# 3 -0.003641 -0.002008 0.014786 0.000000 0.000000 0.000000
# 4 0.000000 0.000000 0.000000 0.033290 0.000000 0.000000
# 5 0.000000 0.000000 0.000000 0.000000 0.033318 0.000000
# 6 0.000000 0.000000 0.000000 0.000000 0.000000 0.026492
#
#
# Mechanical properties :
#
#
# Convention : Reuss Voigt Hill
#
# Bulk Modulus (GPa) = 41.44646 44.54006 42.99326
# Shear Modulus (GPa) = 30.18754 31.05256 30.62005
#
# Velocity S-wave (km/s) = 3.80428 3.85840 3.83143
# Velocity P-wave (km/s) = 6.25835 6.41896 6.33916
#
# Compressibility (1/GPa) = 0.02412751
#
# Stress axis : x y z
#
# Youngs Moduli (GPa) = 85.15751 56.24411 67.63327
#
# Poissons Ratio (x) = 0.24980 0.24627
# Poissons Ratio (y) = 0.37821 0.13579
# Poissons Ratio (z) = 0.31008 0.11293
#
# Static dielectric constant tensor:
#      x y z
#    x 3.735490 0.000000 0.000000 
#    y 0.000000 4.006200 0.000000 
#    z 0.000000 0.000000 3.578320 
# 
# 
# High freq. dielectric constant tensor:
#      x y z
#    x 1.829800 0.000000 0.000000 
#    y 0.000000 1.829470 0.000000 
#    z 0.000000 0.000000 1.788490 
# 
# From -- ./inp_files/16964.got.cif
#   From: 2010.06.25/outbox.cif.g09.slc.cpg/sg52_9_cif.got.tgz:16964.got - 2010.06.26 19:32:48.
