data_PCOD8215661
_publ_section_title
;
Structure prediction by ZEFSAII (Michael W. Deem and Ramdas Pophale) SiO2 
 PCOD8215661
Probable space group: P N N A
;
_chemical_formula_sum "Si O2"
_cell_formula_units_Z 28
_cell_length_a 15.215046
_cell_length_b 4.959917
_cell_length_c 18.979155
_cell_angle_alpha 90.000000
_cell_angle_beta 90.000000
_cell_angle_gamma 90.000000
_cell_volume 1432.268865
_symmetry_space_group_name_H-M "P N N A"
_symmetry_group_IT_number 52
_symmetry_cell_setting 'orthorhombic'
loop_
_space_group_symop_operation_xyz
x,y,z
1/2-x,-y,z
x,1/2-y,1/2-z
1/2-x,1/2+y,1/2-z
-x,-y,-z
1/2+x,y,-z
-x,1/2+y,1/2+z
1/2+x,1/2-y,1/2+z
loop_
_atom_site_type_symbol
_atom_site_label
_atom_site_fract_x
_atom_site_fract_y
_atom_site_fract_z
Si Si1 0.308932 0.253405 0.016751
Si Si2 0.306891 0.250000 0.750000
Si Si3 0.977103 0.424043 0.579326
Si Si4 0.078196 0.901407 0.619117
O O1 0.250000 0.500000 0.044678
O O2 0.375753 0.172473 0.080220
O O3 0.250000 0.000000 0.995935
O O4 0.360807 0.343082 0.947641
O O5 0.250000 0.500000 0.719561
O O6 0.365024 0.118741 0.689020
O O7 0.000000 0.500000 0.500000
O O8 0.995821 0.693786 0.624294
O O9 0.040996 0.200014 0.611387
#
# Coordination Sequence:
#
# PCOD8215661 Si02
#       4
#     8   4   8   8
#     4  11  19  31  52  80 106 134 172 226 276 317
#     4  12  24  38  56  84 114 150 188 220 264 334
#     4  10  20  35  53  76 107 144 182 222 274 331
#     4  11  21  36  53  77 113 148 178 218 269 337
#
# _framework density 19.549399999999999
#
# number of rings (size 3 to 8) (size 9 to 14) (size 15 to 20)
#    0.000    1.143    0.000   12.000    0.000    0.000 
#    0.000    0.000    0.000    0.000    0.000   20.000 
#    0.000    0.000    0.000    0.000    0.000    0.000 
#
# Total GULP energy -347150.456057 kJ/mol
# GULP energy per Si atom -12398.230573 kJ/mol
# Density = 1.950490 g / cm^3
# Si number density = 19.549400 Si / 1000 Ang^3
#
#
#
# Elastic Constant Matrix: (Units=GPa)
#
#
# Indices 1 2 3 4 5 6 
#
# 1 89.5495 23.1594 22.7513 0.0000 0.0000 0.0000
# 2 23.1594 114.0768 13.5570 0.0000 0.0000 0.0000
# 3 22.7513 13.5570 52.1472 0.0000 0.0000 0.0000
# 4 0.0000 0.0000 0.0000 24.8000 0.0000 0.0000
# 5 0.0000 0.0000 0.0000 0.0000 11.1961 0.0000
# 6 0.0000 0.0000 0.0000 0.0000 0.0000 24.8045
#
#
#
# Elastic Compliance Matrix: (Units=1/GPa)
#
#
# Indices 1 2 3 4 5 6 
#
# 1 0.012998 -0.002028 -0.005144 0.000000 0.000000 0.000000
# 2 -0.002028 0.009362 -0.001549 0.000000 0.000000 0.000000
# 3 -0.005144 -0.001549 0.021824 0.000000 0.000000 0.000000
# 4 0.000000 0.000000 0.000000 0.040323 0.000000 0.000000
# 5 0.000000 0.000000 0.000000 0.000000 0.089317 0.000000
# 6 0.000000 0.000000 0.000000 0.000000 0.000000 0.040315
#
#
# Mechanical properties :
#
#
# Convention : Reuss Voigt Hill
#
# Bulk Modulus (GPa) = 37.39415 41.63432 39.51423
# Shear Modulus (GPa) = 20.79057 25.24717 23.01887
#
# Velocity S-wave (km/s) = 3.26466 3.59758 3.43515
# Velocity P-wave (km/s) = 5.77756 6.21289 5.99917
#
# Compressibility (1/GPa) = 0.02674215
#
# Stress axis : x y z
#
# Youngs Moduli (GPa) = 76.93336 106.81747 45.82216
#
# Poissons Ratio (x) = 0.21658 0.23571
# Poissons Ratio (y) = 0.15599 0.07099
# Poissons Ratio (z) = 0.39574 0.16548
#
# Static dielectric constant tensor:
#      x y z
#    x 4.231030 0.000000 0.000000 
#    y 0.000000 4.106210 0.000000 
#    z 0.000000 0.000000 3.219060 
# 
# 
# High freq. dielectric constant tensor:
#      x y z
#    x 1.768800 0.000000 0.000000 
#    y 0.000000 1.793700 0.000000 
#    z 0.000000 0.000000 1.705020 
# 
# From -- ./inp_files/32541.got.cif
#   From: 2010.06.25/outbox.cif.g09.slc.cpg/sg52_17_cif.got.tgz:32541.got - 2010.06.26 19:32:48.
