data_PCOD8215834
_publ_section_title
;
Structure prediction by ZEFSAII (Michael W. Deem and Ramdas Pophale) SiO2 
 PCOD8215834
Probable space group: P N N A
;
_chemical_formula_sum "Si O2"
_cell_formula_units_Z 48
_cell_length_a 16.134747
_cell_length_b 9.344623
_cell_length_c 16.512762
_cell_angle_alpha 90.000000
_cell_angle_beta 90.000000
_cell_angle_gamma 90.000000
_cell_volume 2489.680777
_symmetry_space_group_name_H-M "P N N A"
_symmetry_group_IT_number 52
_symmetry_cell_setting 'orthorhombic'
loop_
_space_group_symop_operation_xyz
x,y,z
1/2-x,-y,z
x,1/2-y,1/2-z
1/2-x,1/2+y,1/2-z
-x,-y,-z
1/2+x,y,-z
-x,1/2+y,1/2+z
1/2+x,1/2-y,1/2+z
loop_
_atom_site_type_symbol
_atom_site_label
_atom_site_fract_x
_atom_site_fract_y
_atom_site_fract_z
Si Si1 0.250000 0.500000 0.566584
Si Si2 0.157238 0.230646 0.038130
Si Si3 0.498634 0.209690 0.057317
Si Si4 0.920720 0.410131 0.406053
Si Si5 0.902374 0.124041 0.695096
Si Si6 0.565061 0.369190 0.691496
Si Si7 0.250000 0.500000 0.101557
O O1 0.210099 0.378136 0.513321
O O2 0.175435 0.569234 0.619789
O O3 0.129582 0.137281 0.116489
O O4 0.215579 0.368043 0.049497
O O5 0.075385 0.284057 0.989827
O O6 0.466113 0.318396 0.126359
O O7 0.529757 0.060808 0.094596
O O8 0.425428 0.169997 0.993299
O O9 0.972501 0.322822 0.338914
O O10 0.866976 0.250000 0.750000
O O11 0.944236 0.016373 0.758960
O O12 0.824805 0.048430 0.656562
O O13 0.600667 0.250000 0.750000
#
# Coordination Sequence:
#
# PCOD8215834 Si02
#       7
#     4   8   8   8   8   8   4
#     4  10  20  37  68  85 112 152 202 254 278 349
#     4  10  23  40  61  88 121 156 202 241 300 352
#     4   9  19  39  61  86 111 163 200 237 280 370
#     4   9  18  37  63  86 113 151 208 238 292 347
#     4  12  25  38  61  87 121 159 199 242 301 363
#     4  11  22  41  58  87 121 161 193 243 297 368
#     4  12  26  37  54  95 126 150 188 254 308 339
#
# _framework density 19.279578999999998
#
# number of rings (size 3 to 8) (size 9 to 14) (size 15 to 20)
#    0.000    1.667    3.333    2.000    4.667    0.667 
#    3.000    0.000    7.333    0.000    0.000    0.000 
#    0.000    0.000    0.000    0.000    0.000    0.000 
#
# Total GULP energy -594703.333827 kJ/mol
# GULP energy per Si atom -12389.652788 kJ/mol
# Density = 1.923570 g / cm^3
# Si number density = 19.279579 Si / 1000 Ang^3
#
#
#
# Elastic Constant Matrix: (Units=GPa)
#
#
# Indices 1 2 3 4 5 6 
#
# 1 104.9243 11.2333 16.8276 0.0000 0.0000 0.0000
# 2 11.2333 63.9968 21.0414 0.0000 0.0000 0.0000
# 3 16.8276 21.0414 60.2094 0.0000 0.0000 0.0000
# 4 0.0000 0.0000 0.0000 -75.4013 0.0000 0.0000
# 5 0.0000 0.0000 0.0000 0.0000 -4.2739 0.0000
# 6 0.0000 0.0000 0.0000 0.0000 0.0000 37.0165
#
#
#
# Elastic Compliance Matrix: (Units=1/GPa)
#
#
# Indices 1 2 3 4 5 6 
#
# 1 0.010029 -0.000948 -0.002472 0.000000 0.000000 0.000000
# 2 -0.000948 0.017744 -0.005936 0.000000 0.000000 0.000000
# 3 -0.002472 -0.005936 0.019374 0.000000 0.000000 0.000000
# 4 0.000000 0.000000 0.000000 -0.013262 0.000000 0.000000
# 5 0.000000 0.000000 0.000000 0.000000 -0.233979 0.000000
# 6 0.000000 0.000000 0.000000 0.000000 0.000000 0.027015
#
#
# Mechanical properties :
#
#
# Convention : Reuss Voigt Hill
#
# Bulk Modulus (GPa) = 35.16721 36.37057 35.76889
# Shear Modulus (GPa) = -34.50879 3.47014 -15.51932
#
# Velocity S-wave (km/s) = -4.23533 1.34306 -2.84026
# Velocity P-wave (km/s) = 2.37425 4.61637 2.79944
#
# Compressibility (1/GPa) = 0.02843558
#
# Stress axis : x y z
#
# Youngs Moduli (GPa) = 99.71547 56.35756 51.61563
#
# Poissons Ratio (x) = 0.05341 0.12758
# Poissons Ratio (y) = 0.09450 0.30639
# Poissons Ratio (z) = 0.24646 0.33454
#
# Static dielectric constant tensor:
#      x y z
#    x 3.789090 0.000000 0.000000 
#    y 0.000000 3.490620 0.000000 
#    z 0.000000 0.000000 3.678460 
# 
# 
# High freq. dielectric constant tensor:
#      x y z
#    x 1.751550 0.000000 0.000000 
#    y 0.000000 1.746820 0.000000 
#    z 0.000000 0.000000 1.739440 
# 
# From -- ./inp_files/33090.got.cif
#   From: 2010.06.25/outbox.cif.g09.slc.cpg/sg52_17_cif.got.tgz:33090.got - 2010.06.26 19:32:48.
