data_PCOD8215742
_publ_section_title
;
Structure prediction by ZEFSAII (Michael W. Deem and Ramdas Pophale) SiO2 
 PCOD8215742
Probable space group: P N N A
;
_chemical_formula_sum "Si O2"
_cell_formula_units_Z 44
_cell_length_a 9.562706
_cell_length_b 14.515528
_cell_length_c 16.270178
_cell_angle_alpha 90.000000
_cell_angle_beta 90.000000
_cell_angle_gamma 90.000000
_cell_volume 2258.426421
_symmetry_space_group_name_H-M "P N N A"
_symmetry_group_IT_number 52
_symmetry_cell_setting 'orthorhombic'
loop_
_space_group_symop_operation_xyz
x,y,z
1/2-x,-y,z
x,1/2-y,1/2-z
1/2-x,1/2+y,1/2-z
-x,-y,-z
1/2+x,y,-z
-x,1/2+y,1/2+z
1/2+x,1/2-y,1/2+z
loop_
_atom_site_type_symbol
_atom_site_label
_atom_site_fract_x
_atom_site_fract_y
_atom_site_fract_z
Si Si1 0.391231 0.946652 0.443107
Si Si2 0.093955 0.007770 0.878759
Si Si3 0.895951 0.946830 0.739872
Si Si4 0.200938 0.250000 0.250000
Si Si5 0.005247 0.851282 0.998415
Si Si6 0.257461 0.756296 0.432667
O O1 0.457753 0.947582 0.352199
O O2 0.340633 0.844461 0.470103
O O3 0.250000 0.000000 0.442133
O O4 0.500000 0.000000 0.500000
O O5 0.052880 0.106834 0.916477
O O6 0.250000 0.000000 0.845154
O O7 0.999481 0.998848 0.799272
O O8 0.083818 0.929811 0.948094
O O9 0.889652 0.840546 0.768119
O O10 0.750000 0.000000 0.746122
O O11 0.285327 0.230760 0.335684
O O12 0.115160 0.768252 0.018084
O O13 0.872576 0.823124 0.943406
#
# Coordination Sequence:
#
# PCOD8215742 Si02
#       6
#     8   8   8   4   8   8
#     4  10  22  40  62  88 115 163 216 256 304 353
#     4  11  22  36  57  90 128 151 192 243 311 374
#     4  10  21  38  63  87 122 162 202 252 301 372
#     4  10  20  36  60  88 112 160 210 234 296 362
#     4  11  22  36  58  91 122 158 192 240 308 371
#     4  11  21  38  62  86 122 158 204 253 297 370
#
# _framework density 19.482592
#
# number of rings (size 3 to 8) (size 9 to 14) (size 15 to 20)
#    0.000    1.455    3.636    2.182    0.000    0.727 
#    0.000    0.000    0.000    2.182    0.000    0.000 
#    0.000    0.000    0.000    0.000    0.000    0.000 
#
# Total GULP energy -545226.129761 kJ/mol
# GULP energy per Si atom -12391.502949 kJ/mol
# Density = 1.943825 g / cm^3
# Si number density = 19.482592 Si / 1000 Ang^3
#
#
#
# Elastic Constant Matrix: (Units=GPa)
#
#
# Indices 1 2 3 4 5 6 
#
# 1 80.6369 21.4580 35.4187 0.0000 0.0000 0.0000
# 2 21.4580 96.4648 25.4427 0.0000 0.0000 0.0000
# 3 35.4187 25.4427 90.8577 0.0000 0.0000 0.0000
# 4 0.0000 0.0000 0.0000 39.6176 0.0000 0.0000
# 5 0.0000 0.0000 0.0000 0.0000 41.3288 0.0000
# 6 0.0000 0.0000 0.0000 0.0000 0.0000 27.4732
#
#
#
# Elastic Compliance Matrix: (Units=1/GPa)
#
#
# Indices 1 2 3 4 5 6 
#
# 1 0.015305 -0.001977 -0.005413 0.000000 0.000000 0.000000
# 2 -0.001977 0.011449 -0.002435 0.000000 0.000000 0.000000
# 3 -0.005413 -0.002435 0.013798 0.000000 0.000000 0.000000
# 4 0.000000 0.000000 0.000000 0.025241 0.000000 0.000000
# 5 0.000000 0.000000 0.000000 0.000000 0.024196 0.000000
# 6 0.000000 0.000000 0.000000 0.000000 0.000000 0.036399
#
#
# Mechanical properties :
#
#
# Convention : Reuss Voigt Hill
#
# Bulk Modulus (GPa) = 47.84251 48.06647 47.95449
# Shear Modulus (GPa) = 32.67870 34.05992 33.36931
#
# Velocity S-wave (km/s) = 4.09996 4.18571 4.14306
# Velocity P-wave (km/s) = 6.85732 6.93436 6.89594
#
# Compressibility (1/GPa) = 0.02090191
#
# Stress axis : x y z
#
# Youngs Moduli (GPa) = 65.33925 87.34746 72.47356
#
# Poissons Ratio (x) = 0.17267 0.39227
# Poissons Ratio (y) = 0.12917 0.17649
# Poissons Ratio (z) = 0.35366 0.21272
#
# Static dielectric constant tensor:
#      x y z
#    x 3.338440 0.000000 0.000000 
#    y 0.000000 3.606040 0.000000 
#    z 0.000000 0.000000 2.752060 
# 
# 
# High freq. dielectric constant tensor:
#      x y z
#    x 1.739560 0.000000 0.000000 
#    y 0.000000 1.771320 0.000000 
#    z 0.000000 0.000000 1.761110 
# 
# From -- ./inp_files/31149.got.cif
#   From: 2010.06.25/outbox.cif.g09.slc.cpg/sg52_16_cif.got.tgz:31149.got - 2010.06.26 19:32:48.
