data_PCOD8215875
_publ_section_title
;
Structure prediction by ZEFSAII (Michael W. Deem and Ramdas Pophale) SiO2 
 PCOD8215875
Probable space group: P N N A
;
_chemical_formula_sum "Si O2"
_cell_formula_units_Z 40
_cell_length_a 21.496828
_cell_length_b 16.296081
_cell_length_c 5.028558
_cell_angle_alpha 90.000000
_cell_angle_beta 90.000000
_cell_angle_gamma 90.000000
_cell_volume 1761.574520
_symmetry_space_group_name_H-M "P N N A"
_symmetry_group_IT_number 52
_symmetry_cell_setting 'orthorhombic'
loop_
_space_group_symop_operation_xyz
x,y,z
1/2-x,-y,z
x,1/2-y,1/2-z
1/2-x,1/2+y,1/2-z
-x,-y,-z
1/2+x,y,-z
-x,1/2+y,1/2+z
1/2+x,1/2-y,1/2+z
loop_
_atom_site_type_symbol
_atom_site_label
_atom_site_fract_x
_atom_site_fract_y
_atom_site_fract_z
Si Si1 0.871145 0.194919 0.988392
Si Si2 0.385687 0.609428 0.659043
Si Si3 0.449846 0.048730 0.830170
Si Si4 0.956232 0.662075 0.855413
Si Si5 0.232578 0.304006 0.495648
O O1 0.873773 0.250000 0.250000
O O2 0.914111 0.115222 0.992733
O O3 0.800981 0.162952 0.917377
O O4 0.897419 0.250000 0.750000
O O5 0.399041 0.517597 0.775423
O O6 0.418037 0.620813 0.379109
O O7 0.313136 0.623433 0.593660
O O8 0.413359 0.672039 0.881882
O O9 0.485123 0.099952 0.593932
O O10 0.500000 0.000000 0.000000
O O11 0.980610 0.750000 0.750000
O O12 0.243428 0.250000 0.750000
O O13 0.204155 0.250000 0.250000
#
# Coordination Sequence:
#
# PCOD8215875 Si02
#       5
#     8   8   8   8   8
#     4  10  23  42  65  90 121 162 206 250 303 373
#     4  11  22  37  59  89 121 153 200 258 312 360
#     4  10  24  40  59  89 125 161 203 255 309 367
#     4  11  22  37  59  85 118 163 206 249 304 370
#     4  10  20  38  63  90 119 157 205 252 302 368
#
# _framework density 22.706956999999999
#
# number of rings (size 3 to 8) (size 9 to 14) (size 15 to 20)
#    0.000    1.600    0.000    4.800    0.000   10.400 
#    0.000    0.000    0.000   12.000    0.000    0.000 
#    0.000    0.000    0.000    0.000    0.000    0.000 
#
# Total GULP energy -495644.524137 kJ/mol
# GULP energy per Si atom -12391.113103 kJ/mol
# Density = 2.265527 g / cm^3
# Si number density = 22.706957 Si / 1000 Ang^3
#
#
#
# Elastic Constant Matrix: (Units=GPa)
#
#
# Indices 1 2 3 4 5 6 
#
# 1 116.1150 71.4083 27.8603 0.0000 0.0000 0.0000
# 2 71.4083 124.8209 18.7813 0.0000 0.0000 0.0000
# 3 27.8603 18.7813 106.1736 0.0000 0.0000 0.0000
# 4 0.0000 0.0000 0.0000 21.7890 0.0000 0.0000
# 5 0.0000 0.0000 0.0000 0.0000 120.6632 0.0000
# 6 0.0000 0.0000 0.0000 0.0000 0.0000 46.9403
#
#
#
# Elastic Compliance Matrix: (Units=1/GPa)
#
#
# Indices 1 2 3 4 5 6 
#
# 1 0.013807 -0.007555 -0.002287 0.000000 0.000000 0.000000
# 2 -0.007555 0.012364 -0.000205 0.000000 0.000000 0.000000
# 3 -0.002287 -0.000205 0.010055 0.000000 0.000000 0.000000
# 4 0.000000 0.000000 0.000000 0.045895 0.000000 0.000000
# 5 0.000000 0.000000 0.000000 0.000000 0.008288 0.000000
# 6 0.000000 0.000000 0.000000 0.000000 0.000000 0.021304
#
#
# Mechanical properties :
#
#
# Convention : Reuss Voigt Hill
#
# Bulk Modulus (GPa) = 61.98181 64.80103 63.39142
# Shear Modulus (GPa) = 36.44811 53.14913 44.79862
#
# Velocity S-wave (km/s) = 4.01078 4.84328 4.44656
# Velocity P-wave (km/s) = 6.98600 7.73798 7.37158
#
# Compressibility (1/GPa) = 0.01613377
#
# Stress axis : x y z
#
# Youngs Moduli (GPa) = 72.42874 80.87901 99.45527
#
# Poissons Ratio (x) = 0.61100 0.22741
# Poissons Ratio (y) = 0.54717 0.02037
# Poissons Ratio (z) = 0.16561 0.01656
#
# Static dielectric constant tensor:
#      x y z
#    x 4.762830 0.000000 0.000000 
#    y 0.000000 4.713640 0.000000 
#    z 0.000000 0.000000 3.902110 
# 
# 
# High freq. dielectric constant tensor:
#      x y z
#    x 1.900180 0.000000 0.000000 
#    y 0.000000 1.886410 0.000000 
#    z 0.000000 0.000000 1.891150 
# 
# From -- ./inp_files/5018.got.cif
#   From: 2010.06.25/outbox.cif.g09.slc.cpg/sg52_3_cif.got.tgz:5018.got - 2010.06.26 19:32:48.
