data_PCOD8215865
_publ_section_title
;
Structure prediction by ZEFSAII (Michael W. Deem and Ramdas Pophale) SiO2 
 PCOD8215865
Probable space group: P N N A
;
_chemical_formula_sum "Si O2"
_cell_formula_units_Z 36
_cell_length_a 10.052540
_cell_length_b 12.352618
_cell_length_c 12.448240
_cell_angle_alpha 90.000000
_cell_angle_beta 90.000000
_cell_angle_gamma 90.000000
_cell_volume 1545.762524
_symmetry_space_group_name_H-M "P N N A"
_symmetry_group_IT_number 52
_symmetry_cell_setting 'orthorhombic'
loop_
_space_group_symop_operation_xyz
x,y,z
1/2-x,-y,z
x,1/2-y,1/2-z
1/2-x,1/2+y,1/2-z
-x,-y,-z
1/2+x,y,-z
-x,1/2+y,1/2+z
1/2+x,1/2-y,1/2+z
loop_
_atom_site_type_symbol
_atom_site_label
_atom_site_fract_x
_atom_site_fract_y
_atom_site_fract_z
Si Si1 0.109557 0.979224 0.220936
Si Si2 0.850144 0.407741 0.330649
Si Si3 0.347058 0.324791 0.909182
Si Si4 0.357024 0.628643 0.083763
Si Si5 0.312486 0.250000 0.250000
O O1 0.087769 0.849547 0.224288
O O2 0.250000 0.000000 0.160655
O O3 0.125770 0.020417 0.344534
O O4 0.997501 0.042275 0.155295
O O5 0.750000 0.500000 0.367217
O O6 0.830896 0.375632 0.207549
O O7 0.825561 0.304779 0.406483
O O8 0.495417 0.340402 0.956398
O O9 0.237357 0.386877 0.980495
O O10 0.289031 0.723726 0.153495
#
# Coordination Sequence:
#
# PCOD8215865 Si02
#       5
#     8   8   8   8   4
#     4   9  19  37  61  86 117 158 198 239 296 360
#     4  10  22  40  61  88 123 160 201 252 305 353
#     4  10  22  41  62  88 123 160 202 251 301 359
#     4  10  21  40  63  89 120 160 203 248 301 358
#     4  10  20  38  62  88 120 158 202 248 298 364
#
# _framework density 23.289476000000001
#
# number of rings (size 3 to 8) (size 9 to 14) (size 15 to 20)
#    0.000    2.222    0.000    4.000    0.000    9.778 
#    0.000   24.444    0.000    0.000    0.000    0.000 
#    0.000    0.000    0.000    0.000    0.000    0.000 
#
# Total GULP energy -446224.906998 kJ/mol
# GULP energy per Si atom -12395.136306 kJ/mol
# Density = 2.323647 g / cm^3
# Si number density = 23.289476 Si / 1000 Ang^3
#
#
#
# Elastic Constant Matrix: (Units=GPa)
#
#
# Indices 1 2 3 4 5 6 
#
# 1 104.3332 17.1761 15.1404 0.0000 0.0000 0.0000
# 2 17.1761 144.5941 -0.0606 0.0000 0.0000 0.0000
# 3 15.1404 -0.0606 40.5654 0.0000 0.0000 0.0000
# 4 0.0000 0.0000 0.0000 17.2286 0.0000 0.0000
# 5 0.0000 0.0000 0.0000 0.0000 19.3740 0.0000
# 6 0.0000 0.0000 0.0000 0.0000 0.0000 34.7691
#
#
#
# Elastic Compliance Matrix: (Units=1/GPa)
#
#
# Indices 1 2 3 4 5 6 
#
# 1 0.010348 -0.001231 -0.003864 0.000000 0.000000 0.000000
# 2 -0.001231 0.007062 0.000470 0.000000 0.000000 0.000000
# 3 -0.003864 0.000470 0.026094 0.000000 0.000000 0.000000
# 4 0.000000 0.000000 0.000000 0.058043 0.000000 0.000000
# 5 0.000000 0.000000 0.000000 0.000000 0.051615 0.000000
# 6 0.000000 0.000000 0.000000 0.000000 0.000000 0.028761
#
#
# Mechanical properties :
#
#
# Convention : Reuss Voigt Hill
#
# Bulk Modulus (GPa) = 29.19295 39.33382 34.26339
# Shear Modulus (GPa) = 24.68004 31.42347 28.05176
#
# Velocity S-wave (km/s) = 3.25885 3.67721 3.47433
# Velocity P-wave (km/s) = 5.16935 5.91227 5.55324
#
# Compressibility (1/GPa) = 0.03425484
#
# Stress axis : x y z
#
# Youngs Moduli (GPa) = 96.63656 141.59658 38.32234
#
# Poissons Ratio (x) = 0.17428 0.14808
# Poissons Ratio (y) = 0.11894 -0.01801
# Poissons Ratio (z) = 0.37341 -0.06654
#
# Static dielectric constant tensor:
#      x y z
#    x 4.380210 0.000000 0.000000 
#    y 0.000000 4.406420 0.000000 
#    z 0.000000 0.000000 3.767140 
# 
# 
# High freq. dielectric constant tensor:
#      x y z
#    x 1.926350 0.000000 0.000000 
#    y 0.000000 1.937710 0.000000 
#    z 0.000000 0.000000 1.879800 
# 
# From -- ./inp_files/17732.got.cif
#   From: 2010.06.25/outbox.cif.g09.slc.cpg/sg52_9_cif.got.tgz:17732.got - 2010.06.26 19:32:48.
