data_PCOD8215151
_publ_section_title
;
Structure prediction by ZEFSAII (Michael W. Deem and Ramdas Pophale) SiO2 
 PCOD8215151
Probable space group: P N N A
;
_chemical_formula_sum "Si O2"
_cell_formula_units_Z 64
_cell_length_a 8.199184
_cell_length_b 21.117987
_cell_length_c 19.552075
_cell_angle_alpha 90.000000
_cell_angle_beta 90.000000
_cell_angle_gamma 90.000000
_cell_volume 3385.446892
_symmetry_space_group_name_H-M "P N N A"
_symmetry_group_IT_number 52
_symmetry_cell_setting 'orthorhombic'
loop_
_space_group_symop_operation_xyz
x,y,z
1/2-x,-y,z
x,1/2-y,1/2-z
1/2-x,1/2+y,1/2-z
-x,-y,-z
1/2+x,y,-z
-x,1/2+y,1/2+z
1/2+x,1/2-y,1/2+z
loop_
_atom_site_type_symbol
_atom_site_label
_atom_site_fract_x
_atom_site_fract_y
_atom_site_fract_z
Si Si1 0.814555 0.713914 0.319795
Si Si2 0.306081 0.672717 0.037337
Si Si3 0.453106 0.818219 0.601002
Si Si4 0.849734 0.848812 0.752481
Si Si5 0.978435 0.885783 0.263715
Si Si6 0.539311 0.245174 0.854021
Si Si7 0.062969 0.481108 0.211422
Si Si8 0.581896 0.465809 0.936596
O O1 0.785660 0.750000 0.250000
O O2 0.954707 0.748416 0.364546
O O3 0.875124 0.643632 0.299255
O O4 0.644720 0.718539 0.360574
O O5 0.396494 0.732953 0.071884
O O6 0.402550 0.608743 0.053144
O O7 0.122356 0.667064 0.063790
O O8 0.308489 0.680501 0.955276
O O9 0.409880 0.869051 0.660481
O O10 0.661755 0.858329 0.733530
O O11 0.856987 0.814750 0.826106
O O12 0.939360 0.804894 0.696674
O O13 0.948918 0.915428 0.753654
O O14 0.968787 0.961315 0.251040
O O15 0.250000 0.500000 0.205277
O O16 0.985860 0.473881 0.135236
O O17 0.750000 0.500000 0.926489
O O18 0.500000 0.500000 0.000000
#
# Coordination Sequence:
#
# PCOD8215151 Si02
#       8
#     8   8   8   8   8   8   8   8
#     4  10  21  34  52  75 105 135 178 226 271 306
#     4  12  21  36  52  76 107 144 184 220 264 313
#     4  11  22  34  53  75 106 143 184 221 264 311
#     4  10  18  33  57  77 101 139 179 220 270 311
#     4  10  19  35  55  79 107 144 177 218 268 322
#     4  11  20  34  54  77 105 138 180 229 268 312
#     4   9  17  33  52  75 104 136 177 215 257 319
#     4  11  21  33  48  70 103 145 181 215 252 308
#
# _framework density 18.904446
#
# number of rings (size 3 to 8) (size 9 to 14) (size 15 to 20)
#    0.000    1.500    3.750    4.500    3.500    0.000 
#    0.000    1.875    0.000    0.000    0.000    0.875 
#    0.000    0.000    0.000    0.000    0.000    0.000 
#
# Total GULP energy -793110.120254 kJ/mol
# GULP energy per Si atom -12392.345629 kJ/mol
# Density = 1.886142 g / cm^3
# Si number density = 18.904446 Si / 1000 Ang^3
#
#
#
# Elastic Constant Matrix: (Units=GPa)
#
#
# Indices 1 2 3 4 5 6 
#
# 1 41.2927 12.2484 8.6588 0.0000 0.0000 0.0000
# 2 12.2484 123.3084 39.9925 0.0000 0.0000 0.0000
# 3 8.6588 39.9925 46.8239 0.0000 0.0000 0.0000
# 4 0.0000 0.0000 0.0000 26.7055 0.0000 0.0000
# 5 0.0000 0.0000 0.0000 0.0000 24.1597 0.0000
# 6 0.0000 0.0000 0.0000 0.0000 0.0000 18.4183
#
#
#
# Elastic Compliance Matrix: (Units=1/GPa)
#
#
# Indices 1 2 3 4 5 6 
#
# 1 0.025363 -0.001381 -0.003511 0.000000 0.000000 0.000000
# 2 -0.001381 0.011292 -0.009389 0.000000 0.000000 0.000000
# 3 -0.003511 -0.009389 0.030025 0.000000 0.000000 0.000000
# 4 0.000000 0.000000 0.000000 0.037445 0.000000 0.000000
# 5 0.000000 0.000000 0.000000 0.000000 0.041391 0.000000
# 6 0.000000 0.000000 0.000000 0.000000 0.000000 0.054294
#
#
# Mechanical properties :
#
#
# Convention : Reuss Voigt Hill
#
# Bulk Modulus (GPa) = 26.23388 37.02493 31.62940
# Shear Modulus (GPa) = 20.74006 23.89172 22.31589
#
# Velocity S-wave (km/s) = 3.31584 3.55887 3.43951
# Velocity P-wave (km/s) = 5.34481 6.04279 5.70448
#
# Compressibility (1/GPa) = 0.03811865
#
# Stress axis : x y z
#
# Youngs Moduli (GPa) = 39.42730 88.55732 33.30523
#
# Poissons Ratio (x) = 0.12227 0.11693
# Poissons Ratio (y) = 0.05443 0.31271
# Poissons Ratio (z) = 0.13843 0.83149
#
# Static dielectric constant tensor:
#      x y z
#    x 3.428980 0.000000 0.000000 
#    y 0.000000 3.752370 0.000000 
#    z 0.000000 0.000000 0.765540 
# 
# 
# High freq. dielectric constant tensor:
#      x y z
#    x 1.727760 0.000000 0.000000 
#    y 0.000000 1.727990 0.000000 
#    z 0.000000 0.000000 1.705630 
# 
# From -- ./inp_files/31587.got.cif
#   From: 2010.06.25/outbox.cif.g09.slc.cpg/sg52_16_cif.got.tgz:31587.got - 2010.06.26 19:32:48.
