data_PCOD8215310
_publ_section_title
;
Structure prediction by ZEFSAII (Michael W. Deem and Ramdas Pophale) SiO2 
 PCOD8215310
Probable space group: P N N A
;
_chemical_formula_sum "Si O2"
_cell_formula_units_Z 48
_cell_length_a 17.297415
_cell_length_b 9.162229
_cell_length_c 15.520795
_cell_angle_alpha 90.000000
_cell_angle_beta 90.000000
_cell_angle_gamma 90.000000
_cell_volume 2459.780250
_symmetry_space_group_name_H-M "P N N A"
_symmetry_group_IT_number 52
_symmetry_cell_setting 'orthorhombic'
loop_
_space_group_symop_operation_xyz
x,y,z
1/2-x,-y,z
x,1/2-y,1/2-z
1/2-x,1/2+y,1/2-z
-x,-y,-z
1/2+x,y,-z
-x,1/2+y,1/2+z
1/2+x,1/2-y,1/2+z
loop_
_atom_site_type_symbol
_atom_site_label
_atom_site_fract_x
_atom_site_fract_y
_atom_site_fract_z
Si Si1 0.324525 0.090417 0.787650
Si Si2 0.818401 0.401673 0.790698
Si Si3 0.946936 0.525981 0.693999
Si Si4 0.056086 0.983633 0.657118
Si Si5 0.447405 0.187309 0.922502
Si Si6 0.544238 0.735551 0.888681
O O1 0.304119 0.250000 0.750000
O O2 0.379881 0.101573 0.871582
O O3 0.250000 0.000000 0.817259
O O4 0.365127 0.996626 0.711526
O O5 0.750000 0.500000 0.831453
O O6 0.787240 0.250000 0.750000
O O7 0.855839 0.509513 0.716811
O O8 0.880679 0.362153 0.864927
O O9 0.973787 0.357190 0.682839
O O10 0.992245 0.582937 0.777606
O O11 0.969015 0.629556 0.613149
O O12 0.031058 0.131568 0.608544
O O13 0.064648 0.860298 0.585356
O O14 0.443458 0.167598 0.025075
#
# Coordination Sequence:
#
# PCOD8215310 Si02
#       6
#     8   8   8   8   8   8
#     4   9  19  34  52  73 101 138 177 211 251 310
#     4   9  19  34  52  73 101 138 177 211 251 310
#     4   9  18  33  53  75  99 133 176 211 247 304
#     4   9  18  33  53  75  99 133 176 211 247 304
#     4  10  19  33  53  80 107 131 167 220 265 300
#     4  10  19  33  53  80 107 131 167 220 265 300
#
# _framework density 19.513938
#
# number of rings (size 3 to 8) (size 9 to 14) (size 15 to 20)
#    0.000    2.667    0.000    4.000    0.000    5.333 
#    0.000    6.667    0.000   10.000    0.000    0.000 
#    0.000    0.000    0.000    0.000    0.000    0.000 
#
# Total GULP energy -594693.483711 kJ/mol
# GULP energy per Si atom -12389.447577 kJ/mol
# Density = 1.946952 g / cm^3
# Si number density = 19.513938 Si / 1000 Ang^3
#
#
#
# Elastic Constant Matrix: (Units=GPa)
#
#
# Indices 1 2 3 4 5 6 
#
# 1 72.5182 34.9139 24.0983 0.0000 0.0000 0.0000
# 2 34.9139 50.9039 19.5970 0.0000 0.0000 0.0000
# 3 24.0983 19.5970 65.3116 0.0000 0.0000 0.0000
# 4 0.0000 0.0000 0.0000 27.8229 0.0000 0.0000
# 5 0.0000 0.0000 0.0000 0.0000 16.5571 0.0000
# 6 0.0000 0.0000 0.0000 0.0000 0.0000 42.2972
#
#
#
# Elastic Compliance Matrix: (Units=1/GPa)
#
#
# Indices 1 2 3 4 5 6 
#
# 1 0.021457 -0.013193 -0.003958 0.000000 0.000000 0.000000
# 2 -0.013193 0.030322 -0.004231 0.000000 0.000000 0.000000
# 3 -0.003958 -0.004231 0.018041 0.000000 0.000000 0.000000
# 4 0.000000 0.000000 0.000000 0.035942 0.000000 0.000000
# 5 0.000000 0.000000 0.000000 0.000000 0.060397 0.000000
# 6 0.000000 0.000000 0.000000 0.000000 0.000000 0.023642
#
#
# Mechanical properties :
#
#
# Convention : Reuss Voigt Hill
#
# Bulk Modulus (GPa) = 36.95955 38.43914 37.69935
# Shear Modulus (GPa) = 20.69680 24.67707 22.68693
#
# Velocity S-wave (km/s) = 3.26024 3.55996 3.41339
# Velocity P-wave (km/s) = 5.75790 6.05300 5.90730
#
# Compressibility (1/GPa) = 0.02705661
#
# Stress axis : x y z
#
# Youngs Moduli (GPa) = 46.60543 32.97917 55.42887
#
# Poissons Ratio (x) = 0.43509 0.21941
# Poissons Ratio (y) = 0.61486 0.23449
# Poissons Ratio (z) = 0.18448 0.13952
#
# Static dielectric constant tensor:
#      x y z
#    x 3.341510 0.000000 0.000000 
#    y 0.000000 3.546870 0.000000 
#    z 0.000000 0.000000 3.337430 
# 
# 
# High freq. dielectric constant tensor:
#      x y z
#    x 1.730360 0.000000 0.000000 
#    y 0.000000 1.767840 0.000000 
#    z 0.000000 0.000000 1.741870 
# 
# From -- ./inp_files/33659.got.cif
#   From: 2010.06.25/outbox.cif.g09.slc.cpg/sg52_17_cif.got.tgz:33659.got - 2010.06.26 19:32:48.
