data_PCOD8215835
_publ_section_title
;
Structure prediction by ZEFSAII (Michael W. Deem and Ramdas Pophale) SiO2 
 PCOD8215835
Probable space group: P N N A
;
_chemical_formula_sum "Si O2"
_cell_formula_units_Z 40
_cell_length_a 18.816245
_cell_length_b 13.350383
_cell_length_c 7.428914
_cell_angle_alpha 90.000000
_cell_angle_beta 90.000000
_cell_angle_gamma 90.000000
_cell_volume 1866.173487
_symmetry_space_group_name_H-M "P N N A"
_symmetry_group_IT_number 52
_symmetry_cell_setting 'orthorhombic'
loop_
_space_group_symop_operation_xyz
x,y,z
1/2-x,-y,z
x,1/2-y,1/2-z
1/2-x,1/2+y,1/2-z
-x,-y,-z
1/2+x,y,-z
-x,1/2+y,1/2+z
1/2+x,1/2-y,1/2+z
loop_
_atom_site_type_symbol
_atom_site_label
_atom_site_fract_x
_atom_site_fract_y
_atom_site_fract_z
Si Si1 0.669743 0.477926 0.883087
Si Si2 0.104910 0.446337 0.475086
Si Si3 0.556613 0.860773 0.496836
Si Si4 0.037328 0.861255 0.917760
Si Si5 0.404167 0.858740 0.667482
O O1 0.750000 0.500000 0.937033
O O2 0.667023 0.444383 0.673071
O O3 0.621467 0.575977 0.921065
O O4 0.643461 0.380469 0.992874
O O5 0.067962 0.554316 0.451377
O O6 0.129128 0.433576 0.681180
O O7 0.048080 0.356127 0.441988
O O8 0.549053 0.891639 0.289131
O O9 0.571996 0.741575 0.489971
O O10 0.486084 0.883165 0.614918
O O11 0.393345 0.750000 0.750000
#
# Coordination Sequence:
#
# PCOD8215835 Si02
#       5
#     8   8   8   8   8
#     4  12  28  47  64  99 148 188 220 279 353 421
#     4  11  22  40  67 103 131 176 228 286 343 395
#     4  11  21  41  71 105 133 171 234 287 343 398
#     4  10  20  37  73 105 130 165 231 297 336 396
#     4  12  24  44  74 100 132 177 236 294 337 397
#
# _framework density 21.434235000000001
#
# number of rings (size 3 to 8) (size 9 to 14) (size 15 to 20)
#    0.000    0.800    6.000    3.000    0.000    1.600 
#    3.600    2.000    0.000    0.000    0.000    0.000 
#    0.000    0.000    0.000    0.000    0.000    0.000 
#
# Total GULP energy -495706.373942 kJ/mol
# GULP energy per Si atom -12392.659349 kJ/mol
# Density = 2.138545 g / cm^3
# Si number density = 21.434235 Si / 1000 Ang^3
#
#
#
# Elastic Constant Matrix: (Units=GPa)
#
#
# Indices 1 2 3 4 5 6 
#
# 1 96.4019 44.4684 34.9195 0.0000 0.0000 0.0000
# 2 44.4684 102.2232 38.0908 0.0000 0.0000 0.0000
# 3 34.9195 38.0908 124.8004 0.0000 0.0000 0.0000
# 4 0.0000 0.0000 0.0000 31.6047 0.0000 0.0000
# 5 0.0000 0.0000 0.0000 0.0000 18.5492 0.0000
# 6 0.0000 0.0000 0.0000 0.0000 0.0000 12.7018
#
#
#
# Elastic Compliance Matrix: (Units=1/GPa)
#
#
# Indices 1 2 3 4 5 6 
#
# 1 0.013511 -0.005042 -0.002241 0.000000 0.000000 0.000000
# 2 -0.005042 0.012920 -0.002532 0.000000 0.000000 0.000000
# 3 -0.002241 -0.002532 0.009413 0.000000 0.000000 0.000000
# 4 0.000000 0.000000 0.000000 0.031641 0.000000 0.000000
# 5 0.000000 0.000000 0.000000 0.000000 0.053911 0.000000
# 6 0.000000 0.000000 0.000000 0.000000 0.000000 0.078729
#
#
# Mechanical properties :
#
#
# Convention : Reuss Voigt Hill
#
# Bulk Modulus (GPa) = 61.68541 62.04256 61.86398
# Shear Modulus (GPa) = 22.20644 26.30093 24.25368
#
# Velocity S-wave (km/s) = 3.22223 3.50673 3.36749
# Velocity P-wave (km/s) = 6.53338 6.73829 6.63663
#
# Compressibility (1/GPa) = 0.01621129
#
# Stress axis : x y z
#
# Youngs Moduli (GPa) = 74.01334 77.40175 106.23731
#
# Poissons Ratio (x) = 0.39028 0.23813
# Poissons Ratio (y) = 0.37320 0.26904
# Poissons Ratio (z) = 0.16590 0.19601
#
# Static dielectric constant tensor:
#      x y z
#    x 3.298100 0.000000 0.000000 
#    y 0.000000 3.990770 0.000000 
#    z 0.000000 0.000000 4.300020 
# 
# 
# High freq. dielectric constant tensor:
#      x y z
#    x 1.776680 0.000000 0.000000 
#    y 0.000000 1.851470 0.000000 
#    z 0.000000 0.000000 1.873330 
# 
# From -- ./inp_files/11857.got.cif
#   From: 2010.06.25/outbox.cif.g09.slc.cpg/sg52_6_cif.got.tgz:11857.got - 2010.06.26 19:32:48.
