data_PCOD8215200
_publ_section_title
;
Structure prediction by ZEFSAII (Michael W. Deem and Ramdas Pophale) SiO2 
 PCOD8215200
Probable space group: P N N A
;
_chemical_formula_sum "Si O2"
_cell_formula_units_Z 44
_cell_length_a 19.416845
_cell_length_b 13.651671
_cell_length_c 8.634562
_cell_angle_alpha 90.000000
_cell_angle_beta 90.000000
_cell_angle_gamma 90.000000
_cell_volume 2288.783898
_symmetry_space_group_name_H-M "P N N A"
_symmetry_group_IT_number 52
_symmetry_cell_setting 'orthorhombic'
loop_
_space_group_symop_operation_xyz
x,y,z
1/2-x,-y,z
x,1/2-y,1/2-z
1/2-x,1/2+y,1/2-z
-x,-y,-z
1/2+x,y,-z
-x,1/2+y,1/2+z
1/2+x,1/2-y,1/2+z
loop_
_atom_site_type_symbol
_atom_site_label
_atom_site_fract_x
_atom_site_fract_y
_atom_site_fract_z
Si Si1 0.130498 0.034111 0.221582
Si Si2 0.838939 0.702096 0.917521
Si Si3 0.286628 0.292395 0.588195
Si Si4 0.090387 0.673186 0.370131
Si Si5 0.250000 0.500000 0.509321
Si Si6 0.028850 0.311156 0.394653
O O1 0.155999 0.083982 0.384567
O O2 0.062388 0.089259 0.165918
O O3 0.111313 0.920373 0.233912
O O4 0.190115 0.046155 0.094968
O O5 0.823488 0.750000 0.750000
O O6 0.912349 0.744231 0.978496
O O7 0.780128 0.728824 0.039674
O O8 0.313923 0.250000 0.750000
O O9 0.343503 0.280764 0.455235
O O10 0.273678 0.408667 0.614443
O O11 0.060144 0.750000 0.250000
O O12 0.030850 0.652339 0.492820
O O13 0.997374 0.250000 0.250000
#
# Coordination Sequence:
#
# PCOD8215200 Si02
#       6
#     8   8   8   8   4   8
#     4   9  19  35  63  82 112 152 201 231 293 354
#     4   9  17  37  62  85 106 153 198 242 283 351
#     4  11  22  37  57  85 119 150 194 247 298 348
#     4  11  23  36  56  87 119 156 194 246 295 352
#     4  10  18  36  58  86 108 156 188 234 298 356
#     4   9  18  37  60  81 113 156 193 235 292 350
#
# _framework density 19.224183
#
# number of rings (size 3 to 8) (size 9 to 14) (size 15 to 20)
#    0.000    2.545    3.636    1.636    2.545    0.727 
#    3.273    3.636    0.000    0.000    0.000    0.000 
#    0.000    0.000    0.000    0.000    0.000    0.000 
#
# Total GULP energy -545283.331617 kJ/mol
# GULP energy per Si atom -12392.802991 kJ/mol
# Density = 1.918043 g / cm^3
# Si number density = 19.224183 Si / 1000 Ang^3
#
#
#
# Elastic Constant Matrix: (Units=GPa)
#
#
# Indices 1 2 3 4 5 6 
#
# 1 68.1503 25.2183 16.0157 0.0000 0.0000 0.0000
# 2 25.2183 102.3069 38.8572 0.0000 0.0000 0.0000
# 3 16.0157 38.8572 41.9172 0.0000 0.0000 0.0000
# 4 0.0000 0.0000 0.0000 30.0825 0.0000 0.0000
# 5 0.0000 0.0000 0.0000 0.0000 9.6848 0.0000
# 6 0.0000 0.0000 0.0000 0.0000 0.0000 18.7243
#
#
#
# Elastic Compliance Matrix: (Units=1/GPa)
#
#
# Indices 1 2 3 4 5 6 
#
# 1 0.016554 -0.002590 -0.003924 0.000000 0.000000 0.000000
# 2 -0.002590 0.015491 -0.013371 0.000000 0.000000 0.000000
# 3 -0.003924 -0.013371 0.037751 0.000000 0.000000 0.000000
# 4 0.000000 0.000000 0.000000 0.033242 0.000000 0.000000
# 5 0.000000 0.000000 0.000000 0.000000 0.103255 0.000000
# 6 0.000000 0.000000 0.000000 0.000000 0.000000 0.053407
#
#
# Mechanical properties :
#
#
# Convention : Reuss Voigt Hill
#
# Bulk Modulus (GPa) = 33.30421 41.39519 37.34970
# Shear Modulus (GPa) = 16.15625 20.51718 18.33671
#
# Velocity S-wave (km/s) = 2.90213 3.27044 3.09177
# Velocity P-wave (km/s) = 5.34711 5.98670 5.67592
#
# Compressibility (1/GPa) = 0.03002623
#
# Stress axis : x y z
#
# Youngs Moduli (GPa) = 60.40817 64.55199 26.48965
#
# Poissons Ratio (x) = 0.16720 0.10394
# Poissons Ratio (y) = 0.15647 0.35419
# Poissons Ratio (z) = 0.23703 0.86312
#
# Static dielectric constant tensor:
#      x y z
#    x 3.505830 0.000000 0.000000 
#    y 0.000000 3.720450 0.000000 
#    z 0.000000 0.000000 3.099080 
# 
# 
# High freq. dielectric constant tensor:
#      x y z
#    x 1.750990 0.000000 0.000000 
#    y 0.000000 1.755410 0.000000 
#    z 0.000000 0.000000 1.706330 
# 
# From -- ./inp_files/11945.got.cif
#   From: 2010.06.25/outbox.cif.g09.slc.cpg/sg52_6_cif.got.tgz:11945.got - 2010.06.26 19:32:48.
