data_PCOD8215369
_publ_section_title
;
Structure prediction by ZEFSAII (Michael W. Deem and Ramdas Pophale) SiO2 
 PCOD8215369
Probable space group: P N N A
;
_chemical_formula_sum "Si O2"
_cell_formula_units_Z 48
_cell_length_a 18.507168
_cell_length_b 15.314542
_cell_length_c 8.786463
_cell_angle_alpha 90.000000
_cell_angle_beta 90.000000
_cell_angle_gamma 90.000000
_cell_volume 2490.336679
_symmetry_space_group_name_H-M "P N N A"
_symmetry_group_IT_number 52
_symmetry_cell_setting 'orthorhombic'
loop_
_space_group_symop_operation_xyz
x,y,z
1/2-x,-y,z
x,1/2-y,1/2-z
1/2-x,1/2+y,1/2-z
-x,-y,-z
1/2+x,y,-z
-x,1/2+y,1/2+z
1/2+x,1/2-y,1/2+z
loop_
_atom_site_type_symbol
_atom_site_label
_atom_site_fract_x
_atom_site_fract_y
_atom_site_fract_z
Si Si1 0.820203 0.841048 0.827639
Si Si2 0.083800 0.508503 0.676550
Si Si3 0.330905 0.154023 0.307136
Si Si4 0.292670 0.088290 0.629361
Si Si5 0.581699 0.997813 0.823040
Si Si6 0.665479 0.337397 0.318562
O O1 0.841935 0.750000 0.750000
O O2 0.740692 0.873364 0.783483
O O3 0.874884 0.915994 0.774533
O O4 0.820622 0.825041 0.005200
O O5 0.133488 0.571235 0.778000
O O6 0.095114 0.528042 0.498210
O O7 0.105540 0.409770 0.713462
O O8 0.000453 0.520633 0.718703
O O9 0.355853 0.250000 0.250000
O O10 0.312330 0.149483 0.486364
O O11 0.393941 0.084814 0.275866
O O12 0.241690 0.142636 0.740357
O O13 0.250000 0.000000 0.579359
O O14 0.631527 0.250000 0.250000
#
# Coordination Sequence:
#
# PCOD8215369 Si02
#       6
#     8   8   8   8   8   8
#     4  10  20  35  57  83 107 142 185 223 274 326
#     4   9  21  37  56  79 108 149 185 217 278 331
#     4  11  22  35  55  83 111 142 184 229 275 324
#     4  10  20  36  56  81 108 142 185 228 276 328
#     4  10  20  39  57  77 114 149 179 226 273 328
#     4  10  19  34  57  81 109 139 178 230 273 324
#
# _framework density 19.274501999999998
#
# number of rings (size 3 to 8) (size 9 to 14) (size 15 to 20)
#    0.000    2.000    0.000    4.500    0.000    5.333 
#    0.000    5.833    0.000    0.000    0.000    0.000 
#    0.000    0.000    0.000    0.000    0.000    0.000 
#
# Total GULP energy -595253.654986 kJ/mol
# GULP energy per Si atom -12401.117812 kJ/mol
# Density = 1.923063 g / cm^3
# Si number density = 19.274502 Si / 1000 Ang^3
#
#
#
# Elastic Constant Matrix: (Units=GPa)
#
#
# Indices 1 2 3 4 5 6 
#
# 1 59.3646 18.0931 -15.0766 0.0000 0.0000 0.0000
# 2 18.0931 93.7777 23.0739 0.0000 0.0000 0.0000
# 3 -15.0766 23.0739 43.3952 0.0000 0.0000 0.0000
# 4 0.0000 0.0000 0.0000 37.0319 0.0000 0.0000
# 5 0.0000 0.0000 0.0000 0.0000 -9.0615 0.0000
# 6 0.0000 0.0000 0.0000 0.0000 0.0000 18.8694
#
#
#
# Elastic Compliance Matrix: (Units=1/GPa)
#
#
# Indices 1 2 3 4 5 6 
#
# 1 0.021852 -0.007000 0.011314 0.000000 0.000000 0.000000
# 2 -0.007000 0.014511 -0.010147 0.000000 0.000000 0.000000
# 3 0.011314 -0.010147 0.032370 0.000000 0.000000 0.000000
# 4 0.000000 0.000000 0.000000 0.027004 0.000000 0.000000
# 5 0.000000 0.000000 0.000000 0.000000 -0.110357 0.000000
# 6 0.000000 0.000000 0.000000 0.000000 0.000000 0.052996
#
#
# Mechanical properties :
#
#
# Convention : Reuss Voigt Hill
#
# Bulk Modulus (GPa) = 17.52367 27.63539 22.57953
# Shear Modulus (GPa) = 72.39670 20.73110 46.56390
#
# Velocity S-wave (km/s) = 6.13534 3.28315 4.92044
# Velocity P-wave (km/s) = 7.70073 5.36106 6.63484
#
# Compressibility (1/GPa) = 0.05706566
#
# Stress axis : x y z
#
# Youngs Moduli (GPa) = 45.76307 68.91430 30.89260
#
# Poissons Ratio (x) = 0.48238 -0.34951
# Poissons Ratio (y) = 0.32033 0.31348
# Poissons Ratio (z) = -0.51775 0.69931
#
# Static dielectric constant tensor:
#      x y z
#    x 3.427170 0.000000 0.000000 
#    y 0.000000 3.580030 0.000000 
#    z 0.000000 0.000000 3.598770 
# 
# 
# High freq. dielectric constant tensor:
#      x y z
#    x 1.742060 0.000000 0.000000 
#    y 0.000000 1.752320 0.000000 
#    z 0.000000 0.000000 1.756990 
# 
# From -- ./inp_files/12087.got.cif
#   From: 2010.06.25/outbox.cif.g09.slc.cpg/sg52_7_cif.got.tgz:12087.got - 2010.06.26 19:32:48.
