data_PCOD8215767
_publ_section_title
;
Structure prediction by ZEFSAII (Michael W. Deem and Ramdas Pophale) SiO2 
 PCOD8215767
Probable space group: P N N A
;
_chemical_formula_sum "Si O2"
_cell_formula_units_Z 64
_cell_length_a 8.845129
_cell_length_b 30.342820
_cell_length_c 11.242657
_cell_angle_alpha 90.000000
_cell_angle_beta 90.000000
_cell_angle_gamma 90.000000
_cell_volume 3017.373508
_symmetry_space_group_name_H-M "P N N A"
_symmetry_group_IT_number 52
_symmetry_cell_setting 'orthorhombic'
loop_
_space_group_symop_operation_xyz
x,y,z
1/2-x,-y,z
x,1/2-y,1/2-z
1/2-x,1/2+y,1/2-z
-x,-y,-z
1/2+x,y,-z
-x,1/2+y,1/2+z
1/2+x,1/2-y,1/2+z
loop_
_atom_site_type_symbol
_atom_site_label
_atom_site_fract_x
_atom_site_fract_y
_atom_site_fract_z
Si Si1 0.040095 0.844603 0.611695
Si Si2 0.737831 0.192704 0.954653
Si Si3 0.790623 0.050591 0.252254
Si Si4 0.363918 0.897073 0.949006
Si Si5 0.915547 0.593731 0.719503
Si Si6 0.546321 0.746587 0.385202
Si Si7 0.362023 0.878519 0.595107
Si Si8 0.107713 0.629196 0.282691
O O1 0.989123 0.795424 0.579255
O O2 0.219143 0.846275 0.589512
O O3 0.002581 0.860051 0.747426
O O4 0.944151 0.879954 0.532567
O O5 0.590424 0.213009 0.895330
O O6 0.832351 0.174187 0.842584
O O7 0.697318 0.153088 0.045400
O O8 0.822006 0.230676 0.027320
O O9 0.753624 0.072984 0.124878
O O10 0.695030 0.073675 0.358593
O O11 0.973503 0.055555 0.271519
O O12 0.750000 0.000000 0.251504
O O13 0.525608 0.899381 0.884393
O O14 0.392482 0.914790 0.080377
O O15 0.744203 0.598753 0.771304
O O16 0.607680 0.750000 0.250000
O O17 0.488185 0.857778 0.682168
#
# Coordination Sequence:
#
# PCOD8215767 Si02
#       8
#     8   8   8   8   8   8   8   8
#     4  11  23  41  63  88 127 172 220 266 325 389
#     4  11  23  40  58  93 126 170 217 269 324 384
#     4  10  23  41  67  98 128 164 218 277 330 409
#     4  10  20  38  63  89 126 167 209 254 338 390
#     4  10  20  37  64  90 124 169 205 263 330 391
#     4  12  26  38  62  94 130 170 230 278 321 392
#     4  10  23  43  66  91 126 175 214 269 337 397
#     4  10  20  36  65  87 120 166 214 254 326 391
#
# _framework density 21.210501000000001
#
# number of rings (size 3 to 8) (size 9 to 14) (size 15 to 20)
#    0.000    1.500    1.250    4.500    7.000    1.500 
#    0.000    5.625    0.000    0.750    0.000    0.000 
#    0.000    0.000    0.000    0.000    0.000    0.000 
#
# Total GULP energy -793089.971706 kJ/mol
# GULP energy per Si atom -12392.030808 kJ/mol
# Density = 2.116222 g / cm^3
# Si number density = 21.210501 Si / 1000 Ang^3
#
#
#
# Elastic Constant Matrix: (Units=GPa)
#
#
# Indices 1 2 3 4 5 6 
#
# 1 112.1465 18.3830 29.3336 0.0000 0.0000 0.0000
# 2 18.3830 113.8041 30.3138 0.0000 0.0000 0.0000
# 3 29.3336 30.3138 73.9122 0.0000 0.0000 0.0000
# 4 0.0000 0.0000 0.0000 22.0870 0.0000 0.0000
# 5 0.0000 0.0000 0.0000 0.0000 37.6798 0.0000
# 6 0.0000 0.0000 0.0000 0.0000 0.0000 25.8535
#
#
#
# Elastic Compliance Matrix: (Units=1/GPa)
#
#
# Indices 1 2 3 4 5 6 
#
# 1 0.009989 -0.000626 -0.003708 0.000000 0.000000 0.000000
# 2 -0.000626 0.009904 -0.003813 0.000000 0.000000 0.000000
# 3 -0.003708 -0.003813 0.016565 0.000000 0.000000 0.000000
# 4 0.000000 0.000000 0.000000 0.045276 0.000000 0.000000
# 5 0.000000 0.000000 0.000000 0.000000 0.026539 0.000000
# 6 0.000000 0.000000 0.000000 0.000000 0.000000 0.038679
#
#
# Mechanical properties :
#
#
# Convention : Reuss Voigt Hill
#
# Bulk Modulus (GPa) = 49.59346 50.65817 50.12582
# Shear Modulus (GPa) = 29.41721 31.91289 30.66505
#
# Velocity S-wave (km/s) = 3.72817 3.88310 3.80642
# Velocity P-wave (km/s) = 6.47802 6.63626 6.55762
#
# Compressibility (1/GPa) = 0.02016395
#
# Stress axis : x y z
#
# Youngs Moduli (GPa) = 100.10677 100.96992 60.36786
#
# Poissons Ratio (x) = 0.06320 0.22383
# Poissons Ratio (y) = 0.06266 0.23021
# Poissons Ratio (z) = 0.37117 0.38505
#
# Static dielectric constant tensor:
#      x y z
#    x 4.181350 0.000000 0.000000 
#    y 0.000000 3.485030 0.000000 
#    z 0.000000 0.000000 3.925670 
# 
# 
# High freq. dielectric constant tensor:
#      x y z
#    x 1.853620 0.000000 0.000000 
#    y 0.000000 1.789570 0.000000 
#    z 0.000000 0.000000 1.833490 
# 
# From -- ./inp_files/17253.got.cif
#   From: 2010.06.25/outbox.cif.g09.slc.cpg/sg52_9_cif.got.tgz:17253.got - 2010.06.26 19:32:48.
