data_PCOD8215796
_publ_section_title
;
Structure prediction by ZEFSAII (Michael W. Deem and Ramdas Pophale) SiO2 
 PCOD8215796
Probable space group: P N N A
;
_chemical_formula_sum "Si O2"
_cell_formula_units_Z 48
_cell_length_a 17.790478
_cell_length_b 15.450414
_cell_length_c 8.704937
_cell_angle_alpha 90.000000
_cell_angle_beta 90.000000
_cell_angle_gamma 90.000000
_cell_volume 2392.728213
_symmetry_space_group_name_H-M "P N N A"
_symmetry_group_IT_number 52
_symmetry_cell_setting 'orthorhombic'
loop_
_space_group_symop_operation_xyz
x,y,z
1/2-x,-y,z
x,1/2-y,1/2-z
1/2-x,1/2+y,1/2-z
-x,-y,-z
1/2+x,y,-z
-x,1/2+y,1/2+z
1/2+x,1/2-y,1/2+z
loop_
_atom_site_type_symbol
_atom_site_label
_atom_site_fract_x
_atom_site_fract_y
_atom_site_fract_z
Si Si1 0.549741 0.579223 0.951457
Si Si2 0.925270 0.336382 0.650655
Si Si3 0.704248 0.586655 0.110488
Si Si4 0.285862 0.094118 0.961288
Si Si5 0.529573 0.258389 0.929762
Si Si6 0.188911 0.244305 0.573413
O O1 0.542043 0.592508 0.768354
O O2 0.500000 0.500000 0.000000
O O3 0.635486 0.568120 0.999204
O O4 0.522161 0.660623 0.043788
O O5 0.904727 0.250000 0.750000
O O6 0.852388 0.379875 0.575390
O O7 0.990213 0.320459 0.523096
O O8 0.750000 0.500000 0.100093
O O9 0.681415 0.601517 0.288275
O O10 0.750021 0.668963 0.046101
O O11 0.220013 0.163976 0.984783
O O12 0.250000 0.000000 0.998298
O O13 0.529521 0.250000 0.750000
O O14 0.614075 0.276842 0.981209
O O15 0.165374 0.250000 0.750000
#
# Coordination Sequence:
#
# PCOD8215796 Si02
#       6
#     8   8   8   8   8   8
#     4  11  23  39  61  88 120 156 198 248 300 356
#     4  10  22  40  61  85 119 159 199 250 304 361
#     4  10  21  38  62  89 121 159 199 243 297 359
#     4  10  22  39  61  88 119 158 200 246 300 358
#     4  11  23  39  61  87 118 158 200 245 302 362
#     4  10  20  37  60  87 120 156 197 246 297 356
#
# _framework density 20.060784000000002
#
# number of rings (size 3 to 8) (size 9 to 14) (size 15 to 20)
#    0.000    1.667    0.000    5.500    0.000    8.000 
#    0.000    2.500    0.000    0.000    0.000    0.000 
#    0.000    0.000    0.000    0.000    0.000    0.000 
#
# Total GULP energy -595143.312054 kJ/mol
# GULP energy per Si atom -12398.819001 kJ/mol
# Density = 2.001513 g / cm^3
# Si number density = 20.060784 Si / 1000 Ang^3
#
#
#
# Elastic Constant Matrix: (Units=GPa)
#
#
# Indices 1 2 3 4 5 6 
#
# 1 102.8732 28.6807 66.5077 0.0000 0.0000 0.0000
# 2 28.6807 84.8463 37.2714 0.0000 0.0000 0.0000
# 3 66.5077 37.2714 133.5348 0.0000 0.0000 0.0000
# 4 0.0000 0.0000 0.0000 31.4546 0.0000 0.0000
# 5 0.0000 0.0000 0.0000 0.0000 45.5324 0.0000
# 6 0.0000 0.0000 0.0000 0.0000 0.0000 25.6140
#
#
#
# Elastic Compliance Matrix: (Units=1/GPa)
#
#
# Indices 1 2 3 4 5 6 
#
# 1 0.014626 -0.001988 -0.006730 0.000000 0.000000 0.000000
# 2 -0.001988 0.013703 -0.002835 0.000000 0.000000 0.000000
# 3 -0.006730 -0.002835 0.011632 0.000000 0.000000 0.000000
# 4 0.000000 0.000000 0.000000 0.031792 0.000000 0.000000
# 5 0.000000 0.000000 0.000000 0.000000 0.021962 0.000000
# 6 0.000000 0.000000 0.000000 0.000000 0.000000 0.039041
#
#
# Mechanical properties :
#
#
# Convention : Reuss Voigt Hill
#
# Bulk Modulus (GPa) = 59.32506 65.13046 62.22776
# Shear Modulus (GPa) = 30.96389 33.10650 32.03520
#
# Velocity S-wave (km/s) = 3.93301 4.06681 4.00047
# Velocity P-wave (km/s) = 7.08954 7.38843 7.24053
#
# Compressibility (1/GPa) = 0.01685628
#
# Stress axis : x y z
#
# Youngs Moduli (GPa) = 68.37359 72.97575 85.97292
#
# Poissons Ratio (x) = 0.14506 0.57856
# Poissons Ratio (y) = 0.13591 0.24371
# Poissons Ratio (z) = 0.46012 0.20687
#
# Static dielectric constant tensor:
#      x y z
#    x 3.684390 0.000000 0.000000 
#    y 0.000000 3.728670 0.000000 
#    z 0.000000 0.000000 3.853330 
# 
# 
# High freq. dielectric constant tensor:
#      x y z
#    x 1.787780 0.000000 0.000000 
#    y 0.000000 1.787900 0.000000 
#    z 0.000000 0.000000 1.789110 
# 
# From -- ./inp_files/12119.got.cif
#   From: 2010.06.25/outbox.cif.g09.slc.cpg/sg52_7_cif.got.tgz:12119.got - 2010.06.26 19:32:48.
