data_PCOD8215341
_publ_section_title
;
Structure prediction by ZEFSAII (Michael W. Deem and Ramdas Pophale) SiO2 
 PCOD8215341
Probable space group: P N N A
;
_chemical_formula_sum "Si O2"
_cell_formula_units_Z 44
_cell_length_a 19.281128
_cell_length_b 10.202969
_cell_length_c 11.125897
_cell_angle_alpha 90.000000
_cell_angle_beta 90.000000
_cell_angle_gamma 90.000000
_cell_volume 2188.739320
_symmetry_space_group_name_H-M "P N N A"
_symmetry_group_IT_number 52
_symmetry_cell_setting 'orthorhombic'
loop_
_space_group_symop_operation_xyz
x,y,z
1/2-x,-y,z
x,1/2-y,1/2-z
1/2-x,1/2+y,1/2-z
-x,-y,-z
1/2+x,y,-z
-x,1/2+y,1/2+z
1/2+x,1/2-y,1/2+z
loop_
_atom_site_type_symbol
_atom_site_label
_atom_site_fract_x
_atom_site_fract_y
_atom_site_fract_z
Si Si1 0.732699 0.644239 0.347333
Si Si2 0.994061 0.314639 0.959433
Si Si3 0.615632 0.250000 0.750000
Si Si4 0.634424 0.192907 0.000661
Si Si5 0.911553 0.416698 0.440810
Si Si6 0.999668 0.954194 0.701579
O O1 0.750000 0.500000 0.293446
O O2 0.712640 0.750000 0.250000
O O3 0.800135 0.697835 0.414135
O O4 0.666485 0.638421 0.433654
O O5 0.979070 0.395595 0.835946
O O6 0.077407 0.298541 0.958355
O O7 0.968608 0.390829 0.079529
O O8 0.955211 0.174446 0.967524
O O9 0.662466 0.231547 0.867907
O O10 0.568489 0.120999 0.741972
O O11 0.593584 0.055684 0.994022
O O12 0.943899 0.439297 0.307758
#
# Coordination Sequence:
#
# PCOD8215341 Si02
#       6
#     8   8   4   8   8   8
#     4  10  23  39  62  91 124 160 202 250 313 364
#     4  10  20  33  58  90 121 149 202 236 304 362
#     4  10  20  42  58  80 118 158 200 250 310 346
#     4  10  22  37  60  85 118 162 198 245 302 366
#     4  11  20  39  60  88 126 156 195 261 306 354
#     4  10  19  33  58  89 117 157 187 249 301 358
#
# _framework density 20.102896999999999
#
# number of rings (size 3 to 8) (size 9 to 14) (size 15 to 20)
#    0.000    1.818    3.636    1.636    5.091    0.000 
#    3.273    0.000   12.000    0.000    0.000    0.000 
#    0.000    0.000    0.000    0.000    0.000    0.000 
#
# Total GULP energy -545297.458204 kJ/mol
# GULP energy per Si atom -12393.124050 kJ/mol
# Density = 2.005714 g / cm^3
# Si number density = 20.102897 Si / 1000 Ang^3
#
#
#
# Elastic Constant Matrix: (Units=GPa)
#
#
# Indices 1 2 3 4 5 6 
#
# 1 66.9543 29.2367 15.2040 0.0000 0.0000 0.0000
# 2 29.2367 75.6609 38.4705 0.0000 0.0000 0.0000
# 3 15.2040 38.4705 55.3452 0.0000 0.0000 0.0000
# 4 0.0000 0.0000 0.0000 40.2702 0.0000 0.0000
# 5 0.0000 0.0000 0.0000 0.0000 12.1704 0.0000
# 6 0.0000 0.0000 0.0000 0.0000 0.0000 -2.0261
#
#
#
# Elastic Compliance Matrix: (Units=1/GPa)
#
#
# Indices 1 2 3 4 5 6 
#
# 1 0.017968 -0.006857 -0.000170 0.000000 0.000000 0.000000
# 2 -0.006857 0.023058 -0.014144 0.000000 0.000000 0.000000
# 3 -0.000170 -0.014144 0.027947 0.000000 0.000000 0.000000
# 4 0.000000 0.000000 0.000000 0.024832 0.000000 0.000000
# 5 0.000000 0.000000 0.000000 0.000000 0.082166 0.000000
# 6 0.000000 0.000000 0.000000 0.000000 0.000000 -0.493563
#
#
# Mechanical properties :
#
#
# Convention : Reuss Voigt Hill
#
# Bulk Modulus (GPa) = 37.54961 40.42029 38.98495
# Shear Modulus (GPa) = -18.77072 17.75286 -0.50893
#
# Velocity S-wave (km/s) = -3.05902 2.97492 -0.50370
# Velocity P-wave (km/s) = 2.49849 5.65248 4.36996
#
# Compressibility (1/GPa) = 0.02663143
#
# Stress axis : x y z
#
# Youngs Moduli (GPa) = 55.65352 43.36850 35.78243
#
# Poissons Ratio (x) = 0.29737 0.00608
# Poissons Ratio (y) = 0.38161 0.50611
# Poissons Ratio (z) = 0.00945 0.61341
#
# Static dielectric constant tensor:
#      x y z
#    x 3.398130 0.000000 0.000000 
#    y 0.000000 3.939240 0.000000 
#    z 0.000000 0.000000 3.692320 
# 
# 
# High freq. dielectric constant tensor:
#      x y z
#    x 1.761540 0.000000 0.000000 
#    y 0.000000 1.797700 0.000000 
#    z 0.000000 0.000000 1.778750 
# 
# From -- ./inp_files/20548.got.cif
#   From: 2010.06.25/outbox.cif.g09.slc.cpg/sg52_11_cif.got.tgz:20548.got - 2010.06.26 19:32:48.
