data_PCOD8215752
_publ_section_title
;
Structure prediction by ZEFSAII (Michael W. Deem and Ramdas Pophale) SiO2 
 PCOD8215752
Probable space group: P N N A
;
_chemical_formula_sum "Si O2"
_cell_formula_units_Z 40
_cell_length_a 7.721832
_cell_length_b 17.939695
_cell_length_c 14.299634
_cell_angle_alpha 90.000000
_cell_angle_beta 90.000000
_cell_angle_gamma 90.000000
_cell_volume 1980.889845
_symmetry_space_group_name_H-M "P N N A"
_symmetry_group_IT_number 52
_symmetry_cell_setting 'orthorhombic'
loop_
_space_group_symop_operation_xyz
x,y,z
1/2-x,-y,z
x,1/2-y,1/2-z
1/2-x,1/2+y,1/2-z
-x,-y,-z
1/2+x,y,-z
-x,1/2+y,1/2+z
1/2+x,1/2-y,1/2+z
loop_
_atom_site_type_symbol
_atom_site_label
_atom_site_fract_x
_atom_site_fract_y
_atom_site_fract_z
Si Si1 0.640914 0.368852 0.869675
Si Si2 0.036428 0.294301 0.591205
Si Si3 0.810043 0.250000 0.750000
Si Si4 0.750000 0.500000 0.733889
Si Si5 0.566021 0.035869 0.094831
Si Si6 0.174582 0.691456 0.958092
O O1 0.684614 0.294246 0.816208
O O2 0.684528 0.437257 0.804263
O O3 0.437717 0.362903 0.892532
O O4 0.746205 0.366719 0.966993
O O5 0.102328 0.377510 0.570145
O O6 0.186914 0.233220 0.607363
O O7 0.928380 0.302945 0.686275
O O8 0.927583 0.260538 0.505114
O O9 0.584970 0.525014 0.672190
O O10 0.750000 0.000000 0.127257
O O11 0.500000 0.000000 0.000000
#
# Coordination Sequence:
#
# PCOD8215752 Si02
#       6
#     8   8   4   4   8   8
#     4  10  22  42  63  99 127 174 219 272 334 390
#     4  10  20  39  60  92 121 165 216 273 319 389
#     4  10  20  36  62  84 128 154 222 270 308 384
#     4  12  26  44  66  98 140 174 224 282 334 412
#     4  12  25  41  65  97 139 180 216 272 351 411
#     4   9  21  39  67  88 125 171 219 272 330 382
#
# _framework density 20.192945999999999
#
# number of rings (size 3 to 8) (size 9 to 14) (size 15 to 20)
#    0.000    1.600    3.000    1.200    0.000    6.400 
#    3.600    0.000    0.000    0.000    0.000    0.000 
#    0.000    0.000    0.000    0.000    0.000    0.000 
#
# Total GULP energy -495714.056006 kJ/mol
# GULP energy per Si atom -12392.851400 kJ/mol
# Density = 2.014699 g / cm^3
# Si number density = 20.192946 Si / 1000 Ang^3
#
#
#
# Elastic Constant Matrix: (Units=GPa)
#
#
# Indices 1 2 3 4 5 6 
#
# 1 116.8319 27.1862 46.3477 0.0000 0.0000 0.0000
# 2 27.1862 89.0215 37.6981 0.0000 0.0000 0.0000
# 3 46.3477 37.6981 94.6378 0.0000 0.0000 0.0000
# 4 0.0000 0.0000 0.0000 -5.7418 0.0000 0.0000
# 5 0.0000 0.0000 0.0000 0.0000 12.4188 0.0000
# 6 0.0000 0.0000 0.0000 0.0000 0.0000 17.0252
#
#
#
# Elastic Compliance Matrix: (Units=1/GPa)
#
#
# Indices 1 2 3 4 5 6 
#
# 1 0.010741 -0.001266 -0.004756 0.000000 0.000000 0.000000
# 2 -0.001266 0.013662 -0.004822 0.000000 0.000000 0.000000
# 3 -0.004756 -0.004822 0.014816 0.000000 0.000000 0.000000
# 4 0.000000 0.000000 0.000000 -0.174161 0.000000 0.000000
# 5 0.000000 0.000000 0.000000 0.000000 0.080523 0.000000
# 6 0.000000 0.000000 0.000000 0.000000 0.000000 0.058737
#
#
# Mechanical properties :
#
#
# Convention : Reuss Voigt Hill
#
# Bulk Modulus (GPa) = 57.04120 58.10613 57.57366
# Shear Modulus (GPa) = 156.99241 17.35773 87.17507
#
# Velocity S-wave (km/s) = 8.82694 2.93506 6.57760
# Velocity P-wave (km/s) = 11.49765 6.35012 9.28763
#
# Compressibility (1/GPa) = 0.01753119
#
# Stress axis : x y z
#
# Youngs Moduli (GPa) = 93.10531 73.19632 67.49262
#
# Poissons Ratio (x) = 0.09268 0.32097
# Poissons Ratio (y) = 0.11788 0.32545
# Poissons Ratio (z) = 0.44278 0.35295
#
# Static dielectric constant tensor:
#      x y z
#    x 4.414100 0.000000 0.000000 
#    y 0.000000 2.811520 0.000000 
#    z 0.000000 0.000000 3.806360 
# 
# 
# High freq. dielectric constant tensor:
#      x y z
#    x 1.799390 0.000000 0.000000 
#    y 0.000000 1.781060 0.000000 
#    z 0.000000 0.000000 1.790340 
# 
# From -- ./inp_files/16696.got.cif
#   From: 2010.06.25/outbox.cif.g09.slc.cpg/sg52_9_cif.got.tgz:16696.got - 2010.06.26 19:32:48.
