data_PCOD8215554
_publ_section_title
;
Structure prediction by ZEFSAII (Michael W. Deem and Ramdas Pophale) SiO2 
 PCOD8215554
Probable space group: P N N A
;
_chemical_formula_sum "Si O2"
_cell_formula_units_Z 40
_cell_length_a 13.934733
_cell_length_b 11.379594
_cell_length_c 11.499372
_cell_angle_alpha 90.000000
_cell_angle_beta 90.000000
_cell_angle_gamma 90.000000
_cell_volume 1823.473863
_symmetry_space_group_name_H-M "P N N A"
_symmetry_group_IT_number 52
_symmetry_cell_setting 'orthorhombic'
loop_
_space_group_symop_operation_xyz
x,y,z
1/2-x,-y,z
x,1/2-y,1/2-z
1/2-x,1/2+y,1/2-z
-x,-y,-z
1/2+x,y,-z
-x,1/2+y,1/2+z
1/2+x,1/2-y,1/2+z
loop_
_atom_site_type_symbol
_atom_site_label
_atom_site_fract_x
_atom_site_fract_y
_atom_site_fract_z
Si Si1 0.301363 0.614209 0.050127
Si Si2 0.989019 0.112815 0.415143
Si Si3 0.750000 0.500000 0.398435
Si Si4 0.856049 0.199680 0.963665
Si Si5 0.529852 0.750000 0.750000
Si Si6 0.878282 0.933618 0.303311
O O1 0.250000 0.500000 0.107506
O O2 0.401428 0.645862 0.115171
O O3 0.237473 0.727346 0.068156
O O4 0.309734 0.588469 0.912642
O O5 0.931536 0.225741 0.460453
O O6 0.926813 0.063995 0.306230
O O7 0.000000 0.000000 0.500000
O O8 0.821321 0.420446 0.475584
O O9 0.817222 0.580920 0.315308
O O10 0.907311 0.173684 0.840729
O O11 0.463179 0.840266 0.681630
#
# Coordination Sequence:
#
# PCOD8215554 Si02
#       6
#     8   8   4   8   4   8
#     4  11  18  39  72 101 125 172 244 284 318 410
#     4  10  19  40  69 102 125 175 239 290 318 414
#     4  12  28  42  66 108 144 174 220 302 372 426
#     4  12  25  44  64  98 145 178 229 284 355 426
#     4  12  24  44  66  88 140 190 218 286 356 412
#     4  11  21  42  71  98 130 176 230 287 356 398
#
# _framework density 21.936152
#
# number of rings (size 3 to 8) (size 9 to 14) (size 15 to 20)
#    0.000    0.800    9.000    1.200    0.000    3.200 
#    5.400    0.000    0.000    0.000    0.000    0.000 
#    0.000    0.000    0.000    0.000    0.000    0.000 
#
# Total GULP energy -495736.501847 kJ/mol
# GULP energy per Si atom -12393.412546 kJ/mol
# Density = 2.188622 g / cm^3
# Si number density = 21.936152 Si / 1000 Ang^3
#
#
#
# Elastic Constant Matrix: (Units=GPa)
#
#
# Indices 1 2 3 4 5 6 
#
# 1 139.4062 30.7915 18.9377 0.0000 0.0000 0.0000
# 2 30.7915 78.1342 14.1322 0.0000 0.0000 0.0000
# 3 18.9377 14.1322 58.0917 0.0000 0.0000 0.0000
# 4 0.0000 0.0000 0.0000 -344.5492 0.0000 0.0000
# 5 0.0000 0.0000 0.0000 0.0000 -3.6172 0.0000
# 6 0.0000 0.0000 0.0000 0.0000 0.0000 45.6910
#
#
#
# Elastic Compliance Matrix: (Units=1/GPa)
#
#
# Indices 1 2 3 4 5 6 
#
# 1 0.008061 -0.002826 -0.001940 0.000000 0.000000 0.000000
# 2 -0.002826 0.014378 -0.002577 0.000000 0.000000 0.000000
# 3 -0.001940 -0.002577 0.018474 0.000000 0.000000 0.000000
# 4 0.000000 0.000000 0.000000 -0.002902 0.000000 0.000000
# 5 0.000000 0.000000 0.000000 0.000000 -0.276456 0.000000
# 6 0.000000 0.000000 0.000000 0.000000 0.000000 0.021886
#
#
# Mechanical properties :
#
#
# Convention : Reuss Voigt Hill
#
# Bulk Modulus (GPa) = 38.12857 44.81721 41.47289
# Shear Modulus (GPa) = -25.88916 -46.37704 -36.13310
#
# Velocity S-wave (km/s) = -3.43914 -4.60301 -4.06297
# Velocity P-wave (km/s) = 1.28418 2.78840 1.75015
#
# Compressibility (1/GPa) = 0.02622705
#
# Stress axis : x y z
#
# Youngs Moduli (GPa) = 124.05373 69.55009 54.13145
#
# Poissons Ratio (x) = 0.19653 0.10504
# Poissons Ratio (y) = 0.35055 0.13948
# Poissons Ratio (z) = 0.24072 0.17920
#
# Static dielectric constant tensor:
#      x y z
#    x 4.630850 0.000000 0.000000 
#    y 0.000000 3.744760 0.000000 
#    z 0.000000 0.000000 3.743320 
# 
# 
# High freq. dielectric constant tensor:
#      x y z
#    x 1.893920 0.000000 0.000000 
#    y 0.000000 1.844010 0.000000 
#    z 0.000000 0.000000 1.827090 
# 
# From -- ./inp_files/19302.got.cif
#   From: 2010.06.25/outbox.cif.g09.slc.cpg/sg52_10_cif.got.tgz:19302.got - 2010.06.26 19:32:48.
