data_PCOD8215628
_publ_section_title
;
Structure prediction by ZEFSAII (Michael W. Deem and Ramdas Pophale) SiO2 
 PCOD8215628
Probable space group: P N N A
;
_chemical_formula_sum "Si O2"
_cell_formula_units_Z 40
_cell_length_a 14.209233
_cell_length_b 5.077189
_cell_length_c 26.679654
_cell_angle_alpha 90.000000
_cell_angle_beta 90.000000
_cell_angle_gamma 90.000000
_cell_volume 1924.749251
_symmetry_space_group_name_H-M "P N N A"
_symmetry_group_IT_number 52
_symmetry_cell_setting 'orthorhombic'
loop_
_space_group_symop_operation_xyz
x,y,z
1/2-x,-y,z
x,1/2-y,1/2-z
1/2-x,1/2+y,1/2-z
-x,-y,-z
1/2+x,y,-z
-x,1/2+y,1/2+z
1/2+x,1/2-y,1/2+z
loop_
_atom_site_type_symbol
_atom_site_label
_atom_site_fract_x
_atom_site_fract_y
_atom_site_fract_z
Si Si1 0.359619 0.004468 0.282672
Si Si2 0.151342 0.397847 0.520948
Si Si3 0.190941 0.255410 0.871000
Si Si4 0.017519 0.297195 0.435451
Si Si5 0.513745 0.799985 0.629425
O O1 0.389756 0.750000 0.250000
O O2 0.414777 0.049965 0.333956
O O3 0.250000 0.000000 0.296491
O O4 0.387784 0.250000 0.250000
O O5 0.250000 0.500000 0.498739
O O6 0.174954 0.218655 0.569127
O O7 0.099844 0.247517 0.475852
O O8 0.081536 0.629374 0.539130
O O9 0.250000 0.500000 0.850591
O O10 0.088063 0.248110 0.844500
O O11 0.250000 0.000000 0.856046
O O12 0.998460 0.010409 0.414125
O O13 0.049308 0.522515 0.394613
#
# Coordination Sequence:
#
# PCOD8215628 Si02
#       5
#     8   8   8   8   8
#     4  10  22  40  62  85 110 142 180 223 279 346
#     4   9  19  34  50  73 111 151 186 221 264 312
#     4  10  20  34  55  80 107 146 188 221 262 322
#     4  10  22  33  51  80 109 144 186 226 266 317
#     4  11  21  37  57  81 110 140 181 232 276 320
#
# _framework density 20.781927
#
# number of rings (size 3 to 8) (size 9 to 14) (size 15 to 20)
#    0.000    2.000    0.000    4.800    0.000   12.000 
#    0.000    0.000    0.000    2.400    0.000    0.000 
#    0.000    0.000    0.000    0.000    0.000    0.000 
#
# Total GULP energy -495712.923180 kJ/mol
# GULP energy per Si atom -12392.823080 kJ/mol
# Density = 2.073463 g / cm^3
# Si number density = 20.781927 Si / 1000 Ang^3
#
#
#
# Elastic Constant Matrix: (Units=GPa)
#
#
# Indices 1 2 3 4 5 6 
#
# 1 106.0410 15.4344 27.5968 0.0000 0.0000 0.0000
# 2 15.4344 109.4448 6.2682 0.0000 0.0000 0.0000
# 3 27.5968 6.2682 33.7962 0.0000 0.0000 0.0000
# 4 0.0000 0.0000 0.0000 22.6311 0.0000 0.0000
# 5 0.0000 0.0000 0.0000 0.0000 21.5610 0.0000
# 6 0.0000 0.0000 0.0000 0.0000 0.0000 28.9848
#
#
#
# Elastic Compliance Matrix: (Units=1/GPa)
#
#
# Indices 1 2 3 4 5 6 
#
# 1 0.012118 -0.001154 -0.009681 0.000000 0.000000 0.000000
# 2 -0.001154 0.009345 -0.000791 0.000000 0.000000 0.000000
# 3 -0.009681 -0.000791 0.037641 0.000000 0.000000 0.000000
# 4 0.000000 0.000000 0.000000 0.044187 0.000000 0.000000
# 5 0.000000 0.000000 0.000000 0.000000 0.046380 0.000000
# 6 0.000000 0.000000 0.000000 0.000000 0.000000 0.034501
#
#
# Mechanical properties :
#
#
# Convention : Reuss Voigt Hill
#
# Bulk Modulus (GPa) = 27.89250 38.65343 33.27297
# Shear Modulus (GPa) = 22.79216 27.96757 25.37986
#
# Velocity S-wave (km/s) = 3.31528 3.67245 3.49843
# Velocity P-wave (km/s) = 5.30146 6.05164 5.68893
#
# Compressibility (1/GPa) = 0.03585193
#
# Stress axis : x y z
#
# Youngs Moduli (GPa) = 82.52362 107.00787 26.56698
#
# Poissons Ratio (x) = 0.12354 0.25719
# Poissons Ratio (y) = 0.09527 0.02100
# Poissons Ratio (z) = 0.79890 0.08460
#
# Static dielectric constant tensor:
#      x y z
#    x 4.294920 0.000000 0.000000 
#    y 0.000000 3.707890 0.000000 
#    z 0.000000 0.000000 3.321330 
# 
# 
# High freq. dielectric constant tensor:
#      x y z
#    x 1.826830 0.000000 0.000000 
#    y 0.000000 1.820960 0.000000 
#    z 0.000000 0.000000 1.769760 
# 
# From -- ./inp_files/44886.got.cif
#   From: 2010.06.25/outbox.cif.g09.slc.cpg/sg52_23_cif.got.tgz:44886.got - 2010.06.26 19:32:48.
