data_PCOD8215671
_publ_section_title
;
Structure prediction by ZEFSAII (Michael W. Deem and Ramdas Pophale) SiO2 
 PCOD8215671
Probable space group: P N N A
;
_chemical_formula_sum "Si O2"
_cell_formula_units_Z 64
_cell_length_a 9.286512
_cell_length_b 26.372077
_cell_length_c 14.100380
_cell_angle_alpha 90.000000
_cell_angle_beta 90.000000
_cell_angle_gamma 90.000000
_cell_volume 3453.248058
_symmetry_space_group_name_H-M "P N N A"
_symmetry_group_IT_number 52
_symmetry_cell_setting 'orthorhombic'
loop_
_space_group_symop_operation_xyz
x,y,z
1/2-x,-y,z
x,1/2-y,1/2-z
1/2-x,1/2+y,1/2-z
-x,-y,-z
1/2+x,y,-z
-x,1/2+y,1/2+z
1/2+x,1/2-y,1/2+z
loop_
_atom_site_type_symbol
_atom_site_label
_atom_site_fract_x
_atom_site_fract_y
_atom_site_fract_z
Si Si1 0.306002 0.361142 0.201806
Si Si2 0.519177 0.767859 0.643997
Si Si3 0.029377 0.864240 0.705777
Si Si4 0.190874 0.672753 0.411956
Si Si5 0.364601 0.460827 0.094980
Si Si6 0.471343 0.325300 0.586727
Si Si7 0.696831 0.770156 0.355480
Si Si8 0.875174 0.467136 0.116395
O O1 0.394314 0.320321 0.141230
O O2 0.136991 0.353952 0.181045
O O3 0.336503 0.357341 0.314448
O O4 0.365261 0.414250 0.166582
O O5 0.499031 0.750000 0.750000
O O6 0.616787 0.727817 0.589130
O O7 0.358103 0.773516 0.599580
O O8 0.059429 0.855828 0.816984
O O9 0.124632 0.825916 0.642732
O O10 0.070918 0.922083 0.683390
O O11 0.110251 0.644983 0.500479
O O12 0.359312 0.678602 0.433620
O O13 0.250000 0.500000 0.135734
O O14 0.514476 0.488299 0.097867
O O15 0.328039 0.444120 0.986367
O O16 0.405045 0.268608 0.588258
O O17 0.706838 0.750000 0.250000
O O18 0.750000 0.500000 0.166409
#
# Coordination Sequence:
#
# PCOD8215671 Si02
#       8
#     8   8   8   8   8   8   8   8
#     4  10  20  35  58  80 107 148 184 219 270 330
#     4   9  18  32  51  78 107 138 180 219 260 316
#     4  10  20  36  56  80 110 146 183 221 273 325
#     4  10  20  35  54  79 110 147 185 223 267 320
#     4  10  20  39  59  79 108 137 174 222 273 332
#     4  10  20  35  55  77 111 148 183 225 268 319
#     4   9  18  32  51  77 108 140 176 221 262 310
#     4  10  22  37  57  83 108 136 175 226 278 327
#
# _framework density 18.533276000000001
#
# number of rings (size 3 to 8) (size 9 to 14) (size 15 to 20)
#    0.000    2.250    1.250    1.500    1.750    5.000 
#    0.000    2.500    0.000    1.500    0.000    0.000 
#    0.000    0.000    0.000    0.000    0.000    0.000 
#
# Total GULP energy -793242.936099 kJ/mol
# GULP energy per Si atom -12394.420877 kJ/mol
# Density = 1.849109 g / cm^3
# Si number density = 18.533276 Si / 1000 Ang^3
#
#
#
# Elastic Constant Matrix: (Units=GPa)
#
#
# Indices 1 2 3 4 5 6 
#
# 1 124.0465 43.5419 41.4595 0.0000 0.0000 0.0000
# 2 43.5419 103.8907 45.8593 0.0000 0.0000 0.0000
# 3 41.4595 45.8593 81.5966 0.0000 0.0000 0.0000
# 4 0.0000 0.0000 0.0000 24.8471 0.0000 0.0000
# 5 0.0000 0.0000 0.0000 0.0000 28.9535 0.0000
# 6 0.0000 0.0000 0.0000 0.0000 0.0000 28.0446
#
#
#
# Elastic Compliance Matrix: (Units=1/GPa)
#
#
# Indices 1 2 3 4 5 6 
#
# 1 0.010232 -0.002651 -0.003709 0.000000 0.000000 0.000000
# 2 -0.002651 0.013488 -0.006234 0.000000 0.000000 0.000000
# 3 -0.003709 -0.006234 0.017643 0.000000 0.000000 0.000000
# 4 0.000000 0.000000 0.000000 0.040246 0.000000 0.000000
# 5 0.000000 0.000000 0.000000 0.000000 0.034538 0.000000
# 6 0.000000 0.000000 0.000000 0.000000 0.000000 0.035658
#
#
# Mechanical properties :
#
#
# Convention : Reuss Voigt Hill
#
# Bulk Modulus (GPa) = 61.81943 63.47278 62.64610
# Shear Modulus (GPa) = 27.41466 28.28058 27.84762
#
# Velocity S-wave (km/s) = 3.85023 3.91056 3.88051
# Velocity P-wave (km/s) = 7.29342 7.39678 7.34528
#
# Compressibility (1/GPa) = 0.01617614
#
# Stress axis : x y z
#
# Youngs Moduli (GPa) = 97.73634 74.13840 56.67859
#
# Poissons Ratio (x) = 0.19655 0.21021
# Poissons Ratio (y) = 0.25911 0.35332
# Poissons Ratio (z) = 0.36248 0.46216
#
# Static dielectric constant tensor:
#      x y z
#    x 3.701640 0.000000 0.000000 
#    y 0.000000 3.168030 0.000000 
#    z 0.000000 0.000000 3.551590 
# 
# 
# High freq. dielectric constant tensor:
#      x y z
#    x 1.739880 0.000000 0.000000 
#    y 0.000000 1.692060 0.000000 
#    z 0.000000 0.000000 1.712760 
# 
# From -- ./inp_files/25115.got.cif
#   From: 2010.06.25/outbox.cif.g09.slc.cpg/sg52_13_cif.got.tgz:25115.got - 2010.06.26 19:32:48.
