data_PCOD8215104
_publ_section_title
;
Structure prediction by ZEFSAII (Michael W. Deem and Ramdas Pophale) SiO2 
 PCOD8215104
Probable space group: P N N A
;
_chemical_formula_sum "Si O2"
_cell_formula_units_Z 44
_cell_length_a 11.078049
_cell_length_b 12.991949
_cell_length_c 16.634493
_cell_angle_alpha 90.000000
_cell_angle_beta 90.000000
_cell_angle_gamma 90.000000
_cell_volume 2394.126851
_symmetry_space_group_name_H-M "P N N A"
_symmetry_group_IT_number 52
_symmetry_cell_setting 'orthorhombic'
loop_
_space_group_symop_operation_xyz
x,y,z
1/2-x,-y,z
x,1/2-y,1/2-z
1/2-x,1/2+y,1/2-z
-x,-y,-z
1/2+x,y,-z
-x,1/2+y,1/2+z
1/2+x,1/2-y,1/2+z
loop_
_atom_site_type_symbol
_atom_site_label
_atom_site_fract_x
_atom_site_fract_y
_atom_site_fract_z
Si Si1 0.817299 0.250000 0.750000
Si Si2 0.342926 0.087164 0.489463
Si Si3 0.988248 0.950525 0.616084
Si Si4 0.181777 0.261036 0.086748
Si Si5 0.385413 0.469880 0.267926
Si Si6 0.384075 0.962762 0.050965
O O1 0.730205 0.232791 0.825614
O O2 0.903022 0.349638 0.753201
O O3 0.378067 0.079063 0.584086
O O4 0.293383 0.201136 0.469334
O O5 0.250000 0.000000 0.465179
O O6 0.453907 0.057398 0.429943
O O7 0.912762 0.851839 0.589585
O O8 0.979961 0.967259 0.712115
O O9 0.118490 0.160836 0.049040
O O10 0.250000 0.500000 0.240857
O O11 0.409758 0.493845 0.360243
O O12 0.250000 0.000000 0.020979
O O13 0.500000 0.000000 0.000000
#
# Coordination Sequence:
#
# PCOD8215104 Si02
#       6
#     4   8   8   8   8   8
#     4  12  18  32  58  84 112 144 200 248 298 334
#     4   9  19  33  50  85 116 146 182 236 300 365
#     4  10  18  31  57  83 112 144 185 248 306 338
#     4  11  19  32  57  83 117 147 193 243 294 350
#     4  11  19  35  56  83 113 144 194 249 289 338
#     4  11  25  41  59  86 121 163 201 242 292 356
#
# _framework density 18.378308000000001
#
# number of rings (size 3 to 8) (size 9 to 14) (size 15 to 20)
#    0.000    1.455    7.273    0.545    2.545    0.000 
#    3.273    0.909    0.000    0.000    0.000    0.000 
#    0.000    0.000    0.000    0.000    0.000    0.000 
#
# Total GULP energy -545177.592668 kJ/mol
# GULP energy per Si atom -12390.399833 kJ/mol
# Density = 1.833648 g / cm^3
# Si number density = 18.378308 Si / 1000 Ang^3
#
#
#
# Elastic Constant Matrix: (Units=GPa)
#
#
# Indices 1 2 3 4 5 6 
#
# 1 64.6865 34.8945 50.2968 0.0000 0.0000 0.0000
# 2 34.8945 136.5411 36.6484 0.0000 0.0000 0.0000
# 3 50.2968 36.6484 102.1816 0.0000 0.0000 0.0000
# 4 0.0000 0.0000 0.0000 25.0768 0.0000 0.0000
# 5 0.0000 0.0000 0.0000 0.0000 29.2150 0.0000
# 6 0.0000 0.0000 0.0000 0.0000 0.0000 14.8174
#
#
#
# Elastic Compliance Matrix: (Units=1/GPa)
#
#
# Indices 1 2 3 4 5 6 
#
# 1 0.026577 -0.003630 -0.011780 0.000000 0.000000 0.000000
# 2 -0.003630 0.008600 -0.001298 0.000000 0.000000 0.000000
# 3 -0.011780 -0.001298 0.016050 0.000000 0.000000 0.000000
# 4 0.000000 0.000000 0.000000 0.039878 0.000000 0.000000
# 5 0.000000 0.000000 0.000000 0.000000 0.034229 0.000000
# 6 0.000000 0.000000 0.000000 0.000000 0.000000 0.067488
#
#
# Mechanical properties :
#
#
# Convention : Reuss Voigt Hill
#
# Bulk Modulus (GPa) = 56.14286 60.78764 58.46525
# Shear Modulus (GPa) = 21.53557 25.92648 23.73102
#
# Velocity S-wave (km/s) = 3.42686 3.76002 3.59730
# Velocity P-wave (km/s) = 6.80239 7.21095 7.00965
#
# Compressibility (1/GPa) = 0.01781170
#
# Stress axis : x y z
#
# Youngs Moduli (GPa) = 37.62670 116.28181 62.30422
#
# Poissons Ratio (x) = 0.42213 0.73394
# Poissons Ratio (y) = 0.13659 0.08084
# Poissons Ratio (z) = 0.44324 0.15088
#
# Static dielectric constant tensor:
#      x y z
#    x 3.310620 0.000000 0.000000 
#    y 0.000000 3.666100 0.000000 
#    z 0.000000 0.000000 3.372650 
# 
# 
# High freq. dielectric constant tensor:
#      x y z
#    x 1.673480 0.000000 0.000000 
#    y 0.000000 1.726560 0.000000 
#    z 0.000000 0.000000 1.702530 
# 
# From -- ./inp_files/32173.got.cif
#   From: 2010.06.25/outbox.cif.g09.slc.cpg/sg52_17_cif.got.tgz:32173.got - 2010.06.26 19:32:48.
