data_PCOD8215368
_publ_section_title
;
Structure prediction by ZEFSAII (Michael W. Deem and Ramdas Pophale) SiO2 
 PCOD8215368
Probable space group: P N N A
;
_chemical_formula_sum "Si O2"
_cell_formula_units_Z 48
_cell_length_a 18.914355
_cell_length_b 13.473179
_cell_length_c 9.395138
_cell_angle_alpha 90.000000
_cell_angle_beta 90.000000
_cell_angle_gamma 90.000000
_cell_volume 2394.223996
_symmetry_space_group_name_H-M "P N N A"
_symmetry_group_IT_number 52
_symmetry_cell_setting 'orthorhombic'
loop_
_space_group_symop_operation_xyz
x,y,z
1/2-x,-y,z
x,1/2-y,1/2-z
1/2-x,1/2+y,1/2-z
-x,-y,-z
1/2+x,y,-z
-x,1/2+y,1/2+z
1/2+x,1/2-y,1/2+z
loop_
_atom_site_type_symbol
_atom_site_label
_atom_site_fract_x
_atom_site_fract_y
_atom_site_fract_z
Si Si1 0.009994 0.788486 0.405136
Si Si2 0.173823 0.538902 0.764242
Si Si3 0.124596 0.561564 0.185183
Si Si4 0.121094 0.634533 0.492564
Si Si5 0.629590 0.116494 0.491918
Si Si6 0.218157 0.813968 0.500107
O O1 0.989340 0.750000 0.250000
O O2 0.939050 0.814540 0.489081
O O3 0.058092 0.885891 0.390612
O O4 0.051857 0.704495 0.494233
O O5 0.250000 0.500000 0.711222
O O6 0.123510 0.565103 0.631326
O O7 0.133096 0.455621 0.855077
O O8 0.185356 0.636922 0.858375
O O9 0.119468 0.563736 0.355221
O O10 0.194821 0.620859 0.136378
O O11 0.127532 0.447896 0.136138
O O12 0.191647 0.701606 0.487786
O O13 0.697200 0.188390 0.494410
#
# Coordination Sequence:
#
# PCOD8215368 Si02
#       6
#     8   8   8   8   8   8
#     4   9  19  34  54  77 105 144 179 213 264 321
#     4   9  19  32  52  83 108 136 179 226 267 311
#     4   9  18  34  54  76 104 143 178 212 264 325
#     4  10  19  35  57  79 107 141 177 220 269 315
#     4  10  19  34  57  80 105 139 181 221 262 319
#     4   9  18  33  55  79 103 139 180 216 264 321
#
# _framework density 20.048248999999998
#
# number of rings (size 3 to 8) (size 9 to 14) (size 15 to 20)
#    0.000    2.667    0.000    4.000    0.000    4.000 
#    0.000    3.333    0.000   28.000    0.000    0.000 
#    0.000    0.000    0.000    0.000    0.000    0.000 
#
# Total GULP energy -595270.269401 kJ/mol
# GULP energy per Si atom -12401.463946 kJ/mol
# Density = 2.000262 g / cm^3
# Si number density = 20.048249 Si / 1000 Ang^3
#
#
#
# Elastic Constant Matrix: (Units=GPa)
#
#
# Indices 1 2 3 4 5 6 
#
# 1 129.3679 42.6683 50.8379 0.0000 0.0000 0.0000
# 2 42.6683 66.9088 30.8354 0.0000 0.0000 0.0000
# 3 50.8379 30.8354 91.9043 0.0000 0.0000 0.0000
# 4 0.0000 0.0000 0.0000 20.3936 0.0000 0.0000
# 5 0.0000 0.0000 0.0000 0.0000 19.8427 0.0000
# 6 0.0000 0.0000 0.0000 0.0000 0.0000 21.8332
#
#
#
# Elastic Compliance Matrix: (Units=1/GPa)
#
#
# Indices 1 2 3 4 5 6 
#
# 1 0.011155 -0.005051 -0.004476 0.000000 0.000000 0.000000
# 2 -0.005051 0.019966 -0.003905 0.000000 0.000000 0.000000
# 3 -0.004476 -0.003905 0.014667 0.000000 0.000000 0.000000
# 4 0.000000 0.000000 0.000000 0.049035 0.000000 0.000000
# 5 0.000000 0.000000 0.000000 0.000000 0.050396 0.000000
# 6 0.000000 0.000000 0.000000 0.000000 0.000000 0.045802
#
#
# Mechanical properties :
#
#
# Convention : Reuss Voigt Hill
#
# Bulk Modulus (GPa) = 52.84104 59.65155 56.24629
# Shear Modulus (GPa) = 22.30227 23.33651 22.81939
#
# Velocity S-wave (km/s) = 3.33893 3.41547 3.37742
# Velocity P-wave (km/s) = 6.42485 6.73591 6.58222
#
# Compressibility (1/GPa) = 0.01892469
#
# Stress axis : x y z
#
# Youngs Moduli (GPa) = 89.64974 50.08434 68.18077
#
# Poissons Ratio (x) = 0.25296 0.30515
# Poissons Ratio (y) = 0.45279 0.26626
# Poissons Ratio (z) = 0.40124 0.19559
#
# Static dielectric constant tensor:
#      x y z
#    x 3.553120 0.000000 0.000000 
#    y 0.000000 3.412080 0.000000 
#    z 0.000000 0.000000 3.525300 
# 
# 
# High freq. dielectric constant tensor:
#      x y z
#    x 1.776000 0.000000 0.000000 
#    y 0.000000 1.762870 0.000000 
#    z 0.000000 0.000000 1.771840 
# 
# From -- ./inp_files/12077.got.cif
#   From: 2010.06.25/outbox.cif.g09.slc.cpg/sg52_7_cif.got.tgz:12077.got - 2010.06.26 19:32:48.
