data_PCOD8215003
_publ_section_title
;
Structure prediction by ZEFSAII (Michael W. Deem and Ramdas Pophale) SiO2 
 PCOD8215003
Probable space group: P N N A
;
_chemical_formula_sum "Si O2"
_cell_formula_units_Z 64
_cell_length_a 25.116756
_cell_length_b 11.071798
_cell_length_c 11.764905
_cell_angle_alpha 90.000000
_cell_angle_beta 90.000000
_cell_angle_gamma 90.000000
_cell_volume 3271.674770
_symmetry_space_group_name_H-M "P N N A"
_symmetry_group_IT_number 52
_symmetry_cell_setting 'orthorhombic'
loop_
_space_group_symop_operation_xyz
x,y,z
1/2-x,-y,z
x,1/2-y,1/2-z
1/2-x,1/2+y,1/2-z
-x,-y,-z
1/2+x,y,-z
-x,1/2+y,1/2+z
1/2+x,1/2-y,1/2+z
loop_
_atom_site_type_symbol
_atom_site_label
_atom_site_fract_x
_atom_site_fract_y
_atom_site_fract_z
Si Si1 0.454762 0.903662 0.008068
Si Si2 0.278267 0.617404 0.432625
Si Si3 0.614130 0.109567 0.365162
Si Si4 0.645219 0.118623 0.123380
Si Si5 0.672029 0.787922 0.877612
Si Si6 0.000468 0.312013 0.866008
Si Si7 0.874510 0.959902 0.816744
Si Si8 0.394574 0.436730 0.074641
O O1 0.430670 0.904680 0.137034
O O2 0.405500 0.948722 0.930670
O O3 0.480736 0.777462 0.967066
O O4 0.500000 0.000000 0.000000
O O5 0.250000 0.500000 0.381310
O O6 0.299413 0.590350 0.560424
O O7 0.231379 0.716990 0.433826
O O8 0.328639 0.639779 0.347780
O O9 0.649159 0.076045 0.253980
O O10 0.634445 0.240248 0.402101
O O11 0.552332 0.113718 0.326399
O O12 0.620792 0.013722 0.464668
O O13 0.680908 0.750000 0.750000
O O14 0.636782 0.688074 0.940624
O O15 0.640904 0.915643 0.883713
O O16 0.977223 0.250000 0.750000
O O17 0.956975 0.403904 0.916124
O O18 0.877715 0.983025 0.682783
#
# Coordination Sequence:
#
# PCOD8215003 Si02
#       8
#     8   8   8   8   8   8   8   8
#     4  10  17  30  56  78 103 144 192 229 274 347
#     4   9  18  35  59  79 106 146 190 237 288 342
#     4  10  20  37  54  75 113 150 191 228 279 343
#     4   9  19  37  55  75 103 150 193 226 278 345
#     4   9  18  34  54  85 117 145 185 243 304 346
#     4  11  19  35  56  81 113 157 190 227 287 355
#     4   9  19  33  54  85 113 147 187 234 293 362
#     4  11  21  33  57  87 117 147 191 243 296 342
#
# _framework density 19.561845999999999
#
# number of rings (size 3 to 8) (size 9 to 14) (size 15 to 20)
#    0.000    2.250    2.500    3.000    0.000    1.000 
#    0.000    9.375    0.000   10.500    0.000    0.000 
#    0.000    0.000    0.000    0.000    0.000    0.000 
#
# Total GULP energy -792941.775605 kJ/mol
# GULP energy per Si atom -12389.715244 kJ/mol
# Density = 1.951732 g / cm^3
# Si number density = 19.561846 Si / 1000 Ang^3
#
#
#
# Elastic Constant Matrix: (Units=GPa)
#
#
# Indices 1 2 3 4 5 6 
#
# 1 90.6025 18.0127 26.9671 0.0000 0.0000 0.0000
# 2 18.0127 45.7448 41.4920 0.0000 0.0000 0.0000
# 3 26.9671 41.4920 101.6458 0.0000 0.0000 0.0000
# 4 0.0000 0.0000 0.0000 30.5539 0.0000 0.0000
# 5 0.0000 0.0000 0.0000 0.0000 27.9499 0.0000
# 6 0.0000 0.0000 0.0000 0.0000 0.0000 19.8607
#
#
#
# Elastic Compliance Matrix: (Units=1/GPa)
#
#
# Indices 1 2 3 4 5 6 
#
# 1 0.012233 -0.002975 -0.002031 0.000000 0.000000 0.000000
# 2 -0.002975 0.035436 -0.013676 0.000000 0.000000 0.000000
# 3 -0.002031 -0.013676 0.015960 0.000000 0.000000 0.000000
# 4 0.000000 0.000000 0.000000 0.032729 0.000000 0.000000
# 5 0.000000 0.000000 0.000000 0.000000 0.035778 0.000000
# 6 0.000000 0.000000 0.000000 0.000000 0.000000 0.050351
#
#
# Mechanical properties :
#
#
# Convention : Reuss Voigt Hill
#
# Bulk Modulus (GPa) = 38.07301 45.65964 41.86632
# Shear Modulus (GPa) = 21.87170 25.77432 23.82301
#
# Velocity S-wave (km/s) = 3.34740 3.63379 3.49353
# Velocity P-wave (km/s) = 5.86901 6.40295 6.14178
#
# Compressibility (1/GPa) = 0.02626533
#
# Stress axis : x y z
#
# Youngs Moduli (GPa) = 81.74480 28.21966 62.65832
#
# Poissons Ratio (x) = 0.08394 0.12728
# Poissons Ratio (y) = 0.24315 0.85692
# Poissons Ratio (z) = 0.16605 0.38593
#
# Static dielectric constant tensor:
#      x y z
#    x 3.801770 0.000000 0.000000 
#    y 0.000000 3.528250 0.000000 
#    z 0.000000 0.000000 3.606780 
# 
# 
# High freq. dielectric constant tensor:
#      x y z
#    x 1.770820 0.000000 0.000000 
#    y 0.000000 1.735240 0.000000 
#    z 0.000000 0.000000 1.748030 
# 
# From -- ./inp_files/22520.got.cif
#   From: 2010.06.25/outbox.cif.g09.slc.cpg/sg52_12_cif.got.tgz:22520.got - 2010.06.26 19:32:48.
