data_PCOD8215729
_publ_section_title
;
Structure prediction by ZEFSAII (Michael W. Deem and Ramdas Pophale) SiO2 
 PCOD8215729
Probable space group: P N N A
;
_chemical_formula_sum "Si O2"
_cell_formula_units_Z 48
_cell_length_a 8.784722
_cell_length_b 14.957731
_cell_length_c 18.162010
_cell_angle_alpha 90.000000
_cell_angle_beta 90.000000
_cell_angle_gamma 90.000000
_cell_volume 2386.479189
_symmetry_space_group_name_H-M "P N N A"
_symmetry_group_IT_number 52
_symmetry_cell_setting 'orthorhombic'
loop_
_space_group_symop_operation_xyz
x,y,z
1/2-x,-y,z
x,1/2-y,1/2-z
1/2-x,1/2+y,1/2-z
-x,-y,-z
1/2+x,y,-z
-x,1/2+y,1/2+z
1/2+x,1/2-y,1/2+z
loop_
_atom_site_type_symbol
_atom_site_label
_atom_site_fract_x
_atom_site_fract_y
_atom_site_fract_z
Si Si1 0.814987 0.225061 0.921133
Si Si2 0.321478 0.411596 0.148479
Si Si3 0.309076 0.403208 0.694818
Si Si4 0.174626 0.090906 0.647684
Si Si5 0.830621 0.774596 0.075624
Si Si6 0.860630 0.655416 0.715664
O O1 0.789448 0.330016 0.906419
O O2 0.738161 0.166897 0.857705
O O3 0.992270 0.201373 0.923257
O O4 0.738675 0.198136 0.997660
O O5 0.250000 0.500000 0.111185
O O6 0.498458 0.426877 0.162695
O O7 0.243994 0.397261 0.227306
O O8 0.250000 0.500000 0.669008
O O9 0.249350 0.379366 0.775773
O O10 0.252558 0.328871 0.638912
O O11 0.491940 0.403118 0.696452
O O12 0.199445 0.169345 0.588741
O O13 0.250000 0.000000 0.616657
O O14 0.912264 0.750000 0.750000
#
# Coordination Sequence:
#
# PCOD8215729 Si02
#       6
#     8   8   8   8   8   8
#     4  10  23  38  58  82 112 153 191 229 288 339
#     4  10  20  36  58  86 116 145 186 236 281 337
#     4  11  22  37  59  86 112 147 192 236 285 338
#     4  10  21  36  59  88 115 149 189 231 284 337
#     4  11  22  40  58  81 118 153 188 237 282 338
#     4  10  20  37  59  83 112 149 189 235 287 339
#
# _framework density 20.113313000000002
#
# number of rings (size 3 to 8) (size 9 to 14) (size 15 to 20)
#    0.000    1.667    0.000    5.500    0.000    7.333 
#    0.000    7.500    0.000    0.000    0.000    0.000 
#    0.000    0.000    0.000    0.000    0.000    0.000 
#
# Total GULP energy -595423.759799 kJ/mol
# GULP energy per Si atom -12404.661662 kJ/mol
# Density = 2.006753 g / cm^3
# Si number density = 20.113313 Si / 1000 Ang^3
#
#
#
# Elastic Constant Matrix: (Units=GPa)
#
#
# Indices 1 2 3 4 5 6 
#
# 1 136.6657 31.0441 23.7880 0.0000 0.0000 0.0000
# 2 31.0441 57.8316 -3.3553 0.0000 0.0000 0.0000
# 3 23.7880 -3.3553 61.9535 0.0000 0.0000 0.0000
# 4 0.0000 0.0000 0.0000 19.4609 0.0000 0.0000
# 5 0.0000 0.0000 0.0000 0.0000 17.6001 0.0000
# 6 0.0000 0.0000 0.0000 0.0000 0.0000 35.7071
#
#
#
# Elastic Compliance Matrix: (Units=1/GPa)
#
#
# Indices 1 2 3 4 5 6 
#
# 1 0.009141 -0.005127 -0.003787 0.000000 0.000000 0.000000
# 2 -0.005127 0.020221 0.003064 0.000000 0.000000 0.000000
# 3 -0.003787 0.003064 0.017761 0.000000 0.000000 0.000000
# 4 0.000000 0.000000 0.000000 0.051385 0.000000 0.000000
# 5 0.000000 0.000000 0.000000 0.000000 0.056818 0.000000
# 6 0.000000 0.000000 0.000000 0.000000 0.000000 0.028006
#
#
# Mechanical properties :
#
#
# Convention : Reuss Voigt Hill
#
# Bulk Modulus (GPa) = 28.23056 39.93381 34.08218
# Shear Modulus (GPa) = 24.17321 28.21856 26.19589
#
# Velocity S-wave (km/s) = 3.47053 3.74970 3.61281
# Velocity P-wave (km/s) = 5.48869 6.21647 5.86388
#
# Compressibility (1/GPa) = 0.03542261
#
# Stress axis : x y z
#
# Youngs Moduli (GPa) = 109.39872 49.45289 56.30221
#
# Poissons Ratio (x) = 0.25352 0.21324
# Poissons Ratio (y) = 0.56084 -0.17249
# Poissons Ratio (z) = 0.41434 -0.15150
#
# Static dielectric constant tensor:
#      x y z
#    x 3.795930 0.000000 0.000000 
#    y 0.000000 3.693510 0.000000 
#    z 0.000000 0.000000 3.462580 
# 
# 
# High freq. dielectric constant tensor:
#      x y z
#    x 1.803730 0.000000 0.000000 
#    y 0.000000 1.784080 0.000000 
#    z 0.000000 0.000000 1.776060 
# 
# From -- ./inp_files/31207.got.cif
#   From: 2010.06.25/outbox.cif.g09.slc.cpg/sg52_16_cif.got.tgz:31207.got - 2010.06.26 19:32:48.
