data_PCOD8215194
_publ_section_title
;
Structure prediction by ZEFSAII (Michael W. Deem and Ramdas Pophale) SiO2 
 PCOD8215194
Probable space group: P N N A
;
_chemical_formula_sum "Si O2"
_cell_formula_units_Z 52
_cell_length_a 16.327973
_cell_length_b 18.810967
_cell_length_c 9.064103
_cell_angle_alpha 90.000000
_cell_angle_beta 90.000000
_cell_angle_gamma 90.000000
_cell_volume 2783.993565
_symmetry_space_group_name_H-M "P N N A"
_symmetry_group_IT_number 52
_symmetry_cell_setting 'orthorhombic'
loop_
_space_group_symop_operation_xyz
x,y,z
1/2-x,-y,z
x,1/2-y,1/2-z
1/2-x,1/2+y,1/2-z
-x,-y,-z
1/2+x,y,-z
-x,1/2+y,1/2+z
1/2+x,1/2-y,1/2+z
loop_
_atom_site_type_symbol
_atom_site_label
_atom_site_fract_x
_atom_site_fract_y
_atom_site_fract_z
Si Si1 0.055059 0.357801 0.786730
Si Si2 0.286405 0.923133 0.763635
Si Si3 0.253251 0.324917 0.486074
Si Si4 0.462911 0.250000 0.750000
Si Si5 0.323179 0.186001 0.594800
Si Si6 0.377392 0.330658 0.227253
Si Si7 0.414783 0.735995 0.502595
O O1 0.116497 0.425477 0.777496
O O2 0.078550 0.311845 0.645766
O O3 0.073481 0.317069 0.941307
O O4 0.959222 0.379890 0.772064
O O5 0.245082 0.865103 0.658815
O O6 0.250000 0.000000 0.735402
O O7 0.270403 0.897882 0.931391
O O8 0.297816 0.269892 0.598163
O O9 0.312225 0.349497 0.353466
O O10 0.173530 0.281277 0.428328
O O11 0.408760 0.184686 0.684526
O O12 0.517537 0.283074 0.619354
O O13 0.333025 0.160116 0.427477
O O14 0.409949 0.250000 0.250000
#
# Coordination Sequence:
#
# PCOD8215194 Si02
#       7
#     8   8   8   4   8   8   8
#     4  10  18  36  52  78 114 145 181 219 286 326
#     4  11  23  38  57  78 111 155 196 230 279 337
#     4  10  20  36  60  82 111 146 187 229 281 334
#     4  12  20  30  56  94 114 132 184 230 280 336
#     4  11  20  34  57  86 112 143 178 236 282 332
#     4  10  19  33  58  88 112 141 183 234 288 332
#     4  10  19  30  53  87 112 139 173 228 278 332
#
# _framework density 18.678204000000001
#
# number of rings (size 3 to 8) (size 9 to 14) (size 15 to 20)
#    0.000    1.538    6.154    0.923    3.231    0.000 
#    0.000    2.308    0.000    0.000    0.000    0.000 
#    0.000    0.000    0.000    0.000    0.000    0.000 
#
# Total GULP energy -644484.606139 kJ/mol
# GULP energy per Si atom -12393.934733 kJ/mol
# Density = 1.863569 g / cm^3
# Si number density = 18.678204 Si / 1000 Ang^3
#
#
#
# Elastic Constant Matrix: (Units=GPa)
#
#
# Indices 1 2 3 4 5 6 
#
# 1 122.3906 4.6653 38.8572 0.0000 0.0000 0.0000
# 2 4.6653 27.4671 17.6112 0.0000 0.0000 0.0000
# 3 38.8572 17.6112 81.0898 0.0000 0.0000 0.0000
# 4 0.0000 0.0000 0.0000 6.9300 0.0000 0.0000
# 5 0.0000 0.0000 0.0000 0.0000 30.7908 0.0000
# 6 0.0000 0.0000 0.0000 0.0000 0.0000 13.6907
#
#
#
# Elastic Compliance Matrix: (Units=1/GPa)
#
#
# Indices 1 2 3 4 5 6 
#
# 1 0.009693 0.001547 -0.004981 0.000000 0.000000 0.000000
# 2 0.001547 0.042544 -0.009981 0.000000 0.000000 0.000000
# 3 -0.004981 -0.009981 0.016886 0.000000 0.000000 0.000000
# 4 0.000000 0.000000 0.000000 0.144301 0.000000 0.000000
# 5 0.000000 0.000000 0.000000 0.000000 0.032477 0.000000
# 6 0.000000 0.000000 0.000000 0.000000 0.000000 0.073042
#
#
# Mechanical properties :
#
#
# Convention : Reuss Voigt Hill
#
# Bulk Modulus (GPa) = 23.64405 39.24608 31.44506
# Shear Modulus (GPa) = 13.89387 21.60322 17.74855
#
# Velocity S-wave (km/s) = 2.73033 3.40457 3.08592
# Velocity P-wave (km/s) = 4.75665 6.04253 5.43773
#
# Compressibility (1/GPa) = 0.04229394
#
# Stress axis : x y z
#
# Youngs Moduli (GPa) = 103.16835 23.50507 59.21914
#
# Poissons Ratio (x) = -0.03637 0.29495
# Poissons Ratio (y) = -0.15962 0.59108
# Poissons Ratio (z) = 0.51385 0.23461
#
# Static dielectric constant tensor:
#      x y z
#    x 3.845130 0.000000 0.000000 
#    y 0.000000 2.845480 0.000000 
#    z 0.000000 0.000000 3.485550 
# 
# 
# High freq. dielectric constant tensor:
#      x y z
#    x 1.751900 0.000000 0.000000 
#    y 0.000000 1.644600 0.000000 
#    z 0.000000 0.000000 1.735350 
# 
# From -- ./inp_files/12385.got.cif
#   From: 2010.06.25/outbox.cif.g09.slc.cpg/sg52_7_cif.got.tgz:12385.got - 2010.06.26 19:32:48.
