data_PCOD8215726
_publ_section_title
;
Structure prediction by ZEFSAII (Michael W. Deem and Ramdas Pophale) SiO2 
 PCOD8215726
Probable space group: P N N A
;
_chemical_formula_sum "Si O2"
_cell_formula_units_Z 40
_cell_length_a 8.069154
_cell_length_b 8.927431
_cell_length_c 26.632722
_cell_angle_alpha 90.000000
_cell_angle_beta 90.000000
_cell_angle_gamma 90.000000
_cell_volume 1918.536483
_symmetry_space_group_name_H-M "P N N A"
_symmetry_group_IT_number 52
_symmetry_cell_setting 'orthorhombic'
loop_
_space_group_symop_operation_xyz
x,y,z
1/2-x,-y,z
x,1/2-y,1/2-z
1/2-x,1/2+y,1/2-z
-x,-y,-z
1/2+x,y,-z
-x,1/2+y,1/2+z
1/2+x,1/2-y,1/2+z
loop_
_atom_site_type_symbol
_atom_site_label
_atom_site_fract_x
_atom_site_fract_y
_atom_site_fract_z
Si Si1 0.508525 0.128479 0.941564
Si Si2 0.887494 0.198906 0.955675
Si Si3 0.145386 0.720506 0.851935
Si Si4 0.750000 0.500000 0.793502
Si Si5 0.492198 0.897048 0.631450
Si Si6 0.531048 0.250000 0.750000
O O1 0.697720 0.181754 0.940007
O O2 0.412199 0.152760 0.890030
O O3 0.501903 0.949338 0.946822
O O4 0.408542 0.222185 0.984458
O O5 0.955739 0.338600 0.923649
O O6 0.343023 0.705459 0.848266
O O7 0.062277 0.568725 0.872520
O O8 0.085501 0.772214 0.797671
O O9 0.642714 0.611998 0.828786
O O10 0.640054 0.398579 0.756999
#
# Coordination Sequence:
#
# PCOD8215726 Si02
#       6
#     8   8   8   4   8   4
#     4  10  21  36  57  86 116 150 191 232 283 343
#     4  10  20  36  58  84 117 151 186 233 284 340
#     4  10  22  39  58  84 115 149 191 236 284 340
#     4  10  22  40  62  86 114 150 196 240 288 344
#     4  10  21  39  60  83 115 149 188 237 287 342
#     4  10  22  40  60  84 116 150 192 240 284 338
#
# _framework density 20.849225000000001
#
# number of rings (size 3 to 8) (size 9 to 14) (size 15 to 20)
#    0.000    2.000    0.000    3.600    0.000    7.200 
#    0.000    8.000    0.000    0.000    0.000    0.000 
#    0.000    0.000    0.000    0.000    0.000    0.000 
#
# Total GULP energy -496011.099366 kJ/mol
# GULP energy per Si atom -12400.277484 kJ/mol
# Density = 2.080177 g / cm^3
# Si number density = 20.849225 Si / 1000 Ang^3
#
#
#
# Elastic Constant Matrix: (Units=GPa)
#
#
# Indices 1 2 3 4 5 6 
#
# 1 100.3033 18.1718 49.2882 0.0000 0.0000 0.0000
# 2 18.1718 46.6566 47.1405 0.0000 0.0000 0.0000
# 3 49.2882 47.1405 161.4180 0.0000 0.0000 0.0000
# 4 0.0000 0.0000 0.0000 41.6777 0.0000 0.0000
# 5 0.0000 0.0000 0.0000 0.0000 27.9524 0.0000
# 6 0.0000 0.0000 0.0000 0.0000 0.0000 27.3011
#
#
#
# Elastic Compliance Matrix: (Units=1/GPa)
#
#
# Indices 1 2 3 4 5 6 
#
# 1 0.011790 -0.001354 -0.003204 0.000000 0.000000 0.000000
# 2 -0.001354 0.030560 -0.008511 0.000000 0.000000 0.000000
# 3 -0.003204 -0.008511 0.009659 0.000000 0.000000 0.000000
# 4 0.000000 0.000000 0.000000 0.023994 0.000000 0.000000
# 5 0.000000 0.000000 0.000000 0.000000 0.035775 0.000000
# 6 0.000000 0.000000 0.000000 0.000000 0.000000 0.036629
#
#
# Mechanical properties :
#
#
# Convention : Reuss Voigt Hill
#
# Bulk Modulus (GPa) = 38.65592 59.73102 49.19347
# Shear Modulus (GPa) = 27.29714 32.30475 29.80094
#
# Velocity S-wave (km/s) = 3.62230 3.94057 3.78478
# Velocity P-wave (km/s) = 6.00631 7.02961 6.53801
#
# Compressibility (1/GPa) = 0.02586926
#
# Stress axis : x y z
#
# Youngs Moduli (GPa) = 84.81951 32.72229 103.52812
#
# Poissons Ratio (x) = 0.04431 0.33175
# Poissons Ratio (y) = 0.11486 0.88116
# Poissons Ratio (z) = 0.27180 0.27851
#
# Static dielectric constant tensor:
#      x y z
#    x 3.968160 0.000000 0.000000 
#    y 0.000000 3.592080 0.000000 
#    z 0.000000 0.000000 3.715390 
# 
# 
# High freq. dielectric constant tensor:
#      x y z
#    x 1.831990 0.000000 0.000000 
#    y 0.000000 1.799880 0.000000 
#    z 0.000000 0.000000 1.816070 
# 
# From -- ./inp_files/39266.got.cif
#   From: 2010.06.25/outbox.cif.g09.slc.cpg/sg52_20_cif.got.tgz:39266.got - 2010.06.26 19:32:48.
