data_PCOD8215357
_publ_section_title
;
Structure prediction by ZEFSAII (Michael W. Deem and Ramdas Pophale) SiO2 
 PCOD8215357
Probable space group: P N N A
;
_chemical_formula_sum "Si O2"
_cell_formula_units_Z 48
_cell_length_a 9.935969
_cell_length_b 12.084872
_cell_length_c 23.227848
_cell_angle_alpha 90.000000
_cell_angle_beta 90.000000
_cell_angle_gamma 90.000000
_cell_volume 2789.081841
_symmetry_space_group_name_H-M "P N N A"
_symmetry_group_IT_number 52
_symmetry_cell_setting 'orthorhombic'
loop_
_space_group_symop_operation_xyz
x,y,z
1/2-x,-y,z
x,1/2-y,1/2-z
1/2-x,1/2+y,1/2-z
-x,-y,-z
1/2+x,y,-z
-x,1/2+y,1/2+z
1/2+x,1/2-y,1/2+z
loop_
_atom_site_type_symbol
_atom_site_label
_atom_site_fract_x
_atom_site_fract_y
_atom_site_fract_z
Si Si1 0.035707 0.787268 0.167906
Si Si2 0.636678 0.915687 0.266908
Si Si3 0.387342 0.432582 0.225724
Si Si4 0.284572 0.224141 0.837093
Si Si5 0.864046 0.416376 0.438544
Si Si6 0.121060 0.563987 0.430209
O O1 0.090678 0.662755 0.177414
O O2 0.101586 0.872472 0.212890
O O3 0.084181 0.826911 0.105482
O O4 0.874481 0.794518 0.172443
O O5 0.625817 0.840150 0.210088
O O6 0.682987 0.852221 0.324969
O O7 0.750000 0.000000 0.248935
O O8 0.497572 0.973246 0.281125
O O9 0.250000 0.500000 0.217843
O O10 0.339036 0.193714 0.900711
O O11 0.750000 0.500000 0.417324
O O12 0.850101 0.389086 0.505918
O O13 0.006682 0.471425 0.426830
O O14 0.250000 0.500000 0.405427
#
# Coordination Sequence:
#
# PCOD8215357 Si02
#       6
#     8   8   8   8   8   8
#     4  11  20  36  56  78 108 148 174 214 273 316
#     4  11  19  34  54  83 104 138 181 213 257 317
#     4  11  23  35  54  81 115 139 172 219 270 320
#     4  11  20  32  60  80 106 141 183 220 253 318
#     4  10  19  34  54  80 106 140 175 221 269 309
#     4  10  21  33  53  80 110 137 175 221 270 318
#
# _framework density 17.209965
#
# number of rings (size 3 to 8) (size 9 to 14) (size 15 to 20)
#    0.000    1.333    5.000    3.000    0.000    4.000 
#    0.000    0.000    0.000    2.000    0.000    0.000 
#    0.000    0.000    0.000    0.000    0.000    0.000 
#
# Total GULP energy -595074.509455 kJ/mol
# GULP energy per Si atom -12397.385614 kJ/mol
# Density = 1.717079 g / cm^3
# Si number density = 17.209965 Si / 1000 Ang^3
#
#
#
# Elastic Constant Matrix: (Units=GPa)
#
#
# Indices 1 2 3 4 5 6 
#
# 1 116.8719 44.9778 25.0199 0.0000 0.0000 0.0000
# 2 44.9778 84.6912 42.8494 0.0000 0.0000 0.0000
# 3 25.0199 42.8494 80.9469 0.0000 0.0000 0.0000
# 4 0.0000 0.0000 0.0000 40.8882 0.0000 0.0000
# 5 0.0000 0.0000 0.0000 0.0000 13.6677 0.0000
# 6 0.0000 0.0000 0.0000 0.0000 0.0000 34.6831
#
#
#
# Elastic Compliance Matrix: (Units=1/GPa)
#
#
# Indices 1 2 3 4 5 6 
#
# 1 0.010764 -0.005509 -0.000411 0.000000 0.000000 0.000000
# 2 -0.005509 0.018946 -0.008326 0.000000 0.000000 0.000000
# 3 -0.000411 -0.008326 0.016888 0.000000 0.000000 0.000000
# 4 0.000000 0.000000 0.000000 0.024457 0.000000 0.000000
# 5 0.000000 0.000000 0.000000 0.000000 0.073165 0.000000
# 6 0.000000 0.000000 0.000000 0.000000 0.000000 0.028832
#
#
# Mechanical properties :
#
#
# Convention : Reuss Voigt Hill
#
# Bulk Modulus (GPa) = 55.22939 56.46714 55.84827
# Shear Modulus (GPa) = 24.08696 29.15867 26.62282
#
# Velocity S-wave (km/s) = 3.74517 4.12064 3.93739
# Velocity P-wave (km/s) = 7.13183 7.45128 7.29330
#
# Compressibility (1/GPa) = 0.01810630
#
# Stress axis : x y z
#
# Youngs Moduli (GPa) = 92.89872 52.78191 59.21219
#
# Poissons Ratio (x) = 0.29076 0.02434
# Poissons Ratio (y) = 0.51176 0.49302
# Poissons Ratio (z) = 0.03819 0.43948
#
# Static dielectric constant tensor:
#      x y z
#    x 3.238180 0.000000 0.000000 
#    y 0.000000 3.344340 0.000000 
#    z 0.000000 0.000000 3.192010 
# 
# 
# High freq. dielectric constant tensor:
#      x y z
#    x 1.675620 0.000000 0.000000 
#    y 0.000000 1.654290 0.000000 
#    z 0.000000 0.000000 1.651140 
# 
# From -- ./inp_files/39431.got.cif
#   From: 2010.06.25/outbox.cif.g09.slc.cpg/sg52_20_cif.got.tgz:39431.got - 2010.06.26 19:32:48.
