data_PCOD8215217
_publ_section_title
;
Structure prediction by ZEFSAII (Michael W. Deem and Ramdas Pophale) SiO2 
 PCOD8215217
Probable space group: P N N A
;
_chemical_formula_sum "Si O2"
_cell_formula_units_Z 32
_cell_length_a 14.858478
_cell_length_b 7.864421
_cell_length_c 11.063559
_cell_angle_alpha 90.000000
_cell_angle_beta 90.000000
_cell_angle_gamma 90.000000
_cell_volume 1292.813671
_symmetry_space_group_name_H-M "P N N A"
_symmetry_group_IT_number 52
_symmetry_cell_setting 'orthorhombic'
loop_
_space_group_symop_operation_xyz
x,y,z
1/2-x,-y,z
x,1/2-y,1/2-z
1/2-x,1/2+y,1/2-z
-x,-y,-z
1/2+x,y,-z
-x,1/2+y,1/2+z
1/2+x,1/2-y,1/2+z
loop_
_atom_site_type_symbol
_atom_site_label
_atom_site_fract_x
_atom_site_fract_y
_atom_site_fract_z
Si Si1 0.725492 0.695879 0.887440
Si Si2 0.119646 0.179458 0.949366
Si Si3 0.450878 0.323848 0.970693
Si Si4 0.355333 0.504937 0.780032
O O1 0.750000 0.500000 0.907651
O O2 0.736397 0.750000 0.750000
O O3 0.793227 0.812165 0.965378
O O4 0.623036 0.725696 0.928235
O O5 0.111439 0.331961 0.853852
O O6 0.122989 0.010834 0.864209
O O7 0.028600 0.179080 0.030475
O O8 0.401653 0.338635 0.839984
O O9 0.500000 0.500000 0.000000
O O10 0.250000 0.500000 0.800879
#
# Coordination Sequence:
#
# PCOD8215217 Si02
#       4
#     8   8   8   8
#     4  12  24  42  64  95 139 181 219 277 341 405
#     4  10  21  36  63  98 124 172 225 270 328 399
#     4  10  19  37  66  93 127 171 228 264 334 393
#     4  10  18  36  65  93 129 166 221 280 321 388
#
# _framework density 24.752213999999999
#
# number of rings (size 3 to 8) (size 9 to 14) (size 15 to 20)
#    0.000    1.500    7.500    0.000    7.000    1.000 
#    0.000    2.500    0.000    4.500    0.000    0.000 
#    0.000    0.000    0.000    0.000    0.000    0.000 
#
# Total GULP energy -396691.825684 kJ/mol
# GULP energy per Si atom -12396.619553 kJ/mol
# Density = 2.469588 g / cm^3
# Si number density = 24.752214 Si / 1000 Ang^3
#
#
#
# Elastic Constant Matrix: (Units=GPa)
#
#
# Indices 1 2 3 4 5 6 
#
# 1 202.1246 23.6717 76.8458 0.0000 0.0000 0.0000
# 2 23.6717 35.7283 34.3715 0.0000 0.0000 0.0000
# 3 76.8458 34.3715 184.0148 0.0000 0.0000 0.0000
# 4 0.0000 0.0000 0.0000 34.3352 0.0000 0.0000
# 5 0.0000 0.0000 0.0000 0.0000 57.0765 0.0000
# 6 0.0000 0.0000 0.0000 0.0000 0.0000 3.8811
#
#
#
# Elastic Compliance Matrix: (Units=1/GPa)
#
#
# Indices 1 2 3 4 5 6 
#
# 1 0.005985 -0.001903 -0.002144 0.000000 0.000000 0.000000
# 2 -0.001903 0.034725 -0.005692 0.000000 0.000000 0.000000
# 3 -0.002144 -0.005692 0.007393 0.000000 0.000000 0.000000
# 4 0.000000 0.000000 0.000000 0.029125 0.000000 0.000000
# 5 0.000000 0.000000 0.000000 0.000000 0.017520 0.000000
# 6 0.000000 0.000000 0.000000 0.000000 0.000000 0.257660
#
#
# Mechanical properties :
#
#
# Convention : Reuss Voigt Hill
#
# Bulk Modulus (GPa) = 34.93289 76.84952 55.89121
# Shear Modulus (GPa) = 13.10865 38.19047 25.64956
#
# Velocity S-wave (km/s) = 2.30379 3.93225 3.22258
# Velocity P-wave (km/s) = 4.60655 7.19248 6.03954
#
# Compressibility (1/GPa) = 0.02862632
#
# Stress axis : x y z
#
# Youngs Moduli (GPa) = 167.07082 28.79753 135.26587
#
# Poissons Ratio (x) = 0.05480 0.29003
# Poissons Ratio (y) = 0.31793 0.76987
# Poissons Ratio (z) = 0.35822 0.16390
#
# Static dielectric constant tensor:
#      x y z
#    x 4.891950 0.000000 0.000000 
#    y 0.000000 4.710970 0.000000 
#    z 0.000000 0.000000 6.022440 
# 
# 
# High freq. dielectric constant tensor:
#      x y z
#    x 1.997420 0.000000 0.000000 
#    y 0.000000 1.973430 0.000000 
#    z 0.000000 0.000000 1.989240 
# 
# From -- ./inp_files/9571.got.cif
#   From: 2010.06.25/outbox.cif.g09.slc.cpg/sg52_5_cif.got.tgz:9571.got - 2010.06.26 19:32:48.
