data_PCOD8215156
_publ_section_title
;
Structure prediction by ZEFSAII (Michael W. Deem and Ramdas Pophale) SiO2 
 PCOD8215156
Probable space group: P N N A
;
_chemical_formula_sum "Si O2"
_cell_formula_units_Z 40
_cell_length_a 22.384084
_cell_length_b 14.903647
_cell_length_c 5.192742
_cell_angle_alpha 90.000000
_cell_angle_beta 90.000000
_cell_angle_gamma 90.000000
_cell_volume 1732.322028
_symmetry_space_group_name_H-M "P N N A"
_symmetry_group_IT_number 52
_symmetry_cell_setting 'orthorhombic'
loop_
_space_group_symop_operation_xyz
x,y,z
1/2-x,-y,z
x,1/2-y,1/2-z
1/2-x,1/2+y,1/2-z
-x,-y,-z
1/2+x,y,-z
-x,1/2+y,1/2+z
1/2+x,1/2-y,1/2+z
loop_
_atom_site_type_symbol
_atom_site_label
_atom_site_fract_x
_atom_site_fract_y
_atom_site_fract_z
Si Si1 0.355099 0.653186 0.984340
Si Si2 0.838033 0.149236 0.852308
Si Si3 0.462651 0.308396 0.499051
Si Si4 0.907011 0.646060 0.516077
Si Si5 0.771743 0.401678 0.133007
O O1 0.383990 0.598260 0.744378
O O2 0.283844 0.660505 0.955175
O O3 0.373072 0.599596 0.243812
O O4 0.385599 0.750511 0.000517
O O5 0.834544 0.250000 0.750000
O O6 0.906755 0.127019 0.930083
O O7 0.816732 0.088895 0.610754
O O8 0.799004 0.140767 0.109597
O O9 0.479036 0.250000 0.250000
O O10 0.522125 0.365386 0.558335
O O11 0.445355 0.250000 0.750000
O O12 0.750000 0.500000 0.207282
#
# Coordination Sequence:
#
# PCOD8215156 Si02
#       5
#     8   8   8   8   8
#     4  10  20  33  57  86 122 155 207 246 315 374
#     4  11  25  40  67  97 122 164 219 268 313 372
#     4  11  18  36  58  93 127 149 197 270 327 365
#     4  10  18  33  59  92 117 150 203 271 314 353
#     4  12  26  44  62  90 138 177 208 255 323 384
#
# _framework density 23.090394
#
# number of rings (size 3 to 8) (size 9 to 14) (size 15 to 20)
#    0.000    1.200    4.000    4.800    8.400    0.000 
#    0.000    0.000    0.000    7.200    0.000    0.000 
#    0.000    0.000    0.000    0.000    0.000    0.000 
#
# Total GULP energy -495755.486710 kJ/mol
# GULP energy per Si atom -12393.887168 kJ/mol
# Density = 2.303784 g / cm^3
# Si number density = 23.090394 Si / 1000 Ang^3
#
#
#
# Elastic Constant Matrix: (Units=GPa)
#
#
# Indices 1 2 3 4 5 6 
#
# 1 169.8495 18.5180 66.1629 0.0000 0.0000 0.0000
# 2 18.5180 18.0692 2.8028 0.0000 0.0000 0.0000
# 3 66.1629 2.8028 228.7625 0.0000 0.0000 0.0000
# 4 0.0000 0.0000 0.0000 16.4605 0.0000 0.0000
# 5 0.0000 0.0000 0.0000 0.0000 47.9906 0.0000
# 6 0.0000 0.0000 0.0000 0.0000 0.0000 9.4098
#
#
#
# Elastic Compliance Matrix: (Units=1/GPa)
#
#
# Indices 1 2 3 4 5 6 
#
# 1 0.007500 -0.007364 -0.002079 0.000000 0.000000 0.000000
# 2 -0.007364 0.062678 0.001362 0.000000 0.000000 0.000000
# 3 -0.002079 0.001362 0.004956 0.000000 0.000000 0.000000
# 4 0.000000 0.000000 0.000000 0.060752 0.000000 0.000000
# 5 0.000000 0.000000 0.000000 0.000000 0.020837 0.000000
# 6 0.000000 0.000000 0.000000 0.000000 0.000000 0.106272
#
#
# Mechanical properties :
#
#
# Convention : Reuss Voigt Hill
#
# Bulk Modulus (GPa) = 16.95714 65.73874 41.34794
# Shear Modulus (GPa) = 16.73274 36.71868 26.72571
#
# Velocity S-wave (km/s) = 2.69488 3.99208 3.40581
# Velocity P-wave (km/s) = 4.12830 7.05556 5.78030
#
# Compressibility (1/GPa) = 0.05897222
#
# Stress axis : x y z
#
# Youngs Moduli (GPa) = 133.32815 15.95447 201.77754
#
# Poissons Ratio (x) = 0.11749 0.41950
# Poissons Ratio (y) = 0.98184 -0.27480
# Poissons Ratio (z) = 0.27719 -0.02173
#
# Static dielectric constant tensor:
#      x y z
#    x 4.449140 0.000000 0.000000 
#    y 0.000000 3.374620 0.000000 
#    z 0.000000 0.000000 1.014880 
# 
# 
# High freq. dielectric constant tensor:
#      x y z
#    x 1.928640 0.000000 0.000000 
#    y 0.000000 1.837010 0.000000 
#    z 0.000000 0.000000 1.955370 
# 
# From -- ./inp_files/4222.got.cif
#   From: 2010.06.25/outbox.cif.g09.slc.cpg/sg52_3_cif.got.tgz:4222.got - 2010.06.26 19:32:48.
