data_PCOD8215579
_publ_section_title
;
Structure prediction by ZEFSAII (Michael W. Deem and Ramdas Pophale) SiO2 
 PCOD8215579
Probable space group: P N N A
;
_chemical_formula_sum "Si O2"
_cell_formula_units_Z 32
_cell_length_a 8.324573
_cell_length_b 10.272765
_cell_length_c 18.897436
_cell_angle_alpha 90.000000
_cell_angle_beta 90.000000
_cell_angle_gamma 90.000000
_cell_volume 1616.040359
_symmetry_space_group_name_H-M "P N N A"
_symmetry_group_IT_number 52
_symmetry_cell_setting 'orthorhombic'
loop_
_space_group_symop_operation_xyz
x,y,z
1/2-x,-y,z
x,1/2-y,1/2-z
1/2-x,1/2+y,1/2-z
-x,-y,-z
1/2+x,y,-z
-x,1/2+y,1/2+z
1/2+x,1/2-y,1/2+z
loop_
_atom_site_type_symbol
_atom_site_label
_atom_site_fract_x
_atom_site_fract_y
_atom_site_fract_z
Si Si1 0.353171 0.382680 0.857289
Si Si2 0.380393 0.750000 0.750000
Si Si3 0.006931 0.357204 0.410903
Si Si4 0.250000 0.000000 0.003311
Si Si5 0.561194 0.493680 0.733915
O O1 0.250000 0.500000 0.893775
O O2 0.227940 0.293912 0.815215
O O3 0.447799 0.293472 0.914687
O O4 0.486575 0.441050 0.805889
O O5 0.492313 0.636673 0.718475
O O6 0.181034 0.383171 0.446707
O O7 0.011658 0.397509 0.328993
O O8 0.885324 0.446540 0.452838
O O9 0.750000 0.500000 0.743805
#
# Coordination Sequence:
#
# PCOD8215579 Si02
#       5
#     8   4   8   4   8
#     4  10  21  38  60  87 117 158 189 249 310 362
#     4  10  20  32  54  88 118 152 184 226 318 360
#     4  11  20  40  56  84 119 151 209 240 292 350
#     4  10  24  34  62  86 108 172 198 244 282 348
#     4  11  22  33  59  90 121 148 189 253 305 350
#
# _framework density 19.801483999999999
#
# number of rings (size 3 to 8) (size 9 to 14) (size 15 to 20)
#    0.000    1.500    3.750    1.500    5.250    0.000 
#    0.000    1.250    0.000    0.000    0.000    0.000 
#    0.000    0.000    0.000    0.000    0.000    0.000 
#
# Total GULP energy -396727.921722 kJ/mol
# GULP energy per Si atom -12397.747554 kJ/mol
# Density = 1.975642 g / cm^3
# Si number density = 19.801484 Si / 1000 Ang^3
#
#
#
# Elastic Constant Matrix: (Units=GPa)
#
#
# Indices 1 2 3 4 5 6 
#
# 1 125.7349 53.2772 21.1315 0.0000 0.0000 0.0000
# 2 53.2772 100.2700 12.4911 0.0000 0.0000 0.0000
# 3 21.1315 12.4911 40.6766 0.0000 0.0000 0.0000
# 4 0.0000 0.0000 0.0000 22.6761 0.0000 0.0000
# 5 0.0000 0.0000 0.0000 0.0000 -19.1640 0.0000
# 6 0.0000 0.0000 0.0000 0.0000 0.0000 37.0179
#
#
#
# Elastic Compliance Matrix: (Units=1/GPa)
#
#
# Indices 1 2 3 4 5 6 
#
# 1 0.010863 -0.005270 -0.004025 0.000000 0.000000 0.000000
# 2 -0.005270 0.012927 -0.001232 0.000000 0.000000 0.000000
# 3 -0.004025 -0.001232 0.027053 0.000000 0.000000 0.000000
# 4 0.000000 0.000000 0.000000 0.044099 0.000000 0.000000
# 5 0.000000 0.000000 0.000000 0.000000 -0.052181 0.000000
# 6 0.000000 0.000000 0.000000 0.000000 0.000000 0.027014
#
#
# Mechanical properties :
#
#
# Convention : Reuss Voigt Hill
#
# Bulk Modulus (GPa) = 33.56913 48.94233 41.25573
# Shear Modulus (GPa) = 49.62346 20.09144 34.85745
#
# Velocity S-wave (km/s) = 5.01147 3.18880 4.20020
# Velocity P-wave (km/s) = 7.10466 6.19097 6.66349
#
# Compressibility (1/GPa) = 0.02978927
#
# Stress axis : x y z
#
# Youngs Moduli (GPa) = 92.05631 77.35796 36.96412
#
# Poissons Ratio (x) = 0.40771 0.14877
# Poissons Ratio (y) = 0.48518 0.04553
# Poissons Ratio (z) = 0.37051 0.09528
#
# Static dielectric constant tensor:
#      x y z
#    x 3.928210 0.000000 0.000000 
#    y 0.000000 5.733140 0.000000 
#    z 0.000000 0.000000 3.385200 
# 
# 
# High freq. dielectric constant tensor:
#      x y z
#    x 1.789630 0.000000 0.000000 
#    y 0.000000 1.775080 0.000000 
#    z 0.000000 0.000000 1.740070 
# 
# From -- ./inp_files/24114.got.cif
#   From: 2010.06.25/outbox.cif.g09.slc.cpg/sg52_13_cif.got.tgz:24114.got - 2010.06.26 19:32:48.
