data_PCOD8215195
_publ_section_title
;
Structure prediction by ZEFSAII (Michael W. Deem and Ramdas Pophale) SiO2 
 PCOD8215195
Probable space group: P N N A
;
_chemical_formula_sum "Si O2"
_cell_formula_units_Z 48
_cell_length_a 22.693916
_cell_length_b 9.118265
_cell_length_c 12.856334
_cell_angle_alpha 90.000000
_cell_angle_beta 90.000000
_cell_angle_gamma 90.000000
_cell_volume 2660.350138
_symmetry_space_group_name_H-M "P N N A"
_symmetry_group_IT_number 52
_symmetry_cell_setting 'orthorhombic'
loop_
_space_group_symop_operation_xyz
x,y,z
1/2-x,-y,z
x,1/2-y,1/2-z
1/2-x,1/2+y,1/2-z
-x,-y,-z
1/2+x,y,-z
-x,1/2+y,1/2+z
1/2+x,1/2-y,1/2+z
loop_
_atom_site_type_symbol
_atom_site_label
_atom_site_fract_x
_atom_site_fract_y
_atom_site_fract_z
Si Si1 0.056222 0.829534 0.148900
Si Si2 0.014883 0.900584 0.784511
Si Si3 0.884408 0.406098 0.442194
Si Si4 0.234108 0.834816 0.849894
Si Si5 0.034685 0.084917 0.589529
Si Si6 0.361789 0.732604 0.625332
O O1 0.085734 0.750000 0.250000
O O2 0.000676 0.731291 0.117619
O O3 0.103099 0.849745 0.058168
O O4 0.034327 0.994617 0.167768
O O5 0.982762 0.750000 0.750000
O O6 0.065051 0.847625 0.865367
O O7 0.044239 0.979342 0.686539
O O8 0.820476 0.333362 0.427868
O O9 0.883696 0.579571 0.422402
O O10 0.211084 0.750000 0.750000
O O11 0.291804 0.753201 0.897422
O O12 0.250000 0.000000 0.816567
O O13 0.101141 0.141786 0.563266
O O14 0.000000 0.000000 0.500000
O O15 0.373496 0.750000 0.750000
#
# Coordination Sequence:
#
# PCOD8215195 Si02
#       6
#     8   8   8   8   8   8
#     4  10  22  38  52  78 111 146 189 243 286 339
#     4  11  21  32  54  82 113 146 188 230 289 348
#     4  11  19  34  58  81 109 150 189 230 290 348
#     4   9  20  34  55  84 112 147 184 226 287 344
#     4  11  21  34  53  82 116 151 185 229 291 348
#     4  10  18  36  55  81 118 149 180 237 288 345
#
# _framework density 18.042736999999999
#
# number of rings (size 3 to 8) (size 9 to 14) (size 15 to 20)
#    0.000    1.667    3.333    2.500    2.333    0.000 
#    0.000    0.000    0.000    0.000   26.000    0.000 
#    0.000    0.000    0.000    0.000    0.000    0.000 
#
# Total GULP energy -594787.795273 kJ/mol
# GULP energy per Si atom -12391.412402 kJ/mol
# Density = 1.800167 g / cm^3
# Si number density = 18.042737 Si / 1000 Ang^3
#
#
#
# Elastic Constant Matrix: (Units=GPa)
#
#
# Indices 1 2 3 4 5 6 
#
# 1 113.3569 57.5974 68.9509 0.0000 0.0000 0.0000
# 2 57.5974 100.8434 46.5545 0.0000 0.0000 0.0000
# 3 68.9509 46.5545 114.1972 0.0000 0.0000 0.0000
# 4 0.0000 0.0000 0.0000 31.8665 0.0000 0.0000
# 5 0.0000 0.0000 0.0000 0.0000 26.5356 0.0000
# 6 0.0000 0.0000 0.0000 0.0000 0.0000 30.7592
#
#
#
# Elastic Compliance Matrix: (Units=1/GPa)
#
#
# Indices 1 2 3 4 5 6 
#
# 1 0.016366 -0.005895 -0.007478 0.000000 0.000000 0.000000
# 2 -0.005895 0.014339 -0.002286 0.000000 0.000000 0.000000
# 3 -0.007478 -0.002286 0.014204 0.000000 0.000000 0.000000
# 4 0.000000 0.000000 0.000000 0.031381 0.000000 0.000000
# 5 0.000000 0.000000 0.000000 0.000000 0.037685 0.000000
# 6 0.000000 0.000000 0.000000 0.000000 0.000000 0.032511
#
#
# Mechanical properties :
#
#
# Convention : Reuss Voigt Hill
#
# Bulk Modulus (GPa) = 73.58474 74.95591 74.27033
# Shear Modulus (GPa) = 27.42222 28.18523 27.80372
#
# Velocity S-wave (km/s) = 3.90275 3.95668 3.92981
# Velocity P-wave (km/s) = 7.82181 7.90616 7.86410
#
# Compressibility (1/GPa) = 0.01358977
#
# Stress axis : x y z
#
# Youngs Moduli (GPa) = 61.10319 69.74107 70.40279
#
# Poissons Ratio (x) = 0.41113 0.52649
# Poissons Ratio (y) = 0.36021 0.16094
# Poissons Ratio (z) = 0.45694 0.15943
#
# Static dielectric constant tensor:
#      x y z
#    x 3.293050 0.000000 0.000000 
#    y 0.000000 3.653310 0.000000 
#    z 0.000000 0.000000 3.294790 
# 
# 
# High freq. dielectric constant tensor:
#      x y z
#    x 1.682310 0.000000 0.000000 
#    y 0.000000 1.713850 0.000000 
#    z 0.000000 0.000000 1.673010 
# 
# From -- ./inp_files/22270.got.cif
#   From: 2010.06.25/outbox.cif.g09.slc.cpg/sg52_12_cif.got.tgz:22270.got - 2010.06.26 19:32:48.
