data_PCOD8215932
_publ_section_title
;
Structure prediction by ZEFSAII (Michael W. Deem and Ramdas Pophale) SiO2 
 PCOD8215932
Probable space group: P N N A
;
_chemical_formula_sum "Si O2"
_cell_formula_units_Z 48
_cell_length_a 17.144875
_cell_length_b 11.227077
_cell_length_c 12.699731
_cell_angle_alpha 90.000000
_cell_angle_beta 90.000000
_cell_angle_gamma 90.000000
_cell_volume 2444.530985
_symmetry_space_group_name_H-M "P N N A"
_symmetry_group_IT_number 52
_symmetry_cell_setting 'orthorhombic'
loop_
_space_group_symop_operation_xyz
x,y,z
1/2-x,-y,z
x,1/2-y,1/2-z
1/2-x,1/2+y,1/2-z
-x,-y,-z
1/2+x,y,-z
-x,1/2+y,1/2+z
1/2+x,1/2-y,1/2+z
loop_
_atom_site_type_symbol
_atom_site_label
_atom_site_fract_x
_atom_site_fract_y
_atom_site_fract_z
Si Si1 0.462440 0.383606 0.712288
Si Si2 0.660139 0.987920 0.083169
Si Si3 0.049729 0.068051 0.416444
Si Si4 0.378797 0.326488 0.392673
Si Si5 0.672816 0.576226 0.818060
Si Si6 0.460195 0.674515 0.499189
O O1 0.449490 0.250000 0.750000
O O2 0.378470 0.442838 0.692196
O O3 0.507771 0.449040 0.804379
O O4 0.507009 0.401317 0.599908
O O5 0.615053 0.108493 0.047363
O O6 0.750000 0.000000 0.111518
O O7 0.657878 0.887182 0.994156
O O8 0.068194 0.201405 0.451196
O O9 0.131644 0.004023 0.405525
O O10 0.000000 0.000000 0.500000
O O11 0.372700 0.414186 0.292883
O O12 0.325593 0.209078 0.368743
O O13 0.471000 0.301302 0.414949
O O14 0.750000 0.500000 0.794502
#
# Coordination Sequence:
#
# PCOD8215932 Si02
#       6
#     8   8   8   8   8   8
#     4   9  20  39  62  81 115 158 203 240 300 370
#     4  11  22  37  62  91 120 155 208 257 305 365
#     4  11  21  39  62  90 118 162 205 252 306 378
#     4  10  21  40  60  85 123 165 205 255 311 387
#     4  11  23  37  58  90 129 155 198 266 330 363
#     4  10  20  39  64  87 116 165 208 251 299 382
#
# _framework density 19.635669
#
# number of rings (size 3 to 8) (size 9 to 14) (size 15 to 20)
#    0.000    1.667    1.667    4.500    2.333    0.000 
#    6.000    2.500    0.000    0.000    0.000    0.000 
#    0.000    0.000    0.000    0.000    0.000    0.000 
#
# Total GULP energy -594843.655390 kJ/mol
# GULP energy per Si atom -12392.576154 kJ/mol
# Density = 1.959098 g / cm^3
# Si number density = 19.635669 Si / 1000 Ang^3
#
#
#
# Elastic Constant Matrix: (Units=GPa)
#
#
# Indices 1 2 3 4 5 6 
#
# 1 99.2254 45.1457 26.4960 0.0000 0.0000 0.0000
# 2 45.1457 69.5753 31.0758 0.0000 0.0000 0.0000
# 3 26.4960 31.0758 79.0757 0.0000 0.0000 0.0000
# 4 0.0000 0.0000 0.0000 28.4000 0.0000 0.0000
# 5 0.0000 0.0000 0.0000 0.0000 20.0407 0.0000
# 6 0.0000 0.0000 0.0000 0.0000 0.0000 34.0398
#
#
#
# Elastic Compliance Matrix: (Units=1/GPa)
#
#
# Indices 1 2 3 4 5 6 
#
# 1 0.014427 -0.008735 -0.001401 0.000000 0.000000 0.000000
# 2 -0.008735 0.022722 -0.006003 0.000000 0.000000 0.000000
# 3 -0.001401 -0.006003 0.015475 0.000000 0.000000 0.000000
# 4 0.000000 0.000000 0.000000 0.035211 0.000000 0.000000
# 5 0.000000 0.000000 0.000000 0.000000 0.049898 0.000000
# 6 0.000000 0.000000 0.000000 0.000000 0.000000 0.029377
#
#
# Mechanical properties :
#
#
# Convention : Reuss Voigt Hill
#
# Bulk Modulus (GPa) = 49.15128 50.36791 49.75959
# Shear Modulus (GPa) = 24.25187 26.17336 25.21262
#
# Velocity S-wave (km/s) = 3.51820 3.65492 3.58721
# Velocity P-wave (km/s) = 6.44900 6.59683 6.52333
#
# Compressibility (1/GPa) = 0.02034535
#
# Stress axis : x y z
#
# Youngs Moduli (GPa) = 69.31652 44.01013 64.62240
#
# Poissons Ratio (x) = 0.38444 0.09054
# Poissons Ratio (y) = 0.60550 0.38790
# Poissons Ratio (z) = 0.09712 0.26417
#
# Static dielectric constant tensor:
#      x y z
#    x 3.891580 0.000000 0.000000 
#    y 0.000000 3.966960 0.000000 
#    z 0.000000 0.000000 3.557490 
# 
# 
# High freq. dielectric constant tensor:
#      x y z
#    x 1.745970 0.000000 0.000000 
#    y 0.000000 1.777140 0.000000 
#    z 0.000000 0.000000 1.766390 
# 
# From -- ./inp_files/20615.got.cif
#   From: 2010.06.25/outbox.cif.g09.slc.cpg/sg52_11_cif.got.tgz:20615.got - 2010.06.26 19:32:48.
