data_PCOD8215501
_publ_section_title
;
Structure prediction by ZEFSAII (Michael W. Deem and Ramdas Pophale) SiO2 
 PCOD8215501
Probable space group: P N N A
;
_chemical_formula_sum "Si O2"
_cell_formula_units_Z 64
_cell_length_a 23.579890
_cell_length_b 9.108666
_cell_length_c 14.694943
_cell_angle_alpha 90.000000
_cell_angle_beta 90.000000
_cell_angle_gamma 90.000000
_cell_volume 3156.199583
_symmetry_space_group_name_H-M "P N N A"
_symmetry_group_IT_number 52
_symmetry_cell_setting 'orthorhombic'
loop_
_space_group_symop_operation_xyz
x,y,z
1/2-x,-y,z
x,1/2-y,1/2-z
1/2-x,1/2+y,1/2-z
-x,-y,-z
1/2+x,y,-z
-x,1/2+y,1/2+z
1/2+x,1/2-y,1/2+z
loop_
_atom_site_type_symbol
_atom_site_label
_atom_site_fract_x
_atom_site_fract_y
_atom_site_fract_z
Si Si1 0.617239 0.507730 0.688770
Si Si2 0.078549 0.660514 0.657510
Si Si3 0.666990 0.291936 0.562498
Si Si4 0.706714 0.790976 0.898386
Si Si5 0.637659 0.519572 0.892829
Si Si6 0.466972 0.349424 0.011176
Si Si7 0.498349 0.075359 0.097743
Si Si8 0.187878 0.967353 0.923388
O O1 0.621351 0.357605 0.632001
O O2 0.670925 0.615368 0.674137
O O3 0.614409 0.469309 0.794805
O O4 0.560772 0.582054 0.651355
O O5 0.073716 0.750000 0.750000
O O6 0.051294 0.766142 0.581304
O O7 0.143586 0.605878 0.646050
O O8 0.043735 0.506517 0.661882
O O9 0.726446 0.312709 0.615767
O O10 0.664746 0.379679 0.466756
O O11 0.651599 0.122493 0.545458
O O12 0.693942 0.618638 0.886868
O O13 0.692832 0.845940 0.998976
O O14 0.591601 0.621718 0.939033
O O15 0.508424 0.247271 0.073379
O O16 0.500000 0.500000 0.000000
O O17 0.500000 0.000000 0.000000
O O18 0.250000 0.000000 0.878252
#
# Coordination Sequence:
#
# PCOD8215501 Si02
#       8
#     8   8   8   8   8   8   8   8
#     4  11  22  36  56  87 124 169 208 252 300 369
#     4  11  24  44  71  95 119 159 216 265 312 386
#     4  10  22  34  60  89 122 169 215 246 296 381
#     4  10  19  38  57  86 122 169 210 254 303 358
#     4  12  23  35  57  88 130 159 204 260 315 359
#     4  11  25  41  63  91 128 166 200 259 319 381
#     4  10  22  42  64  84 123 164 207 249 312 381
#     4   9  19  42  70  87 117 163 207 253 318 381
#
# _framework density 20.277550999999999
#
# number of rings (size 3 to 8) (size 9 to 14) (size 15 to 20)
#    0.000    1.500    2.500    4.500    7.000    3.000 
#    0.000    0.000    5.500    0.000    0.000    0.000 
#    0.000    0.000    0.000    0.000    0.000    0.000 
#
# Total GULP energy -793118.388594 kJ/mol
# GULP energy per Si atom -12392.474822 kJ/mol
# Density = 2.023140 g / cm^3
# Si number density = 20.277551 Si / 1000 Ang^3
#
#
#
# Elastic Constant Matrix: (Units=GPa)
#
#
# Indices 1 2 3 4 5 6 
#
# 1 86.2818 39.5342 36.3487 0.0000 0.0000 0.0000
# 2 39.5342 145.3777 34.6138 0.0000 0.0000 0.0000
# 3 36.3487 34.6138 71.8217 0.0000 0.0000 0.0000
# 4 0.0000 0.0000 0.0000 25.1085 0.0000 0.0000
# 5 0.0000 0.0000 0.0000 0.0000 17.0074 0.0000
# 6 0.0000 0.0000 0.0000 0.0000 0.0000 40.3790
#
#
#
# Elastic Compliance Matrix: (Units=1/GPa)
#
#
# Indices 1 2 3 4 5 6 
#
# 1 0.015596 -0.002668 -0.006607 0.000000 0.000000 0.000000
# 2 -0.002668 0.008227 -0.002615 0.000000 0.000000 0.000000
# 3 -0.006607 -0.002615 0.018527 0.000000 0.000000 0.000000
# 4 0.000000 0.000000 0.000000 0.039827 0.000000 0.000000
# 5 0.000000 0.000000 0.000000 0.000000 0.058798 0.000000
# 6 0.000000 0.000000 0.000000 0.000000 0.000000 0.024765
#
#
# Mechanical properties :
#
#
# Convention : Reuss Voigt Hill
#
# Bulk Modulus (GPa) = 53.84908 58.27497 56.06202
# Shear Modulus (GPa) = 25.54802 29.36462 27.45632
#
# Velocity S-wave (km/s) = 3.55338 3.80956 3.68370
# Velocity P-wave (km/s) = 6.59159 6.93912 6.76759
#
# Compressibility (1/GPa) = 0.01857042
#
# Stress axis : x y z
#
# Youngs Moduli (GPa) = 64.11950 121.55568 53.97443
#
# Poissons Ratio (x) = 0.32431 0.35662
# Poissons Ratio (y) = 0.17107 0.14112
# Poissons Ratio (z) = 0.42365 0.31781
#
# Static dielectric constant tensor:
#      x y z
#    x 4.170670 0.000000 0.000000 
#    y 0.000000 3.933620 0.000000 
#    z 0.000000 0.000000 3.427440 
# 
# 
# High freq. dielectric constant tensor:
#      x y z
#    x 1.794880 0.000000 0.000000 
#    y 0.000000 1.807800 0.000000 
#    z 0.000000 0.000000 1.753230 
# 
# From -- ./inp_files/29242.got.cif
#   From: 2010.06.25/outbox.cif.g09.slc.cpg/sg52_15_cif.got.tgz:29242.got - 2010.06.26 19:32:48.
