data_PCOD8215718
_publ_section_title
;
Structure prediction by ZEFSAII (Michael W. Deem and Ramdas Pophale) SiO2 
 PCOD8215718
Probable space group: P N N A
;
_chemical_formula_sum "Si O2"
_cell_formula_units_Z 48
_cell_length_a 8.850638
_cell_length_b 24.069487
_cell_length_c 11.254946
_cell_angle_alpha 90.000000
_cell_angle_beta 90.000000
_cell_angle_gamma 90.000000
_cell_volume 2397.644706
_symmetry_space_group_name_H-M "P N N A"
_symmetry_group_IT_number 52
_symmetry_cell_setting 'orthorhombic'
loop_
_space_group_symop_operation_xyz
x,y,z
1/2-x,-y,z
x,1/2-y,1/2-z
1/2-x,1/2+y,1/2-z
-x,-y,-z
1/2+x,y,-z
-x,1/2+y,1/2+z
1/2+x,1/2-y,1/2+z
loop_
_atom_site_type_symbol
_atom_site_label
_atom_site_fract_x
_atom_site_fract_y
_atom_site_fract_z
Si Si1 0.248714 0.213195 0.462154
Si Si2 0.596598 0.686701 0.747498
Si Si3 0.569522 0.611130 0.546640
Si Si4 0.221027 0.438074 0.643886
Si Si5 0.256533 0.831352 0.720786
Si Si6 0.531949 0.786147 0.094151
O O1 0.335552 0.168877 0.375891
O O2 0.225046 0.177497 0.581042
O O3 0.097345 0.238801 0.400630
O O4 0.350461 0.266261 0.493442
O O5 0.659970 0.750000 0.750000
O O6 0.663532 0.645663 0.647674
O O7 0.416485 0.687592 0.724084
O O8 0.453977 0.569897 0.611619
O O9 0.684446 0.572982 0.475103
O O10 0.480590 0.654112 0.458293
O O11 0.250000 0.500000 0.690813
O O12 0.269382 0.396156 0.749516
O O13 0.120755 0.795032 0.779701
#
# Coordination Sequence:
#
# PCOD8215718 Si02
#       6
#     8   8   8   8   8   8
#     4  12  21  36  56  85 126 163 197 229 298 365
#     4  11  20  35  55  81 128 163 185 233 296 362
#     4  10  20  36  57  86 115 146 197 242 300 363
#     4  10  21  39  64  82 110 151 201 264 311 339
#     4  10  22  39  55  86 120 157 206 244 291 364
#     4  11  21  36  59  85 124 163 190 239 292 371
#
# _framework density 20.019648
#
# number of rings (size 3 to 8) (size 9 to 14) (size 15 to 20)
#    0.000    1.333    3.333    5.000    0.000    1.333 
#    3.000    0.000    0.000    5.000    0.000    0.000 
#    0.000    0.000    0.000    0.000    0.000    1.333 
#
# Total GULP energy -594655.395939 kJ/mol
# GULP energy per Si atom -12388.654082 kJ/mol
# Density = 1.997408 g / cm^3
# Si number density = 20.019648 Si / 1000 Ang^3
#
#
#
# Elastic Constant Matrix: (Units=GPa)
#
#
# Indices 1 2 3 4 5 6 
#
# 1 82.1916 30.4853 40.1478 0.0000 0.0000 0.0000
# 2 30.4853 115.1377 42.6799 0.0000 0.0000 0.0000
# 3 40.1478 42.6799 83.8736 0.0000 0.0000 0.0000
# 4 0.0000 0.0000 0.0000 21.9054 0.0000 0.0000
# 5 0.0000 0.0000 0.0000 0.0000 32.2788 0.0000
# 6 0.0000 0.0000 0.0000 0.0000 0.0000 22.7561
#
#
#
# Elastic Compliance Matrix: (Units=1/GPa)
#
#
# Indices 1 2 3 4 5 6 
#
# 1 0.016157 -0.001739 -0.006849 0.000000 0.000000 0.000000
# 2 -0.001739 0.010892 -0.004710 0.000000 0.000000 0.000000
# 3 -0.006849 -0.004710 0.017598 0.000000 0.000000 0.000000
# 4 0.000000 0.000000 0.000000 0.045651 0.000000 0.000000
# 5 0.000000 0.000000 0.000000 0.000000 0.030980 0.000000
# 6 0.000000 0.000000 0.000000 0.000000 0.000000 0.043944
#
#
# Mechanical properties :
#
#
# Convention : Reuss Voigt Hill
#
# Bulk Modulus (GPa) = 55.39967 56.42541 55.91254
# Shear Modulus (GPa) = 25.27364 26.58072 25.92718
#
# Velocity S-wave (km/s) = 3.55694 3.64776 3.60264
# Velocity P-wave (km/s) = 6.67846 6.78143 6.73014
#
# Compressibility (1/GPa) = 0.01805065
#
# Stress axis : x y z
#
# Youngs Moduli (GPa) = 61.89167 91.81389 56.82546
#
# Poissons Ratio (x) = 0.15968 0.38920
# Poissons Ratio (y) = 0.10764 0.26764
# Poissons Ratio (z) = 0.42390 0.43243
#
# Static dielectric constant tensor:
#      x y z
#    x 3.609520 0.000000 0.000000 
#    y 0.000000 3.348220 0.000000 
#    z 0.000000 0.000000 3.888220 
# 
# 
# High freq. dielectric constant tensor:
#      x y z
#    x 1.782030 0.000000 0.000000 
#    y 0.000000 1.739610 0.000000 
#    z 0.000000 0.000000 1.787430 
# 
# From -- ./inp_files/16926.got.cif
#   From: 2010.06.25/outbox.cif.g09.slc.cpg/sg52_9_cif.got.tgz:16926.got - 2010.06.26 19:32:48.
