data_PCOD8216187
_publ_section_title
;
Structure prediction by ZEFSAII (Michael W. Deem and Ramdas Pophale) SiO2 
 PCOD8216187
Probable space group: P N N A
;
_chemical_formula_sum "Si O2"
_cell_formula_units_Z 36
_cell_length_a 8.738653
_cell_length_b 9.205905
_cell_length_c 20.188041
_cell_angle_alpha 90.000000
_cell_angle_beta 90.000000
_cell_angle_gamma 90.000000
_cell_volume 1624.071561
_symmetry_space_group_name_H-M "P N N A"
_symmetry_group_IT_number 52
_symmetry_cell_setting 'orthorhombic'
loop_
_space_group_symop_operation_xyz
x,y,z
1/2-x,-y,z
x,1/2-y,1/2-z
1/2-x,1/2+y,1/2-z
-x,-y,-z
1/2+x,y,-z
-x,1/2+y,1/2+z
1/2+x,1/2-y,1/2+z
loop_
_atom_site_type_symbol
_atom_site_label
_atom_site_fract_x
_atom_site_fract_y
_atom_site_fract_z
Si Si1 0.837416 0.140837 0.630225
Si Si2 0.866068 0.785033 0.114983
Si Si3 0.813939 0.657242 0.531927
Si Si4 0.452375 0.111411 0.857387
Si Si5 0.654265 0.250000 0.750000
O O1 0.815325 0.267286 0.576423
O O2 0.760474 0.159472 0.701272
O O3 0.023626 0.150724 0.639746
O O4 0.750000 0.000000 0.600054
O O5 0.698036 0.786086 0.148404
O O6 0.932902 0.939741 0.137503
O O7 0.848720 0.762655 0.036393
O O8 0.750000 0.500000 0.513212
O O9 0.968244 0.659676 0.574483
O O10 0.552603 0.138235 0.792103
#
# Coordination Sequence:
#
# PCOD8216187 Si02
#       5
#     8   8   8   8   4
#     4  11  26  41  63  96 135 185 219 281 358 417
#     4  11  21  38  70 100 125 172 231 279 346 404
#     4  11  19  39  69 100 135 167 224 280 340 422
#     4  10  21  38  64 102 125 171 223 293 330 400
#     4  10  26  44  58  86 134 174 236 276 340 422
#
# _framework density 22.166511
#
# number of rings (size 3 to 8) (size 9 to 14) (size 15 to 20)
#    0.000    1.333    4.444    2.000    3.111    1.778 
#    4.000    3.333    0.000    0.000    0.000    0.000 
#    0.000    0.000    0.000    0.000    0.000    0.000 
#
# Total GULP energy -446095.007996 kJ/mol
# GULP energy per Si atom -12391.528000 kJ/mol
# Density = 2.211606 g / cm^3
# Si number density = 22.166511 Si / 1000 Ang^3
#
#
#
# Elastic Constant Matrix: (Units=GPa)
#
#
# Indices 1 2 3 4 5 6 
#
# 1 145.0757 28.3342 39.4356 0.0000 0.0000 0.0000
# 2 28.3342 47.5069 8.1217 0.0000 0.0000 0.0000
# 3 39.4356 8.1217 127.2677 0.0000 0.0000 0.0000
# 4 0.0000 0.0000 0.0000 13.8864 0.0000 0.0000
# 5 0.0000 0.0000 0.0000 0.0000 1.1453 0.0000
# 6 0.0000 0.0000 0.0000 0.0000 0.0000 42.8130
#
#
#
# Elastic Compliance Matrix: (Units=1/GPa)
#
#
# Indices 1 2 3 4 5 6 
#
# 1 0.008427 -0.004630 -0.002316 0.000000 0.000000 0.000000
# 2 -0.004630 0.023826 -0.000086 0.000000 0.000000 0.000000
# 3 -0.002316 -0.000086 0.008580 0.000000 0.000000 0.000000
# 4 0.000000 0.000000 0.000000 0.072013 0.000000 0.000000
# 5 0.000000 0.000000 0.000000 0.000000 0.873158 0.000000
# 6 0.000000 0.000000 0.000000 0.000000 0.000000 0.023357
#
#
# Mechanical properties :
#
#
# Convention : Reuss Voigt Hill
#
# Bulk Modulus (GPa) = 37.35531 52.40370 44.87950
# Shear Modulus (GPa) = 4.84333 27.83286 16.33810
#
# Velocity S-wave (km/s) = 1.47977 3.54733 2.71783
# Velocity P-wave (km/s) = 4.45066 6.36163 5.48993
#
# Compressibility (1/GPa) = 0.02676996
#
# Stress axis : x y z
#
# Youngs Moduli (GPa) = 118.67070 41.97154 116.54376
#
# Poissons Ratio (x) = 0.19433 0.26988
# Poissons Ratio (y) = 0.54944 0.01000
# Poissons Ratio (z) = 0.27480 0.00360
#
# Static dielectric constant tensor:
#      x y z
#    x 4.406210 0.000000 0.000000 
#    y 0.000000 4.403970 0.000000 
#    z 0.000000 0.000000 3.900370 
# 
# 
# High freq. dielectric constant tensor:
#      x y z
#    x 1.893880 0.000000 0.000000 
#    y 0.000000 1.833460 0.000000 
#    z 0.000000 0.000000 1.874520 
# 
# From -- ./inp_files/35540.got.cif
#   From: 2010.06.25/outbox.cif.g09.slc.cpg/sg52_18_cif.got.tgz:35540.got - 2010.06.26 19:32:48.
