data_PCOD8216397
_publ_section_title
;
Structure prediction by ZEFSAII (Michael W. Deem and Ramdas Pophale) SiO2 
 PCOD8216397
Probable space group: P N N A
;
_chemical_formula_sum "Si O2"
_cell_formula_units_Z 60
_cell_length_a 12.713743
_cell_length_b 7.828717
_cell_length_c 26.818799
_cell_angle_alpha 90.000000
_cell_angle_beta 90.000000
_cell_angle_gamma 90.000000
_cell_volume 2669.336639
_symmetry_space_group_name_H-M "P N N A"
_symmetry_group_IT_number 52
_symmetry_cell_setting 'orthorhombic'
loop_
_space_group_symop_operation_xyz
x,y,z
1/2-x,-y,z
x,1/2-y,1/2-z
1/2-x,1/2+y,1/2-z
-x,-y,-z
1/2+x,y,-z
-x,1/2+y,1/2+z
1/2+x,1/2-y,1/2+z
loop_
_atom_site_type_symbol
_atom_site_label
_atom_site_fract_x
_atom_site_fract_y
_atom_site_fract_z
Si Si1 0.700388 0.680424 0.302229
Si Si2 0.033207 0.182959 0.561973
Si Si3 0.242299 0.701663 0.592366
Si Si4 0.522835 0.712153 0.044297
Si Si5 0.036308 0.110776 0.212707
Si Si6 0.369231 0.158694 0.358292
Si Si7 0.358358 0.764379 0.375413
Si Si8 0.081615 0.750000 0.250000
O O1 0.750000 0.500000 0.308874
O O2 0.744692 0.750000 0.250000
O O3 0.735019 0.784941 0.351765
O O4 0.575475 0.679905 0.304786
O O5 0.156830 0.215193 0.566854
O O6 0.992196 0.280055 0.512366
O O7 0.969397 0.240014 0.612082
O O8 0.009227 0.988399 0.550467
O O9 0.250000 0.500000 0.595917
O O10 0.138831 0.738104 0.560933
O O11 0.427808 0.791805 0.077024
O O12 0.085534 0.250000 0.250000
O O13 0.115276 0.117547 0.165655
O O14 0.017308 0.923724 0.237571
O O15 0.266215 0.228049 0.387561
O O16 0.353886 0.217560 0.300768
O O17 0.385977 0.955107 0.356325
#
# Coordination Sequence:
#
# PCOD8216397 Si02
#       8
#     8   8   8   8   8   8   8   4
#     4  10  24  40  62  94 131 180 222 277 331 397
#     4  10  24  42  70 101 130 169 235 279 341 416
#     4  11  24  42  64  96 136 176 221 275 339 408
#     4  10  22  44  71  98 128 178 219 291 346 394
#     4  11  23  43  65  95 136 177 230 276 337 405
#     4  10  24  39  65 102 132 177 224 277 341 410
#     4  10  21  43  65  94 140 172 224 279 341 408
#     4  12  26  38  70  98 134 186 218 282 342 408
#
# _framework density 22.477495000000001
#
# number of rings (size 3 to 8) (size 9 to 14) (size 15 to 20)
#    0.000    1.600    2.667    0.400    7.467    2.133 
#    0.000    0.000    0.000    0.000    0.000    0.000 
#    0.000    0.000    0.000    0.000    0.000    0.000 
#
# Total GULP energy -743387.000164 kJ/mol
# GULP energy per Si atom -12389.783336 kJ/mol
# Density = 2.242633 g / cm^3
# Si number density = 22.477495 Si / 1000 Ang^3
#
#
#
# Elastic Constant Matrix: (Units=GPa)
#
#
# Indices 1 2 3 4 5 6 
#
# 1 136.6609 2.8889 78.7751 0.0000 0.0000 0.0000
# 2 2.8889 48.4266 26.8494 0.0000 0.0000 0.0000
# 3 78.7751 26.8494 177.6997 0.0000 0.0000 0.0000
# 4 0.0000 0.0000 0.0000 26.8781 0.0000 0.0000
# 5 0.0000 0.0000 0.0000 0.0000 31.4891 0.0000
# 6 0.0000 0.0000 0.0000 0.0000 0.0000 22.0029
#
#
#
# Elastic Compliance Matrix: (Units=1/GPa)
#
#
# Indices 1 2 3 4 5 6 
#
# 1 0.010009 0.002033 -0.004744 0.000000 0.000000 0.000000
# 2 0.002033 0.022951 -0.004369 0.000000 0.000000 0.000000
# 3 -0.004744 -0.004369 0.008391 0.000000 0.000000 0.000000
# 4 0.000000 0.000000 0.000000 0.037205 0.000000 0.000000
# 5 0.000000 0.000000 0.000000 0.000000 0.031757 0.000000
# 6 0.000000 0.000000 0.000000 0.000000 0.000000 0.045448
#
#
# Mechanical properties :
#
#
# Convention : Reuss Voigt Hill
#
# Bulk Modulus (GPa) = 36.77743 64.42378 50.60060
# Shear Modulus (GPa) = 27.93527 33.02560 30.48043
#
# Velocity S-wave (km/s) = 3.52918 3.83727 3.68644
# Velocity P-wave (km/s) = 5.74493 6.95389 6.37812
#
# Compressibility (1/GPa) = 0.02719059
#
# Stress axis : x y z
#
# Youngs Moduli (GPa) = 99.90843 43.57129 119.17814
#
# Poissons Ratio (x) = -0.08859 0.56542
# Poissons Ratio (y) = -0.20315 0.52070
# Poissons Ratio (z) = 0.47400 0.19037
#
# Static dielectric constant tensor:
#      x y z
#    x 3.345320 0.000000 0.000000 
#    y 0.000000 3.860970 0.000000 
#    z 0.000000 0.000000 5.251200 
# 
# 
# High freq. dielectric constant tensor:
#      x y z
#    x 1.881030 0.000000 0.000000 
#    y 0.000000 1.868820 0.000000 
#    z 0.000000 0.000000 1.898510 
# 
# From -- ./inp_files/42771.got.cif
#   From: 2010.06.25/outbox.cif.g09.slc.cpg/sg52_22_cif.got.tgz:42771.got - 2010.06.26 19:32:48.
