data_PCOD8216551
_publ_section_title
;
Structure prediction by ZEFSAII (Michael W. Deem and Ramdas Pophale) SiO2 
 PCOD8216551
Probable space group: P N N A
;
_chemical_formula_sum "Si O2"
_cell_formula_units_Z 40
_cell_length_a 9.504513
_cell_length_b 8.371295
_cell_length_c 22.204899
_cell_angle_alpha 90.000000
_cell_angle_beta 90.000000
_cell_angle_gamma 90.000000
_cell_volume 1766.734613
_symmetry_space_group_name_H-M "P N N A"
_symmetry_group_IT_number 52
_symmetry_cell_setting 'orthorhombic'
loop_
_space_group_symop_operation_xyz
x,y,z
1/2-x,-y,z
x,1/2-y,1/2-z
1/2-x,1/2+y,1/2-z
-x,-y,-z
1/2+x,y,-z
-x,1/2+y,1/2+z
1/2+x,1/2-y,1/2+z
loop_
_atom_site_type_symbol
_atom_site_label
_atom_site_fract_x
_atom_site_fract_y
_atom_site_fract_z
Si Si1 0.750000 0.000000 0.723043
Si Si2 0.313767 0.833453 0.051901
Si Si3 0.178526 0.165178 0.911607
Si Si4 0.543742 0.250000 0.750000
Si Si5 0.947954 0.322162 0.120889
Si Si6 0.414867 0.156218 0.380752
O O1 0.641598 0.096032 0.764704
O O2 0.830987 0.131593 0.681649
O O3 0.459539 0.811506 0.087354
O O4 0.200177 0.696133 0.067866
O O5 0.250000 0.000000 0.073796
O O6 0.354553 0.838492 0.982150
O O7 0.287057 0.308568 0.898925
O O8 0.033180 0.203886 0.876261
O O9 0.250000 0.000000 0.888706
O O10 0.450019 0.292517 0.807386
O O11 0.006687 0.493504 0.100966
#
# Coordination Sequence:
#
# PCOD8216551 Si02
#       6
#     4   8   8   4   8   8
#     4  10  22  42  64  98 114 170 220 264 312 386
#     4  11  22  39  64  93 128 171 217 261 315 388
#     4  11  25  40  61  95 133 171 210 263 329 382
#     4  10  22  40  66  90 128 160 216 260 310 378
#     4  11  23  41  63  95 127 167 212 264 322 377
#     4  11  21  42  62  92 128 159 220 260 312 385
#
# _framework density 22.640639
#
# number of rings (size 3 to 8) (size 9 to 14) (size 15 to 20)
#    0.000    1.200    4.000    3.000    1.400    9.600 
#    0.000    5.000    0.000    0.000    0.000    0.000 
#    0.000    0.000    0.000    0.000    0.000    0.000 
#
# Total GULP energy -496039.731281 kJ/mol
# GULP energy per Si atom -12400.993282 kJ/mol
# Density = 2.258911 g / cm^3
# Si number density = 22.640639 Si / 1000 Ang^3
#
#
#
# Elastic Constant Matrix: (Units=GPa)
#
#
# Indices 1 2 3 4 5 6 
#
# 1 104.5137 5.1748 16.1778 0.0000 0.0000 0.0000
# 2 5.1748 66.2086 22.0509 0.0000 0.0000 0.0000
# 3 16.1778 22.0509 53.9286 0.0000 0.0000 0.0000
# 4 0.0000 0.0000 0.0000 20.5287 0.0000 0.0000
# 5 0.0000 0.0000 0.0000 0.0000 -0.1301 0.0000
# 6 0.0000 0.0000 0.0000 0.0000 0.0000 44.8692
#
#
#
# Elastic Compliance Matrix: (Units=1/GPa)
#
#
# Indices 1 2 3 4 5 6 
#
# 1 0.010038 0.000253 -0.003115 0.000000 0.000000 0.000000
# 2 0.000253 0.017491 -0.007228 0.000000 0.000000 0.000000
# 3 -0.003115 -0.007228 0.022433 0.000000 0.000000 0.000000
# 4 0.000000 0.000000 0.000000 0.048712 0.000000 0.000000
# 5 0.000000 0.000000 0.000000 0.000000 -7.684323 0.000000
# 6 0.000000 0.000000 0.000000 0.000000 0.000000 0.022287
#
#
# Mechanical properties :
#
#
# Convention : Reuss Voigt Hill
#
# Bulk Modulus (GPa) = 33.57673 34.60642 34.09157
# Shear Modulus (GPa) = -0.66372 25.13672 12.23650
#
# Velocity S-wave (km/s) = -0.54203 3.33565 2.32731
# Velocity P-wave (km/s) = 3.80405 5.49124 4.72358
#
# Compressibility (1/GPa) = 0.02978253
#
# Stress axis : x y z
#
# Youngs Moduli (GPa) = 99.62435 57.17143 44.57776
#
# Poissons Ratio (x) = -0.01445 0.13884
# Poissons Ratio (y) = -0.02518 0.32220
# Poissons Ratio (z) = 0.31028 0.41322
#
# Static dielectric constant tensor:
#      x y z
#    x 4.228910 0.000000 0.000000 
#    y 0.000000 4.240630 0.000000 
#    z 0.000000 0.000000 3.661290 
# 
# 
# High freq. dielectric constant tensor:
#      x y z
#    x 1.902080 0.000000 0.000000 
#    y 0.000000 1.901730 0.000000 
#    z 0.000000 0.000000 1.865360 
# 
# From -- ./inp_files/39264.got.cif
#   From: 2010.06.25/outbox.cif.g09.slc.cpg/sg52_20_cif.got.tgz:39264.got - 2010.06.26 19:32:48.
