data_PCOD8216421
_publ_section_title
;
Structure prediction by ZEFSAII (Michael W. Deem and Ramdas Pophale) SiO2 
 PCOD8216421
Probable space group: P N N A
;
_chemical_formula_sum "Si O2"
_cell_formula_units_Z 56
_cell_length_a 14.344866
_cell_length_b 21.453359
_cell_length_c 8.484834
_cell_angle_alpha 90.000000
_cell_angle_beta 90.000000
_cell_angle_gamma 90.000000
_cell_volume 2611.169992
_symmetry_space_group_name_H-M "P N N A"
_symmetry_group_IT_number 52
_symmetry_cell_setting 'orthorhombic'
loop_
_space_group_symop_operation_xyz
x,y,z
1/2-x,-y,z
x,1/2-y,1/2-z
1/2-x,1/2+y,1/2-z
-x,-y,-z
1/2+x,y,-z
-x,1/2+y,1/2+z
1/2+x,1/2-y,1/2+z
loop_
_atom_site_type_symbol
_atom_site_label
_atom_site_fract_x
_atom_site_fract_y
_atom_site_fract_z
Si Si1 0.562076 0.268034 0.081682
Si Si2 0.977989 0.438429 0.209935
Si Si3 0.087640 0.362839 0.435751
Si Si4 0.143398 0.515447 0.241153
Si Si5 0.148011 0.478372 0.595271
Si Si6 0.396956 0.362580 0.075914
Si Si7 0.703705 0.186040 0.662039
O O1 0.607441 0.250000 0.250000
O O2 0.467029 0.306025 0.114704
O O3 0.548132 0.203625 0.988310
O O4 0.626812 0.311122 0.975075
O O5 0.916922 0.496939 0.265925
O O6 0.996925 0.395375 0.361919
O O7 0.075289 0.468163 0.144021
O O8 0.923681 0.396957 0.084693
O O9 0.133083 0.403168 0.579118
O O10 0.167243 0.360418 0.298502
O O11 0.250000 0.500000 0.192177
O O12 0.123466 0.506487 0.425142
O O13 0.110260 0.586034 0.212812
O O14 0.250000 0.500000 0.646145
O O15 0.294167 0.334412 0.065812
O O16 0.725282 0.250000 0.750000
#
# Coordination Sequence:
#
# PCOD8216421 Si02
#       7
#     8   8   8   8   8   8   8
#     4  11  26  42  66  99 130 174 220 285 329 387
#     4  11  23  40  64  99 128 170 219 278 325 390
#     4  10  21  46  68  88 140 175 219 273 330 410
#     4  10  22  41  66  93 129 178 216 265 338 400
#     4  10  22  40  66 100 129 178 218 271 339 391
#     4  12  24  41  68  99 133 170 226 267 336 408
#     4  10  22  46  67  92 129 178 221 265 339 401
#
# _framework density 21.446323
#
# number of rings (size 3 to 8) (size 9 to 14) (size 15 to 20)
#    0.000    1.429    1.429    5.143    4.000    1.714 
#    7.714    0.000    0.000    0.000    0.000    0.000 
#    0.000    0.000    0.000    0.000    0.000    0.000 
#
# Total GULP energy -694136.097744 kJ/mol
# GULP energy per Si atom -12395.287460 kJ/mol
# Density = 2.139751 g / cm^3
# Si number density = 21.446323 Si / 1000 Ang^3
#
#
#
# Elastic Constant Matrix: (Units=GPa)
#
#
# Indices 1 2 3 4 5 6 
#
# 1 120.5299 59.1621 42.2990 0.0000 0.0000 0.0000
# 2 59.1621 114.2360 23.7527 0.0000 0.0000 0.0000
# 3 42.2990 23.7527 66.2068 0.0000 0.0000 0.0000
# 4 0.0000 0.0000 0.0000 32.1887 0.0000 0.0000
# 5 0.0000 0.0000 0.0000 0.0000 26.1152 0.0000
# 6 0.0000 0.0000 0.0000 0.0000 0.0000 34.3866
#
#
#
# Elastic Compliance Matrix: (Units=1/GPa)
#
#
# Indices 1 2 3 4 5 6 
#
# 1 0.013297 -0.005533 -0.006511 0.000000 0.000000 0.000000
# 2 -0.005533 0.011762 -0.000685 0.000000 0.000000 0.000000
# 3 -0.006511 -0.000685 0.019509 0.000000 0.000000 0.000000
# 4 0.000000 0.000000 0.000000 0.031067 0.000000 0.000000
# 5 0.000000 0.000000 0.000000 0.000000 0.038292 0.000000
# 6 0.000000 0.000000 0.000000 0.000000 0.000000 0.029081
#
#
# Mechanical properties :
#
#
# Convention : Reuss Voigt Hill
#
# Bulk Modulus (GPa) = 52.32321 61.26671 56.79496
# Shear Modulus (GPa) = 28.59837 30.25537 29.42687
#
# Velocity S-wave (km/s) = 3.65565 3.76007 3.70823
# Velocity P-wave (km/s) = 6.50144 6.89060 6.69884
#
# Compressibility (1/GPa) = 0.01911198
#
# Stress axis : x y z
#
# Youngs Moduli (GPa) = 75.20301 85.02220 51.25742
#
# Poissons Ratio (x) = 0.47042 0.33371
# Poissons Ratio (y) = 0.41609 0.03510
# Poissons Ratio (z) = 0.48961 0.05822
#
# Static dielectric constant tensor:
#      x y z
#    x 3.948080 0.000000 0.000000 
#    y 0.000000 4.192100 0.000000 
#    z 0.000000 0.000000 3.679530 
# 
# 
# High freq. dielectric constant tensor:
#      x y z
#    x 1.839350 0.000000 0.000000 
#    y 0.000000 1.860050 0.000000 
#    z 0.000000 0.000000 1.825720 
# 
# From -- ./inp_files/10797.got.cif
#   From: 2010.06.25/outbox.cif.g09.slc.cpg/sg52_6_cif.got.tgz:10797.got - 2010.06.26 19:32:48.
