data_PCOD8216503
_publ_section_title
;
Structure prediction by ZEFSAII (Michael W. Deem and Ramdas Pophale) SiO2 
 PCOD8216503
Probable space group: P N N A
;
_chemical_formula_sum "Si O2"
_cell_formula_units_Z 40
_cell_length_a 17.895903
_cell_length_b 8.036074
_cell_length_c 12.656634
_cell_angle_alpha 90.000000
_cell_angle_beta 90.000000
_cell_angle_gamma 90.000000
_cell_volume 1820.185984
_symmetry_space_group_name_H-M "P N N A"
_symmetry_group_IT_number 52
_symmetry_cell_setting 'orthorhombic'
loop_
_space_group_symop_operation_xyz
x,y,z
1/2-x,-y,z
x,1/2-y,1/2-z
1/2-x,1/2+y,1/2-z
-x,-y,-z
1/2+x,y,-z
-x,1/2+y,1/2+z
1/2+x,1/2-y,1/2+z
loop_
_atom_site_type_symbol
_atom_site_label
_atom_site_fract_x
_atom_site_fract_y
_atom_site_fract_z
Si Si1 0.311921 0.621042 0.162260
Si Si2 0.963510 0.567494 0.616531
Si Si3 0.685211 0.124392 0.996164
Si Si4 0.471067 0.560605 0.134134
Si Si5 0.442590 0.742801 0.625511
O O1 0.250000 0.500000 0.211830
O O2 0.342701 0.750000 0.250000
O O3 0.273965 0.727624 0.068206
O O4 0.382923 0.521247 0.115461
O O5 0.876542 0.539787 0.582666
O O6 0.980319 0.553459 0.740170
O O7 0.988074 0.756626 0.583719
O O8 0.013915 0.414516 0.569567
O O9 0.750000 0.000000 0.035383
O O10 0.643890 0.210548 0.096338
O O11 0.524601 0.419537 0.080853
O O12 0.452680 0.750000 0.750000
#
# Coordination Sequence:
#
# PCOD8216503 Si02
#       5
#     8   8   8   8   8
#     4  11  22  36  59  90 132 166 195 252 327 387
#     4   9  18  36  60  91 115 154 196 262 310 364
#     4  11  23  40  57  90 127 160 209 252 309 379
#     4   9  18  36  59  89 120 148 208 248 306 375
#     4  10  22  39  65  86 117 168 213 256 309 357
#
# _framework density 21.975777000000001
#
# number of rings (size 3 to 8) (size 9 to 14) (size 15 to 20)
#    0.000    2.000    4.000    1.200    2.800    4.000 
#    3.600    1.000    4.400    0.000    0.000    0.000 
#    0.000    0.000    0.000    0.000    0.000    0.000 
#
# Total GULP energy -495593.196674 kJ/mol
# GULP energy per Si atom -12389.829917 kJ/mol
# Density = 2.192576 g / cm^3
# Si number density = 21.975777 Si / 1000 Ang^3
#
#
#
# Elastic Constant Matrix: (Units=GPa)
#
#
# Indices 1 2 3 4 5 6 
#
# 1 117.4410 88.2700 33.3817 0.0000 0.0000 0.0000
# 2 88.2700 160.7233 54.7438 0.0000 0.0000 0.0000
# 3 33.3817 54.7438 29.3982 0.0000 0.0000 0.0000
# 4 0.0000 0.0000 0.0000 41.7940 0.0000 0.0000
# 5 0.0000 0.0000 0.0000 0.0000 29.1710 0.0000
# 6 0.0000 0.0000 0.0000 0.0000 0.0000 54.3887
#
#
#
# Elastic Compliance Matrix: (Units=1/GPa)
#
#
# Indices 1 2 3 4 5 6 
#
# 1 0.014719 -0.006537 -0.004540 0.000000 0.000000 0.000000
# 2 -0.006537 0.019916 -0.029663 0.000000 0.000000 0.000000
# 3 -0.004540 -0.029663 0.094407 0.000000 0.000000 0.000000
# 4 0.000000 0.000000 0.000000 0.023927 0.000000 0.000000
# 5 0.000000 0.000000 0.000000 0.000000 0.034281 0.000000
# 6 0.000000 0.000000 0.000000 0.000000 0.000000 0.018386
#
#
# Mechanical properties :
#
#
# Convention : Reuss Voigt Hill
#
# Bulk Modulus (GPa) = 21.02523 73.37260 47.19892
# Shear Modulus (GPa) = 16.50337 33.81521 25.15929
#
# Velocity S-wave (km/s) = 2.74337 3.92695 3.38726
# Velocity P-wave (km/s) = 4.42979 7.34994 6.06814
#
# Compressibility (1/GPa) = 0.04756190
#
# Stress axis : x y z
#
# Youngs Moduli (GPa) = 67.93994 50.21176 10.59246
#
# Poissons Ratio (x) = 0.32826 0.04809
# Poissons Ratio (y) = 0.44415 0.31420
# Poissons Ratio (z) = 0.30842 1.48941
#
# Static dielectric constant tensor:
#      x y z
#    x 3.542550 0.000000 0.000000 
#    y 0.000000 4.458330 0.000000 
#    z 0.000000 0.000000 4.121150 
# 
# 
# High freq. dielectric constant tensor:
#      x y z
#    x 1.827780 0.000000 0.000000 
#    y 0.000000 1.871120 0.000000 
#    z 0.000000 0.000000 1.894740 
# 
# From -- ./inp_files/27874.got.cif
#   From: 2010.06.25/outbox.cif.g09.slc.cpg/sg52_14_cif.got.tgz:27874.got - 2010.06.26 19:32:48.
