data_PCOD8216071
_publ_section_title
;
Structure prediction by ZEFSAII (Michael W. Deem and Ramdas Pophale) SiO2 
 PCOD8216071
Probable space group: P N N A
;
_chemical_formula_sum "Si O2"
_cell_formula_units_Z 40
_cell_length_a 24.005434
_cell_length_b 9.075344
_cell_length_c 9.504455
_cell_angle_alpha 90.000000
_cell_angle_beta 90.000000
_cell_angle_gamma 90.000000
_cell_volume 2070.617484
_symmetry_space_group_name_H-M "P N N A"
_symmetry_group_IT_number 52
_symmetry_cell_setting 'orthorhombic'
loop_
_space_group_symop_operation_xyz
x,y,z
1/2-x,-y,z
x,1/2-y,1/2-z
1/2-x,1/2+y,1/2-z
-x,-y,-z
1/2+x,y,-z
-x,1/2+y,1/2+z
1/2+x,1/2-y,1/2+z
loop_
_atom_site_type_symbol
_atom_site_label
_atom_site_fract_x
_atom_site_fract_y
_atom_site_fract_z
Si Si1 0.906660 0.150296 0.381723
Si Si2 0.074258 0.931323 0.041302
Si Si3 0.475658 0.917694 0.782202
Si Si4 0.304066 0.076965 0.122936
Si Si5 0.196957 0.585788 0.061326
O O1 0.885980 0.250000 0.250000
O O2 0.935633 0.261263 0.492144
O O3 0.854293 0.067342 0.453047
O O4 0.952099 0.027850 0.336686
O O5 0.139364 0.968016 0.046044
O O6 0.042360 0.942997 0.192446
O O7 0.051367 0.050295 0.933096
O O8 0.460631 0.750000 0.750000
O O9 0.290315 0.245655 0.094332
O O10 0.314669 0.021737 0.283092
O O11 0.250000 0.000000 0.056616
O O12 0.250000 0.500000 0.994785
#
# Coordination Sequence:
#
# PCOD8216071 Si02
#       5
#     8   8   8   8   8
#     4   9  19  37  55  76 109 145 178 218 270 327
#     4   9  20  38  55  80 112 142 179 222 272 321
#     4  10  21  35  56  81 109 144 184 222 262 322
#     4   9  18  34  58  79 106 139 174 225 271 315
#     4   9  18  33  55  81 106 139 178 218 269 325
#
# _framework density 19.317907999999999
#
# number of rings (size 3 to 8) (size 9 to 14) (size 15 to 20)
#    0.000    2.800    0.000    0.000    5.600    2.400 
#    0.000   10.000   22.000    0.000    0.000    0.000 
#    0.000    0.000    0.000    0.000    0.000    0.000 
#
# Total GULP energy -495628.923166 kJ/mol
# GULP energy per Si atom -12390.723079 kJ/mol
# Density = 1.927394 g / cm^3
# Si number density = 19.317908 Si / 1000 Ang^3
#
#
#
# Elastic Constant Matrix: (Units=GPa)
#
#
# Indices 1 2 3 4 5 6 
#
# 1 146.7828 66.2038 50.2626 0.0000 0.0000 0.0000
# 2 66.2038 75.7619 31.1712 0.0000 0.0000 0.0000
# 3 50.2626 31.1712 57.6812 0.0000 0.0000 0.0000
# 4 0.0000 0.0000 0.0000 26.2988 0.0000 0.0000
# 5 0.0000 0.0000 0.0000 0.0000 32.7277 0.0000
# 6 0.0000 0.0000 0.0000 0.0000 0.0000 31.0249
#
#
#
# Elastic Compliance Matrix: (Units=1/GPa)
#
#
# Indices 1 2 3 4 5 6 
#
# 1 0.012968 -0.008593 -0.006656 0.000000 0.000000 0.000000
# 2 -0.008593 0.022667 -0.004762 0.000000 0.000000 0.000000
# 3 -0.006656 -0.004762 0.025710 0.000000 0.000000 0.000000
# 4 0.000000 0.000000 0.000000 0.038025 0.000000 0.000000
# 5 0.000000 0.000000 0.000000 0.000000 0.030555 0.000000
# 6 0.000000 0.000000 0.000000 0.000000 0.000000 0.032232
#
#
# Mechanical properties :
#
#
# Convention : Reuss Voigt Hill
#
# Bulk Modulus (GPa) = 46.89709 63.94457 55.42083
# Shear Modulus (GPa) = 23.89062 26.84948 25.37005
#
# Velocity S-wave (km/s) = 3.52050 3.73215 3.62787
# Velocity P-wave (km/s) = 6.39175 7.19340 6.80439
#
# Compressibility (1/GPa) = 0.02132328
#
# Stress axis : x y z
#
# Youngs Moduli (GPa) = 77.11341 44.11612 38.89542
#
# Poissons Ratio (x) = 0.37910 0.25890
# Poissons Ratio (y) = 0.66266 0.18520
# Poissons Ratio (z) = 0.51328 0.21006
#
# Static dielectric constant tensor:
#      x y z
#    x 3.650960 0.000000 0.000000 
#    y 0.000000 3.427580 0.000000 
#    z 0.000000 0.000000 3.606620 
# 
# 
# High freq. dielectric constant tensor:
#      x y z
#    x 1.752850 0.000000 0.000000 
#    y 0.000000 1.740820 0.000000 
#    z 0.000000 0.000000 1.742630 
# 
# From -- ./inp_files/13970.got.cif
#   From: 2010.06.25/outbox.cif.g09.slc.cpg/sg52_7_cif.got.tgz:13970.got - 2010.06.26 19:32:48.
