data_PCOD8216308
_publ_section_title
;
Structure prediction by ZEFSAII (Michael W. Deem and Ramdas Pophale) SiO2 
 PCOD8216308
Probable space group: P N N A
;
_chemical_formula_sum "Si O2"
_cell_formula_units_Z 56
_cell_length_a 19.168345
_cell_length_b 11.128226
_cell_length_c 12.744679
_cell_angle_alpha 90.000000
_cell_angle_beta 90.000000
_cell_angle_gamma 90.000000
_cell_volume 2718.563338
_symmetry_space_group_name_H-M "P N N A"
_symmetry_group_IT_number 52
_symmetry_cell_setting 'orthorhombic'
loop_
_space_group_symop_operation_xyz
x,y,z
1/2-x,-y,z
x,1/2-y,1/2-z
1/2-x,1/2+y,1/2-z
-x,-y,-z
1/2+x,y,-z
-x,1/2+y,1/2+z
1/2+x,1/2-y,1/2+z
loop_
_atom_site_type_symbol
_atom_site_label
_atom_site_fract_x
_atom_site_fract_y
_atom_site_fract_z
Si Si1 0.714776 0.624457 0.807453
Si Si2 0.528027 0.269582 0.025976
Si Si3 0.055283 0.626498 0.195675
Si Si4 0.702319 0.847791 0.450445
Si Si5 0.935181 0.937829 0.184331
Si Si6 0.652229 0.394422 0.115713
Si Si7 0.580870 0.799974 0.133930
O O1 0.750000 0.500000 0.766458
O O2 0.738016 0.750000 0.750000
O O3 0.634520 0.594998 0.785832
O O4 0.727700 0.642752 0.929883
O O5 0.466487 0.353685 0.074991
O O6 0.548004 0.150508 0.089531
O O7 0.599651 0.346347 0.024051
O O8 0.495329 0.233870 0.913726
O O9 0.032802 0.750000 0.250000
O O10 0.006041 0.527334 0.251309
O O11 0.774044 0.823125 0.386327
O O12 0.646517 0.742605 0.435697
O O13 0.665332 0.967468 0.410289
O O14 0.880962 0.879922 0.268225
O O15 0.906236 0.058234 0.133441
O O16 0.585831 0.750000 0.250000
#
# Coordination Sequence:
#
# PCOD8216308 Si02
#       7
#     8   8   8   8   8   8   8
#     4  11  22  43  69  94 131 178 227 274 335 401
#     4  10  21  40  66  90 129 167 217 271 331 393
#     4   8  17  36  65  87 116 167 214 263 324 394
#     4  11  23  43  65  93 133 175 215 267 333 404
#     4  10  21  41  64  98 123 166 220 273 333 391
#     4  10  21  42  68  92 123 172 224 263 324 407
#     4  12  24  39  61  98 134 170 215 273 338 397
#
# _framework density 20.599115000000001
#
# number of rings (size 3 to 8) (size 9 to 14) (size 15 to 20)
#    0.000    1.714    4.286    1.714    0.000    2.857 
#    2.571    0.000    0.000    0.000    0.000    0.000 
#    0.000    0.000    0.000    0.000    0.000    0.000 
#
# Total GULP energy -693925.760373 kJ/mol
# GULP energy per Si atom -12391.531435 kJ/mol
# Density = 2.055223 g / cm^3
# Si number density = 20.599115 Si / 1000 Ang^3
#
#
#
# Elastic Constant Matrix: (Units=GPa)
#
#
# Indices 1 2 3 4 5 6 
#
# 1 127.3960 53.7829 28.0761 0.0000 0.0000 0.0000
# 2 53.7829 95.0984 15.9204 0.0000 0.0000 0.0000
# 3 28.0761 15.9204 60.3340 0.0000 0.0000 0.0000
# 4 0.0000 0.0000 0.0000 24.5975 0.0000 0.0000
# 5 0.0000 0.0000 0.0000 0.0000 23.7042 0.0000
# 6 0.0000 0.0000 0.0000 0.0000 0.0000 33.7480
#
#
#
# Elastic Compliance Matrix: (Units=1/GPa)
#
#
# Indices 1 2 3 4 5 6 
#
# 1 0.011029 -0.005627 -0.003647 0.000000 0.000000 0.000000
# 2 -0.005627 0.013872 -0.001042 0.000000 0.000000 0.000000
# 3 -0.003647 -0.001042 0.018547 0.000000 0.000000 0.000000
# 4 0.000000 0.000000 0.000000 0.040654 0.000000 0.000000
# 5 0.000000 0.000000 0.000000 0.000000 0.042187 0.000000
# 6 0.000000 0.000000 0.000000 0.000000 0.000000 0.029631
#
#
# Mechanical properties :
#
#
# Convention : Reuss Voigt Hill
#
# Bulk Modulus (GPa) = 43.83069 53.15412 48.49240
# Shear Modulus (GPa) = 27.15067 28.74657 27.94862
#
# Velocity S-wave (km/s) = 3.63443 3.73972 3.68746
# Velocity P-wave (km/s) = 6.23990 6.67139 6.45925
#
# Compressibility (1/GPa) = 0.02281507
#
# Stress axis : x y z
#
# Youngs Moduli (GPa) = 90.67148 72.08729 53.91794
#
# Poissons Ratio (x) = 0.40562 0.19666
# Poissons Ratio (y) = 0.51018 0.05619
# Poissons Ratio (z) = 0.33072 0.07512
#
# Static dielectric constant tensor:
#      x y z
#    x 3.910610 0.000000 0.000000 
#    y 0.000000 3.748530 0.000000 
#    z 0.000000 0.000000 3.677090 
# 
# 
# High freq. dielectric constant tensor:
#      x y z
#    x 1.813080 0.000000 0.000000 
#    y 0.000000 1.798850 0.000000 
#    z 0.000000 0.000000 1.792780 
# 
# From -- ./inp_files/21685.got.cif
#   From: 2010.06.25/outbox.cif.g09.slc.cpg/sg52_11_cif.got.tgz:21685.got - 2010.06.26 19:32:48.
