data_PCOD8216355
_publ_section_title
;
Structure prediction by ZEFSAII (Michael W. Deem and Ramdas Pophale) SiO2 
 PCOD8216355
Probable space group: P N N A
;
_chemical_formula_sum "Si O2"
_cell_formula_units_Z 52
_cell_length_a 5.143034
_cell_length_b 27.692417
_cell_length_c 17.166357
_cell_angle_alpha 90.000000
_cell_angle_beta 90.000000
_cell_angle_gamma 90.000000
_cell_volume 2444.884787
_symmetry_space_group_name_H-M "P N N A"
_symmetry_group_IT_number 52
_symmetry_cell_setting 'orthorhombic'
loop_
_space_group_symop_operation_xyz
x,y,z
1/2-x,-y,z
x,1/2-y,1/2-z
1/2-x,1/2+y,1/2-z
-x,-y,-z
1/2+x,y,-z
-x,1/2+y,1/2+z
1/2+x,1/2-y,1/2+z
loop_
_atom_site_type_symbol
_atom_site_label
_atom_site_fract_x
_atom_site_fract_y
_atom_site_fract_z
Si Si1 0.459198 0.822670 0.675508
Si Si2 0.323476 0.657439 0.302769
Si Si3 0.750000 0.500000 0.243788
Si Si4 0.328998 0.904541 0.051687
Si Si5 0.285364 0.642000 0.053027
Si Si6 0.250000 0.000000 0.151228
Si Si7 0.624871 0.750000 0.250000
Si Si8 0.072343 0.595967 0.825195
O O1 0.540393 0.837486 0.763523
O O2 0.715498 0.816761 0.619292
O O3 0.300609 0.773015 0.681057
O O4 0.284246 0.866155 0.640640
O O5 0.293619 0.641730 0.392075
O O6 0.457950 0.709465 0.293710
O O7 0.478284 0.614586 0.258990
O O8 0.499600 0.488032 0.295942
O O9 0.805882 0.456299 0.185059
O O10 0.304825 0.954347 0.097684
O O11 0.614761 0.901914 0.015346
O O12 0.338206 0.595039 0.109552
O O13 0.544133 0.646218 0.003877
#
# Coordination Sequence:
#
# PCOD8216355 Si02
#       8
#     8   8   4   8   8   4   4   8
#     4  10  21  41  71  94 130 176 222 279 337 413
#     4  10  22  42  66  99 131 180 230 286 341 403
#     4  12  24  39  70 103 128 178 242 286 316 395
#     4  12  26  43  67  99 146 187 226 285 347 409
#     4  11  22  41  66  96 132 171 215 270 339 405
#     4  12  24  43  66  99 142 190 238 284 326 413
#     4  10  22  40  72  98 130 168 240 284 346 406
#     4  10  22  40  68  96 131 177 227 281 329 394
#
# _framework density 21.268896999999999
#
# number of rings (size 3 to 8) (size 9 to 14) (size 15 to 20)
#    0.000    1.231    3.077    2.769    6.462    0.000 
#    0.000    2.308    0.000    0.000    0.000    0.000 
#    0.000    0.000    0.000    0.000    0.000    0.000 
#
# Total GULP energy -644228.238159 kJ/mol
# GULP energy per Si atom -12389.004580 kJ/mol
# Density = 2.122049 g / cm^3
# Si number density = 21.268897 Si / 1000 Ang^3
#
#
#
# Elastic Constant Matrix: (Units=GPa)
#
#
# Indices 1 2 3 4 5 6 
#
# 1 105.8337 32.0429 35.1988 0.0000 0.0000 0.0000
# 2 32.0429 129.4708 48.9601 0.0000 0.0000 0.0000
# 3 35.1988 48.9601 80.0608 0.0000 0.0000 0.0000
# 4 0.0000 0.0000 0.0000 8.2918 0.0000 0.0000
# 5 0.0000 0.0000 0.0000 0.0000 46.5692 0.0000
# 6 0.0000 0.0000 0.0000 0.0000 0.0000 20.4646
#
#
#
# Elastic Compliance Matrix: (Units=1/GPa)
#
#
# Indices 1 2 3 4 5 6 
#
# 1 0.011205 -0.001184 -0.004202 0.000000 0.000000 0.000000
# 2 -0.001184 0.010172 -0.005700 0.000000 0.000000 0.000000
# 3 -0.004202 -0.005700 0.017824 0.000000 0.000000 0.000000
# 4 0.000000 0.000000 0.000000 0.120600 0.000000 0.000000
# 5 0.000000 0.000000 0.000000 0.000000 0.021473 0.000000
# 6 0.000000 0.000000 0.000000 0.000000 0.000000 0.048865
#
#
# Mechanical properties :
#
#
# Convention : Reuss Voigt Hill
#
# Bulk Modulus (GPa) = 58.72574 60.86320 59.79447
# Shear Modulus (GPa) = 19.38070 28.34271 23.86170
#
# Velocity S-wave (km/s) = 3.02192 3.65443 3.35312
# Velocity P-wave (km/s) = 6.31245 6.81796 6.57007
#
# Compressibility (1/GPa) = 0.01702831
#
# Stress axis : x y z
#
# Youngs Moduli (GPa) = 89.24712 98.30568 56.10456
#
# Poissons Ratio (x) = 0.11640 0.23576
# Poissons Ratio (y) = 0.10567 0.31981
# Poissons Ratio (z) = 0.37503 0.56036
#
# Static dielectric constant tensor:
#      x y z
#    x 4.389690 0.000000 0.000000 
#    y 0.000000 3.719670 0.000000 
#    z 0.000000 0.000000 4.106990 
# 
# 
# High freq. dielectric constant tensor:
#      x y z
#    x 1.858850 0.000000 0.000000 
#    y 0.000000 1.807090 0.000000 
#    z 0.000000 0.000000 1.835680 
# 
# From -- ./inp_files/30341.got.cif
#   From: 2010.06.25/outbox.cif.g09.slc.cpg/sg52_16_cif.got.tgz:30341.got - 2010.06.26 19:32:48.
