data_PCOD8216499
_publ_section_title
;
Structure prediction by ZEFSAII (Michael W. Deem and Ramdas Pophale) SiO2 
 PCOD8216499
Probable space group: P N N A
;
_chemical_formula_sum "Si O2"
_cell_formula_units_Z 60
_cell_length_a 24.296041
_cell_length_b 8.197450
_cell_length_c 14.089944
_cell_angle_alpha 90.000000
_cell_angle_beta 90.000000
_cell_angle_gamma 90.000000
_cell_volume 2806.231887
_symmetry_space_group_name_H-M "P N N A"
_symmetry_group_IT_number 52
_symmetry_cell_setting 'orthorhombic'
loop_
_space_group_symop_operation_xyz
x,y,z
1/2-x,-y,z
x,1/2-y,1/2-z
1/2-x,1/2+y,1/2-z
-x,-y,-z
1/2+x,y,-z
-x,1/2+y,1/2+z
1/2+x,1/2-y,1/2+z
loop_
_atom_site_type_symbol
_atom_site_label
_atom_site_fract_x
_atom_site_fract_y
_atom_site_fract_z
Si Si1 0.799299 0.727208 0.354274
Si Si2 0.804107 0.073316 0.708132
Si Si3 0.069287 0.277061 0.441251
Si Si4 0.384257 0.962529 0.580901
Si Si5 0.456542 0.265921 0.855577
Si Si6 0.873557 0.750000 0.750000
Si Si7 0.632074 0.963145 0.063674
Si Si8 0.796805 0.195540 0.499715
O O1 0.771408 0.750000 0.250000
O O2 0.857474 0.823690 0.353844
O O3 0.819793 0.542943 0.371666
O O4 0.760073 0.781429 0.441339
O O5 0.824351 0.250000 0.750000
O O6 0.786012 0.112517 0.600312
O O7 0.750000 0.000000 0.760756
O O8 0.844081 0.917901 0.716574
O O9 0.092123 0.106839 0.481687
O O10 0.090554 0.311146 0.336645
O O11 0.090372 0.419293 0.509356
O O12 0.002958 0.273329 0.434495
O O13 0.435414 0.048624 0.632803
O O14 0.334433 0.083705 0.564581
O O15 0.481041 0.250000 0.750000
O O16 0.404881 0.146600 0.867865
O O17 0.667895 0.861587 0.986486
#
# Coordination Sequence:
#
# PCOD8216499 Si02
#       8
#     8   8   8   8   8   4   8   8
#     4  11  23  40  64  95 131 174 217 267 332 405
#     4  12  25  41  65  98 134 179 225 278 341 410
#     4  11  22  43  65  90 124 172 218 277 339 395
#     4  10  22  39  63  89 129 164 210 269 329 393
#     4  11  22  40  65  93 123 169 222 271 336 404
#     4  12  24  44  70  98 134 176 232 280 340 408
#     4  10  24  40  63  93 129 167 216 275 336 401
#     4  11  23  40  61  91 129 168 213 266 335 400
#
# _framework density 21.380983000000001
#
# number of rings (size 3 to 8) (size 9 to 14) (size 15 to 20)
#    0.000    1.067    2.667    4.000    1.867    5.333 
#    0.000    0.000    0.000    0.000    0.000    0.000 
#    0.000    0.000    0.000    0.000    0.000    0.000 
#
# Total GULP energy -743382.932069 kJ/mol
# GULP energy per Si atom -12389.715534 kJ/mol
# Density = 2.133232 g / cm^3
# Si number density = 21.380983 Si / 1000 Ang^3
#
#
#
# Elastic Constant Matrix: (Units=GPa)
#
#
# Indices 1 2 3 4 5 6 
#
# 1 97.5858 40.0828 25.8018 0.0000 0.0000 0.0000
# 2 40.0828 113.8137 26.1531 0.0000 0.0000 0.0000
# 3 25.8018 26.1531 100.4141 0.0000 0.0000 0.0000
# 4 0.0000 0.0000 0.0000 27.5458 0.0000 0.0000
# 5 0.0000 0.0000 0.0000 0.0000 33.5409 0.0000
# 6 0.0000 0.0000 0.0000 0.0000 0.0000 22.6028
#
#
#
# Elastic Compliance Matrix: (Units=1/GPa)
#
#
# Indices 1 2 3 4 5 6 
#
# 1 0.012414 -0.003871 -0.002182 0.000000 0.000000 0.000000
# 2 -0.003871 0.010552 -0.001754 0.000000 0.000000 0.000000
# 3 -0.002182 -0.001754 0.010976 0.000000 0.000000 0.000000
# 4 0.000000 0.000000 0.000000 0.036303 0.000000 0.000000
# 5 0.000000 0.000000 0.000000 0.000000 0.029814 0.000000
# 6 0.000000 0.000000 0.000000 0.000000 0.000000 0.044242
#
#
# Mechanical properties :
#
#
# Convention : Reuss Voigt Hill
#
# Bulk Modulus (GPa) = 54.55454 55.09878 54.82666
# Shear Modulus (GPa) = 30.11593 31.38962 30.75277
#
# Velocity S-wave (km/s) = 3.75712 3.83575 3.79664
# Velocity P-wave (km/s) = 6.66274 6.74116 6.70206
#
# Compressibility (1/GPa) = 0.01833028
#
# Stress axis : x y z
#
# Youngs Moduli (GPa) = 80.55358 94.76458 91.10659
#
# Poissons Ratio (x) = 0.36680 0.19877
# Poissons Ratio (y) = 0.31179 0.15979
# Poissons Ratio (z) = 0.17575 0.16620
#
# Static dielectric constant tensor:
#      x y z
#    x 3.849140 0.000000 0.000000 
#    y 0.000000 4.318690 0.000000 
#    z 0.000000 0.000000 3.683660 
# 
# 
# High freq. dielectric constant tensor:
#      x y z
#    x 1.838570 0.000000 0.000000 
#    y 0.000000 1.855460 0.000000 
#    z 0.000000 0.000000 1.828310 
# 
# From -- ./inp_files/29195.got.cif
#   From: 2010.06.25/outbox.cif.g09.slc.cpg/sg52_15_cif.got.tgz:29195.got - 2010.06.26 19:32:48.
