data_PCOD8216580
_publ_section_title
;
Structure prediction by ZEFSAII (Michael W. Deem and Ramdas Pophale) SiO2 
 PCOD8216580
Probable space group: P N N A
;
_chemical_formula_sum "Si O2"
_cell_formula_units_Z 40
_cell_length_a 8.084823
_cell_length_b 18.522005
_cell_length_c 12.024882
_cell_angle_alpha 90.000000
_cell_angle_beta 90.000000
_cell_angle_gamma 90.000000
_cell_volume 1800.691593
_symmetry_space_group_name_H-M "P N N A"
_symmetry_group_IT_number 52
_symmetry_cell_setting 'orthorhombic'
loop_
_space_group_symop_operation_xyz
x,y,z
1/2-x,-y,z
x,1/2-y,1/2-z
1/2-x,1/2+y,1/2-z
-x,-y,-z
1/2+x,y,-z
-x,1/2+y,1/2+z
1/2+x,1/2-y,1/2+z
loop_
_atom_site_type_symbol
_atom_site_label
_atom_site_fract_x
_atom_site_fract_y
_atom_site_fract_z
Si Si1 0.485602 0.461397 0.855358
Si Si2 0.836504 0.092983 0.570527
Si Si3 0.070619 0.340226 0.533353
Si Si4 0.649687 0.930765 0.112997
Si Si5 0.214726 0.752340 0.123261
O O1 0.654879 0.419629 0.880427
O O2 0.523997 0.547485 0.861819
O O3 0.417097 0.443206 0.735632
O O4 0.346938 0.435126 0.943187
O O5 0.866625 0.177957 0.580236
O O6 0.224385 0.363075 0.610404
O O7 0.127360 0.276713 0.449156
O O8 0.004169 0.410651 0.466373
O O9 0.928239 0.312141 0.614526
O O10 0.750000 0.000000 0.068704
O O11 0.275251 0.750000 0.250000
#
# Coordination Sequence:
#
# PCOD8216580 Si02
#       5
#     8   8   8   8   8
#     4  10  23  39  69  96 132 169 213 263 327 374
#     4  10  22  41  64 101 134 165 215 266 316 388
#     4  10  25  44  63  99 123 172 221 261 322 389
#     4  11  24  44  68  91 129 169 216 273 321 377
#     4  11  23  41  68  90 135 169 213 263 323 384
#
# _framework density 22.213688000000001
#
# number of rings (size 3 to 8) (size 9 to 14) (size 15 to 20)
#    0.000    1.600    0.000    3.000    8.400    1.600 
#    7.200    4.000    0.000    0.000    0.000    0.000 
#    0.000    0.000    0.000    0.000    0.000    0.000 
#
# Total GULP energy -495999.014085 kJ/mol
# GULP energy per Si atom -12399.975352 kJ/mol
# Density = 2.216313 g / cm^3
# Si number density = 22.213688 Si / 1000 Ang^3
#
#
#
# Elastic Constant Matrix: (Units=GPa)
#
#
# Indices 1 2 3 4 5 6 
#
# 1 93.6446 29.1646 40.1519 0.0000 0.0000 0.0000
# 2 29.1646 124.5136 51.8151 0.0000 0.0000 0.0000
# 3 40.1519 51.8151 102.6912 0.0000 0.0000 0.0000
# 4 0.0000 0.0000 0.0000 29.3199 0.0000 0.0000
# 5 0.0000 0.0000 0.0000 0.0000 29.1768 0.0000
# 6 0.0000 0.0000 0.0000 0.0000 0.0000 26.7026
#
#
#
# Elastic Compliance Matrix: (Units=1/GPa)
#
#
# Indices 1 2 3 4 5 6 
#
# 1 0.012964 -0.001174 -0.004477 0.000000 0.000000 0.000000
# 2 -0.001174 0.010272 -0.004724 0.000000 0.000000 0.000000
# 3 -0.004477 -0.004724 0.013872 0.000000 0.000000 0.000000
# 4 0.000000 0.000000 0.000000 0.034107 0.000000 0.000000
# 5 0.000000 0.000000 0.000000 0.000000 0.034274 0.000000
# 6 0.000000 0.000000 0.000000 0.000000 0.000000 0.037449
#
#
# Mechanical properties :
#
#
# Convention : Reuss Voigt Hill
#
# Bulk Modulus (GPa) = 61.12833 62.56807 61.84820
# Shear Modulus (GPa) = 29.56152 30.35440 29.95796
#
# Velocity S-wave (km/s) = 3.65194 3.70059 3.67635
# Velocity P-wave (km/s) = 6.73501 6.81812 6.77669
#
# Compressibility (1/GPa) = 0.01635903
#
# Stress axis : x y z
#
# Youngs Moduli (GPa) = 77.13918 97.35184 72.08811
#
# Poissons Ratio (x) = 0.11425 0.32271
# Poissons Ratio (y) = 0.09053 0.34055
# Poissons Ratio (z) = 0.34532 0.45990
#
# Static dielectric constant tensor:
#      x y z
#    x 4.122090 0.000000 0.000000 
#    y 0.000000 4.199290 0.000000 
#    z 0.000000 0.000000 3.750770 
# 
# 
# High freq. dielectric constant tensor:
#      x y z
#    x 1.886050 0.000000 0.000000 
#    y 0.000000 1.879950 0.000000 
#    z 0.000000 0.000000 1.862300 
# 
# From -- ./inp_files/16634.got.cif
#   From: 2010.06.25/outbox.cif.g09.slc.cpg/sg52_9_cif.got.tgz:16634.got - 2010.06.26 19:32:48.
