data_PCOD8216437
_publ_section_title
;
Structure prediction by ZEFSAII (Michael W. Deem and Ramdas Pophale) SiO2 
 PCOD8216437
Probable space group: P N N A
;
_chemical_formula_sum "Si O2"
_cell_formula_units_Z 60
_cell_length_a 5.242187
_cell_length_b 31.536564
_cell_length_c 18.520413
_cell_angle_alpha 90.000000
_cell_angle_beta 90.000000
_cell_angle_gamma 90.000000
_cell_volume 3061.805156
_symmetry_space_group_name_H-M "P N N A"
_symmetry_group_IT_number 52
_symmetry_cell_setting 'orthorhombic'
loop_
_space_group_symop_operation_xyz
x,y,z
1/2-x,-y,z
x,1/2-y,1/2-z
1/2-x,1/2+y,1/2-z
-x,-y,-z
1/2+x,y,-z
-x,1/2+y,1/2+z
1/2+x,1/2-y,1/2+z
loop_
_atom_site_type_symbol
_atom_site_label
_atom_site_fract_x
_atom_site_fract_y
_atom_site_fract_z
Si Si1 0.089550 0.250000 0.750000
Si Si2 0.675754 0.280655 0.957228
Si Si3 0.077686 0.814873 0.677315
Si Si4 0.963966 0.883858 0.315957
Si Si5 0.785920 0.327786 0.700730
Si Si6 0.009945 0.974253 0.356090
Si Si7 0.320251 0.406747 0.044551
Si Si8 0.816106 0.819649 0.958315
O O1 0.237401 0.225682 0.685691
O O2 0.929417 0.283011 0.702729
O O3 0.643496 0.302553 0.879167
O O4 0.677261 0.230541 0.948176
O O5 0.440293 0.296238 0.007663
O O6 0.214698 0.858800 0.656243
O O7 0.977321 0.821691 0.758051
O O8 0.920108 0.934529 0.305395
O O9 0.057881 0.864968 0.240400
O O10 0.164586 0.877909 0.382546
O O11 0.727671 0.341598 0.619120
O O12 0.126310 0.955670 0.431353
O O13 0.750000 0.000000 0.370319
O O14 0.250000 0.000000 0.320648
O O15 0.545093 0.396500 0.987764
O O16 0.586234 0.834886 0.009913
#
# Coordination Sequence:
#
# PCOD8216437 Si02
#       8
#     4   8   8   8   8   8   8   8
#     4  10  22  36  56  90 102 164 210 236 302 356
#     4  10  23  37  55  81 115 155 205 253 293 338
#     4  11  23  38  59  79 120 160 209 243 306 351
#     4   9  26  37  58  88 116 161 204 250 302 354
#     4  11  23  40  62  80 123 151 202 252 300 371
#     4  10  22  40  63  87 122 159 208 255 299 358
#     4  10  22  38  59  86 122 162 210 253 297 347
#     4  10  23  39  61  87 111 147 197 248 306 354
#
# _framework density 19.596281999999999
#
# number of rings (size 3 to 8) (size 9 to 14) (size 15 to 20)
#    0.800    1.067    0.000    2.800   16.800    2.667 
#    0.000    0.000    0.000    0.000    0.000    0.000 
#    0.000    3.200    0.000    0.000    0.000    0.000 
#
# Total GULP energy -743501.893512 kJ/mol
# GULP energy per Si atom -12391.698225 kJ/mol
# Density = 1.955168 g / cm^3
# Si number density = 19.596282 Si / 1000 Ang^3
#
#
#
# Elastic Constant Matrix: (Units=GPa)
#
#
# Indices 1 2 3 4 5 6 
#
# 1 62.6982 30.8915 6.0674 0.0000 0.0000 0.0000
# 2 30.8915 47.9574 30.0609 0.0000 0.0000 0.0000
# 3 6.0674 30.0609 102.7741 0.0000 0.0000 0.0000
# 4 0.0000 0.0000 0.0000 5.7820 0.0000 0.0000
# 5 0.0000 0.0000 0.0000 0.0000 6.2271 0.0000
# 6 0.0000 0.0000 0.0000 0.0000 0.0000 3.3821
#
#
#
# Elastic Compliance Matrix: (Units=1/GPa)
#
#
# Indices 1 2 3 4 5 6 
#
# 1 0.024574 -0.018270 0.003893 0.000000 0.000000 0.000000
# 2 -0.018270 0.039116 -0.010363 0.000000 0.000000 0.000000
# 3 0.003893 -0.010363 0.012531 0.000000 0.000000 0.000000
# 4 0.000000 0.000000 0.000000 0.172952 0.000000 0.000000
# 5 0.000000 0.000000 0.000000 0.000000 0.160588 0.000000
# 6 0.000000 0.000000 0.000000 0.000000 0.000000 0.295677
#
#
# Mechanical properties :
#
#
# Convention : Reuss Voigt Hill
#
# Bulk Modulus (GPa) = 37.39331 38.60772 38.00052
# Shear Modulus (GPa) = 6.54596 12.83889 9.69242
#
# Velocity S-wave (km/s) = 1.82966 2.56240 2.22638
# Velocity P-wave (km/s) = 4.85663 5.33843 5.10322
#
# Compressibility (1/GPa) = 0.02674275
#
# Stress axis : x y z
#
# Youngs Moduli (GPa) = 40.69322 25.56525 79.80046
#
# Poissons Ratio (x) = 0.46707 -0.31066
# Poissons Ratio (y) = 0.74345 0.82694
# Poissons Ratio (z) = -0.15842 0.26492
#
# Static dielectric constant tensor:
#      x y z
#    x 3.697430 0.000000 0.000000 
#    y 0.000000 3.424180 0.000000 
#    z 0.000000 0.000000 3.382730 
# 
# 
# High freq. dielectric constant tensor:
#      x y z
#    x 1.780630 0.000000 0.000000 
#    y 0.000000 1.734620 0.000000 
#    z 0.000000 0.000000 1.739620 
# 
# From -- ./inp_files/30385.got.cif
#   From: 2010.06.25/outbox.cif.g09.slc.cpg/sg52_16_cif.got.tgz:30385.got - 2010.06.26 19:32:48.
