data_PCOD8216586
_publ_section_title
;
Structure prediction by ZEFSAII (Michael W. Deem and Ramdas Pophale) SiO2 
 PCOD8216586
Probable space group: P N N A
;
_chemical_formula_sum "Si O2"
_cell_formula_units_Z 48
_cell_length_a 27.579432
_cell_length_b 9.740640
_cell_length_c 8.185990
_cell_angle_alpha 90.000000
_cell_angle_beta 90.000000
_cell_angle_gamma 90.000000
_cell_volume 2199.095147
_symmetry_space_group_name_H-M "P N N A"
_symmetry_group_IT_number 52
_symmetry_cell_setting 'orthorhombic'
loop_
_space_group_symop_operation_xyz
x,y,z
1/2-x,-y,z
x,1/2-y,1/2-z
1/2-x,1/2+y,1/2-z
-x,-y,-z
1/2+x,y,-z
-x,1/2+y,1/2+z
1/2+x,1/2-y,1/2+z
loop_
_atom_site_type_symbol
_atom_site_label
_atom_site_fract_x
_atom_site_fract_y
_atom_site_fract_z
Si Si1 0.851818 0.462569 0.747747
Si Si2 0.469088 0.905784 0.735965
Si Si3 0.061045 0.596357 0.049530
Si Si4 0.229356 0.642053 0.041412
Si Si5 0.912141 0.116229 0.064488
Si Si6 0.165370 0.750000 0.750000
Si Si7 0.190850 0.250000 0.250000
O O1 0.883662 0.432644 0.906881
O O2 0.800881 0.388176 0.790205
O O3 0.880053 0.401585 0.595928
O O4 0.844197 0.622800 0.717764
O O5 0.449409 0.750000 0.750000
O O6 0.527977 0.904492 0.716236
O O7 0.452372 0.970572 0.566334
O O8 0.449851 0.994045 0.891260
O O9 0.056706 0.743036 0.955959
O O10 0.250000 0.500000 0.967858
O O11 0.275601 0.733653 0.089588
O O12 0.198523 0.717745 0.904408
O O13 0.871712 0.125032 0.208579
#
# Coordination Sequence:
#
# PCOD8216586 Si02
#       7
#     8   8   8   8   8   4   4
#     4  11  23  41  70  93 132 179 226 277 335 411
#     4  11  25  43  67 102 140 174 226 280 326 386
#     4  11  24  45  68  96 140 178 222 278 330 403
#     4  10  22  41  64  95 134 170 223 280 341 402
#     4  12  23  43  69  98 131 186 228 264 343 407
#     4  12  22  40  71  94 130 180 221 270 338 414
#     4  10  24  42  61 102 130 170 225 288 340 396
#
# _framework density 21.827159000000002
#
# number of rings (size 3 to 8) (size 9 to 14) (size 15 to 20)
#    0.000    1.000    3.333    2.500    2.333    4.000 
#    3.000    0.000    0.000    0.000    0.000    0.000 
#    0.000    0.000    0.000    0.000    0.000    0.000 
#
# Total GULP energy -595022.896033 kJ/mol
# GULP energy per Si atom -12396.310334 kJ/mol
# Density = 2.177748 g / cm^3
# Si number density = 21.827159 Si / 1000 Ang^3
#
#
#
# Elastic Constant Matrix: (Units=GPa)
#
#
# Indices 1 2 3 4 5 6 
#
# 1 84.2834 44.7449 23.4501 0.0000 0.0000 0.0000
# 2 44.7449 161.0866 32.3122 0.0000 0.0000 0.0000
# 3 23.4501 32.3122 72.3975 0.0000 0.0000 0.0000
# 4 0.0000 0.0000 0.0000 31.6159 0.0000 0.0000
# 5 0.0000 0.0000 0.0000 0.0000 3.0016 0.0000
# 6 0.0000 0.0000 0.0000 0.0000 0.0000 33.3621
#
#
#
# Elastic Compliance Matrix: (Units=1/GPa)
#
#
# Indices 1 2 3 4 5 6 
#
# 1 0.014561 -0.003403 -0.003198 0.000000 0.000000 0.000000
# 2 -0.003403 0.007614 -0.002296 0.000000 0.000000 0.000000
# 3 -0.003198 -0.002296 0.015873 0.000000 0.000000 0.000000
# 4 0.000000 0.000000 0.000000 0.031630 0.000000 0.000000
# 5 0.000000 0.000000 0.000000 0.000000 0.333152 0.000000
# 6 0.000000 0.000000 0.000000 0.000000 0.000000 0.029974
#
#
# Mechanical properties :
#
#
# Convention : Reuss Voigt Hill
#
# Bulk Modulus (GPa) = 49.37132 57.64243 53.50687
# Shear Modulus (GPa) = 10.93258 28.07993 19.50625
#
# Velocity S-wave (km/s) = 2.24044 3.59063 2.99267
# Velocity P-wave (km/s) = 5.41859 6.60727 6.04223
#
# Compressibility (1/GPa) = 0.02025468
#
# Stress axis : x y z
#
# Youngs Moduli (GPa) = 68.67603 131.34276 63.00013
#
# Poissons Ratio (x) = 0.44699 0.20144
# Poissons Ratio (y) = 0.23372 0.14463
# Poissons Ratio (z) = 0.21959 0.30153
#
# Static dielectric constant tensor:
#      x y z
#    x 4.252890 0.000000 0.000000 
#    y 0.000000 4.270030 0.000000 
#    z 0.000000 0.000000 3.823780 
# 
# 
# High freq. dielectric constant tensor:
#      x y z
#    x 1.869350 0.000000 0.000000 
#    y 0.000000 1.858220 0.000000 
#    z 0.000000 0.000000 1.852010 
# 
# From -- ./inp_files/15583.got.cif
#   From: 2010.06.25/outbox.cif.g09.slc.cpg/sg52_8_cif.got.tgz:15583.got - 2010.06.26 19:32:48.
