data_PCOD8216025
_publ_section_title
;
Structure prediction by ZEFSAII (Michael W. Deem and Ramdas Pophale) SiO2 
 PCOD8216025
Probable space group: P N N A
;
_chemical_formula_sum "Si O2"
_cell_formula_units_Z 44
_cell_length_a 18.049960
_cell_length_b 14.370348
_cell_length_c 8.623682
_cell_angle_alpha 90.000000
_cell_angle_beta 90.000000
_cell_angle_gamma 90.000000
_cell_volume 2236.846913
_symmetry_space_group_name_H-M "P N N A"
_symmetry_group_IT_number 52
_symmetry_cell_setting 'orthorhombic'
loop_
_space_group_symop_operation_xyz
x,y,z
1/2-x,-y,z
x,1/2-y,1/2-z
1/2-x,1/2+y,1/2-z
-x,-y,-z
1/2+x,y,-z
-x,1/2+y,1/2+z
1/2+x,1/2-y,1/2+z
loop_
_atom_site_type_symbol
_atom_site_label
_atom_site_fract_x
_atom_site_fract_y
_atom_site_fract_z
Si Si1 0.392144 0.750000 0.250000
Si Si2 0.616284 0.520499 0.430688
Si Si3 0.193965 0.103441 0.418349
Si Si4 0.750000 0.500000 0.198052
Si Si5 0.446795 0.250000 0.250000
Si Si6 0.342312 0.427046 0.235890
Si Si7 0.516910 0.354612 0.513014
O O1 0.347525 0.799409 0.391015
O O2 0.440661 0.673131 0.332791
O O3 0.678734 0.527534 0.299180
O O4 0.656402 0.527833 0.594994
O O5 0.567290 0.426957 0.416283
O O6 0.559437 0.605557 0.418361
O O7 0.259811 0.109420 0.292802
O O8 0.227453 0.089597 0.591498
O O9 0.142011 0.012691 0.383685
O O10 0.399318 0.342349 0.212738
O O11 0.498564 0.268908 0.398754
#
# Coordination Sequence:
#
# PCOD8216025 Si02
#       7
#     4   8   8   4   4   8   8
#     4  12  23  40  58  91 130 168 206 258 306 383
#     4  10  20  42  64  91 118 169 202 260 315 367
#     4  10  22  37  61  93 118 163 207 254 311 357
#     4  10  22  38  68  90 120 154 218 262 304 360
#     4  10  21  38  62  87 118 164 208 250 310 373
#     4   9  18  39  62  83 120 158 202 250 307 376
#     4  10  24  38  62  90 128 163 210 251 318 379
#
# _framework density 19.670545000000001
#
# number of rings (size 3 to 8) (size 9 to 14) (size 15 to 20)
#    0.000    2.182    1.818    1.636    2.545    2.909 
#    0.000    1.818    8.000    0.000    0.000    0.000 
#    0.000    0.000    0.000    0.000    0.000    0.000 
#
# Total GULP energy -545280.917556 kJ/mol
# GULP energy per Si atom -12392.748126 kJ/mol
# Density = 1.962577 g / cm^3
# Si number density = 19.670545 Si / 1000 Ang^3
#
#
#
# Elastic Constant Matrix: (Units=GPa)
#
#
# Indices 1 2 3 4 5 6 
#
# 1 104.9200 35.5764 62.8800 0.0000 0.0000 0.0000
# 2 35.5764 78.2235 41.6009 0.0000 0.0000 0.0000
# 3 62.8800 41.6009 110.6243 0.0000 0.0000 0.0000
# 4 0.0000 0.0000 0.0000 27.6910 0.0000 0.0000
# 5 0.0000 0.0000 0.0000 0.0000 22.7371 0.0000
# 6 0.0000 0.0000 0.0000 0.0000 0.0000 23.6447
#
#
#
# Elastic Compliance Matrix: (Units=1/GPa)
#
#
# Indices 1 2 3 4 5 6 
#
# 1 0.014947 -0.002849 -0.007424 0.000000 0.000000 0.000000
# 2 -0.002849 0.016523 -0.004594 0.000000 0.000000 0.000000
# 3 -0.007424 -0.004594 0.014987 0.000000 0.000000 0.000000
# 4 0.000000 0.000000 0.000000 0.036113 0.000000 0.000000
# 5 0.000000 0.000000 0.000000 0.000000 0.043981 0.000000
# 6 0.000000 0.000000 0.000000 0.000000 0.000000 0.042293
#
#
# Mechanical properties :
#
#
# Convention : Reuss Voigt Hill
#
# Bulk Modulus (GPa) = 59.80290 63.76471 61.78380
# Shear Modulus (GPa) = 24.49146 25.06193 24.77670
#
# Velocity S-wave (km/s) = 3.53240 3.57330 3.55291
# Velocity P-wave (km/s) = 6.86334 7.03643 6.95042
#
# Compressibility (1/GPa) = 0.01672160
#
# Stress axis : x y z
#
# Youngs Moduli (GPa) = 66.90406 60.52184 66.72337
#
# Poissons Ratio (x) = 0.17245 0.49538
# Poissons Ratio (y) = 0.19064 0.30652
# Poissons Ratio (z) = 0.49672 0.27803
#
# Static dielectric constant tensor:
#      x y z
#    x 3.656020 0.000000 0.000000 
#    y 0.000000 3.601520 0.000000 
#    z 0.000000 0.000000 3.487450 
# 
# 
# High freq. dielectric constant tensor:
#      x y z
#    x 1.772220 0.000000 0.000000 
#    y 0.000000 1.762100 0.000000 
#    z 0.000000 0.000000 1.756850 
# 
# From -- ./inp_files/11997.got.cif
#   From: 2010.06.25/outbox.cif.g09.slc.cpg/sg52_6_cif.got.tgz:11997.got - 2010.06.26 19:32:48.
