data_PCOD8216781
_publ_section_title
;
Structure prediction by ZEFSAII (Michael W. Deem and Ramdas Pophale) SiO2 
 PCOD8216781
Probable space group: P N N A
;
_chemical_formula_sum "Si O2"
_cell_formula_units_Z 40
_cell_length_a 18.668947
_cell_length_b 5.812887
_cell_length_c 17.413542
_cell_angle_alpha 90.000000
_cell_angle_beta 90.000000
_cell_angle_gamma 90.000000
_cell_volume 1889.725924
_symmetry_space_group_name_H-M "P N N A"
_symmetry_group_IT_number 52
_symmetry_cell_setting 'orthorhombic'
loop_
_space_group_symop_operation_xyz
x,y,z
1/2-x,-y,z
x,1/2-y,1/2-z
1/2-x,1/2+y,1/2-z
-x,-y,-z
1/2+x,y,-z
-x,1/2+y,1/2+z
1/2+x,1/2-y,1/2+z
loop_
_atom_site_type_symbol
_atom_site_label
_atom_site_fract_x
_atom_site_fract_y
_atom_site_fract_z
Si Si1 0.084290 0.375205 0.068186
Si Si2 0.666853 0.502017 0.789243
Si Si3 0.674692 0.394306 0.178078
Si Si4 0.425058 0.181475 0.582868
Si Si5 0.326300 0.915078 0.967234
O O1 0.119940 0.525182 0.134311
O O2 0.008919 0.270788 0.098121
O O3 0.077613 0.523389 0.991623
O O4 0.137779 0.170708 0.045742
O O5 0.750000 0.500000 0.810285
O O6 0.647518 0.250000 0.750000
O O7 0.648490 0.750000 0.750000
O O8 0.750000 0.500000 0.205821
O O9 0.645134 0.250000 0.250000
O O10 0.610826 0.570811 0.158638
O O11 0.692017 0.263957 0.099425
O O12 0.381907 0.411773 0.570075
O O13 0.250000 0.000000 0.996718
#
# Coordination Sequence:
#
# PCOD8216781 Si02
#       5
#     8   8   8   8   8
#     4  10  24  41  66  93 129 169 209 281 333 394
#     4  10  24  44  67  99 132 172 227 278 335 406
#     4  11  23  39  60  93 130 174 216 268 324 390
#     4  10  23  43  61  96 129 165 219 266 331 401
#     4  11  22  38  67  95 124 168 222 270 329 404
#
# _framework density 21.167090999999999
#
# number of rings (size 3 to 8) (size 9 to 14) (size 15 to 20)
#    0.000    1.600    2.000    1.200    5.600    1.600 
#    3.600    0.000    0.000    0.000    0.000    0.000 
#    0.000    0.000    0.000    0.000    0.000    0.000 
#
# Total GULP energy -495635.941402 kJ/mol
# GULP energy per Si atom -12390.898535 kJ/mol
# Density = 2.111891 g / cm^3
# Si number density = 21.167091 Si / 1000 Ang^3
#
#
#
# Elastic Constant Matrix: (Units=GPa)
#
#
# Indices 1 2 3 4 5 6 
#
# 1 135.0135 41.3220 64.5472 0.0000 0.0000 0.0000
# 2 41.3220 101.5880 28.6869 0.0000 0.0000 0.0000
# 3 64.5472 28.6869 86.1869 0.0000 0.0000 0.0000
# 4 0.0000 0.0000 0.0000 33.7402 0.0000 0.0000
# 5 0.0000 0.0000 0.0000 0.0000 -15.0946 0.0000
# 6 0.0000 0.0000 0.0000 0.0000 0.0000 21.3064
#
#
#
# Elastic Compliance Matrix: (Units=1/GPa)
#
#
# Indices 1 2 3 4 5 6 
#
# 1 0.012136 -0.002616 -0.008219 0.000000 0.000000 0.000000
# 2 -0.002616 0.011429 -0.001845 0.000000 0.000000 0.000000
# 3 -0.008219 -0.001845 0.018372 0.000000 0.000000 0.000000
# 4 0.000000 0.000000 0.000000 0.029638 0.000000 0.000000
# 5 0.000000 0.000000 0.000000 0.000000 -0.066249 0.000000
# 6 0.000000 0.000000 0.000000 0.000000 0.000000 0.046934
#
#
# Mechanical properties :
#
#
# Convention : Reuss Voigt Hill
#
# Bulk Modulus (GPa) = 60.31990 65.76674 63.04332
# Shear Modulus (GPa) = 60.13578 20.53923 40.33750
#
# Velocity S-wave (km/s) = 5.33589 3.11840 4.37013
# Velocity P-wave (km/s) = 8.15605 6.64106 7.43723
#
# Compressibility (1/GPa) = 0.01657828
#
# Stress axis : x y z
#
# Youngs Moduli (GPa) = 82.39702 87.49926 54.43129
#
# Poissons Ratio (x) = 0.22888 0.44734
# Poissons Ratio (y) = 0.21553 0.10042
# Poissons Ratio (z) = 0.67718 0.16143
#
# Static dielectric constant tensor:
#      x y z
#    x 4.414600 0.000000 0.000000 
#    y 0.000000 4.176880 0.000000 
#    z 0.000000 0.000000 3.671140 
# 
# 
# High freq. dielectric constant tensor:
#      x y z
#    x 1.841490 0.000000 0.000000 
#    y 0.000000 1.830410 0.000000 
#    z 0.000000 0.000000 1.823930 
# 
# From -- ./inp_files/33459.got.cif
#   From: 2010.06.25/outbox.cif.g09.slc.cpg/sg52_17_cif.got.tgz:33459.got - 2010.06.26 19:32:48.
