data_PCOD8216921
_publ_section_title
;
Structure prediction by ZEFSAII (Michael W. Deem and Ramdas Pophale) SiO2 
 PCOD8216921
Probable space group: P N N A
;
_chemical_formula_sum "Si O2"
_cell_formula_units_Z 24
_cell_length_a 10.541771
_cell_length_b 13.902552
_cell_length_c 6.777934
_cell_angle_alpha 90.000000
_cell_angle_beta 90.000000
_cell_angle_gamma 90.000000
_cell_volume 993.357194
_symmetry_space_group_name_H-M "P N N A"
_symmetry_group_IT_number 52
_symmetry_cell_setting 'orthorhombic'
loop_
_space_group_symop_operation_xyz
x,y,z
1/2-x,-y,z
x,1/2-y,1/2-z
1/2-x,1/2+y,1/2-z
-x,-y,-z
1/2+x,y,-z
-x,1/2+y,1/2+z
1/2+x,1/2-y,1/2+z
loop_
_atom_site_type_symbol
_atom_site_label
_atom_site_fract_x
_atom_site_fract_y
_atom_site_fract_z
Si Si1 0.868276 0.250000 0.250000
Si Si2 0.430765 0.342417 0.366643
Si Si3 0.250000 0.000000 0.275952
Si Si4 0.181747 0.410177 0.849149
O O1 0.954175 0.309149 0.406684
O O2 0.778760 0.322234 0.129664
O O3 0.380387 0.250000 0.250000
O O4 0.325751 0.426169 0.362395
O O5 0.560029 0.380711 0.274292
O O6 0.348647 0.943301 0.423736
O O7 0.250000 0.500000 0.738095
#
# Coordination Sequence:
#
# PCOD8216921 Si02
#       4
#     4   8   4   8
#     4  12  26  46  74 116 148 210 260 302 398 460
#     4  12  24  50  77 109 162 204 252 325 379 464
#     4  10  24  46  82 114 150 206 260 320 382 458
#     4  10  24  48  73 113 152 196 268 313 386 456
#
# _framework density 24.160495999999998
#
# number of rings (size 3 to 8) (size 9 to 14) (size 15 to 20)
#    1.000    0.000    5.000    1.000    2.333    1.333 
#    9.000    0.000    0.000    0.000    0.000    0.000 
#    0.000    0.000    0.000    0.000    0.000    0.000 
#
# Total GULP energy -297414.508258 kJ/mol
# GULP energy per Si atom -12392.271177 kJ/mol
# Density = 2.410551 g / cm^3
# Si number density = 24.160496 Si / 1000 Ang^3
#
#
#
# Elastic Constant Matrix: (Units=GPa)
#
#
# Indices 1 2 3 4 5 6 
#
# 1 88.8733 36.1852 45.6508 0.0000 0.0000 0.0000
# 2 36.1852 131.0361 49.8786 0.0000 0.0000 0.0000
# 3 45.6508 49.8786 154.0666 0.0000 0.0000 0.0000
# 4 0.0000 0.0000 0.0000 53.3631 0.0000 0.0000
# 5 0.0000 0.0000 0.0000 0.0000 11.3731 0.0000
# 6 0.0000 0.0000 0.0000 0.0000 0.0000 36.5760
#
#
#
# Elastic Compliance Matrix: (Units=1/GPa)
#
#
# Indices 1 2 3 4 5 6 
#
# 1 0.014014 -0.002611 -0.003307 0.000000 0.000000 0.000000
# 2 -0.002611 0.009191 -0.002202 0.000000 0.000000 0.000000
# 3 -0.003307 -0.002202 0.008183 0.000000 0.000000 0.000000
# 4 0.000000 0.000000 0.000000 0.018740 0.000000 0.000000
# 5 0.000000 0.000000 0.000000 0.000000 0.087927 0.000000
# 6 0.000000 0.000000 0.000000 0.000000 0.000000 0.027340
#
#
# Mechanical properties :
#
#
# Convention : Reuss Voigt Hill
#
# Bulk Modulus (GPa) = 66.01490 70.82280 68.41885
# Shear Modulus (GPa) = 26.78330 36.41319 31.59824
#
# Velocity S-wave (km/s) = 3.33311 3.88640 3.62034
# Velocity P-wave (km/s) = 6.49582 7.03675 6.77169
#
# Compressibility (1/GPa) = 0.01514809
#
# Stress axis : x y z
#
# Youngs Moduli (GPa) = 71.35841 108.80665 122.19838
#
# Poissons Ratio (x) = 0.28410 0.40412
# Poissons Ratio (y) = 0.18632 0.26905
# Poissons Ratio (z) = 0.23599 0.23957
#
# Static dielectric constant tensor:
#      x y z
#    x 3.859760 0.000000 0.000000 
#    y 0.000000 4.899930 0.000000 
#    z 0.000000 0.000000 4.205030 
# 
# 
# High freq. dielectric constant tensor:
#      x y z
#    x 1.920830 0.000000 0.000000 
#    y 0.000000 1.988540 0.000000 
#    z 0.000000 0.000000 1.960310 
# 
# From -- ./inp_files/7012.got.cif
#   From: 2010.06.25/outbox.cif.g09.slc.cpg/sg52_4_cif.got.tgz:7012.got - 2010.06.26 19:32:48.
