data_PCOD8216941
_publ_section_title
;
Structure prediction by ZEFSAII (Michael W. Deem and Ramdas Pophale) SiO2 
 PCOD8216941
Probable space group: P N N A
;
_chemical_formula_sum "Si O2"
_cell_formula_units_Z 32
_cell_length_a 16.061307
_cell_length_b 15.454247
_cell_length_c 4.988964
_cell_angle_alpha 90.000000
_cell_angle_beta 90.000000
_cell_angle_gamma 90.000000
_cell_volume 1238.337722
_symmetry_space_group_name_H-M "P N N A"
_symmetry_group_IT_number 52
_symmetry_cell_setting 'orthorhombic'
loop_
_space_group_symop_operation_xyz
x,y,z
1/2-x,-y,z
x,1/2-y,1/2-z
1/2-x,1/2+y,1/2-z
-x,-y,-z
1/2+x,y,-z
-x,1/2+y,1/2+z
1/2+x,1/2-y,1/2+z
loop_
_atom_site_type_symbol
_atom_site_label
_atom_site_fract_x
_atom_site_fract_y
_atom_site_fract_z
Si Si1 0.427254 0.119171 0.587520
Si Si2 0.029971 0.158309 0.896443
Si Si3 0.829799 0.545225 0.268509
Si Si4 0.246475 0.805838 0.501249
O O1 0.481534 0.100780 0.323507
O O2 0.353112 0.183540 0.502168
O O3 0.392852 0.026983 0.671328
O O4 0.479503 0.164668 0.826796
O O5 0.043885 0.250000 0.750000
O O6 0.117999 0.110348 0.958995
O O7 0.750000 0.500000 0.418733
O O8 0.792333 0.600756 0.017606
O O9 0.276331 0.750000 0.750000
O O10 0.276265 0.750000 0.250000
#
# Coordination Sequence:
#
# PCOD8216941 Si02
#       4
#     8   8   8   8
#     4  11  24  44  69  99 138 184 234 291 354 423
#     4  12  24  43  70 100 134 181 237 294 351 425
#     4  10  25  45  68 100 140 183 230 291 362 431
#     4  11  23  42  68 101 140 184 233 292 357 425
#
# _framework density 25.841093999999998
#
# number of rings (size 3 to 8) (size 9 to 14) (size 15 to 20)
#    0.000    1.000    0.000    6.750    0.000    6.000 
#    0.000   13.750    0.000    0.000    0.000    0.000 
#    0.000    0.000    0.000    0.000    0.000    0.000 
#
# Total GULP energy -396644.122918 kJ/mol
# GULP energy per Si atom -12395.128841 kJ/mol
# Density = 2.578228 g / cm^3
# Si number density = 25.841094 Si / 1000 Ang^3
#
#
#
# Elastic Constant Matrix: (Units=GPa)
#
#
# Indices 1 2 3 4 5 6 
#
# 1 108.4599 50.5573 13.0671 0.0000 0.0000 0.0000
# 2 50.5573 120.6596 12.9051 0.0000 0.0000 0.0000
# 3 13.0671 12.9051 113.6774 0.0000 0.0000 0.0000
# 4 0.0000 0.0000 0.0000 16.7386 0.0000 0.0000
# 5 0.0000 0.0000 0.0000 0.0000 35.3062 0.0000
# 6 0.0000 0.0000 0.0000 0.0000 0.0000 56.2518
#
#
#
# Elastic Compliance Matrix: (Units=1/GPa)
#
#
# Indices 1 2 3 4 5 6 
#
# 1 0.011527 -0.004746 -0.000786 0.000000 0.000000 0.000000
# 2 -0.004746 0.010344 -0.000629 0.000000 0.000000 0.000000
# 3 -0.000786 -0.000629 0.008959 0.000000 0.000000 0.000000
# 4 0.000000 0.000000 0.000000 0.059742 0.000000 0.000000
# 5 0.000000 0.000000 0.000000 0.000000 0.028324 0.000000
# 6 0.000000 0.000000 0.000000 0.000000 0.000000 0.017777
#
#
# Mechanical properties :
#
#
# Convention : Reuss Voigt Hill
#
# Bulk Modulus (GPa) = 54.03202 55.09512 54.56357
# Shear Modulus (GPa) = 32.22426 39.41048 35.81737
#
# Velocity S-wave (km/s) = 3.53514 3.90950 3.72703
# Velocity P-wave (km/s) = 6.13333 6.46111 6.29935
#
# Compressibility (1/GPa) = 0.01850754
#
# Stress axis : x y z
#
# Youngs Moduli (GPa) = 86.75354 96.67875 111.62490
#
# Poissons Ratio (x) = 0.45881 0.08776
# Poissons Ratio (y) = 0.41171 0.07018
# Poissons Ratio (z) = 0.06821 0.06078
#
# Static dielectric constant tensor:
#      x y z
#    x 5.084100 0.000000 0.000000 
#    y 0.000000 4.845520 0.000000 
#    z 0.000000 0.000000 4.162160 
# 
# 
# High freq. dielectric constant tensor:
#      x y z
#    x 2.054480 0.000000 0.000000 
#    y 0.000000 2.058490 0.000000 
#    z 0.000000 0.000000 1.994610 
# 
# From -- ./inp_files/2009.got.cif
#   From: 2010.06.25/outbox.cif.g09.slc.cpg/sg52_2_cif.got.tgz:2009.got - 2010.06.26 19:32:48.
