data_PCOD8216627
_publ_section_title
;
Structure prediction by ZEFSAII (Michael W. Deem and Ramdas Pophale) SiO2 
 PCOD8216627
Probable space group: P N N A
;
_chemical_formula_sum "Si O2"
_cell_formula_units_Z 48
_cell_length_a 17.643719
_cell_length_b 13.484074
_cell_length_c 9.186890
_cell_angle_alpha 90.000000
_cell_angle_beta 90.000000
_cell_angle_gamma 90.000000
_cell_volume 2185.645766
_symmetry_space_group_name_H-M "P N N A"
_symmetry_group_IT_number 52
_symmetry_cell_setting 'orthorhombic'
loop_
_space_group_symop_operation_xyz
x,y,z
1/2-x,-y,z
x,1/2-y,1/2-z
1/2-x,1/2+y,1/2-z
-x,-y,-z
1/2+x,y,-z
-x,1/2+y,1/2+z
1/2+x,1/2-y,1/2+z
loop_
_atom_site_type_symbol
_atom_site_label
_atom_site_fract_x
_atom_site_fract_y
_atom_site_fract_z
Si Si1 0.742784 0.345164 0.176659
Si Si2 0.345027 0.615617 0.379166
Si Si3 0.772891 0.250000 0.750000
Si Si4 0.375077 0.339810 0.028789
Si Si5 0.250000 0.500000 0.587673
Si Si6 0.519209 0.244518 0.582424
Si Si7 0.874495 0.565596 0.948852
O O1 0.700345 0.250000 0.250000
O O2 0.772278 0.409417 0.311373
O O3 0.819277 0.310102 0.100625
O O4 0.690511 0.406510 0.065024
O O5 0.280896 0.702341 0.375613
O O6 0.322385 0.527728 0.487633
O O7 0.423517 0.662769 0.440863
O O8 0.345357 0.572763 0.216511
O O9 0.828673 0.330476 0.821184
O O10 0.402416 0.454142 0.017064
O O11 0.444007 0.259401 0.017914
O O12 0.494551 0.250000 0.750000
O O13 0.557134 0.141311 0.536423
#
# Coordination Sequence:
#
# PCOD8216627 Si02
#       7
#     8   8   4   8   4   8   8
#     4  12  24  41  66 104 139 175 229 303 348 398
#     4  11  22  43  69  97 134 186 240 274 348 427
#     4  12  22  42  70  96 132 188 242 292 326 432
#     4  12  23  40  65 101 134 174 234 289 353 411
#     4  12  24  38  68 110 130 174 236 302 336 400
#     4  10  22  42  66  95 136 187 217 286 357 417
#     4  11  21  44  67  92 133 189 234 272 343 440
#
# _framework density 21.961472000000001
#
# number of rings (size 3 to 8) (size 9 to 14) (size 15 to 20)
#    0.000    0.667    5.833    4.000    0.000    0.000 
#    4.500    0.000    0.000    8.000    0.000    0.000 
#    0.000    0.000    0.000    0.000    0.000    0.000 
#
# Total GULP energy -594868.319757 kJ/mol
# GULP energy per Si atom -12393.089995 kJ/mol
# Density = 2.191149 g / cm^3
# Si number density = 21.961472 Si / 1000 Ang^3
#
#
#
# Elastic Constant Matrix: (Units=GPa)
#
#
# Indices 1 2 3 4 5 6 
#
# 1 116.9101 34.1030 44.8667 0.0000 0.0000 0.0000
# 2 34.1030 94.2065 41.1152 0.0000 0.0000 0.0000
# 3 44.8667 41.1152 93.6789 0.0000 0.0000 0.0000
# 4 0.0000 0.0000 0.0000 43.2815 0.0000 0.0000
# 5 0.0000 0.0000 0.0000 0.0000 14.0676 0.0000
# 6 0.0000 0.0000 0.0000 0.0000 0.0000 31.6443
#
#
#
# Elastic Compliance Matrix: (Units=1/GPa)
#
#
# Indices 1 2 3 4 5 6 
#
# 1 0.010788 -0.002041 -0.004271 0.000000 0.000000 0.000000
# 2 -0.002041 0.013516 -0.004955 0.000000 0.000000 0.000000
# 3 -0.004271 -0.004955 0.014895 0.000000 0.000000 0.000000
# 4 0.000000 0.000000 0.000000 0.023105 0.000000 0.000000
# 5 0.000000 0.000000 0.000000 0.000000 0.071085 0.000000
# 6 0.000000 0.000000 0.000000 0.000000 0.000000 0.031601
#
#
# Mechanical properties :
#
#
# Convention : Reuss Voigt Hill
#
# Bulk Modulus (GPa) = 60.00392 60.55168 60.27780
# Shear Modulus (GPa) = 25.89610 30.11272 28.00441
#
# Velocity S-wave (km/s) = 3.43762 3.70694 3.57481
# Velocity P-wave (km/s) = 6.56795 6.77890 6.67426
#
# Compressibility (1/GPa) = 0.01666558
#
# Stress axis : x y z
#
# Youngs Moduli (GPa) = 92.69463 73.98475 67.13737
#
# Poissons Ratio (x) = 0.15103 0.28674
# Poissons Ratio (y) = 0.18922 0.33264
# Poissons Ratio (z) = 0.39589 0.36656
#
# Static dielectric constant tensor:
#      x y z
#    x 3.818910 0.000000 0.000000 
#    y 0.000000 4.126560 0.000000 
#    z 0.000000 0.000000 4.101780 
# 
# 
# High freq. dielectric constant tensor:
#      x y z
#    x 1.846480 0.000000 0.000000 
#    y 0.000000 1.864670 0.000000 
#    z 0.000000 0.000000 1.865590 
# 
# From -- ./inp_files/12147.got.cif
#   From: 2010.06.25/outbox.cif.g09.slc.cpg/sg52_7_cif.got.tgz:12147.got - 2010.06.26 19:32:48.
