data_PCOD8216288
_publ_section_title
;
Structure prediction by ZEFSAII (Michael W. Deem and Ramdas Pophale) SiO2 
 PCOD8216288
Probable space group: P N N A
;
_chemical_formula_sum "Si O2"
_cell_formula_units_Z 48
_cell_length_a 12.947892
_cell_length_b 9.430789
_cell_length_c 19.057069
_cell_angle_alpha 90.000000
_cell_angle_beta 90.000000
_cell_angle_gamma 90.000000
_cell_volume 2327.036541
_symmetry_space_group_name_H-M "P N N A"
_symmetry_group_IT_number 52
_symmetry_cell_setting 'orthorhombic'
loop_
_space_group_symop_operation_xyz
x,y,z
1/2-x,-y,z
x,1/2-y,1/2-z
1/2-x,1/2+y,1/2-z
-x,-y,-z
1/2+x,y,-z
-x,1/2+y,1/2+z
1/2+x,1/2-y,1/2+z
loop_
_atom_site_type_symbol
_atom_site_label
_atom_site_fract_x
_atom_site_fract_y
_atom_site_fract_z
Si Si1 0.958549 0.471723 0.612332
Si Si2 0.528004 0.636232 0.905190
Si Si3 0.750000 0.500000 0.537099
Si Si4 0.034515 0.084179 0.743046
Si Si5 0.137692 0.954858 0.529462
Si Si6 0.250000 0.000000 0.796645
Si Si7 0.350553 0.342131 0.581411
O O1 0.848395 0.532013 0.587010
O O2 0.972450 0.305158 0.599306
O O3 0.970650 0.497571 0.696270
O O4 0.051204 0.553303 0.573191
O O5 0.516456 0.550068 0.832160
O O6 0.433376 0.589901 0.954640
O O7 0.630310 0.585691 0.946618
O O8 0.723833 0.632349 0.486080
O O9 0.023397 0.250000 0.750000
O O10 0.155839 0.044946 0.746627
O O11 0.109616 0.818956 0.578473
O O12 0.250000 0.000000 0.550297
O O13 0.213696 0.870391 0.847110
#
# Coordination Sequence:
#
# PCOD8216288 Si02
#       7
#     8   8   4   8   8   4   8
#     4  10  21  40  63  92 116 154 207 252 299 346
#     4  10  23  41  59  88 124 162 194 252 299 363
#     4  11  20  32  66  88 113 158 198 252 291 348
#     4   9  20  37  60  86 123 153 195 247 297 363
#     4  11  25  38  60  88 124 165 198 240 311 366
#     4   9  20  34  62  98 111 158 202 246 307 354
#     4  10  22  37  60  94 123 147 204 260 292 352
#
# _framework density 20.627092999999999
#
# number of rings (size 3 to 8) (size 9 to 14) (size 15 to 20)
#    0.000    2.000    1.667    0.500   10.500    1.333 
#    1.500    2.500    0.000    0.000    0.000    0.000 
#    0.000    0.000    0.000    0.000    0.000    0.000 
#
# Total GULP energy -594938.605077 kJ/mol
# GULP energy per Si atom -12394.554272 kJ/mol
# Density = 2.058014 g / cm^3
# Si number density = 20.627093 Si / 1000 Ang^3
#
#
#
# Elastic Constant Matrix: (Units=GPa)
#
#
# Indices 1 2 3 4 5 6 
#
# 1 84.6493 36.1027 31.5130 0.0000 0.0000 0.0000
# 2 36.1027 61.7887 31.4243 0.0000 0.0000 0.0000
# 3 31.5130 31.4243 100.4231 0.0000 0.0000 0.0000
# 4 0.0000 0.0000 0.0000 16.7532 0.0000 0.0000
# 5 0.0000 0.0000 0.0000 0.0000 20.5597 0.0000
# 6 0.0000 0.0000 0.0000 0.0000 0.0000 23.0876
#
#
#
# Elastic Compliance Matrix: (Units=1/GPa)
#
#
# Indices 1 2 3 4 5 6 
#
# 1 0.016259 -0.008212 -0.002532 0.000000 0.000000 0.000000
# 2 -0.008212 0.023395 -0.004744 0.000000 0.000000 0.000000
# 3 -0.002532 -0.004744 0.012237 0.000000 0.000000 0.000000
# 4 0.000000 0.000000 0.000000 0.059690 0.000000 0.000000
# 5 0.000000 0.000000 0.000000 0.000000 0.048639 0.000000
# 6 0.000000 0.000000 0.000000 0.000000 0.000000 0.043313
#
#
# Mechanical properties :
#
#
# Convention : Reuss Voigt Hill
#
# Bulk Modulus (GPa) = 47.81395 49.43790 48.62592
# Shear Modulus (GPa) = 20.70565 21.93484 21.32025
#
# Velocity S-wave (km/s) = 3.17173 3.26452 3.21846
# Velocity P-wave (km/s) = 6.05340 6.18295 6.11852
#
# Compressibility (1/GPa) = 0.02091440
#
# Stress axis : x y z
#
# Youngs Moduli (GPa) = 61.50629 42.74438 81.71974
#
# Poissons Ratio (x) = 0.35101 0.20694
# Poissons Ratio (y) = 0.50508 0.38766
# Poissons Ratio (z) = 0.15575 0.20277
#
# Static dielectric constant tensor:
#      x y z
#    x 3.748790 0.000000 0.000000 
#    y 0.000000 3.575070 0.000000 
#    z 0.000000 0.000000 4.291980 
# 
# 
# High freq. dielectric constant tensor:
#      x y z
#    x 1.794530 0.000000 0.000000 
#    y 0.000000 1.792920 0.000000 
#    z 0.000000 0.000000 1.811560 
# 
# From -- ./inp_files/37224.got.cif
#   From: 2010.06.25/outbox.cif.g09.slc.cpg/sg52_19_cif.got.tgz:37224.got - 2010.06.26 19:32:48.
