data_PCOD8216092
_publ_section_title
;
Structure prediction by ZEFSAII (Michael W. Deem and Ramdas Pophale) SiO2 
 PCOD8216092
Probable space group: P N N A
;
_chemical_formula_sum "Si O2"
_cell_formula_units_Z 64
_cell_length_a 11.852904
_cell_length_b 27.918503
_cell_length_c 9.257460
_cell_angle_alpha 90.000000
_cell_angle_beta 90.000000
_cell_angle_gamma 90.000000
_cell_volume 3063.435485
_symmetry_space_group_name_H-M "P N N A"
_symmetry_group_IT_number 52
_symmetry_cell_setting 'orthorhombic'
loop_
_space_group_symop_operation_xyz
x,y,z
1/2-x,-y,z
x,1/2-y,1/2-z
1/2-x,1/2+y,1/2-z
-x,-y,-z
1/2+x,y,-z
-x,1/2+y,1/2+z
1/2+x,1/2-y,1/2+z
loop_
_atom_site_type_symbol
_atom_site_label
_atom_site_fract_x
_atom_site_fract_y
_atom_site_fract_z
Si Si1 0.755338 0.448429 0.114660
Si Si2 0.268895 0.305868 0.236378
Si Si3 0.418052 0.052272 0.872282
Si Si4 0.522326 0.410887 0.213164
Si Si5 0.114530 0.639980 0.987990
Si Si6 0.877220 0.494423 0.663671
Si Si7 0.492656 0.805398 0.233302
Si Si8 0.931971 0.353586 0.539926
O O1 0.750000 0.500000 0.028017
O O2 0.847472 0.459185 0.233396
O O3 0.639789 0.436720 0.195039
O O4 0.794277 0.402837 0.023095
O O5 0.291989 0.250000 0.250000
O O6 0.325733 0.320101 0.085275
O O7 0.136510 0.317686 0.230162
O O8 0.324636 0.333801 0.371354
O O9 0.548582 0.043091 0.821155
O O10 0.379536 0.014995 0.993043
O O11 0.394171 0.105360 0.928747
O O12 0.494495 0.381643 0.068000
O O13 0.427508 0.450598 0.244621
O O14 0.525462 0.373973 0.348421
O O15 0.074384 0.662714 0.836095
O O16 0.750000 0.500000 0.719588
O O17 0.521508 0.750000 0.250000
O O18 0.513409 0.813655 0.062642
#
# Coordination Sequence:
#
# PCOD8216092 Si02
#       8
#     8   8   8   8   8   8   8   8
#     4  12  23  41  63  89 135 176 220 263 317 386
#     4  10  23  44  68  96 131 166 210 276 338 396
#     4  10  21  36  58  93 123 170 212 272 310 371
#     4  10  24  41  60  91 124 172 214 258 321 373
#     4  11  24  44  62  94 134 171 211 269 328 400
#     4  10  21  37  60  88 126 164 221 264 311 364
#     4  11  23  41  68  97 123 163 215 267 334 401
#     4  10  22  39  63  94 123 162 213 266 320 382
#
# _framework density 20.891577999999999
#
# number of rings (size 3 to 8) (size 9 to 14) (size 15 to 20)
#    0.000    1.500    2.500    1.875    5.250    3.000 
#    2.250    0.000    0.000    5.250    0.000    0.000 
#    0.000    0.000    0.000    0.000    0.000    0.000 
#
# Total GULP energy -793358.128075 kJ/mol
# GULP energy per Si atom -12396.220751 kJ/mol
# Density = 2.084403 g / cm^3
# Si number density = 20.891578 Si / 1000 Ang^3
#
#
#
# Elastic Constant Matrix: (Units=GPa)
#
#
# Indices 1 2 3 4 5 6 
#
# 1 116.7482 50.5214 34.7503 0.0000 0.0000 0.0000
# 2 50.5214 130.6238 43.6374 0.0000 0.0000 0.0000
# 3 34.7503 43.6374 89.0436 0.0000 0.0000 0.0000
# 4 0.0000 0.0000 0.0000 25.1037 0.0000 0.0000
# 5 0.0000 0.0000 0.0000 0.0000 6.9982 0.0000
# 6 0.0000 0.0000 0.0000 0.0000 0.0000 34.1569
#
#
#
# Elastic Compliance Matrix: (Units=1/GPa)
#
#
# Indices 1 2 3 4 5 6 
#
# 1 0.010762 -0.003300 -0.002583 0.000000 0.000000 0.000000
# 2 -0.003300 0.010166 -0.003694 0.000000 0.000000 0.000000
# 3 -0.002583 -0.003694 0.014049 0.000000 0.000000 0.000000
# 4 0.000000 0.000000 0.000000 0.039835 0.000000 0.000000
# 5 0.000000 0.000000 0.000000 0.000000 0.142895 0.000000
# 6 0.000000 0.000000 0.000000 0.000000 0.000000 0.029277
#
#
# Mechanical properties :
#
#
# Convention : Reuss Voigt Hill
#
# Bulk Modulus (GPa) = 63.19825 66.02598 64.61212
# Shear Modulus (GPa) = 18.42222 27.08551 22.75387
#
# Velocity S-wave (km/s) = 2.97274 3.60457 3.30379
# Velocity P-wave (km/s) = 6.48838 6.99976 6.74892
#
# Compressibility (1/GPa) = 0.01582322
#
# Stress axis : x y z
#
# Youngs Moduli (GPa) = 92.91840 98.36809 71.17958
#
# Poissons Ratio (x) = 0.32457 0.18386
# Poissons Ratio (y) = 0.30659 0.26296
# Poissons Ratio (z) = 0.24001 0.36340
#
# Static dielectric constant tensor:
#      x y z
#    x 3.696530 0.000000 0.000000 
#    y 0.000000 4.144740 0.000000 
#    z 0.000000 0.000000 3.800220 
# 
# 
# High freq. dielectric constant tensor:
#      x y z
#    x 1.811430 0.000000 0.000000 
#    y 0.000000 1.826450 0.000000 
#    z 0.000000 0.000000 1.822550 
# 
# From -- ./inp_files/9120.got.cif
#   From: 2010.06.25/outbox.cif.g09.slc.cpg/sg52_5_cif.got.tgz:9120.got - 2010.06.26 19:32:48.
