data_PCOD8216141
_publ_section_title
;
Structure prediction by ZEFSAII (Michael W. Deem and Ramdas Pophale) SiO2 
 PCOD8216141
Probable space group: P N N A
;
_chemical_formula_sum "Si O2"
_cell_formula_units_Z 36
_cell_length_a 4.949293
_cell_length_b 11.549498
_cell_length_c 29.259446
_cell_angle_alpha 90.000000
_cell_angle_beta 90.000000
_cell_angle_gamma 90.000000
_cell_volume 1672.524052
_symmetry_space_group_name_H-M "P N N A"
_symmetry_group_IT_number 52
_symmetry_cell_setting 'orthorhombic'
loop_
_space_group_symop_operation_xyz
x,y,z
1/2-x,-y,z
x,1/2-y,1/2-z
1/2-x,1/2+y,1/2-z
-x,-y,-z
1/2+x,y,-z
-x,1/2+y,1/2+z
1/2+x,1/2-y,1/2+z
loop_
_atom_site_type_symbol
_atom_site_label
_atom_site_fract_x
_atom_site_fract_y
_atom_site_fract_z
Si Si1 0.869153 0.737332 0.881336
Si Si2 0.756221 0.750000 0.250000
Si Si3 0.374654 0.626459 0.839896
Si Si4 0.508656 0.073822 0.812281
Si Si5 0.728311 0.630885 0.530170
O O1 0.665559 0.635295 0.864412
O O2 0.803007 0.770901 0.933162
O O3 0.172540 0.692289 0.874291
O O4 0.849747 0.855835 0.853029
O O5 0.923320 0.693388 0.208255
O O6 0.566759 0.848833 0.230533
O O7 0.250000 0.500000 0.831328
O O8 0.250000 0.000000 0.829826
O O9 0.750000 0.000000 0.791053
O O10 0.750000 0.500000 0.550180
O O11 0.422573 0.648921 0.513424
#
# Coordination Sequence:
#
# PCOD8216141 Si02
#       5
#     8   4   8   8   8
#     4  11  23  40  62  88 119 158 197 241 303 360
#     4  10  24  38  58  86 116 158 202 246 296 340
#     4  11  24  41  62  86 120 161 205 250 293 350
#     4  11  23  37  57  84 119 157 197 244 293 356
#     4  10  21  37  62  93 122 151 188 241 303 363
#
# _framework density 21.524355
#
# number of rings (size 3 to 8) (size 9 to 14) (size 15 to 20)
#    0.000    1.333    0.000    6.000    0.000   14.222 
#    0.000    0.000    0.000   13.333    0.000    0.000 
#    0.000    0.000    0.000    0.000    0.000    0.000 
#
# Total GULP energy -446258.019411 kJ/mol
# GULP energy per Si atom -12396.056095 kJ/mol
# Density = 2.147536 g / cm^3
# Si number density = 21.524355 Si / 1000 Ang^3
#
#
#
# Elastic Constant Matrix: (Units=GPa)
#
#
# Indices 1 2 3 4 5 6 
#
# 1 84.0467 8.8708 5.9761 0.0000 0.0000 0.0000
# 2 8.8708 82.7211 22.1671 0.0000 0.0000 0.0000
# 3 5.9761 22.1671 75.4840 0.0000 0.0000 0.0000
# 4 0.0000 0.0000 0.0000 14.1387 0.0000 0.0000
# 5 0.0000 0.0000 0.0000 0.0000 16.0285 0.0000
# 6 0.0000 0.0000 0.0000 0.0000 0.0000 35.5140
#
#
#
# Elastic Compliance Matrix: (Units=1/GPa)
#
#
# Indices 1 2 3 4 5 6 
#
# 1 0.012061 -0.001126 -0.000624 0.000000 0.000000 0.000000
# 2 -0.001126 0.013227 -0.003795 0.000000 0.000000 0.000000
# 3 -0.000624 -0.003795 0.014412 0.000000 0.000000 0.000000
# 4 0.000000 0.000000 0.000000 0.070728 0.000000 0.000000
# 5 0.000000 0.000000 0.000000 0.000000 0.062389 0.000000
# 6 0.000000 0.000000 0.000000 0.000000 0.000000 0.028158
#
#
# Mechanical properties :
#
#
# Convention : Reuss Voigt Hill
#
# Bulk Modulus (GPa) = 34.95416 35.14221 35.04819
# Shear Modulus (GPa) = 22.56303 26.81876 24.69090
#
# Velocity S-wave (km/s) = 3.24119 3.53366 3.39058
# Velocity P-wave (km/s) = 5.50288 5.74554 5.62552
#
# Compressibility (1/GPa) = 0.02860889
#
# Stress axis : x y z
#
# Youngs Moduli (GPa) = 82.90915 75.60548 69.38794
#
# Poissons Ratio (x) = 0.08515 0.04331
# Poissons Ratio (y) = 0.09337 0.26333
# Poissons Ratio (z) = 0.05175 0.28693
#
# Static dielectric constant tensor:
#      x y z
#    x 3.942150 0.000000 0.000000 
#    y 0.000000 3.715210 0.000000 
#    z 0.000000 0.000000 3.605530 
# 
# 
# High freq. dielectric constant tensor:
#      x y z
#    x 1.857640 0.000000 0.000000 
#    y 0.000000 1.841980 0.000000 
#    z 0.000000 0.000000 1.824850 
# 
# From -- ./inp_files/43641.got.cif
#   From: 2010.06.25/outbox.cif.g09.slc.cpg/sg52_22_cif.got.tgz:43641.got - 2010.06.26 19:32:48.
