data_PCOD8216759
_publ_section_title
;
Structure prediction by ZEFSAII (Michael W. Deem and Ramdas Pophale) SiO2 
 PCOD8216759
Probable space group: P N N A
;
_chemical_formula_sum "Si O2"
_cell_formula_units_Z 24
_cell_length_a 8.696883
_cell_length_b 5.025805
_cell_length_c 23.120980
_cell_angle_alpha 90.000000
_cell_angle_beta 90.000000
_cell_angle_gamma 90.000000
_cell_volume 1010.591171
_symmetry_space_group_name_H-M "P N N A"
_symmetry_group_IT_number 52
_symmetry_cell_setting 'orthorhombic'
loop_
_space_group_symop_operation_xyz
x,y,z
1/2-x,-y,z
x,1/2-y,1/2-z
1/2-x,1/2+y,1/2-z
-x,-y,-z
1/2+x,y,-z
-x,1/2+y,1/2+z
1/2+x,1/2-y,1/2+z
loop_
_atom_site_type_symbol
_atom_site_label
_atom_site_fract_x
_atom_site_fract_y
_atom_site_fract_z
Si Si1 0.855417 0.256636 0.529576
Si Si2 0.645782 0.249937 0.683680
Si Si3 0.080863 0.590129 0.909584
O O1 0.750000 0.500000 0.551587
O O2 0.925019 0.298282 0.464519
O O3 0.750000 0.000000 0.521811
O O4 0.988994 0.182557 0.574905
O O5 0.750000 0.500000 0.668898
O O6 0.590341 0.250000 0.750000
O O7 0.494550 0.245403 0.644017
O O8 0.750000 0.000000 0.668062
O O9 0.250000 0.500000 0.890675
#
# Coordination Sequence:
#
# PCOD8216759 Si02
#       3
#     8   8   8
#     4  10  23  42  63  93 136 181 215 253 325 405
#     4  10  23  45  70  94 126 175 225 268 328 399
#     4  10  23  41  68 100 132 169 220 278 325 378
#
# _framework density 23.748477000000001
#
# number of rings (size 3 to 8) (size 9 to 14) (size 15 to 20)
#    0.000    2.000    0.000    1.000    0.000   24.000 
#    0.000    6.667    0.000    0.000    0.000    0.000 
#    0.000    0.000    0.000    0.000    0.000    0.000 
#
# Total GULP energy -297652.386134 kJ/mol
# GULP energy per Si atom -12402.182756 kJ/mol
# Density = 2.369442 g / cm^3
# Si number density = 23.748477 Si / 1000 Ang^3
#
#
#
# Elastic Constant Matrix: (Units=GPa)
#
#
# Indices 1 2 3 4 5 6 
#
# 1 172.7395 50.5733 98.8997 0.0000 0.0000 0.0000
# 2 50.5733 129.8832 36.2172 0.0000 0.0000 0.0000
# 3 98.8997 36.2172 150.6708 0.0000 0.0000 0.0000
# 4 0.0000 0.0000 0.0000 102.3177 0.0000 0.0000
# 5 0.0000 0.0000 0.0000 0.0000 159.2410 0.0000
# 6 0.0000 0.0000 0.0000 0.0000 0.0000 119.4094
#
#
#
# Elastic Compliance Matrix: (Units=1/GPa)
#
#
# Indices 1 2 3 4 5 6 
#
# 1 0.009814 -0.002171 -0.005920 0.000000 0.000000 0.000000
# 2 -0.002171 0.008732 -0.000674 0.000000 0.000000 0.000000
# 3 -0.005920 -0.000674 0.010685 0.000000 0.000000 0.000000
# 4 0.000000 0.000000 0.000000 0.009773 0.000000 0.000000
# 5 0.000000 0.000000 0.000000 0.000000 0.006280 0.000000
# 6 0.000000 0.000000 0.000000 0.000000 0.000000 0.008375
#
#
# Mechanical properties :
#
#
# Convention : Reuss Voigt Hill
#
# Bulk Modulus (GPa) = 85.45924 91.63044 88.54484
# Shear Modulus (GPa) = 66.58696 94.03385 80.31041
#
# Velocity S-wave (km/s) = 5.30088 6.29934 5.82155
# Velocity P-wave (km/s) = 8.57490 9.56956 9.08585
#
# Compressibility (1/GPa) = 0.01170148
#
# Stress axis : x y z
#
# Youngs Moduli (GPa) = 101.89486 114.51597 93.58890
#
# Poissons Ratio (x) = 0.24856 0.55406
# Poissons Ratio (y) = 0.22117 0.06311
# Poissons Ratio (z) = 0.60323 0.07722
#
# Static dielectric constant tensor:
#      x y z
#    x 4.698120 0.000000 0.000000 
#    y 0.000000 4.481750 0.000000 
#    z 0.000000 0.000000 4.640410 
# 
# 
# High freq. dielectric constant tensor:
#      x y z
#    x 1.948600 0.000000 0.000000 
#    y 0.000000 1.945060 0.000000 
#    z 0.000000 0.000000 1.934820 
# 
# From -- ./inp_files/41905.got.cif
#   From: 2010.06.25/outbox.cif.g09.slc.cpg/sg52_21_cif.got.tgz:41905.got - 2010.06.26 19:32:48.
