data_PCOD8216818
_publ_section_title
;
Structure prediction by ZEFSAII (Michael W. Deem and Ramdas Pophale) SiO2 
 PCOD8216818
Probable space group: P N N A
;
_chemical_formula_sum "Si O2"
_cell_formula_units_Z 48
_cell_length_a 8.778233
_cell_length_b 8.159724
_cell_length_c 30.045854
_cell_angle_alpha 90.000000
_cell_angle_beta 90.000000
_cell_angle_gamma 90.000000
_cell_volume 2152.123183
_symmetry_space_group_name_H-M "P N N A"
_symmetry_group_IT_number 52
_symmetry_cell_setting 'orthorhombic'
loop_
_space_group_symop_operation_xyz
x,y,z
1/2-x,-y,z
x,1/2-y,1/2-z
1/2-x,1/2+y,1/2-z
-x,-y,-z
1/2+x,y,-z
-x,1/2+y,1/2+z
1/2+x,1/2-y,1/2+z
loop_
_atom_site_type_symbol
_atom_site_label
_atom_site_fract_x
_atom_site_fract_y
_atom_site_fract_z
Si Si1 0.030029 0.724574 0.601068
Si Si2 0.250000 0.000000 0.211464
Si Si3 0.972528 0.750000 0.750000
Si Si4 0.129200 0.877093 0.514548
Si Si5 0.710428 0.690542 0.573817
Si Si6 0.209392 0.676055 0.823705
Si Si7 0.005416 0.382521 0.646207
O O1 0.081939 0.735882 0.549595
O O2 0.126970 0.856706 0.628938
O O3 0.068291 0.552988 0.625811
O O4 0.850778 0.765369 0.602197
O O5 0.141551 0.098328 0.245069
O O6 0.362246 0.103325 0.179601
O O7 0.082082 0.756869 0.792551
O O8 0.196703 0.782818 0.472405
O O9 0.250000 0.000000 0.536606
O O10 0.000000 0.000000 0.500000
O O11 0.750000 0.500000 0.564978
O O12 0.557711 0.715842 0.602972
O O13 0.250000 0.500000 0.802931
O O14 0.359101 0.788928 0.828501
#
# Coordination Sequence:
#
# PCOD8216818 Si02
#       7
#     8   4   4   8   8   8   8
#     4  11  23  47  67 103 146 197 241 296 376 432
#     4  12  26  52  78 110 146 196 246 296 378 446
#     4  12  30  50  76 110 146 194 246 308 378 446
#     4  12  26  43  66 103 147 191 243 315 362 428
#     4  10  23  44  70  99 136 200 250 295 361 441
#     4  12  29  45  74 112 146 187 244 313 381 445
#     4  11  24  48  77 102 148 192 244 306 363 457
#
# _framework density 22.303554999999999
#
# number of rings (size 3 to 8) (size 9 to 14) (size 15 to 20)
#    0.000    0.667    5.833    1.000    9.333    4.000 
#    0.000    0.000    0.000    0.000    0.000    0.000 
#    0.000    0.000    0.000    0.000    0.000    0.000 
#
# Total GULP energy -594876.423263 kJ/mol
# GULP energy per Si atom -12393.258818 kJ/mol
# Density = 2.225279 g / cm^3
# Si number density = 22.303555 Si / 1000 Ang^3
#
#
#
# Elastic Constant Matrix: (Units=GPa)
#
#
# Indices 1 2 3 4 5 6 
#
# 1 158.0889 63.7383 60.5517 0.0000 0.0000 0.0000
# 2 63.7383 74.7313 38.8307 0.0000 0.0000 0.0000
# 3 60.5517 38.8307 99.8192 0.0000 0.0000 0.0000
# 4 0.0000 0.0000 0.0000 32.1298 0.0000 0.0000
# 5 0.0000 0.0000 0.0000 0.0000 47.3211 0.0000
# 6 0.0000 0.0000 0.0000 0.0000 0.0000 42.2749
#
#
#
# Elastic Compliance Matrix: (Units=1/GPa)
#
#
# Indices 1 2 3 4 5 6 
#
# 1 0.010607 -0.007148 -0.003654 0.000000 0.000000 0.000000
# 2 -0.007148 0.021589 -0.004062 0.000000 0.000000 0.000000
# 3 -0.003654 -0.004062 0.013815 0.000000 0.000000 0.000000
# 4 0.000000 0.000000 0.000000 0.031124 0.000000 0.000000
# 5 0.000000 0.000000 0.000000 0.000000 0.021132 0.000000
# 6 0.000000 0.000000 0.000000 0.000000 0.000000 0.023655
#
#
# Mechanical properties :
#
#
# Convention : Reuss Voigt Hill
#
# Bulk Modulus (GPa) = 61.41543 73.20897 67.31220
# Shear Modulus (GPa) = 31.83169 35.64642 33.73906
#
# Velocity S-wave (km/s) = 3.78193 4.00214 3.89359
# Velocity P-wave (km/s) = 6.83130 7.36555 7.10345
#
# Compressibility (1/GPa) = 0.01628255
#
# Stress axis : x y z
#
# Youngs Moduli (GPa) = 94.27717 46.32054 72.38729
#
# Poissons Ratio (x) = 0.33111 0.26447
# Poissons Ratio (y) = 0.67392 0.29403
# Poissons Ratio (z) = 0.34445 0.18815
#
# Static dielectric constant tensor:
#      x y z
#    x 4.292140 0.000000 0.000000 
#    y 0.000000 3.980890 0.000000 
#    z 0.000000 0.000000 4.152550 
# 
# 
# High freq. dielectric constant tensor:
#      x y z
#    x 1.904580 0.000000 0.000000 
#    y 0.000000 1.860250 0.000000 
#    z 0.000000 0.000000 1.881780 
# 
# From -- ./inp_files/44439.got.cif
#   From: 2010.06.25/outbox.cif.g09.slc.cpg/sg52_23_cif.got.tgz:44439.got - 2010.06.26 19:32:48.
