data_PCOD8216101
_publ_section_title
;
Structure prediction by ZEFSAII (Michael W. Deem and Ramdas Pophale) SiO2 
 PCOD8216101
Probable space group: P N N A
;
_chemical_formula_sum "Si O2"
_cell_formula_units_Z 48
_cell_length_a 17.730920
_cell_length_b 8.748137
_cell_length_c 15.907937
_cell_angle_alpha 90.000000
_cell_angle_beta 90.000000
_cell_angle_gamma 90.000000
_cell_volume 2467.520153
_symmetry_space_group_name_H-M "P N N A"
_symmetry_group_IT_number 52
_symmetry_cell_setting 'orthorhombic'
loop_
_space_group_symop_operation_xyz
x,y,z
1/2-x,-y,z
x,1/2-y,1/2-z
1/2-x,1/2+y,1/2-z
-x,-y,-z
1/2+x,y,-z
-x,1/2+y,1/2+z
1/2+x,1/2-y,1/2+z
loop_
_atom_site_type_symbol
_atom_site_label
_atom_site_fract_x
_atom_site_fract_y
_atom_site_fract_z
Si Si1 0.839809 0.178362 0.336882
Si Si2 0.195645 0.620949 0.106390
Si Si3 0.153115 0.319185 0.163695
Si Si4 0.909762 0.325688 0.493306
Si Si5 0.334639 0.821469 0.660991
Si Si6 0.414817 0.823903 0.997708
O O1 0.865371 0.250000 0.250000
O O2 0.894495 0.262421 0.401346
O O3 0.752805 0.215002 0.355859
O O4 0.854258 0.998946 0.335612
O O5 0.250000 0.500000 0.051331
O O6 0.146049 0.506113 0.165681
O O7 0.257027 0.724386 0.156697
O O8 0.141263 0.727693 0.055479
O O9 0.119898 0.250000 0.250000
O O10 0.107082 0.255951 0.084603
O O11 0.886756 0.501854 0.501353
O O12 0.996466 0.306048 0.516536
O O13 0.360517 0.750000 0.750000
O O14 0.378380 0.751671 0.583201
#
# Coordination Sequence:
#
# PCOD8216101 Si02
#       6
#     8   8   8   8   8   8
#     4  10  21  36  61  88 117 155 194 251 297 351
#     4   8  21  38  59  87 111 151 202 247 297 348
#     4   9  20  39  60  88 115 150 201 244 301 357
#     4  11  23  39  57  85 125 155 205 242 303 361
#     4  10  21  39  62  90 118 150 203 244 299 357
#     4  11  24  38  58  87 120 165 193 246 302 364
#
# _framework density 19.452728
#
# number of rings (size 3 to 8) (size 9 to 14) (size 15 to 20)
#    1.000    1.000    0.000    3.000    2.333   10.000 
#    0.000    4.167    0.000    0.000    0.000    0.000 
#    0.000    0.000    0.000    0.000    0.000    0.000 
#
# Total GULP energy -594720.607376 kJ/mol
# GULP energy per Si atom -12390.012654 kJ/mol
# Density = 1.940845 g / cm^3
# Si number density = 19.452728 Si / 1000 Ang^3
#
#
#
# Elastic Constant Matrix: (Units=GPa)
#
#
# Indices 1 2 3 4 5 6 
#
# 1 54.9361 47.0291 40.1972 0.0000 0.0000 0.0000
# 2 47.0291 89.6576 38.9878 0.0000 0.0000 0.0000
# 3 40.1972 38.9878 124.2775 0.0000 0.0000 0.0000
# 4 0.0000 0.0000 0.0000 34.6740 0.0000 0.0000
# 5 0.0000 0.0000 0.0000 0.0000 -128.7482 0.0000
# 6 0.0000 0.0000 0.0000 0.0000 0.0000 36.9423
#
#
#
# Elastic Compliance Matrix: (Units=1/GPa)
#
#
# Indices 1 2 3 4 5 6 
#
# 1 0.037546 -0.016690 -0.006908 0.000000 0.000000 0.000000
# 2 -0.016690 0.020335 -0.000981 0.000000 0.000000 0.000000
# 3 -0.006908 -0.000981 0.010589 0.000000 0.000000 0.000000
# 4 0.000000 0.000000 0.000000 0.028840 0.000000 0.000000
# 5 0.000000 0.000000 0.000000 0.000000 -0.007767 0.000000
# 6 0.000000 0.000000 0.000000 0.000000 0.000000 0.027069
#
#
# Mechanical properties :
#
#
# Convention : Reuss Voigt Hill
#
# Bulk Modulus (GPa) = 51.78489 57.92213 54.85351
# Shear Modulus (GPa) = 29.03490 -1.91590 13.55950
#
# Velocity S-wave (km/s) = 3.86759 -0.99350 2.64303
# Velocity P-wave (km/s) = 6.82811 5.34083 6.12974
#
# Compressibility (1/GPa) = 0.01931065
#
# Stress axis : x y z
#
# Youngs Moduli (GPa) = 26.63426 49.17675 94.44097
#
# Poissons Ratio (x) = 0.82077 0.65240
# Poissons Ratio (y) = 0.44453 0.09264
# Poissons Ratio (z) = 0.18399 0.04824
#
# Static dielectric constant tensor:
#      x y z
#    x 3.444850 0.000000 0.000000 
#    y 0.000000 3.687800 0.000000 
#    z 0.000000 0.000000 3.414910 
# 
# 
# High freq. dielectric constant tensor:
#      x y z
#    x 1.746900 0.000000 0.000000 
#    y 0.000000 1.769000 0.000000 
#    z 0.000000 0.000000 1.752750 
# 
# From -- ./inp_files/28068.got.cif
#   From: 2010.06.25/outbox.cif.g09.slc.cpg/sg52_15_cif.got.tgz:28068.got - 2010.06.26 19:32:48.
