data_PCOD8216758
_publ_section_title
;
Structure prediction by ZEFSAII (Michael W. Deem and Ramdas Pophale) SiO2 
 PCOD8216758
Probable space group: P N N A
;
_chemical_formula_sum "Si O2"
_cell_formula_units_Z 32
_cell_length_a 8.554153
_cell_length_b 15.739005
_cell_length_c 10.615173
_cell_angle_alpha 90.000000
_cell_angle_beta 90.000000
_cell_angle_gamma 90.000000
_cell_volume 1429.161682
_symmetry_space_group_name_H-M "P N N A"
_symmetry_group_IT_number 52
_symmetry_cell_setting 'orthorhombic'
loop_
_space_group_symop_operation_xyz
x,y,z
1/2-x,-y,z
x,1/2-y,1/2-z
1/2-x,1/2+y,1/2-z
-x,-y,-z
1/2+x,y,-z
-x,1/2+y,1/2+z
1/2+x,1/2-y,1/2+z
loop_
_atom_site_type_symbol
_atom_site_label
_atom_site_fract_x
_atom_site_fract_y
_atom_site_fract_z
Si Si1 0.078035 0.218930 0.126338
Si Si2 0.930202 0.977265 0.866365
Si Si3 0.479885 0.567569 0.888512
Si Si4 0.796884 0.319624 0.031453
O O1 0.169899 0.250000 0.250000
O O2 0.036175 0.121734 0.142540
O O3 0.923951 0.278618 0.122975
O O4 0.190757 0.239400 0.009971
O O5 0.750000 0.000000 0.862958
O O6 0.010967 0.025455 0.749304
O O7 0.000000 0.000000 0.000000
O O8 0.309167 0.611159 0.896117
O O9 0.500000 0.500000 0.000000
O O10 0.618204 0.636161 0.910966
#
# Coordination Sequence:
#
# PCOD8216758 Si02
#       4
#     8   8   8   8
#     4  11  23  42  64  92 129 169 212 263 322 385
#     4  12  26  43  65  98 137 175 216 271 331 390
#     4  11  22  42  70  97 124 166 221 271 319 385
#     4  10  23  41  67  95 123 166 218 267 319 384
#
# _framework density 22.390749
#
# number of rings (size 3 to 8) (size 9 to 14) (size 15 to 20)
#    0.000    1.000    0.000    8.250    0.000    6.000 
#    0.000    5.000    0.000    0.000    0.000    0.000 
#    0.000    0.000    0.000    0.000    0.000    0.000 
#
# Total GULP energy -396655.273884 kJ/mol
# GULP energy per Si atom -12395.477309 kJ/mol
# Density = 2.233979 g / cm^3
# Si number density = 22.390749 Si / 1000 Ang^3
#
#
#
# Elastic Constant Matrix: (Units=GPa)
#
#
# Indices 1 2 3 4 5 6 
#
# 1 106.5695 38.6330 29.5005 0.0000 0.0000 0.0000
# 2 38.6330 153.2066 56.2577 0.0000 0.0000 0.0000
# 3 29.5005 56.2577 151.0441 0.0000 0.0000 0.0000
# 4 0.0000 0.0000 0.0000 45.2763 0.0000 0.0000
# 5 0.0000 0.0000 0.0000 0.0000 27.0815 0.0000
# 6 0.0000 0.0000 0.0000 0.0000 0.0000 29.7889
#
#
#
# Elastic Compliance Matrix: (Units=1/GPa)
#
#
# Indices 1 2 3 4 5 6 
#
# 1 0.010523 -0.002200 -0.001236 0.000000 0.000000 0.000000
# 2 -0.002200 0.008021 -0.002558 0.000000 0.000000 0.000000
# 3 -0.001236 -0.002558 0.007815 0.000000 0.000000 0.000000
# 4 0.000000 0.000000 0.000000 0.022087 0.000000 0.000000
# 5 0.000000 0.000000 0.000000 0.000000 0.036926 0.000000
# 6 0.000000 0.000000 0.000000 0.000000 0.000000 0.033570
#
#
# Mechanical properties :
#
#
# Convention : Reuss Voigt Hill
#
# Bulk Modulus (GPa) = 69.58093 73.28918 71.43506
# Shear Modulus (GPa) = 36.84101 39.52460 38.18281
#
# Velocity S-wave (km/s) = 4.06071 4.20601 4.13400
# Velocity P-wave (km/s) = 7.28897 7.50935 7.39998
#
# Compressibility (1/GPa) = 0.01437175
#
# Stress axis : x y z
#
# Youngs Moduli (GPa) = 95.02893 124.67154 127.96396
#
# Poissons Ratio (x) = 0.27424 0.15816
# Poissons Ratio (y) = 0.20903 0.32732
# Poissons Ratio (z) = 0.11745 0.31890
#
# Static dielectric constant tensor:
#      x y z
#    x 3.419290 0.000000 0.000000 
#    y 0.000000 4.187170 0.000000 
#    z 0.000000 0.000000 4.775950 
# 
# 
# High freq. dielectric constant tensor:
#      x y z
#    x 1.891420 0.000000 0.000000 
#    y 0.000000 1.899320 0.000000 
#    z 0.000000 0.000000 1.881350 
# 
# From -- ./inp_files/16413.got.cif
#   From: 2010.06.25/outbox.cif.g09.slc.cpg/sg52_9_cif.got.tgz:16413.got - 2010.06.26 19:32:48.
