data_PCOD8216809
_publ_section_title
;
Structure prediction by ZEFSAII (Michael W. Deem and Ramdas Pophale) SiO2 
 PCOD8216809
Probable space group: P N N A
;
_chemical_formula_sum "Si O2"
_cell_formula_units_Z 64
_cell_length_a 13.130274
_cell_length_b 25.004873
_cell_length_c 9.329343
_cell_angle_alpha 90.000000
_cell_angle_beta 90.000000
_cell_angle_gamma 90.000000
_cell_volume 3063.017673
_symmetry_space_group_name_H-M "P N N A"
_symmetry_group_IT_number 52
_symmetry_cell_setting 'orthorhombic'
loop_
_space_group_symop_operation_xyz
x,y,z
1/2-x,-y,z
x,1/2-y,1/2-z
1/2-x,1/2+y,1/2-z
-x,-y,-z
1/2+x,y,-z
-x,1/2+y,1/2+z
1/2+x,1/2-y,1/2+z
loop_
_atom_site_type_symbol
_atom_site_label
_atom_site_fract_x
_atom_site_fract_y
_atom_site_fract_z
Si Si1 0.526821 0.692130 0.322426
Si Si2 0.870595 0.610391 0.760364
Si Si3 0.720301 0.691596 0.181200
Si Si4 0.746258 0.437457 0.509978
Si Si5 0.925827 0.140516 0.894696
Si Si6 0.832930 0.141997 0.602050
Si Si7 0.009068 0.437242 0.997427
Si Si8 0.371891 0.895122 0.759438
O O1 0.527576 0.750000 0.250000
O O2 0.418386 0.667692 0.280699
O O3 0.624759 0.661580 0.255941
O O4 0.548814 0.688527 0.493648
O O5 0.843962 0.582501 0.612132
O O6 0.773953 0.614644 0.863066
O O7 0.957602 0.578017 0.842660
O O8 0.733597 0.750000 0.250000
O O9 0.825665 0.661920 0.212789
O O10 0.690761 0.689654 0.011326
O O11 0.750000 0.500000 0.540323
O O12 0.850524 0.405457 0.543872
O O13 0.713624 0.428089 0.345585
O O14 0.879913 0.166618 0.748842
O O15 0.031052 0.111435 0.860861
O O16 0.906319 0.095079 0.542232
O O17 0.098648 0.425309 0.884973
O O18 0.000000 0.500000 0.000000
#
# Coordination Sequence:
#
# PCOD8216809 Si02
#       8
#     8   8   8   8   8   8   8   8
#     4  11  23  43  72  98 131 182 224 285 350 406
#     4  11  23  43  67  97 141 173 229 284 328 418
#     4  11  23  43  70  98 133 183 235 285 346 411
#     4  11  25  41  68 101 137 187 225 277 346 407
#     4  10  23  44  65  97 145 166 232 287 331 414
#     4  10  23  44  65  97 143 175 225 288 339 408
#     4  11  25  41  68 102 137 183 227 282 345 409
#     4  11  23  44  66  97 139 185 227 289 336 410
#
# _framework density 20.894427
#
# number of rings (size 3 to 8) (size 9 to 14) (size 15 to 20)
#    0.000    1.250    5.000    0.000    5.250    3.500 
#    0.000    2.500    0.000    0.000    0.000    0.000 
#    0.000    0.000    0.000    0.000    0.000    0.000 
#
# Total GULP energy -793025.479727 kJ/mol
# GULP energy per Si atom -12391.023121 kJ/mol
# Density = 2.084687 g / cm^3
# Si number density = 20.894427 Si / 1000 Ang^3
#
#
#
# Elastic Constant Matrix: (Units=GPa)
#
#
# Indices 1 2 3 4 5 6 
#
# 1 119.5191 47.7766 38.6224 0.0000 0.0000 0.0000
# 2 47.7766 124.8435 57.0570 0.0000 0.0000 0.0000
# 3 38.6224 57.0570 102.5320 0.0000 0.0000 0.0000
# 4 0.0000 0.0000 0.0000 16.0901 0.0000 0.0000
# 5 0.0000 0.0000 0.0000 0.0000 38.8695 0.0000
# 6 0.0000 0.0000 0.0000 0.0000 0.0000 24.5169
#
#
#
# Elastic Compliance Matrix: (Units=1/GPa)
#
#
# Indices 1 2 3 4 5 6 
#
# 1 0.010251 -0.002894 -0.002251 0.000000 0.000000 0.000000
# 2 -0.002894 0.011559 -0.005342 0.000000 0.000000 0.000000
# 3 -0.002251 -0.005342 0.013574 0.000000 0.000000 0.000000
# 4 0.000000 0.000000 0.000000 0.062150 0.000000 0.000000
# 5 0.000000 0.000000 0.000000 0.000000 0.025727 0.000000
# 6 0.000000 0.000000 0.000000 0.000000 0.000000 0.040788
#
#
# Mechanical properties :
#
#
# Convention : Reuss Voigt Hill
#
# Bulk Modulus (GPa) = 69.39931 70.42294 69.91112
# Shear Modulus (GPa) = 26.33970 29.45786 27.89878
#
# Velocity S-wave (km/s) = 3.55436 3.75886 3.65804
# Velocity P-wave (km/s) = 7.08032 7.25369 7.16753
#
# Compressibility (1/GPa) = 0.01440937
#
# Stress axis : x y z
#
# Youngs Moduli (GPa) = 97.54947 86.51113 73.67169
#
# Poissons Ratio (x) = 0.25039 0.16582
# Poissons Ratio (y) = 0.28234 0.39357
# Poissons Ratio (z) = 0.21957 0.46216
#
# Static dielectric constant tensor:
#      x y z
#    x 4.454010 0.000000 0.000000 
#    y 0.000000 3.366040 0.000000 
#    z 0.000000 0.000000 4.187940 
# 
# 
# High freq. dielectric constant tensor:
#      x y z
#    x 1.836880 0.000000 0.000000 
#    y 0.000000 1.784580 0.000000 
#    z 0.000000 0.000000 1.840250 
# 
# From -- ./inp_files/11022.got.cif
#   From: 2010.06.25/outbox.cif.g09.slc.cpg/sg52_6_cif.got.tgz:11022.got - 2010.06.26 19:32:48.
