data_PCOD8216642
_publ_section_title
;
Structure prediction by ZEFSAII (Michael W. Deem and Ramdas Pophale) SiO2 
 PCOD8216642
Probable space group: P N N A
;
_chemical_formula_sum "Si O2"
_cell_formula_units_Z 40
_cell_length_a 16.377599
_cell_length_b 12.866022
_cell_length_c 8.996731
_cell_angle_alpha 90.000000
_cell_angle_beta 90.000000
_cell_angle_gamma 90.000000
_cell_volume 1895.742116
_symmetry_space_group_name_H-M "P N N A"
_symmetry_group_IT_number 52
_symmetry_cell_setting 'orthorhombic'
loop_
_space_group_symop_operation_xyz
x,y,z
1/2-x,-y,z
x,1/2-y,1/2-z
1/2-x,1/2+y,1/2-z
-x,-y,-z
1/2+x,y,-z
-x,1/2+y,1/2+z
1/2+x,1/2-y,1/2+z
loop_
_atom_site_type_symbol
_atom_site_label
_atom_site_fract_x
_atom_site_fract_y
_atom_site_fract_z
Si Si1 0.450802 0.250000 0.250000
Si Si2 0.316831 0.075365 0.760565
Si Si3 0.707775 0.149746 0.969167
Si Si4 0.250000 0.500000 0.217974
Si Si5 0.552180 0.431951 0.384948
Si Si6 0.680192 0.672977 0.963033
O O1 0.501000 0.355376 0.279252
O O2 0.395651 0.263787 0.103497
O O3 0.333342 0.166036 0.640913
O O4 0.250000 0.000000 0.684269
O O5 0.401549 0.015578 0.783574
O O6 0.279668 0.112067 0.918113
O O7 0.734163 0.267172 0.929798
O O8 0.702721 0.080863 0.821934
O O9 0.617897 0.144710 0.037858
O O10 0.315271 0.439369 0.115900
O O11 0.500000 0.500000 0.500000
#
# Coordination Sequence:
#
# PCOD8216642 Si02
#       6
#     4   8   8   4   8   8
#     4  12  26  40  66 100 144 168 216 290 350 392
#     4  10  22  42  70  92 127 174 230 271 323 404
#     4  11  22  43  70  95 126 184 230 268 326 410
#     4  12  20  40  68  94 132 168 230 276 322 380
#     4  11  24  43  66  95 141 177 213 282 353 392
#     4  12  24  41  67 102 128 176 228 277 322 409
#
# _framework density 21.099917000000001
#
# number of rings (size 3 to 8) (size 9 to 14) (size 15 to 20)
#    0.000    0.800    6.000    3.000    5.600    0.800 
#    0.000    4.000    0.000    0.000    0.000    0.000 
#    0.000    0.000    0.000    0.000    0.000    0.000 
#
# Total GULP energy -495889.969244 kJ/mol
# GULP energy per Si atom -12397.249231 kJ/mol
# Density = 2.105189 g / cm^3
# Si number density = 21.099917 Si / 1000 Ang^3
#
#
#
# Elastic Constant Matrix: (Units=GPa)
#
#
# Indices 1 2 3 4 5 6 
#
# 1 115.8621 43.9174 36.0471 0.0000 0.0000 0.0000
# 2 43.9174 96.3455 40.9791 0.0000 0.0000 0.0000
# 3 36.0471 40.9791 99.3376 0.0000 0.0000 0.0000
# 4 0.0000 0.0000 0.0000 48.3263 0.0000 0.0000
# 5 0.0000 0.0000 0.0000 0.0000 17.0001 0.0000
# 6 0.0000 0.0000 0.0000 0.0000 0.0000 42.4674
#
#
#
# Elastic Compliance Matrix: (Units=1/GPa)
#
#
# Indices 1 2 3 4 5 6 
#
# 1 0.010851 -0.003967 -0.002301 0.000000 0.000000 0.000000
# 2 -0.003967 0.014039 -0.004352 0.000000 0.000000 0.000000
# 3 -0.002301 -0.004352 0.012697 0.000000 0.000000 0.000000
# 4 0.000000 0.000000 0.000000 0.020693 0.000000 0.000000
# 5 0.000000 0.000000 0.000000 0.000000 0.058823 0.000000
# 6 0.000000 0.000000 0.000000 0.000000 0.000000 0.023547
#
#
# Mechanical properties :
#
#
# Convention : Reuss Voigt Hill
#
# Bulk Modulus (GPa) = 61.17557 61.49248 61.33403
# Shear Modulus (GPa) = 29.87968 34.26554 32.07261
#
# Velocity S-wave (km/s) = 3.76720 4.03422 3.90299
# Velocity P-wave (km/s) = 6.92666 7.13489 7.03154
#
# Compressibility (1/GPa) = 0.01634639
#
# Stress axis : x y z
#
# Youngs Moduli (GPa) = 92.16064 71.23163 78.76062
#
# Poissons Ratio (x) = 0.28261 0.18121
# Poissons Ratio (y) = 0.36565 0.34274
# Poissons Ratio (z) = 0.21204 0.30997
#
# Static dielectric constant tensor:
#      x y z
#    x 3.673850 0.000000 0.000000 
#    y 0.000000 4.251000 0.000000 
#    z 0.000000 0.000000 3.791810 
# 
# 
# High freq. dielectric constant tensor:
#      x y z
#    x 1.806110 0.000000 0.000000 
#    y 0.000000 1.839210 0.000000 
#    z 0.000000 0.000000 1.834250 
# 
# From -- ./inp_files/11653.got.cif
#   From: 2010.06.25/outbox.cif.g09.slc.cpg/sg52_6_cif.got.tgz:11653.got - 2010.06.26 19:32:48.
