data_PCOD8216345
_publ_section_title
;
Structure prediction by ZEFSAII (Michael W. Deem and Ramdas Pophale) SiO2 
 PCOD8216345
Probable space group: P N N A
;
_chemical_formula_sum "Si O2"
_cell_formula_units_Z 48
_cell_length_a 18.980021
_cell_length_b 14.573747
_cell_length_c 8.644605
_cell_angle_alpha 90.000000
_cell_angle_beta 90.000000
_cell_angle_gamma 90.000000
_cell_volume 2391.184397
_symmetry_space_group_name_H-M "P N N A"
_symmetry_group_IT_number 52
_symmetry_cell_setting 'orthorhombic'
loop_
_space_group_symop_operation_xyz
x,y,z
1/2-x,-y,z
x,1/2-y,1/2-z
1/2-x,1/2+y,1/2-z
-x,-y,-z
1/2+x,y,-z
-x,1/2+y,1/2+z
1/2+x,1/2-y,1/2+z
loop_
_atom_site_type_symbol
_atom_site_label
_atom_site_fract_x
_atom_site_fract_y
_atom_site_fract_z
Si Si1 0.395605 0.841455 0.347733
Si Si2 0.190825 0.566470 0.437563
Si Si3 0.012849 0.244246 0.931359
Si Si4 0.143717 0.749395 0.931692
Si Si5 0.936780 0.941428 0.940698
Si Si6 0.237732 0.599721 0.091670
O O1 0.404311 0.750000 0.250000
O O2 0.444313 0.831875 0.500753
O O3 0.427871 0.924449 0.244571
O O4 0.313738 0.853223 0.388939
O O5 0.250000 0.500000 0.503509
O O6 0.191525 0.664430 0.520641
O O7 0.124713 0.508227 0.489979
O O8 0.199148 0.585191 0.255242
O O9 0.006880 0.250000 0.750000
O O10 0.933649 0.241855 0.995605
O O11 0.059685 0.155347 0.971883
O O12 0.133610 0.750000 0.750000
O O13 0.185307 0.658637 0.985365
O O14 0.000000 0.000000 0.000000
O O15 0.250000 0.500000 0.013277
#
# Coordination Sequence:
#
# PCOD8216345 Si02
#       6
#     8   8   8   8   8   8
#     4  10  21  41  68  96 134 176 223 276 340 403
#     4  11  22  42  71  99 131 181 225 274 340 410
#     4  11  25  44  65  97 136 186 228 282 348 412
#     4  12  26  44  66  97 140 179 227 288 346 407
#     4  11  21  40  69  99 138 173 229 281 335 410
#     4  11  23  44  71  99 130 178 230 277 338 414
#
# _framework density 20.073733000000001
#
# number of rings (size 3 to 8) (size 9 to 14) (size 15 to 20)
#    0.000    1.000    5.000    4.000    2.333    1.333 
#    3.000    1.667    0.000    0.000    0.000    0.000 
#    0.000    0.000    0.000    0.000    0.000    0.000 
#
# Total GULP energy -594839.136341 kJ/mol
# GULP energy per Si atom -12392.482007 kJ/mol
# Density = 2.002804 g / cm^3
# Si number density = 20.073733 Si / 1000 Ang^3
#
#
#
# Elastic Constant Matrix: (Units=GPa)
#
#
# Indices 1 2 3 4 5 6 
#
# 1 126.7983 36.5822 48.9294 0.0000 0.0000 0.0000
# 2 36.5822 106.7784 38.0278 0.0000 0.0000 0.0000
# 3 48.9294 38.0278 120.4411 0.0000 0.0000 0.0000
# 4 0.0000 0.0000 0.0000 32.1278 0.0000 0.0000
# 5 0.0000 0.0000 0.0000 0.0000 33.2493 0.0000
# 6 0.0000 0.0000 0.0000 0.0000 0.0000 36.3141
#
#
#
# Elastic Compliance Matrix: (Units=1/GPa)
#
#
# Indices 1 2 3 4 5 6 
#
# 1 0.009784 -0.002182 -0.003286 0.000000 0.000000 0.000000
# 2 -0.002182 0.011038 -0.002599 0.000000 0.000000 0.000000
# 3 -0.003286 -0.002599 0.010458 0.000000 0.000000 0.000000
# 4 0.000000 0.000000 0.000000 0.031126 0.000000 0.000000
# 5 0.000000 0.000000 0.000000 0.000000 0.030076 0.000000
# 6 0.000000 0.000000 0.000000 0.000000 0.000000 0.027538
#
#
# Mechanical properties :
#
#
# Convention : Reuss Voigt Hill
#
# Bulk Modulus (GPa) = 66.01759 66.78849 66.40304
# Shear Modulus (GPa) = 35.41039 35.70348 35.55693
#
# Velocity S-wave (km/s) = 4.20458 4.22194 4.21327
# Velocity P-wave (km/s) = 7.51866 7.55713 7.53792
#
# Compressibility (1/GPa) = 0.01514748
#
# Stress axis : x y z
#
# Youngs Moduli (GPa) = 102.20808 90.59447 95.61822
#
# Poissons Ratio (x) = 0.19765 0.31419
# Poissons Ratio (y) = 0.22299 0.24850
# Poissons Ratio (z) = 0.33584 0.23544
#
# Static dielectric constant tensor:
#      x y z
#    x 3.781990 0.000000 0.000000 
#    y 0.000000 3.908750 0.000000 
#    z 0.000000 0.000000 3.402730 
# 
# 
# High freq. dielectric constant tensor:
#      x y z
#    x 1.799600 0.000000 0.000000 
#    y 0.000000 1.797500 0.000000 
#    z 0.000000 0.000000 1.766630 
# 
# From -- ./inp_files/12057.got.cif
#   From: 2010.06.25/outbox.cif.g09.slc.cpg/sg52_7_cif.got.tgz:12057.got - 2010.06.26 19:32:48.
