data_PCOD8216486
_publ_section_title
;
Structure prediction by ZEFSAII (Michael W. Deem and Ramdas Pophale) SiO2 
 PCOD8216486
Probable space group: P N N A
;
_chemical_formula_sum "Si O2"
_cell_formula_units_Z 40
_cell_length_a 9.010044
_cell_length_b 22.217961
_cell_length_c 9.101606
_cell_angle_alpha 90.000000
_cell_angle_beta 90.000000
_cell_angle_gamma 90.000000
_cell_volume 1822.003233
_symmetry_space_group_name_H-M "P N N A"
_symmetry_group_IT_number 52
_symmetry_cell_setting 'orthorhombic'
loop_
_space_group_symop_operation_xyz
x,y,z
1/2-x,-y,z
x,1/2-y,1/2-z
1/2-x,1/2+y,1/2-z
-x,-y,-z
1/2+x,y,-z
-x,1/2+y,1/2+z
1/2+x,1/2-y,1/2+z
loop_
_atom_site_type_symbol
_atom_site_label
_atom_site_fract_x
_atom_site_fract_y
_atom_site_fract_z
Si Si1 0.543530 0.048683 0.316308
Si Si2 0.535263 0.158184 0.131998
Si Si3 0.630395 0.572814 0.096662
Si Si4 0.277171 0.720632 0.396427
Si Si5 0.791917 0.198060 0.341846
O O1 0.527678 0.085379 0.162620
O O2 0.693410 0.065178 0.402024
O O3 0.411928 0.066339 0.426350
O O4 0.547710 0.975698 0.295996
O O5 0.371577 0.184494 0.141565
O O6 0.634731 0.185507 0.262176
O O7 0.608547 0.174081 0.974491
O O8 0.598668 0.640412 0.154658
O O9 0.346363 0.750000 0.250000
O O10 0.242426 0.778444 0.496384
O O11 0.877063 0.250000 0.250000
#
# Coordination Sequence:
#
# PCOD8216486 Si02
#       5
#     8   8   8   8   8
#     4   9  18  35  57  88 118 146 194 249 293 341
#     4  10  22  39  57  85 123 154 194 249 292 346
#     4   9  17  32  61  86 113 151 190 239 294 346
#     4  11  21  35  57  86 122 158 193 236 296 357
#     4   9  19  35  56  83 116 149 188 239 289 340
#
# _framework density 21.953856999999999
#
# number of rings (size 3 to 8) (size 9 to 14) (size 15 to 20)
#    0.000    2.400    0.000    3.000    0.000    5.600 
#    0.000   10.000    0.000   30.000    0.000   42.000 
#    0.000    0.000    0.000    0.000    0.000    0.000 
#
# Total GULP energy -495642.243382 kJ/mol
# GULP energy per Si atom -12391.056085 kJ/mol
# Density = 2.190389 g / cm^3
# Si number density = 21.953857 Si / 1000 Ang^3
#
#
#
# Elastic Constant Matrix: (Units=GPa)
#
#
# Indices 1 2 3 4 5 6 
#
# 1 46.0326 3.7261 10.1092 0.0000 0.0000 0.0000
# 2 3.7261 182.8490 63.7449 0.0000 0.0000 0.0000
# 3 10.1092 63.7449 127.1201 0.0000 0.0000 0.0000
# 4 0.0000 0.0000 0.0000 37.4713 0.0000 0.0000
# 5 0.0000 0.0000 0.0000 0.0000 24.3966 0.0000
# 6 0.0000 0.0000 0.0000 0.0000 0.0000 20.5126
#
#
#
# Elastic Compliance Matrix: (Units=1/GPa)
#
#
# Indices 1 2 3 4 5 6 
#
# 1 0.022116 0.000197 -0.001857 0.000000 0.000000 0.000000
# 2 0.000197 0.006629 -0.003340 0.000000 0.000000 0.000000
# 3 -0.001857 -0.003340 0.009689 0.000000 0.000000 0.000000
# 4 0.000000 0.000000 0.000000 0.026687 0.000000 0.000000
# 5 0.000000 0.000000 0.000000 0.000000 0.040989 0.000000
# 6 0.000000 0.000000 0.000000 0.000000 0.000000 0.048751
#
#
# Mechanical properties :
#
#
# Convention : Reuss Voigt Hill
#
# Bulk Modulus (GPa) = 35.17030 56.79578 45.98304
# Shear Modulus (GPa) = 28.67959 35.03754 31.85856
#
# Velocity S-wave (km/s) = 3.61828 3.99928 3.81354
# Velocity P-wave (km/s) = 5.78885 6.87404 6.35465
#
# Compressibility (1/GPa) = 0.02843308
#
# Stress axis : x y z
#
# Youngs Moduli (GPa) = 45.21667 150.84400 103.20832
#
# Poissons Ratio (x) = -0.02970 0.19171
# Poissons Ratio (y) = -0.00890 0.34471
# Poissons Ratio (z) = 0.08399 0.50382
#
# Static dielectric constant tensor:
#      x y z
#    x 3.736130 0.000000 0.000000 
#    y 0.000000 5.120870 0.000000 
#    z 0.000000 0.000000 3.830960 
# 
# 
# High freq. dielectric constant tensor:
#      x y z
#    x 1.853400 0.000000 0.000000 
#    y 0.000000 1.877950 0.000000 
#    z 0.000000 0.000000 1.834050 
# 
# From -- ./inp_files/7450.got.cif
#   From: 2010.06.25/outbox.cif.g09.slc.cpg/sg52_4_cif.got.tgz:7450.got - 2010.06.26 19:32:48.
