data_PCOD8216971
_publ_section_title
;
Structure prediction by ZEFSAII (Michael W. Deem and Ramdas Pophale) SiO2 
 PCOD8216971
Probable space group: P N N A
;
_chemical_formula_sum "Si O2"
_cell_formula_units_Z 28
_cell_length_a 10.037527
_cell_length_b 13.120316
_cell_length_c 9.263916
_cell_angle_alpha 90.000000
_cell_angle_beta 90.000000
_cell_angle_gamma 90.000000
_cell_volume 1220.016291
_symmetry_space_group_name_H-M "P N N A"
_symmetry_group_IT_number 52
_symmetry_cell_setting 'orthorhombic'
loop_
_space_group_symop_operation_xyz
x,y,z
1/2-x,-y,z
x,1/2-y,1/2-z
1/2-x,1/2+y,1/2-z
-x,-y,-z
1/2+x,y,-z
-x,1/2+y,1/2+z
1/2+x,1/2-y,1/2+z
loop_
_atom_site_type_symbol
_atom_site_label
_atom_site_fract_x
_atom_site_fract_y
_atom_site_fract_z
Si Si1 0.999449 0.668201 0.978463
Si Si2 0.760615 0.782830 0.092031
Si Si3 0.602912 0.987485 0.690477
Si Si4 0.250000 0.500000 0.469288
O O1 0.034433 0.615383 0.131903
O O2 0.860154 0.727669 0.981511
O O3 0.110729 0.749110 0.937411
O O4 0.989876 0.582985 0.853022
O O5 0.806818 0.750000 0.250000
O O6 0.771753 0.904146 0.073051
O O7 0.620653 0.981946 0.864494
O O8 0.750000 0.000000 0.617128
#
# Coordination Sequence:
#
# PCOD8216971 Si02
#       4
#     8   8   8   4
#     4  11  24  47  70 112 148 189 238 315 364 436
#     4  12  29  44  73 107 148 193 253 305 369 430
#     4   9  21  43  77 102 139 194 243 286 376 438
#     4  10  26  48  74 102 144 204 244 298 372 452
#
# _framework density 22.950513999999998
#
# number of rings (size 3 to 8) (size 9 to 14) (size 15 to 20)
#    0.857    0.571    2.857    0.000    8.000    8.000 
#    0.000    0.000    0.000    0.000    0.000    0.000 
#    0.000    0.000    0.000    0.000    0.000    0.000 
#
# Total GULP energy -347236.339654 kJ/mol
# GULP energy per Si atom -12401.297845 kJ/mol
# Density = 2.289828 g / cm^3
# Si number density = 22.950514 Si / 1000 Ang^3
#
#
#
# Elastic Constant Matrix: (Units=GPa)
#
#
# Indices 1 2 3 4 5 6 
#
# 1 87.8776 20.7425 2.9610 0.0000 0.0000 0.0000
# 2 20.7425 153.7923 42.2250 0.0000 0.0000 0.0000
# 3 2.9610 42.2250 90.2917 0.0000 0.0000 0.0000
# 4 0.0000 0.0000 0.0000 31.6073 0.0000 0.0000
# 5 0.0000 0.0000 0.0000 0.0000 3.8798 0.0000
# 6 0.0000 0.0000 0.0000 0.0000 0.0000 21.0350
#
#
#
# Elastic Compliance Matrix: (Units=1/GPa)
#
#
# Indices 1 2 3 4 5 6 
#
# 1 0.011767 -0.001699 0.000409 0.000000 0.000000 0.000000
# 2 -0.001699 0.007706 -0.003548 0.000000 0.000000 0.000000
# 3 0.000409 -0.003548 0.012721 0.000000 0.000000 0.000000
# 4 0.000000 0.000000 0.000000 0.031638 0.000000 0.000000
# 5 0.000000 0.000000 0.000000 0.000000 0.257742 0.000000
# 6 0.000000 0.000000 0.000000 0.000000 0.000000 0.047540
#
#
# Mechanical properties :
#
#
# Convention : Reuss Voigt Hill
#
# Bulk Modulus (GPa) = 44.41140 51.53540 47.97340
# Shear Modulus (GPa) = 12.94345 29.03996 20.99171
#
# Velocity S-wave (km/s) = 2.37739 3.56101 3.02760
# Velocity P-wave (km/s) = 5.18931 6.27785 5.75936
#
# Compressibility (1/GPa) = 0.02251674
#
# Stress axis : x y z
#
# Youngs Moduli (GPa) = 84.98498 129.77681 78.61063
#
# Poissons Ratio (x) = 0.22053 -0.03214
# Poissons Ratio (y) = 0.14441 0.27889
# Poissons Ratio (z) = -0.03474 0.46042
#
# Static dielectric constant tensor:
#      x y z
#    x 4.033850 0.000000 0.000000 
#    y 0.000000 3.966660 0.000000 
#    z 0.000000 0.000000 3.854330 
# 
# 
# High freq. dielectric constant tensor:
#      x y z
#    x 1.907910 0.000000 0.000000 
#    y 0.000000 1.911730 0.000000 
#    z 0.000000 0.000000 1.884690 
# 
# From -- ./inp_files/17567.got.cif
#   From: 2010.06.25/outbox.cif.g09.slc.cpg/sg52_9_cif.got.tgz:17567.got - 2010.06.26 19:32:48.
