data_PCOD8216560
_publ_section_title
;
Structure prediction by ZEFSAII (Michael W. Deem and Ramdas Pophale) SiO2 
 PCOD8216560
Probable space group: P N N A
;
_chemical_formula_sum "Si O2"
_cell_formula_units_Z 24
_cell_length_a 25.237646
_cell_length_b 7.825210
_cell_length_c 5.468482
_cell_angle_alpha 90.000000
_cell_angle_beta 90.000000
_cell_angle_gamma 90.000000
_cell_volume 1079.969853
_symmetry_space_group_name_H-M "P N N A"
_symmetry_group_IT_number 52
_symmetry_cell_setting 'orthorhombic'
loop_
_space_group_symop_operation_xyz
x,y,z
1/2-x,-y,z
x,1/2-y,1/2-z
1/2-x,1/2+y,1/2-z
-x,-y,-z
1/2+x,y,-z
-x,1/2+y,1/2+z
1/2+x,1/2-y,1/2+z
loop_
_atom_site_type_symbol
_atom_site_label
_atom_site_fract_x
_atom_site_fract_y
_atom_site_fract_z
Si Si1 0.750000 0.000000 0.110192
Si Si2 0.290886 0.250000 0.250000
Si Si3 0.852986 0.429335 0.115276
Si Si4 0.956205 0.855749 0.490421
O O1 0.804602 0.975791 0.252769
O O2 0.753195 0.175136 0.957989
O O3 0.330251 0.104475 0.346283
O O4 0.869309 0.250000 0.250000
O O5 0.900829 0.557608 0.078510
O O6 0.972430 0.750000 0.250000
O O7 0.953831 0.750000 0.750000
O O8 0.000000 0.000000 0.500000
#
# Coordination Sequence:
#
# PCOD8216560 Si02
#       4
#     4   4   8   8
#     4  10  22  42  64 102 142 190 234 292 354 434
#     4  10  22  40  68  94 146 192 236 298 350 434
#     4  10  24  44  69 104 145 190 243 297 362 430
#     4  12  29  50  80 110 144 191 245 309 369 440
#
# _framework density 22.222843000000001
#
# number of rings (size 3 to 8) (size 9 to 14) (size 15 to 20)
#    0.000    1.333    0.000    3.000   11.667    6.667 
#    3.000    0.000    0.000    0.000    0.000    0.000 
#    0.000    0.000    0.000    0.000    0.000    0.000 
#
# Total GULP energy -297330.195491 kJ/mol
# GULP energy per Si atom -12388.758145 kJ/mol
# Density = 2.217226 g / cm^3
# Si number density = 22.222843 Si / 1000 Ang^3
#
#
#
# Elastic Constant Matrix: (Units=GPa)
#
#
# Indices 1 2 3 4 5 6 
#
# 1 181.0167 85.6429 73.4112 0.0000 0.0000 0.0000
# 2 85.6429 114.4107 65.3443 0.0000 0.0000 0.0000
# 3 73.4112 65.3443 164.1062 0.0000 0.0000 0.0000
# 4 0.0000 0.0000 0.0000 11.3078 0.0000 0.0000
# 5 0.0000 0.0000 0.0000 0.0000 -409.2195 0.0000
# 6 0.0000 0.0000 0.0000 0.0000 0.0000 57.6082
#
#
#
# Elastic Compliance Matrix: (Units=1/GPa)
#
#
# Indices 1 2 3 4 5 6 
#
# 1 0.008915 -0.005689 -0.001722 0.000000 0.000000 0.000000
# 2 -0.005689 0.014944 -0.003405 0.000000 0.000000 0.000000
# 3 -0.001722 -0.003405 0.008220 0.000000 0.000000 0.000000
# 4 0.000000 0.000000 0.000000 0.088435 0.000000 0.000000
# 5 0.000000 0.000000 0.000000 0.000000 -0.002444 0.000000
# 6 0.000000 0.000000 0.000000 0.000000 0.000000 0.017359
#
#
# Mechanical properties :
#
#
# Convention : Reuss Voigt Hill
#
# Bulk Modulus (GPa) = 95.74465 100.92558 98.33511
# Shear Modulus (GPa) = 31.14399 -52.38500 -10.62051
#
# Velocity S-wave (km/s) = 3.74764 -4.86043 -2.18849
# Velocity P-wave (km/s) = 7.86790 3.74373 6.16114
#
# Compressibility (1/GPa) = 0.01044445
#
# Stress axis : x y z
#
# Youngs Moduli (GPa) = 112.17489 66.91542 121.65243
#
# Poissons Ratio (x) = 0.38071 0.20954
# Poissons Ratio (y) = 0.63820 0.41428
# Poissons Ratio (z) = 0.19322 0.22788
#
# Static dielectric constant tensor:
#      x y z
#    x 4.049280 0.000000 0.000000 
#    y 0.000000 4.101180 0.000000 
#    z 0.000000 0.000000 4.649870 
# 
# 
# High freq. dielectric constant tensor:
#      x y z
#    x 1.877590 0.000000 0.000000 
#    y 0.000000 1.883990 0.000000 
#    z 0.000000 0.000000 1.896810 
# 
# From -- ./inp_files/4720.got.cif
#   From: 2010.06.25/outbox.cif.g09.slc.cpg/sg52_3_cif.got.tgz:4720.got - 2010.06.26 19:32:48.
