data_PCOD8216476
_publ_section_title
;
Structure prediction by ZEFSAII (Michael W. Deem and Ramdas Pophale) SiO2 
 PCOD8216476
Probable space group: P N N A
;
_chemical_formula_sum "Si O2"
_cell_formula_units_Z 48
_cell_length_a 9.227945
_cell_length_b 9.079483
_cell_length_c 27.953838
_cell_angle_alpha 90.000000
_cell_angle_beta 90.000000
_cell_angle_gamma 90.000000
_cell_volume 2342.111471
_symmetry_space_group_name_H-M "P N N A"
_symmetry_group_IT_number 52
_symmetry_cell_setting 'orthorhombic'
loop_
_space_group_symop_operation_xyz
x,y,z
1/2-x,-y,z
x,1/2-y,1/2-z
1/2-x,1/2+y,1/2-z
-x,-y,-z
1/2+x,y,-z
-x,1/2+y,1/2+z
1/2+x,1/2-y,1/2+z
loop_
_atom_site_type_symbol
_atom_site_label
_atom_site_fract_x
_atom_site_fract_y
_atom_site_fract_z
Si Si1 0.018751 0.667748 0.296142
Si Si2 0.727360 0.162532 0.133045
Si Si3 0.823224 0.842027 0.458679
Si Si4 0.992475 0.327244 0.300399
Si Si5 0.328693 0.156629 0.450731
Si Si6 0.743028 0.175714 0.651589
O O1 0.948320 0.750000 0.250000
O O2 0.169183 0.750694 0.305091
O O3 0.928064 0.692730 0.344211
O O4 0.042904 0.493785 0.289518
O O5 0.742911 0.270498 0.088630
O O6 0.833537 0.183117 0.177680
O O7 0.750000 0.000000 0.111646
O O8 0.756084 0.759279 0.505840
O O9 0.998040 0.851255 0.460597
O O10 0.750000 0.000000 0.460356
O O11 0.994817 0.250000 0.250000
O O12 0.083276 0.239353 0.340435
O O13 0.300858 0.235068 0.399812
O O14 0.250000 0.000000 0.445324
O O15 0.750000 0.000000 0.656358
#
# Coordination Sequence:
#
# PCOD8216476 Si02
#       6
#     8   8   8   8   8   8
#     4  11  22  42  63  87 125 160 205 257 306 366
#     4  10  24  42  61  90 127 161 204 253 311 368
#     4  11  22  39  67  93 125 163 207 257 307 363
#     4  11  24  40  63  91 122 166 206 253 309 363
#     4  10  22  38  63  97 126 158 206 257 307 362
#     4  11  23  39  62  92 125 159 208 251 306 367
#
# _framework density 20.494327999999999
#
# number of rings (size 3 to 8) (size 9 to 14) (size 15 to 20)
#    0.000    1.333    1.667    4.500    7.000    1.333 
#    0.000    2.500    0.000    0.000    0.000    0.000 
#    0.000    0.000    0.000    0.000    0.000    0.000 
#
# Total GULP energy -594842.657628 kJ/mol
# GULP energy per Si atom -12392.555367 kJ/mol
# Density = 2.044768 g / cm^3
# Si number density = 20.494328 Si / 1000 Ang^3
#
#
#
# Elastic Constant Matrix: (Units=GPa)
#
#
# Indices 1 2 3 4 5 6 
#
# 1 99.9925 29.5971 35.9278 0.0000 0.0000 0.0000
# 2 29.5971 95.9698 54.4381 0.0000 0.0000 0.0000
# 3 35.9278 54.4381 141.8620 0.0000 0.0000 0.0000
# 4 0.0000 0.0000 0.0000 27.0581 0.0000 0.0000
# 5 0.0000 0.0000 0.0000 0.0000 241.8005 0.0000
# 6 0.0000 0.0000 0.0000 0.0000 0.0000 27.4880
#
#
#
# Elastic Compliance Matrix: (Units=1/GPa)
#
#
# Indices 1 2 3 4 5 6 
#
# 1 0.011420 -0.002405 -0.001969 0.000000 0.000000 0.000000
# 2 -0.002405 0.013826 -0.004696 0.000000 0.000000 0.000000
# 3 -0.001969 -0.004696 0.009350 0.000000 0.000000 0.000000
# 4 0.000000 0.000000 0.000000 0.036958 0.000000 0.000000
# 5 0.000000 0.000000 0.000000 0.000000 0.004136 0.000000
# 6 0.000000 0.000000 0.000000 0.000000 0.000000 0.036380
#
#
# Mechanical properties :
#
#
# Convention : Reuss Voigt Hill
#
# Bulk Modulus (GPa) = 60.77351 64.19448 62.48400
# Shear Modulus (GPa) = 36.84741 73.79338 55.32040
#
# Velocity S-wave (km/s) = 4.24480 6.00707 5.20112
# Velocity P-wave (km/s) = 7.33094 8.91652 8.16232
#
# Compressibility (1/GPa) = 0.01645454
#
# Stress axis : x y z
#
# Youngs Moduli (GPa) = 87.56414 72.32963 106.95103
#
# Poissons Ratio (x) = 0.17394 0.21063
# Poissons Ratio (y) = 0.21058 0.50228
# Poissons Ratio (z) = 0.17245 0.33969
#
# Static dielectric constant tensor:
#      x y z
#    x 3.770180 0.000000 0.000000 
#    y 0.000000 3.590420 0.000000 
#    z 0.000000 0.000000 4.185580 
# 
# 
# High freq. dielectric constant tensor:
#      x y z
#    x 1.811450 0.000000 0.000000 
#    y 0.000000 1.779050 0.000000 
#    z 0.000000 0.000000 1.825190 
# 
# From -- ./inp_files/44332.got.cif
#   From: 2010.06.25/outbox.cif.g09.slc.cpg/sg52_23_cif.got.tgz:44332.got - 2010.06.26 19:32:48.
