data_PCOD8216209
_publ_section_title
;
Structure prediction by ZEFSAII (Michael W. Deem and Ramdas Pophale) SiO2 
 PCOD8216209
Probable space group: P N N A
;
_chemical_formula_sum "Si O2"
_cell_formula_units_Z 60
_cell_length_a 27.382081
_cell_length_b 10.326150
_cell_length_c 10.461167
_cell_angle_alpha 90.000000
_cell_angle_beta 90.000000
_cell_angle_gamma 90.000000
_cell_volume 2957.910407
_symmetry_space_group_name_H-M "P N N A"
_symmetry_group_IT_number 52
_symmetry_cell_setting 'orthorhombic'
loop_
_space_group_symop_operation_xyz
x,y,z
1/2-x,-y,z
x,1/2-y,1/2-z
1/2-x,1/2+y,1/2-z
-x,-y,-z
1/2+x,y,-z
-x,1/2+y,1/2+z
1/2+x,1/2-y,1/2+z
loop_
_atom_site_type_symbol
_atom_site_label
_atom_site_fract_x
_atom_site_fract_y
_atom_site_fract_z
Si Si1 0.805372 0.497867 0.080684
Si Si2 0.138177 0.761785 0.898427
Si Si3 0.989091 0.975848 0.785281
Si Si4 0.082499 0.250000 0.250000
Si Si5 0.862386 0.766807 0.493737
Si Si6 0.306090 0.977789 0.878726
Si Si7 0.460491 0.333237 0.495220
Si Si8 0.036873 0.327870 0.874681
O O1 0.750000 0.500000 0.035377
O O2 0.827357 0.355723 0.058157
O O3 0.830927 0.603548 0.990774
O O4 0.809876 0.542020 0.227313
O O5 0.124119 0.750000 0.750000
O O6 0.165031 0.896601 0.925962
O O7 0.090024 0.757086 0.986004
O O8 0.951319 0.874283 0.726909
O O9 0.957921 0.081104 0.866288
O O10 0.019371 0.027185 0.661505
O O11 0.030409 0.920591 0.880074
O O12 0.116817 0.275970 0.370592
O O13 0.829648 0.649851 0.440471
O O14 0.906163 0.809206 0.399693
O O15 0.250000 0.000000 0.920553
O O16 0.504909 0.229985 0.490887
O O17 0.021937 0.250000 0.750000
#
# Coordination Sequence:
#
# PCOD8216209 Si02
#       8
#     8   8   8   4   8   8   8   8
#     4  10  22  40  63  95 124 148 196 269 321 369
#     4  10  22  33  59  91 120 156 193 244 311 372
#     4  10  23  39  57  83 130 170 209 262 302 368
#     4  12  26  40  58  88 128 172 216 256 302 370
#     4  12  24  40  65  91 125 168 211 254 314 384
#     4  10  21  41  67  93 120 155 202 256 322 377
#     4  10  21  39  58  86 129 159 209 254 309 382
#     4  10  22  37  63  88 118 165 209 253 316 370
#
# _framework density 20.284589
#
# number of rings (size 3 to 8) (size 9 to 14) (size 15 to 20)
#    0.000    1.600    1.333    2.800   10.267    2.667 
#    0.000    0.667    0.000    0.000    0.000    0.000 
#    0.000    0.000    0.000    0.000    0.000    0.000 
#
# Total GULP energy -744018.972193 kJ/mol
# GULP energy per Si atom -12400.316203 kJ/mol
# Density = 2.023842 g / cm^3
# Si number density = 20.284589 Si / 1000 Ang^3
#
#
#
# Elastic Constant Matrix: (Units=GPa)
#
#
# Indices 1 2 3 4 5 6 
#
# 1 153.0389 61.6693 27.7186 0.0000 0.0000 0.0000
# 2 61.6693 121.6229 25.8939 0.0000 0.0000 0.0000
# 3 27.7186 25.8939 39.4830 0.0000 0.0000 0.0000
# 4 0.0000 0.0000 0.0000 21.7471 0.0000 0.0000
# 5 0.0000 0.0000 0.0000 0.0000 27.5103 0.0000
# 6 0.0000 0.0000 0.0000 0.0000 0.0000 42.7367
#
#
#
# Elastic Compliance Matrix: (Units=1/GPa)
#
#
# Indices 1 2 3 4 5 6 
#
# 1 0.008658 -0.003598 -0.003718 0.000000 0.000000 0.000000
# 2 -0.003598 0.011052 -0.004722 0.000000 0.000000 0.000000
# 3 -0.003718 -0.004722 0.031035 0.000000 0.000000 0.000000
# 4 0.000000 0.000000 0.000000 0.045983 0.000000 0.000000
# 5 0.000000 0.000000 0.000000 0.000000 0.036350 0.000000
# 6 0.000000 0.000000 0.000000 0.000000 0.000000 0.023399
#
#
# Mechanical properties :
#
#
# Convention : Reuss Voigt Hill
#
# Bulk Modulus (GPa) = 37.49928 60.52314 49.01121
# Shear Modulus (GPa) = 26.39322 31.65635 29.02478
#
# Velocity S-wave (km/s) = 3.61105 3.95474 3.78680
# Velocity P-wave (km/s) = 5.99275 7.12426 6.58286
#
# Compressibility (1/GPa) = 0.02666718
#
# Stress axis : x y z
#
# Youngs Moduli (GPa) = 115.50379 90.48137 32.22220
#
# Poissons Ratio (x) = 0.32558 0.11981
# Poissons Ratio (y) = 0.41562 0.15215
# Poissons Ratio (z) = 0.42947 0.42725
#
# Static dielectric constant tensor:
#      x y z
#    x 3.678280 0.000000 0.000000 
#    y 0.000000 3.921410 0.000000 
#    z 0.000000 0.000000 3.484470 
# 
# 
# High freq. dielectric constant tensor:
#      x y z
#    x 1.795870 0.000000 0.000000 
#    y 0.000000 1.806800 0.000000 
#    z 0.000000 0.000000 1.766240 
# 
# From -- ./inp_files/22890.got.cif
#   From: 2010.06.25/outbox.cif.g09.slc.cpg/sg52_12_cif.got.tgz:22890.got - 2010.06.26 19:32:48.
