data_PCOD8216211
_publ_section_title
;
Structure prediction by ZEFSAII (Michael W. Deem and Ramdas Pophale) SiO2 
 PCOD8216211
Probable space group: P N N A
;
_chemical_formula_sum "Si O2"
_cell_formula_units_Z 40
_cell_length_a 22.864633
_cell_length_b 14.147239
_cell_length_c 6.407937
_cell_angle_alpha 90.000000
_cell_angle_beta 90.000000
_cell_angle_gamma 90.000000
_cell_volume 2072.784530
_symmetry_space_group_name_H-M "P N N A"
_symmetry_group_IT_number 52
_symmetry_cell_setting 'orthorhombic'
loop_
_space_group_symop_operation_xyz
x,y,z
1/2-x,-y,z
x,1/2-y,1/2-z
1/2-x,1/2+y,1/2-z
-x,-y,-z
1/2+x,y,-z
-x,1/2+y,1/2+z
1/2+x,1/2-y,1/2+z
loop_
_atom_site_type_symbol
_atom_site_label
_atom_site_fract_x
_atom_site_fract_y
_atom_site_fract_z
Si Si1 0.106016 0.489501 0.934169
Si Si2 0.381322 0.852199 0.184817
Si Si3 0.519004 0.094639 0.104189
Si Si4 0.181162 0.502077 0.547490
Si Si5 0.895807 0.143319 0.765705
O O1 0.052511 0.441062 0.810900
O O2 0.161559 0.511128 0.787187
O O3 0.120119 0.414757 0.110366
O O4 0.093873 0.590844 0.043707
O O5 0.359282 0.750000 0.250000
O O6 0.442843 0.845595 0.061036
O O7 0.336145 0.897307 0.023942
O O8 0.461014 0.155571 0.142121
O O9 0.500000 0.000000 0.000000
O O10 0.250000 0.500000 0.525595
O O11 0.148425 0.582850 0.411067
O O12 0.870028 0.250000 0.750000
#
# Coordination Sequence:
#
# PCOD8216211 Si02
#       5
#     8   8   8   8   8
#     4  10  21  39  59  84 124 162 199 241 304 356
#     4  10  23  38  61  92 121 156 201 244 301 362
#     4  11  20  37  58  89 127 161 191 240 298 368
#     4  10  23  44  62  83 119 161 210 253 296 350
#     4  11  24  38  61  95 124 156 201 248 304 360
#
# _framework density 19.297713000000002
#
# number of rings (size 3 to 8) (size 9 to 14) (size 15 to 20)
#    0.000    1.600    6.000    0.600    2.800    7.200 
#    0.000    2.000    0.000    0.000    0.000    0.000 
#    0.000    0.000    0.000    0.000    0.000    0.000 
#
# Total GULP energy -495600.766931 kJ/mol
# GULP energy per Si atom -12390.019173 kJ/mol
# Density = 1.925379 g / cm^3
# Si number density = 19.297713 Si / 1000 Ang^3
#
#
#
# Elastic Constant Matrix: (Units=GPa)
#
#
# Indices 1 2 3 4 5 6 
#
# 1 136.1345 28.0624 32.8950 0.0000 0.0000 0.0000
# 2 28.0624 136.8990 36.5674 0.0000 0.0000 0.0000
# 3 32.8950 36.5674 102.0595 0.0000 0.0000 0.0000
# 4 0.0000 0.0000 0.0000 10.2290 0.0000 0.0000
# 5 0.0000 0.0000 0.0000 0.0000 13.0889 0.0000
# 6 0.0000 0.0000 0.0000 0.0000 0.0000 12.6834
#
#
#
# Elastic Compliance Matrix: (Units=1/GPa)
#
#
# Indices 1 2 3 4 5 6 
#
# 1 0.008104 -0.001066 -0.002230 0.000000 0.000000 0.000000
# 2 -0.001066 0.008218 -0.002601 0.000000 0.000000 0.000000
# 3 -0.002230 -0.002601 0.011449 0.000000 0.000000 0.000000
# 4 0.000000 0.000000 0.000000 0.097762 0.000000 0.000000
# 5 0.000000 0.000000 0.000000 0.000000 0.076400 0.000000
# 6 0.000000 0.000000 0.000000 0.000000 0.000000 0.078843
#
#
# Mechanical properties :
#
#
# Convention : Reuss Voigt Hill
#
# Bulk Modulus (GPa) = 62.58835 63.34920 62.96877
# Shear Modulus (GPa) = 16.78439 25.70480 21.24460
#
# Velocity S-wave (km/s) = 2.95237 3.65363 3.32156
# Velocity P-wave (km/s) = 6.64270 7.12020 6.88559
#
# Compressibility (1/GPa) = 0.01597742
#
# Stress axis : x y z
#
# Youngs Moduli (GPa) = 123.39213 121.68671 87.34402
#
# Poissons Ratio (x) = 0.12966 0.19481
# Poissons Ratio (y) = 0.13148 0.22718
# Poissons Ratio (z) = 0.27520 0.31650
#
# Static dielectric constant tensor:
#      x y z
#    x 3.180860 0.000000 0.000000 
#    y 0.000000 3.557260 0.000000 
#    z 0.000000 0.000000 3.708220 
# 
# 
# High freq. dielectric constant tensor:
#      x y z
#    x 1.736770 0.000000 0.000000 
#    y 0.000000 1.747040 0.000000 
#    z 0.000000 0.000000 1.768020 
# 
# From -- ./inp_files/5010.got.cif
#   From: 2010.06.25/outbox.cif.g09.slc.cpg/sg52_3_cif.got.tgz:5010.got - 2010.06.26 19:32:48.
