data_PCOD8216546
_publ_section_title
;
Structure prediction by ZEFSAII (Michael W. Deem and Ramdas Pophale) SiO2 
 PCOD8216546
Probable space group: P N N A
;
_chemical_formula_sum "Si O2"
_cell_formula_units_Z 44
_cell_length_a 9.404069
_cell_length_b 12.952436
_cell_length_c 17.237270
_cell_angle_alpha 90.000000
_cell_angle_beta 90.000000
_cell_angle_gamma 90.000000
_cell_volume 2099.596047
_symmetry_space_group_name_H-M "P N N A"
_symmetry_group_IT_number 52
_symmetry_cell_setting 'orthorhombic'
loop_
_space_group_symop_operation_xyz
x,y,z
1/2-x,-y,z
x,1/2-y,1/2-z
1/2-x,1/2+y,1/2-z
-x,-y,-z
1/2+x,y,-z
-x,1/2+y,1/2+z
1/2+x,1/2-y,1/2+z
loop_
_atom_site_type_symbol
_atom_site_label
_atom_site_fract_x
_atom_site_fract_y
_atom_site_fract_z
Si Si1 0.091440 0.469031 0.216090
Si Si2 0.064493 0.685716 0.585213
Si Si3 0.407499 0.529404 0.644799
Si Si4 0.132486 0.232776 0.952604
Si Si5 0.411289 0.963923 0.573204
Si Si6 0.488230 0.750000 0.250000
O O1 0.250000 0.500000 0.193451
O O2 0.109245 0.349204 0.237563
O O3 0.025108 0.532837 0.287625
O O4 0.982943 0.481304 0.145973
O O5 0.056242 0.561325 0.583917
O O6 0.198341 0.727872 0.537122
O O7 0.926138 0.725772 0.540299
O O8 0.082282 0.729120 0.673003
O O9 0.250000 0.500000 0.678308
O O10 0.417798 0.639381 0.602644
O O11 0.082726 0.340472 0.915284
O O12 0.250000 0.000000 0.564072
O O13 0.500000 0.000000 0.500000
#
# Coordination Sequence:
#
# PCOD8216546 Si02
#       6
#     8   8   8   8   8   4
#     4  11  24  40  62  91 120 157 205 253 304 365
#     4  10  22  40  65  92 122 162 205 248 305 366
#     4   9  21  40  62  91 123 159 199 245 304 370
#     4  11  22  38  64  92 123 158 199 255 307 357
#     4  12  25  41  60  87 121 161 208 253 304 370
#     4  10  22  44  64  84 126 168 198 248 310 362
#
# _framework density 20.956413000000001
#
# number of rings (size 3 to 8) (size 9 to 14) (size 15 to 20)
#    0.000    1.455    0.000    4.909    0.000    9.455 
#    0.000    0.909    0.000    1.091    0.000    0.000 
#    0.000    0.000    0.000    0.000    0.000    0.000 
#
# Total GULP energy -545559.711710 kJ/mol
# GULP energy per Si atom -12399.084357 kJ/mol
# Density = 2.090872 g / cm^3
# Si number density = 20.956413 Si / 1000 Ang^3
#
#
#
# Elastic Constant Matrix: (Units=GPa)
#
#
# Indices 1 2 3 4 5 6 
#
# 1 141.2918 34.0371 68.3449 0.0000 0.0000 0.0000
# 2 34.0371 143.9959 50.8589 0.0000 0.0000 0.0000
# 3 68.3449 50.8589 115.6903 0.0000 0.0000 0.0000
# 4 0.0000 0.0000 0.0000 30.1302 0.0000 0.0000
# 5 0.0000 0.0000 0.0000 0.0000 37.0816 0.0000
# 6 0.0000 0.0000 0.0000 0.0000 0.0000 24.1582
#
#
#
# Elastic Compliance Matrix: (Units=1/GPa)
#
#
# Indices 1 2 3 4 5 6 
#
# 1 0.009922 -0.000326 -0.005718 0.000000 0.000000 0.000000
# 2 -0.000326 0.008232 -0.003426 0.000000 0.000000 0.000000
# 3 -0.005718 -0.003426 0.013528 0.000000 0.000000 0.000000
# 4 0.000000 0.000000 0.000000 0.033189 0.000000 0.000000
# 5 0.000000 0.000000 0.000000 0.000000 0.026968 0.000000
# 6 0.000000 0.000000 0.000000 0.000000 0.000000 0.041394
#
#
# Mechanical properties :
#
#
# Convention : Reuss Voigt Hill
#
# Bulk Modulus (GPa) = 78.48537 78.60667 78.54602
# Shear Modulus (GPa) = 31.96504 34.78979 33.37742
#
# Velocity S-wave (km/s) = 3.90976 4.07886 3.99520
# Velocity P-wave (km/s) = 7.61017 7.73135 7.67100
#
# Compressibility (1/GPa) = 0.01274123
#
# Stress axis : x y z
#
# Youngs Moduli (GPa) = 100.78551 121.47982 73.91933
#
# Poissons Ratio (x) = 0.03956 0.42270
# Poissons Ratio (y) = 0.03282 0.25328
# Poissons Ratio (z) = 0.57633 0.41624
#
# Static dielectric constant tensor:
#      x y z
#    x 3.703510 0.000000 0.000000 
#    y 0.000000 4.132650 0.000000 
#    z 0.000000 0.000000 3.782950 
# 
# 
# High freq. dielectric constant tensor:
#      x y z
#    x 1.814610 0.000000 0.000000 
#    y 0.000000 1.842120 0.000000 
#    z 0.000000 0.000000 1.817180 
# 
# From -- ./inp_files/31176.got.cif
#   From: 2010.06.25/outbox.cif.g09.slc.cpg/sg52_16_cif.got.tgz:31176.got - 2010.06.26 19:32:48.
