data_PCOD8216930
_publ_section_title
;
Structure prediction by ZEFSAII (Michael W. Deem and Ramdas Pophale) SiO2 
 PCOD8216930
Probable space group: P N N A
;
_chemical_formula_sum "Si O2"
_cell_formula_units_Z 40
_cell_length_a 26.931069
_cell_length_b 7.939150
_cell_length_c 7.686552
_cell_angle_alpha 90.000000
_cell_angle_beta 90.000000
_cell_angle_gamma 90.000000
_cell_volume 1643.460119
_symmetry_space_group_name_H-M "P N N A"
_symmetry_group_IT_number 52
_symmetry_cell_setting 'orthorhombic'
loop_
_space_group_symop_operation_xyz
x,y,z
1/2-x,-y,z
x,1/2-y,1/2-z
1/2-x,1/2+y,1/2-z
-x,-y,-z
1/2+x,y,-z
-x,1/2+y,1/2+z
1/2+x,1/2-y,1/2+z
loop_
_atom_site_type_symbol
_atom_site_label
_atom_site_fract_x
_atom_site_fract_y
_atom_site_fract_z
Si Si1 0.219086 0.830641 0.563901
Si Si2 0.051035 0.944399 0.215605
Si Si3 0.221501 0.250000 0.250000
Si Si4 0.117814 0.250000 0.750000
Si Si5 0.943360 0.430063 0.319692
Si Si6 0.643767 0.443811 0.934971
O O1 0.221170 0.750000 0.750000
O O2 0.242783 0.710772 0.415460
O O3 0.250000 0.000000 0.570937
O O4 0.161550 0.881058 0.523654
O O5 0.039273 0.750000 0.250000
O O6 0.089757 0.028718 0.349390
O O7 0.070470 0.954403 0.020215
O O8 0.001033 0.052641 0.230934
O O9 0.184826 0.408061 0.214548
O O10 0.085821 0.419691 0.771508
O O11 0.148010 0.219804 0.569596
O O12 0.924878 0.250000 0.250000
#
# Coordination Sequence:
#
# PCOD8216930 Si02
#       6
#     8   8   4   4   8   8
#     4  10  25  48  77 107 143 195 243 314 388 459
#     4  11  25  45  72 107 154 198 257 314 375 459
#     4  10  24  48  69 108 144 192 245 308 386 446
#     4  12  26  48  75 112 152 194 259 314 372 458
#     4  11  26  45  75 108 147 210 251 310 380 442
#     4  11  26  45  74 110 148 196 251 317 385 453
#
# _framework density 24.338894
#
# number of rings (size 3 to 8) (size 9 to 14) (size 15 to 20)
#    0.000    1.200    1.000    2.400   14.000    6.400 
#    0.000    0.000    0.000    0.000    0.000    0.000 
#    0.000    0.000    0.000    0.000    0.000    0.000 
#
# Total GULP energy -495720.013373 kJ/mol
# GULP energy per Si atom -12393.000334 kJ/mol
# Density = 2.428350 g / cm^3
# Si number density = 24.338894 Si / 1000 Ang^3
#
#
#
# Elastic Constant Matrix: (Units=GPa)
#
#
# Indices 1 2 3 4 5 6 
#
# 1 76.2856 39.6096 66.9678 0.0000 0.0000 0.0000
# 2 39.6096 115.9115 47.9406 0.0000 0.0000 0.0000
# 3 66.9678 47.9406 164.0909 0.0000 0.0000 0.0000
# 4 0.0000 0.0000 0.0000 36.7569 0.0000 0.0000
# 5 0.0000 0.0000 0.0000 0.0000 61.5068 0.0000
# 6 0.0000 0.0000 0.0000 0.0000 0.0000 30.8208
#
#
#
# Elastic Compliance Matrix: (Units=1/GPa)
#
#
# Indices 1 2 3 4 5 6 
#
# 1 0.022216 -0.004370 -0.007790 0.000000 0.000000 0.000000
# 2 -0.004370 0.010673 -0.001335 0.000000 0.000000 0.000000
# 3 -0.007790 -0.001335 0.009663 0.000000 0.000000 0.000000
# 4 0.000000 0.000000 0.000000 0.027206 0.000000 0.000000
# 5 0.000000 0.000000 0.000000 0.000000 0.016258 0.000000
# 6 0.000000 0.000000 0.000000 0.000000 0.000000 0.032446
#
#
# Mechanical properties :
#
#
# Convention : Reuss Voigt Hill
#
# Bulk Modulus (GPa) = 64.25528 73.92487 69.09007
# Shear Modulus (GPa) = 33.19209 39.26825 36.23017
#
# Velocity S-wave (km/s) = 3.69690 4.02107 3.86239
# Velocity P-wave (km/s) = 6.68433 7.21094 6.95263
#
# Compressibility (1/GPa) = 0.01556292
#
# Stress axis : x y z
#
# Youngs Moduli (GPa) = 45.01252 93.69824 103.48396
#
# Poissons Ratio (x) = 0.40944 0.80614
# Poissons Ratio (y) = 0.19670 0.13812
# Poissons Ratio (z) = 0.35065 0.12506
#
# Static dielectric constant tensor:
#      x y z
#    x 4.522970 0.000000 0.000000 
#    y 0.000000 3.968210 0.000000 
#    z 0.000000 0.000000 4.356950 
# 
# 
# High freq. dielectric constant tensor:
#      x y z
#    x 1.973660 0.000000 0.000000 
#    y 0.000000 1.954180 0.000000 
#    z 0.000000 0.000000 1.985350 
# 
# From -- ./inp_files/14042.got.cif
#   From: 2010.06.25/outbox.cif.g09.slc.cpg/sg52_8_cif.got.tgz:14042.got - 2010.06.26 19:32:48.
