data_PCOD8216762
_publ_section_title
;
Structure prediction by ZEFSAII (Michael W. Deem and Ramdas Pophale) SiO2 
 PCOD8216762
Probable space group: P N N A
;
_chemical_formula_sum "Si O2"
_cell_formula_units_Z 40
_cell_length_a 22.717757
_cell_length_b 8.437324
_cell_length_c 9.268325
_cell_angle_alpha 90.000000
_cell_angle_beta 90.000000
_cell_angle_gamma 90.000000
_cell_volume 1776.525439
_symmetry_space_group_name_H-M "P N N A"
_symmetry_group_IT_number 52
_symmetry_cell_setting 'orthorhombic'
loop_
_space_group_symop_operation_xyz
x,y,z
1/2-x,-y,z
x,1/2-y,1/2-z
1/2-x,1/2+y,1/2-z
-x,-y,-z
1/2+x,y,-z
-x,1/2+y,1/2+z
1/2+x,1/2-y,1/2+z
loop_
_atom_site_type_symbol
_atom_site_label
_atom_site_fract_x
_atom_site_fract_y
_atom_site_fract_z
Si Si1 0.796176 0.876705 0.133343
Si Si2 0.906580 0.167535 0.596634
Si Si3 0.581238 0.523863 0.447717
Si Si4 0.724895 0.671852 0.904494
Si Si5 0.975185 0.569077 0.729722
O O1 0.817287 0.750000 0.250000
O O2 0.750000 0.000000 0.203955
O O3 0.851986 0.981899 0.089016
O O4 0.764154 0.788059 0.002064
O O5 0.904009 0.250000 0.750000
O O6 0.932094 0.288388 0.477310
O O7 0.840901 0.136684 0.537667
O O8 0.947244 0.010928 0.624161
O O9 0.570449 0.432776 0.597150
O O10 0.535656 0.477353 0.319332
O O11 0.750000 0.500000 0.891206
O O12 0.722534 0.750000 0.750000
O O13 0.990727 0.750000 0.750000
#
# Coordination Sequence:
#
# PCOD8216762 Si02
#       5
#     8   8   8   8   8
#     4  12  26  46  68 100 142 185 230 285 358 428
#     4   9  20  40  65  94 135 170 227 291 341 401
#     4  10  23  44  65  93 138 180 225 285 347 418
#     4  11  24  40  71 107 134 179 229 290 349 411
#     4  10  23  41  68  99 129 179 236 289 340 405
#
# _framework density 22.515861999999998
#
# number of rings (size 3 to 8) (size 9 to 14) (size 15 to 20)
#    0.000    1.600    2.000    1.200    8.400    5.600 
#    3.600    0.000    0.000    0.000    0.000    0.000 
#    0.000    0.000    0.000    0.000    0.000    0.000 
#
# Total GULP energy -495593.299906 kJ/mol
# GULP energy per Si atom -12389.832498 kJ/mol
# Density = 2.246461 g / cm^3
# Si number density = 22.515862 Si / 1000 Ang^3
#
#
#
# Elastic Constant Matrix: (Units=GPa)
#
#
# Indices 1 2 3 4 5 6 
#
# 1 153.2950 38.5075 42.0962 0.0000 0.0000 0.0000
# 2 38.5075 108.7614 29.5914 0.0000 0.0000 0.0000
# 3 42.0962 29.5914 61.6356 0.0000 0.0000 0.0000
# 4 0.0000 0.0000 0.0000 25.4828 0.0000 0.0000
# 5 0.0000 0.0000 0.0000 0.0000 -28.4146 0.0000
# 6 0.0000 0.0000 0.0000 0.0000 0.0000 33.0209
#
#
#
# Elastic Compliance Matrix: (Units=1/GPa)
#
#
# Indices 1 2 3 4 5 6 
#
# 1 0.008264 -0.001599 -0.004877 0.000000 0.000000 0.000000
# 2 -0.001599 0.010885 -0.004134 0.000000 0.000000 0.000000
# 3 -0.004877 -0.004134 0.021540 0.000000 0.000000 0.000000
# 4 0.000000 0.000000 0.000000 0.039242 0.000000 0.000000
# 5 0.000000 0.000000 0.000000 0.000000 -0.035193 0.000000
# 6 0.000000 0.000000 0.000000 0.000000 0.000000 0.030284
#
#
# Mechanical properties :
#
#
# Convention : Reuss Voigt Hill
#
# Bulk Modulus (GPa) = 51.36099 60.45360 55.90730
# Shear Modulus (GPa) = 48.67061 20.25095 34.46078
#
# Velocity S-wave (km/s) = 4.65436 3.00227 3.91642
# Velocity P-wave (km/s) = 7.19337 6.23905 6.73314
#
# Compressibility (1/GPa) = 0.01947003
#
# Stress axis : x y z
#
# Youngs Moduli (GPa) = 121.00333 91.86639 46.42589
#
# Poissons Ratio (x) = 0.14691 0.22640
# Poissons Ratio (y) = 0.19351 0.19192
# Poissons Ratio (z) = 0.59008 0.37976
#
# Static dielectric constant tensor:
#      x y z
#    x 4.361810 0.000000 0.000000 
#    y 0.000000 7.492330 0.000000 
#    z 0.000000 0.000000 3.982160 
# 
# 
# High freq. dielectric constant tensor:
#      x y z
#    x 1.901220 0.000000 0.000000 
#    y 0.000000 1.889500 0.000000 
#    z 0.000000 0.000000 1.871870 
# 
# From -- ./inp_files/14002.got.cif
#   From: 2010.06.25/outbox.cif.g09.slc.cpg/sg52_8_cif.got.tgz:14002.got - 2010.06.26 19:32:48.
