data_PCOD8216098
_publ_section_title
;
Structure prediction by ZEFSAII (Michael W. Deem and Ramdas Pophale) SiO2 
 PCOD8216098
Probable space group: P N N A
;
_chemical_formula_sum "Si O2"
_cell_formula_units_Z 40
_cell_length_a 8.471172
_cell_length_b 17.620494
_cell_length_c 12.821479
_cell_angle_alpha 90.000000
_cell_angle_beta 90.000000
_cell_angle_gamma 90.000000
_cell_volume 1913.813903
_symmetry_space_group_name_H-M "P N N A"
_symmetry_group_IT_number 52
_symmetry_cell_setting 'orthorhombic'
loop_
_space_group_symop_operation_xyz
x,y,z
1/2-x,-y,z
x,1/2-y,1/2-z
1/2-x,1/2+y,1/2-z
-x,-y,-z
1/2+x,y,-z
-x,1/2+y,1/2+z
1/2+x,1/2-y,1/2+z
loop_
_atom_site_type_symbol
_atom_site_label
_atom_site_fract_x
_atom_site_fract_y
_atom_site_fract_z
Si Si1 0.276682 0.089877 0.873964
Si Si2 0.184913 0.579618 0.853620
Si Si3 0.495828 0.822287 0.982963
Si Si4 0.164184 0.419625 0.058011
Si Si5 0.267655 0.764724 0.368996
O O1 0.322486 0.122285 0.757633
O O2 0.121353 0.134770 0.906385
O O3 0.250000 0.000000 0.883630
O O4 0.417719 0.112719 0.950748
O O5 0.250000 0.500000 0.815087
O O6 0.018562 0.572545 0.912978
O O7 0.312282 0.610147 0.938103
O O8 0.610272 0.775495 0.907956
O O9 0.414682 0.762673 0.060976
O O10 0.250000 0.500000 0.075231
O O11 0.247722 0.355866 0.127517
O O12 0.304836 0.750000 0.250000
#
# Coordination Sequence:
#
# PCOD8216098 Si02
#       5
#     8   8   8   8   8
#     4  10  21  40  63  88 119 159 203 247 297 357
#     4  10  21  36  60  91 121 155 199 250 301 348
#     4  10  23  40  60  88 120 156 200 251 301 357
#     4  11  22  39  62  89 123 159 203 251 296 362
#     4  11  24  41  61  88 122 159 197 245 306 356
#
# _framework density 20.900673000000001
#
# number of rings (size 3 to 8) (size 9 to 14) (size 15 to 20)
#    0.000    1.600    0.000    5.400    0.000    6.400 
#    0.000    9.000    0.000    1.200    0.000    0.000 
#    0.000    0.000    0.000    0.000    0.000    0.000 
#
# Total GULP energy -495723.511768 kJ/mol
# GULP energy per Si atom -12393.087794 kJ/mol
# Density = 2.085310 g / cm^3
# Si number density = 20.900673 Si / 1000 Ang^3
#
#
#
# Elastic Constant Matrix: (Units=GPa)
#
#
# Indices 1 2 3 4 5 6 
#
# 1 108.9377 20.5411 42.8720 0.0000 0.0000 0.0000
# 2 20.5411 105.6382 36.7000 0.0000 0.0000 0.0000
# 3 42.8720 36.7000 120.7210 0.0000 0.0000 0.0000
# 4 0.0000 0.0000 0.0000 2322.8435 0.0000 0.0000
# 5 0.0000 0.0000 0.0000 0.0000 18.8569 0.0000
# 6 0.0000 0.0000 0.0000 0.0000 0.0000 18.6870
#
#
#
# Elastic Compliance Matrix: (Units=1/GPa)
#
#
# Indices 1 2 3 4 5 6 
#
# 1 0.010739 -0.000853 -0.003554 0.000000 0.000000 0.000000
# 2 -0.000853 0.010652 -0.002935 0.000000 0.000000 0.000000
# 3 -0.003554 -0.002935 0.010438 0.000000 0.000000 0.000000
# 4 0.000000 0.000000 0.000000 0.000431 0.000000 0.000000
# 5 0.000000 0.000000 0.000000 0.000000 0.053031 0.000000
# 6 0.000000 0.000000 0.000000 0.000000 0.000000 0.053513
#
#
# Mechanical properties :
#
#
# Convention : Reuss Voigt Hill
#
# Bulk Modulus (GPa) = 58.33153 59.50255 58.91704
# Shear Modulus (GPa) = 31.40615 487.75640 259.58127
#
# Velocity S-wave (km/s) = 3.88059 15.29298 11.15649
# Velocity P-wave (km/s) = 6.93168 18.44898 13.93580
#
# Compressibility (1/GPa) = 0.01714339
#
# Stress axis : x y z
#
# Youngs Moduli (GPa) = 93.11586 93.87965 95.80206
#
# Poissons Ratio (x) = 0.08011 0.34052
# Poissons Ratio (y) = 0.07946 0.28120
# Poissons Ratio (z) = 0.33098 0.27556
#
# Static dielectric constant tensor:
#      x y z
#    x 3.808190 0.000000 0.000000 
#    y 0.000000 3.798210 0.000000 
#    z 0.000000 0.000000 3.986030 
# 
# 
# High freq. dielectric constant tensor:
#      x y z
#    x 1.824160 0.000000 0.000000 
#    y 0.000000 1.819100 0.000000 
#    z 0.000000 0.000000 1.833070 
# 
# From -- ./inp_files/16621.got.cif
#   From: 2010.06.25/outbox.cif.g09.slc.cpg/sg52_9_cif.got.tgz:16621.got - 2010.06.26 19:32:48.
