data_PCOD8216652
_publ_section_title
;
Structure prediction by ZEFSAII (Michael W. Deem and Ramdas Pophale) SiO2 
 PCOD8216652
Probable space group: P N N A
;
_chemical_formula_sum "Si O2"
_cell_formula_units_Z 40
_cell_length_a 13.189024
_cell_length_b 8.601461
_cell_length_c 15.842456
_cell_angle_alpha 90.000000
_cell_angle_beta 90.000000
_cell_angle_gamma 90.000000
_cell_volume 1797.245450
_symmetry_space_group_name_H-M "P N N A"
_symmetry_group_IT_number 52
_symmetry_cell_setting 'orthorhombic'
loop_
_space_group_symop_operation_xyz
x,y,z
1/2-x,-y,z
x,1/2-y,1/2-z
1/2-x,1/2+y,1/2-z
-x,-y,-z
1/2+x,y,-z
-x,1/2+y,1/2+z
1/2+x,1/2-y,1/2+z
loop_
_atom_site_type_symbol
_atom_site_label
_atom_site_fract_x
_atom_site_fract_y
_atom_site_fract_z
Si Si1 0.484627 0.493263 0.734962
Si Si2 0.344028 0.750000 0.250000
Si Si3 0.995352 0.261986 0.876673
Si Si4 0.726708 0.820900 0.909826
Si Si5 0.809913 0.250000 0.250000
Si Si6 0.205189 0.329875 0.923795
O O1 0.582902 0.388827 0.722273
O O2 0.521930 0.614356 0.803811
O O3 0.462498 0.593071 0.651714
O O4 0.381152 0.401975 0.755441
O O5 0.274404 0.718947 0.167252
O O6 0.890128 0.227522 0.922394
O O7 0.083262 0.338999 0.933207
O O8 0.750000 0.000000 0.888044
O O9 0.768819 0.785568 0.001418
O O10 0.739340 0.257360 0.166887
O O11 0.250000 0.500000 0.938925
#
# Coordination Sequence:
#
# PCOD8216652 Si02
#       6
#     8   4   8   8   4   8
#     4  10  22  42  78 106 138 194 240 300 364 450
#     4  11  24  47  72 106 146 187 246 299 372 430
#     4  11  24  44  72 105 144 188 248 295 376 435
#     4  12  29  47  73 107 147 194 244 309 369 440
#     4  11  24  47  72 106 146 187 246 299 372 430
#     4  12  29  47  73 107 147 194 244 309 369 440
#
# _framework density 22.256281999999999
#
# number of rings (size 3 to 8) (size 9 to 14) (size 15 to 20)
#    0.000    0.800    4.000    2.400    5.600    4.800 
#    0.000    0.000    0.000    0.000    0.000    0.000 
#    0.000    0.000    0.000    0.000    0.000    0.000 
#
# Total GULP energy -495702.370814 kJ/mol
# GULP energy per Si atom -12392.559270 kJ/mol
# Density = 2.220563 g / cm^3
# Si number density = 22.256282 Si / 1000 Ang^3
#
#
#
# Elastic Constant Matrix: (Units=GPa)
#
#
# Indices 1 2 3 4 5 6 
#
# 1 161.1585 20.4452 24.4254 0.0000 0.0000 0.0000
# 2 20.4452 79.7609 -3.6634 0.0000 0.0000 0.0000
# 3 24.4254 -3.6634 98.5160 0.0000 0.0000 0.0000
# 4 0.0000 0.0000 0.0000 15.2821 0.0000 0.0000
# 5 0.0000 0.0000 0.0000 0.0000 -20.0865 0.0000
# 6 0.0000 0.0000 0.0000 0.0000 0.0000 25.7911
#
#
#
# Elastic Compliance Matrix: (Units=1/GPa)
#
#
# Indices 1 2 3 4 5 6 
#
# 1 0.006695 -0.001795 -0.001727 0.000000 0.000000 0.000000
# 2 -0.001795 0.013040 0.000930 0.000000 0.000000 0.000000
# 3 -0.001727 0.000930 0.010613 0.000000 0.000000 0.000000
# 4 0.000000 0.000000 0.000000 0.065436 0.000000 0.000000
# 5 0.000000 0.000000 0.000000 0.000000 -0.049785 0.000000
# 6 0.000000 0.000000 0.000000 0.000000 0.000000 0.038773
#
#
# Mechanical properties :
#
#
# Convention : Reuss Voigt Hill
#
# Bulk Modulus (GPa) = 39.73848 46.87219 43.30534
# Shear Modulus (GPa) = 50.84157 24.07920 37.46038
#
# Velocity S-wave (km/s) = 4.78469 3.29280 4.10706
# Velocity P-wave (km/s) = 6.95831 5.96344 6.48000
#
# Compressibility (1/GPa) = 0.02516452
#
# Stress axis : x y z
#
# Youngs Moduli (GPa) = 149.37611 76.68489 94.22149
#
# Poissons Ratio (x) = 0.13767 0.16268
# Poissons Ratio (y) = 0.26818 -0.08763
# Poissons Ratio (z) = 0.25791 -0.07132
#
# Static dielectric constant tensor:
#      x y z
#    x 4.322730 0.000000 0.000000 
#    y 0.000000 4.238500 0.000000 
#    z 0.000000 0.000000 3.789490 
# 
# 
# High freq. dielectric constant tensor:
#      x y z
#    x 1.899060 0.000000 0.000000 
#    y 0.000000 1.887380 0.000000 
#    z 0.000000 0.000000 1.857970 
# 
# From -- ./inp_files/32027.got.cif
#   From: 2010.06.25/outbox.cif.g09.slc.cpg/sg52_17_cif.got.tgz:32027.got - 2010.06.26 19:32:48.
