data_PCOD8216510
_publ_section_title
;
Structure prediction by ZEFSAII (Michael W. Deem and Ramdas Pophale) SiO2 
 PCOD8216510
Probable space group: P N N A
;
_chemical_formula_sum "Si O2"
_cell_formula_units_Z 48
_cell_length_a 13.682426
_cell_length_b 8.563981
_cell_length_c 18.159569
_cell_angle_alpha 90.000000
_cell_angle_beta 90.000000
_cell_angle_gamma 90.000000
_cell_volume 2127.866316
_symmetry_space_group_name_H-M "P N N A"
_symmetry_group_IT_number 52
_symmetry_cell_setting 'orthorhombic'
loop_
_space_group_symop_operation_xyz
x,y,z
1/2-x,-y,z
x,1/2-y,1/2-z
1/2-x,1/2+y,1/2-z
-x,-y,-z
1/2+x,y,-z
-x,1/2+y,1/2+z
1/2+x,1/2-y,1/2+z
loop_
_atom_site_type_symbol
_atom_site_label
_atom_site_fract_x
_atom_site_fract_y
_atom_site_fract_z
Si Si1 0.107537 0.249547 0.534830
Si Si2 0.750000 0.500000 0.069122
Si Si3 0.748767 0.683887 0.671726
Si Si4 0.143869 0.750282 0.833353
Si Si5 0.549747 0.166743 0.884087
Si Si6 0.467006 0.308819 0.334485
Si Si7 0.750000 0.500000 0.415147
O O1 0.031336 0.307535 0.471888
O O2 0.193198 0.378244 0.534082
O O3 0.047530 0.233676 0.611635
O O4 0.163270 0.082744 0.521535
O O5 0.793623 0.372233 0.122734
O O6 0.750000 0.500000 0.677162
O O7 0.775463 0.750000 0.750000
O O8 0.840069 0.735075 0.621439
O O9 0.643275 0.748544 0.644328
O O10 0.177755 0.750000 0.750000
O O11 0.027590 0.721355 0.842582
O O12 0.167084 0.921697 0.864797
O O13 0.534072 0.995649 0.848400
O O14 0.489742 0.250000 0.250000
#
# Coordination Sequence:
#
# PCOD8216510 Si02
#       7
#     8   4   8   8   8   8   4
#     4  11  24  43  69  97 139 174 235 280 352 416
#     4  10  27  44  62  96 137 184 222 296 345 410
#     4   9  20  40  62  95 129 168 220 272 338 401
#     4  11  23  41  66  95 133 174 233 277 347 411
#     4  11  23  40  70 100 132 182 223 287 344 418
#     4  10  22  39  68 101 133 174 227 289 344 410
#     4  10  23  40  66  94 129 180 224 276 337 412
#
# _framework density 22.557807
#
# number of rings (size 3 to 8) (size 9 to 14) (size 15 to 20)
#    0.000    1.667    1.667    1.500    5.833    4.667 
#    4.500    0.000    0.000    0.000    0.000    0.000 
#    0.000    0.000    0.000    0.000    0.000    0.000 
#
# Total GULP energy -594657.034565 kJ/mol
# GULP energy per Si atom -12388.688220 kJ/mol
# Density = 2.250646 g / cm^3
# Si number density = 22.557807 Si / 1000 Ang^3
#
#
#
# Elastic Constant Matrix: (Units=GPa)
#
#
# Indices 1 2 3 4 5 6 
#
# 1 105.6150 23.7046 17.8469 0.0000 0.0000 0.0000
# 2 23.7046 57.1229 29.2753 0.0000 0.0000 0.0000
# 3 17.8469 29.2753 93.1626 0.0000 0.0000 0.0000
# 4 0.0000 0.0000 0.0000 24.3415 0.0000 0.0000
# 5 0.0000 0.0000 0.0000 0.0000 43.7487 0.0000
# 6 0.0000 0.0000 0.0000 0.0000 0.0000 25.6883
#
#
#
# Elastic Compliance Matrix: (Units=1/GPa)
#
#
# Indices 1 2 3 4 5 6 
#
# 1 0.010486 -0.003960 -0.000765 0.000000 0.000000 0.000000
# 2 -0.003960 0.022362 -0.006268 0.000000 0.000000 0.000000
# 3 -0.000765 -0.006268 0.012850 0.000000 0.000000 0.000000
# 4 0.000000 0.000000 0.000000 0.041082 0.000000 0.000000
# 5 0.000000 0.000000 0.000000 0.000000 0.022858 0.000000
# 6 0.000000 0.000000 0.000000 0.000000 0.000000 0.038928
#
#
# Mechanical properties :
#
#
# Convention : Reuss Voigt Hill
#
# Bulk Modulus (GPa) = 42.17107 44.17269 43.17188
# Shear Modulus (GPa) = 28.01808 31.09394 29.55601
#
# Velocity S-wave (km/s) = 3.52811 3.71672 3.62364
# Velocity P-wave (km/s) = 5.94407 6.16792 6.05703
#
# Compressibility (1/GPa) = 0.02371294
#
# Stress axis : x y z
#
# Youngs Moduli (GPa) = 95.36268 44.71902 77.82000
#
# Poissons Ratio (x) = 0.17708 0.05950
# Poissons Ratio (y) = 0.37761 0.48781
# Poissons Ratio (z) = 0.07291 0.28032
#
# Static dielectric constant tensor:
#      x y z
#    x 4.718280 0.000000 0.000000 
#    y 0.000000 4.802260 0.000000 
#    z 0.000000 0.000000 3.899770 
# 
# 
# High freq. dielectric constant tensor:
#      x y z
#    x 1.913430 0.000000 0.000000 
#    y 0.000000 1.871700 0.000000 
#    z 0.000000 0.000000 1.878620 
# 
# From -- ./inp_files/33114.got.cif
#   From: 2010.06.25/outbox.cif.g09.slc.cpg/sg52_17_cif.got.tgz:33114.got - 2010.06.26 19:32:48.
