data_PCOD8216080
_publ_section_title
;
Structure prediction by ZEFSAII (Michael W. Deem and Ramdas Pophale) SiO2 
 PCOD8216080
Probable space group: P N N A
;
_chemical_formula_sum "Si O2"
_cell_formula_units_Z 32
_cell_length_a 36.325139
_cell_length_b 8.775032
_cell_length_c 5.016825
_cell_angle_alpha 90.000000
_cell_angle_beta 90.000000
_cell_angle_gamma 90.000000
_cell_volume 1599.134326
_symmetry_space_group_name_H-M "P N N A"
_symmetry_group_IT_number 52
_symmetry_cell_setting 'orthorhombic'
loop_
_space_group_symop_operation_xyz
x,y,z
1/2-x,-y,z
x,1/2-y,1/2-z
1/2-x,1/2+y,1/2-z
-x,-y,-z
1/2+x,y,-z
-x,1/2+y,1/2+z
1/2+x,1/2-y,1/2+z
loop_
_atom_site_type_symbol
_atom_site_label
_atom_site_fract_x
_atom_site_fract_y
_atom_site_fract_z
Si Si1 0.788696 0.570551 0.268186
Si Si2 0.524639 0.648038 0.011716
Si Si3 0.166849 0.429030 0.225128
Si Si4 0.107422 0.648206 0.995028
O O1 0.750000 0.500000 0.352315
O O2 0.784299 0.750000 0.250000
O O3 0.819950 0.516188 0.481975
O O4 0.800377 0.520213 0.973122
O O5 0.509042 0.750000 0.250000
O O6 0.521949 0.750000 0.750000
O O7 0.500000 0.500000 0.000000
O O8 0.566332 0.593024 0.079369
O O9 0.159011 0.250000 0.250000
O O10 0.130975 0.503463 0.091733
O O11 0.104620 0.750000 0.250000
O O12 0.124057 0.750000 0.750000
#
# Coordination Sequence:
#
# PCOD8216080 Si02
#       4
#     8   8   8   8
#     4  10  21  36  54  78 108 141 182 230 278 333
#     4  10  21  38  59  86 119 152 191 236 281 336
#     4  10  21  37  55  79 110 144 184 229 279 336
#     4  10  21  37  57  83 113 145 186 233 278 331
#
# _framework density 20.010826999999999
#
# number of rings (size 3 to 8) (size 9 to 14) (size 15 to 20)
#    0.000    2.000    0.000    3.000    0.000    4.000 
#    0.000    3.750    0.000    0.000    0.000    0.000 
#    0.000    0.000    0.000    0.000    0.000    0.000 
#
# Total GULP energy -396504.574865 kJ/mol
# GULP energy per Si atom -12390.767965 kJ/mol
# Density = 1.996528 g / cm^3
# Si number density = 20.010827 Si / 1000 Ang^3
#
#
#
# Elastic Constant Matrix: (Units=GPa)
#
#
# Indices 1 2 3 4 5 6 
#
# 1 102.5833 67.7974 38.6134 0.0000 0.0000 0.0000
# 2 67.7974 85.9682 52.3175 0.0000 0.0000 0.0000
# 3 38.6134 52.3175 132.0726 0.0000 0.0000 0.0000
# 4 0.0000 0.0000 0.0000 28.9865 0.0000 0.0000
# 5 0.0000 0.0000 0.0000 0.0000 34.3501 0.0000
# 6 0.0000 0.0000 0.0000 0.0000 0.0000 37.9574
#
#
#
# Elastic Compliance Matrix: (Units=1/GPa)
#
#
# Indices 1 2 3 4 5 6 
#
# 1 0.020389 -0.016407 0.000538 0.000000 0.000000 0.000000
# 2 -0.016407 0.028530 -0.006505 0.000000 0.000000 0.000000
# 3 0.000538 -0.006505 0.009991 0.000000 0.000000 0.000000
# 4 0.000000 0.000000 0.000000 0.034499 0.000000 0.000000
# 5 0.000000 0.000000 0.000000 0.000000 0.029112 0.000000
# 6 0.000000 0.000000 0.000000 0.000000 0.000000 0.026345
#
#
# Mechanical properties :
#
#
# Convention : Reuss Voigt Hill
#
# Bulk Modulus (GPa) = 70.60675 70.89786 70.75230
# Shear Modulus (GPa) = 25.21006 31.05184 28.13095
#
# Velocity S-wave (km/s) = 3.55325 3.94350 3.75345
# Velocity P-wave (km/s) = 7.22461 7.49944 7.36331
#
# Compressibility (1/GPa) = 0.01416295
#
# Stress axis : x y z
#
# Youngs Moduli (GPa) = 49.04611 35.05106 100.09127
#
# Poissons Ratio (x) = 0.57508 -0.05387
# Poissons Ratio (y) = 0.80470 0.65105
# Poissons Ratio (z) = -0.02640 0.22799
#
# Static dielectric constant tensor:
#      x y z
#    x 3.829820 0.000000 0.000000 
#    y 0.000000 3.011820 0.000000 
#    z 0.000000 0.000000 4.143450 
# 
# 
# High freq. dielectric constant tensor:
#      x y z
#    x 1.773490 0.000000 0.000000 
#    y 0.000000 1.767400 0.000000 
#    z 0.000000 0.000000 1.807700 
# 
# From -- ./inp_files/6120.got.cif
#   From: 2010.06.25/outbox.cif.g09.slc.cpg/sg52_4_cif.got.tgz:6120.got - 2010.06.26 19:32:48.
