data_PCOD8216636
_publ_section_title
;
Structure prediction by ZEFSAII (Michael W. Deem and Ramdas Pophale) SiO2 
 PCOD8216636
Probable space group: P N N A
;
_chemical_formula_sum "Si O2"
_cell_formula_units_Z 40
_cell_length_a 12.277496
_cell_length_b 11.941306
_cell_length_c 12.099605
_cell_angle_alpha 90.000000
_cell_angle_beta 90.000000
_cell_angle_gamma 90.000000
_cell_volume 1773.915063
_symmetry_space_group_name_H-M "P N N A"
_symmetry_group_IT_number 52
_symmetry_cell_setting 'orthorhombic'
loop_
_space_group_symop_operation_xyz
x,y,z
1/2-x,-y,z
x,1/2-y,1/2-z
1/2-x,1/2+y,1/2-z
-x,-y,-z
1/2+x,y,-z
-x,1/2+y,1/2+z
1/2+x,1/2-y,1/2+z
loop_
_atom_site_type_symbol
_atom_site_label
_atom_site_fract_x
_atom_site_fract_y
_atom_site_fract_z
Si Si1 0.345913 0.572463 0.528913
Si Si2 0.025142 0.750000 0.250000
Si Si3 0.750000 0.500000 0.089635
Si Si4 0.095453 0.186634 0.531703
Si Si5 0.443798 0.143796 0.671643
Si Si6 0.944896 0.023918 0.825239
O O1 0.250000 0.500000 0.584427
O O2 0.326247 0.705293 0.516793
O O3 0.447163 0.549034 0.605859
O O4 0.356367 0.530077 0.403672
O O5 0.950652 0.806850 0.344438
O O6 0.100206 0.853496 0.210629
O O7 0.830575 0.576105 0.015338
O O8 0.673656 0.583692 0.160513
O O9 0.994958 0.184567 0.444983
O O10 0.425424 0.250000 0.750000
O O11 0.530685 0.057848 0.723514
#
# Coordination Sequence:
#
# PCOD8216636 Si02
#       6
#     8   4   4   8   8   8
#     4  10  23  42  67 100 136 184 237 274 343 433
#     4  10  22  42  70  92 132 178 228 276 348 408
#     4  12  28  40  76 104 136 184 238 292 342 436
#     4  11  25  46  67 103 144 178 229 296 355 413
#     4  12  26  47  71 100 140 185 225 296 356 410
#     4  10  22  42  68  95 134 182 223 296 344 403
#
# _framework density 22.548992999999999
#
# number of rings (size 3 to 8) (size 9 to 14) (size 15 to 20)
#    0.000    1.200    4.000    0.600    5.600    0.000 
#    1.800    0.000    2.200    0.000    0.000    0.000 
#    0.000    0.000    0.000    0.000    0.000    0.000 
#
# Total GULP energy -495806.793468 kJ/mol
# GULP energy per Si atom -12395.169837 kJ/mol
# Density = 2.249767 g / cm^3
# Si number density = 22.548993 Si / 1000 Ang^3
#
#
#
# Elastic Constant Matrix: (Units=GPa)
#
#
# Indices 1 2 3 4 5 6 
#
# 1 51.9234 29.8337 22.6789 0.0000 0.0000 0.0000
# 2 29.8337 172.8236 42.1459 0.0000 0.0000 0.0000
# 3 22.6789 42.1459 109.1588 0.0000 0.0000 0.0000
# 4 0.0000 0.0000 0.0000 43.6448 0.0000 0.0000
# 5 0.0000 0.0000 0.0000 0.0000 8.1423 0.0000
# 6 0.0000 0.0000 0.0000 0.0000 0.0000 37.1827
#
#
#
# Elastic Compliance Matrix: (Units=1/GPa)
#
#
# Indices 1 2 3 4 5 6 
#
# 1 0.022536 -0.003034 -0.003511 0.000000 0.000000 0.000000
# 2 -0.003034 0.006796 -0.001994 0.000000 0.000000 0.000000
# 3 -0.003511 -0.001994 0.010660 0.000000 0.000000 0.000000
# 4 0.000000 0.000000 0.000000 0.022912 0.000000 0.000000
# 5 0.000000 0.000000 0.000000 0.000000 0.122815 0.000000
# 6 0.000000 0.000000 0.000000 0.000000 0.000000 0.026894
#
#
# Mechanical properties :
#
#
# Convention : Reuss Voigt Hill
#
# Bulk Modulus (GPa) = 43.63879 58.13584 50.88732
# Shear Modulus (GPa) = 21.06787 33.74382 27.40584
#
# Velocity S-wave (km/s) = 3.05997 3.87262 3.49003
# Velocity P-wave (km/s) = 5.64619 6.77010 6.23352
#
# Compressibility (1/GPa) = 0.02291539
#
# Stress axis : x y z
#
# Youngs Moduli (GPa) = 44.37388 147.14134 93.80815
#
# Poissons Ratio (x) = 0.44645 0.32932
# Poissons Ratio (y) = 0.13464 0.18702
# Poissons Ratio (z) = 0.15578 0.29334
#
# Static dielectric constant tensor:
#      x y z
#    x 3.747360 0.000000 0.000000 
#    y 0.000000 4.765990 0.000000 
#    z 0.000000 0.000000 4.123720 
# 
# 
# High freq. dielectric constant tensor:
#      x y z
#    x 1.853550 0.000000 0.000000 
#    y 0.000000 1.921240 0.000000 
#    z 0.000000 0.000000 1.889120 
# 
# From -- ./inp_files/19305.got.cif
#   From: 2010.06.25/outbox.cif.g09.slc.cpg/sg52_10_cif.got.tgz:19305.got - 2010.06.26 19:32:48.
