data_PCOD8216998
_publ_section_title
;
Structure prediction by ZEFSAII (Michael W. Deem and Ramdas Pophale) SiO2 
 PCOD8216998
Probable space group: P N N A
;
_chemical_formula_sum "Si O2"
_cell_formula_units_Z 32
_cell_length_a 8.083808
_cell_length_b 19.158006
_cell_length_c 10.803163
_cell_angle_alpha 90.000000
_cell_angle_beta 90.000000
_cell_angle_gamma 90.000000
_cell_volume 1673.081988
_symmetry_space_group_name_H-M "P N N A"
_symmetry_group_IT_number 52
_symmetry_cell_setting 'orthorhombic'
loop_
_space_group_symop_operation_xyz
x,y,z
1/2-x,-y,z
x,1/2-y,1/2-z
1/2-x,1/2+y,1/2-z
-x,-y,-z
1/2+x,y,-z
-x,1/2+y,1/2+z
1/2+x,1/2-y,1/2+z
loop_
_atom_site_type_symbol
_atom_site_label
_atom_site_fract_x
_atom_site_fract_y
_atom_site_fract_z
Si Si1 0.742672 0.917986 0.846129
Si Si2 0.868276 0.811836 0.662929
Si Si3 0.316986 0.241885 0.569815
Si Si4 0.938392 0.845919 0.064075
O O1 0.827593 0.885766 0.724590
O O2 0.549582 0.893890 0.846954
O O3 0.750000 0.000000 0.832265
O O4 0.834271 0.894934 0.971346
O O5 0.797881 0.750000 0.750000
O O6 0.777273 0.805851 0.530994
O O7 0.070377 0.807764 0.656352
O O8 0.449321 0.294425 0.513391
O O9 0.186110 0.293683 0.639643
#
# Coordination Sequence:
#
# PCOD8216998 Si02
#       4
#     8   8   8   8
#     4  11  21  35  56  85 122 152 177 227 294 342
#     4  11  19  37  56  80 112 143 187 232 280 327
#     4   9  18  34  56  84 104 137 192 238 264 317
#     4   9  17  34  55  84 111 137 185 240 277 321
#
# _framework density 19.126379
#
# number of rings (size 3 to 8) (size 9 to 14) (size 15 to 20)
#    0.000    2.000    7.500    0.750    0.000    0.000 
#    9.000    1.250    0.000    0.000    0.000    0.000 
#    0.000    0.000    0.000    0.000    0.000    0.000 
#
# Total GULP energy -396440.170776 kJ/mol
# GULP energy per Si atom -12388.755337 kJ/mol
# Density = 1.908285 g / cm^3
# Si number density = 19.126379 Si / 1000 Ang^3
#
#
#
# Elastic Constant Matrix: (Units=GPa)
#
#
# Indices 1 2 3 4 5 6 
#
# 1 135.8875 74.2628 33.9098 0.0000 0.0000 0.0000
# 2 74.2628 127.2750 47.2567 0.0000 0.0000 0.0000
# 3 33.9098 47.2567 48.5476 0.0000 0.0000 0.0000
# 4 0.0000 0.0000 0.0000 30.9593 0.0000 0.0000
# 5 0.0000 0.0000 0.0000 0.0000 39.2073 0.0000
# 6 0.0000 0.0000 0.0000 0.0000 0.0000 24.4219
#
#
#
# Elastic Compliance Matrix: (Units=1/GPa)
#
#
# Indices 1 2 3 4 5 6 
#
# 1 0.010958 -0.005562 -0.002240 0.000000 0.000000 0.000000
# 2 -0.005562 0.015127 -0.010840 0.000000 0.000000 0.000000
# 3 -0.002240 -0.010840 0.032714 0.000000 0.000000 0.000000
# 4 0.000000 0.000000 0.000000 0.032301 0.000000 0.000000
# 5 0.000000 0.000000 0.000000 0.000000 0.025505 0.000000
# 6 0.000000 0.000000 0.000000 0.000000 0.000000 0.040947
#
#
# Mechanical properties :
#
#
# Convention : Reuss Voigt Hill
#
# Bulk Modulus (GPa) = 46.47698 69.17427 57.82563
# Shear Modulus (GPa) = 24.75160 29.33640 27.04400
#
# Velocity S-wave (km/s) = 3.60127 3.92065 3.76435
# Velocity P-wave (km/s) = 6.45329 7.53265 7.01376
#
# Compressibility (1/GPa) = 0.02151603
#
# Stress axis : x y z
#
# Youngs Moduli (GPa) = 91.26135 66.10623 30.56758
#
# Poissons Ratio (x) = 0.36768 0.06846
# Poissons Ratio (y) = 0.50759 0.33135
# Poissons Ratio (z) = 0.20439 0.71659
#
# Static dielectric constant tensor:
#      x y z
#    x 4.609460 0.000000 0.000000 
#    y 0.000000 3.337450 0.000000 
#    z 0.000000 0.000000 3.007290 
# 
# 
# High freq. dielectric constant tensor:
#      x y z
#    x 1.771250 0.000000 0.000000 
#    y 0.000000 1.712660 0.000000 
#    z 0.000000 0.000000 1.711780 
# 
# From -- ./inp_files/16571.got.cif
#   From: 2010.06.25/outbox.cif.g09.slc.cpg/sg52_9_cif.got.tgz:16571.got - 2010.06.26 19:32:48.
