data_PCOD8216336
_publ_section_title
;
Structure prediction by ZEFSAII (Michael W. Deem and Ramdas Pophale) SiO2 
 PCOD8216336
Probable space group: P N N A
;
_chemical_formula_sum "Si O2"
_cell_formula_units_Z 64
_cell_length_a 9.529823
_cell_length_b 25.560417
_cell_length_c 11.782468
_cell_angle_alpha 90.000000
_cell_angle_beta 90.000000
_cell_angle_gamma 90.000000
_cell_volume 2870.047194
_symmetry_space_group_name_H-M "P N N A"
_symmetry_group_IT_number 52
_symmetry_cell_setting 'orthorhombic'
loop_
_space_group_symop_operation_xyz
x,y,z
1/2-x,-y,z
x,1/2-y,1/2-z
1/2-x,1/2+y,1/2-z
-x,-y,-z
1/2+x,y,-z
-x,1/2+y,1/2+z
1/2+x,1/2-y,1/2+z
loop_
_atom_site_type_symbol
_atom_site_label
_atom_site_fract_x
_atom_site_fract_y
_atom_site_fract_z
Si Si1 0.024708 0.616523 0.521454
Si Si2 0.843870 0.248008 0.615058
Si Si3 0.351751 0.075312 0.189662
Si Si4 0.201749 0.629705 0.089519
Si Si5 0.044211 0.033583 0.196228
Si Si6 0.640975 0.299058 0.437787
Si Si7 0.528615 0.892869 0.384394
Si Si8 0.886044 0.305931 0.283440
O O1 0.009540 0.560613 0.581191
O O2 0.888775 0.638242 0.453585
O O3 0.145905 0.607877 0.427437
O O4 0.048650 0.664699 0.607789
O O5 0.815819 0.250000 0.750000
O O6 0.830211 0.189796 0.567204
O O7 0.724681 0.280461 0.549440
O O8 0.996704 0.267928 0.579675
O O9 0.373374 0.115519 0.291918
O O10 0.204526 0.048626 0.210490
O O11 0.470931 0.029339 0.188916
O O12 0.367402 0.618949 0.085296
O O13 0.121898 0.595195 0.994609
O O14 0.959462 0.056013 0.304153
O O15 0.726726 0.293163 0.320393
O O16 0.600251 0.843074 0.324352
O O17 0.958170 0.250000 0.250000
#
# Coordination Sequence:
#
# PCOD8216336 Si02
#       8
#     8   8   8   8   8   8   8   8
#     4  11  22  38  67  97 130 169 219 276 331 407
#     4  12  27  40  64  96 137 180 229 274 335 400
#     4  10  21  41  64  97 127 171 219 284 340 396
#     4  11  24  41  66  92 136 174 227 272 329 405
#     4   9  21  40  67  92 131 168 220 278 346 401
#     4  12  25  43  63  98 134 176 224 275 328 407
#     4  10  24  42  65  96 127 178 220 273 338 397
#     4  11  24  41  64  90 134 174 219 267 327 392
#
# _framework density 22.299285999999999
#
# number of rings (size 3 to 8) (size 9 to 14) (size 15 to 20)
#    0.000    1.250    1.250    3.750    7.000    2.500 
#    0.000    0.000    0.000    4.500    0.000    0.000 
#    0.000    0.000    0.000    0.000    0.000    0.000 
#
# Total GULP energy -793226.398440 kJ/mol
# GULP energy per Si atom -12394.162476 kJ/mol
# Density = 2.224853 g / cm^3
# Si number density = 22.299286 Si / 1000 Ang^3
#
#
#
# Elastic Constant Matrix: (Units=GPa)
#
#
# Indices 1 2 3 4 5 6 
#
# 1 80.5346 19.7743 40.3331 0.0000 0.0000 0.0000
# 2 19.7743 64.6452 7.9308 0.0000 0.0000 0.0000
# 3 40.3331 7.9308 116.0775 0.0000 0.0000 0.0000
# 4 0.0000 0.0000 0.0000 25.9903 0.0000 0.0000
# 5 0.0000 0.0000 0.0000 0.0000 31.2464 0.0000
# 6 0.0000 0.0000 0.0000 0.0000 0.0000 21.1109
#
#
#
# Elastic Compliance Matrix: (Units=1/GPa)
#
#
# Indices 1 2 3 4 5 6 
#
# 1 0.016129 -0.004282 -0.005312 0.000000 0.000000 0.000000
# 2 -0.004282 0.016737 0.000344 0.000000 0.000000 0.000000
# 3 -0.005312 0.000344 0.010437 0.000000 0.000000 0.000000
# 4 0.000000 0.000000 0.000000 0.038476 0.000000 0.000000
# 5 0.000000 0.000000 0.000000 0.000000 0.032004 0.000000
# 6 0.000000 0.000000 0.000000 0.000000 0.000000 0.047369
#
#
# Mechanical properties :
#
#
# Convention : Reuss Voigt Hill
#
# Bulk Modulus (GPa) = 40.31640 44.14819 42.23229
# Shear Modulus (GPa) = 26.60752 28.55080 27.57916
#
# Velocity S-wave (km/s) = 3.45802 3.58207 3.52059
# Velocity P-wave (km/s) = 5.83634 6.07860 5.95870
#
# Compressibility (1/GPa) = 0.02480380
#
# Stress axis : x y z
#
# Youngs Moduli (GPa) = 62.00202 59.74931 95.81293
#
# Poissons Ratio (x) = 0.25584 0.50892
# Poissons Ratio (y) = 0.26549 -0.03299
# Poissons Ratio (z) = 0.32933 -0.02057
#
# Static dielectric constant tensor:
#      x y z
#    x 3.910110 0.000000 0.000000 
#    y 0.000000 4.364490 0.000000 
#    z 0.000000 0.000000 4.403330 
# 
# 
# High freq. dielectric constant tensor:
#      x y z
#    x 1.863590 0.000000 0.000000 
#    y 0.000000 1.880210 0.000000 
#    z 0.000000 0.000000 1.891840 
# 
# From -- ./inp_files/17243.got.cif
#   From: 2010.06.25/outbox.cif.g09.slc.cpg/sg52_9_cif.got.tgz:17243.got - 2010.06.26 19:32:48.
