data_PCOD8216664
_publ_section_title
;
Structure prediction by ZEFSAII (Michael W. Deem and Ramdas Pophale) SiO2 
 PCOD8216664
Probable space group: P N N A
;
_chemical_formula_sum "Si O2"
_cell_formula_units_Z 28
_cell_length_a 10.028744
_cell_length_b 14.748358
_cell_length_c 8.782254
_cell_angle_alpha 90.000000
_cell_angle_beta 90.000000
_cell_angle_gamma 90.000000
_cell_volume 1298.961293
_symmetry_space_group_name_H-M "P N N A"
_symmetry_group_IT_number 52
_symmetry_cell_setting 'orthorhombic'
loop_
_space_group_symop_operation_xyz
x,y,z
1/2-x,-y,z
x,1/2-y,1/2-z
1/2-x,1/2+y,1/2-z
-x,-y,-z
1/2+x,y,-z
-x,1/2+y,1/2+z
1/2+x,1/2-y,1/2+z
loop_
_atom_site_type_symbol
_atom_site_label
_atom_site_fract_x
_atom_site_fract_y
_atom_site_fract_z
Si Si1 0.594596 0.350474 0.195228
Si Si2 0.134583 0.242367 0.075115
Si Si3 0.900567 0.133874 0.935000
Si Si4 0.250000 0.500000 0.629371
O O1 0.638459 0.250000 0.250000
O O2 0.444573 0.376876 0.255647
O O3 0.698497 0.422986 0.257588
O O4 0.605479 0.339243 0.010802
O O5 0.098377 0.250000 0.250000
O O6 0.286158 0.209254 0.051288
O O7 0.038186 0.165004 0.011105
O O8 0.861794 0.039843 0.015488
#
# Coordination Sequence:
#
# PCOD8216664 Si02
#       4
#     8   8   8   4
#     4  10  22  43  68  99 135 180 231 273 338 414
#     4  11  24  42  71  98 139 184 228 281 342 402
#     4  11  23  42  69 100 137 177 236 275 349 402
#     4  12  22  42  72 102 136 184 220 296 334 406
#
# _framework density 21.555683999999999
#
# number of rings (size 3 to 8) (size 9 to 14) (size 15 to 20)
#    0.000    1.143    5.714    3.429    4.000    0.000 
#    0.000    2.857    0.000    0.000    0.000    0.000 
#    0.000    0.000    0.000    0.000    0.000    0.000 
#
# Total GULP energy -346894.091422 kJ/mol
# GULP energy per Si atom -12389.074694 kJ/mol
# Density = 2.150662 g / cm^3
# Si number density = 21.555684 Si / 1000 Ang^3
#
#
#
# Elastic Constant Matrix: (Units=GPa)
#
#
# Indices 1 2 3 4 5 6 
#
# 1 117.4036 36.4297 44.5743 0.0000 0.0000 0.0000
# 2 36.4297 119.1082 56.1148 0.0000 0.0000 0.0000
# 3 44.5743 56.1148 169.6541 0.0000 0.0000 0.0000
# 4 0.0000 0.0000 0.0000 36.8995 0.0000 0.0000
# 5 0.0000 0.0000 0.0000 0.0000 17.1999 0.0000
# 6 0.0000 0.0000 0.0000 0.0000 0.0000 23.4273
#
#
#
# Elastic Compliance Matrix: (Units=1/GPa)
#
#
# Indices 1 2 3 4 5 6 
#
# 1 0.009900 -0.002135 -0.001895 0.000000 0.000000 0.000000
# 2 -0.002135 0.010406 -0.002881 0.000000 0.000000 0.000000
# 3 -0.001895 -0.002881 0.007345 0.000000 0.000000 0.000000
# 4 0.000000 0.000000 0.000000 0.027101 0.000000 0.000000
# 5 0.000000 0.000000 0.000000 0.000000 0.058140 0.000000
# 6 0.000000 0.000000 0.000000 0.000000 0.000000 0.042685
#
#
# Mechanical properties :
#
#
# Convention : Reuss Voigt Hill
#
# Bulk Modulus (GPa) = 72.31182 75.60039 73.95611
# Shear Modulus (GPa) = 28.73435 33.44180 31.08808
#
# Velocity S-wave (km/s) = 3.65503 3.94307 3.80178
# Velocity P-wave (km/s) = 7.17159 7.47521 7.32497
#
# Compressibility (1/GPa) = 0.01382900
#
# Stress axis : x y z
#
# Youngs Moduli (GPa) = 101.01495 96.09804 136.14594
#
# Poissons Ratio (x) = 0.20518 0.25796
# Poissons Ratio (y) = 0.21568 0.39223
# Poissons Ratio (z) = 0.19140 0.27685
#
# Static dielectric constant tensor:
#      x y z
#    x 3.916430 0.000000 0.000000 
#    y 0.000000 3.798880 0.000000 
#    z 0.000000 0.000000 4.995580 
# 
# 
# High freq. dielectric constant tensor:
#      x y z
#    x 1.851780 0.000000 0.000000 
#    y 0.000000 1.825810 0.000000 
#    z 0.000000 0.000000 1.849270 
# 
# From -- ./inp_files/7094.got.cif
#   From: 2010.06.25/outbox.cif.g09.slc.cpg/sg52_4_cif.got.tgz:7094.got - 2010.06.26 19:32:48.
