data_PCOD8216657
_publ_section_title
;
Structure prediction by ZEFSAII (Michael W. Deem and Ramdas Pophale) SiO2 
 PCOD8216657
Probable space group: P N N A
;
_chemical_formula_sum "Si O2"
_cell_formula_units_Z 60
_cell_length_a 11.833486
_cell_length_b 14.449559
_cell_length_c 16.481060
_cell_angle_alpha 90.000000
_cell_angle_beta 90.000000
_cell_angle_gamma 90.000000
_cell_volume 2818.074268
_symmetry_space_group_name_H-M "P N N A"
_symmetry_group_IT_number 52
_symmetry_cell_setting 'orthorhombic'
loop_
_space_group_symop_operation_xyz
x,y,z
1/2-x,-y,z
x,1/2-y,1/2-z
1/2-x,1/2+y,1/2-z
-x,-y,-z
1/2+x,y,-z
-x,1/2+y,1/2+z
1/2+x,1/2-y,1/2+z
loop_
_atom_site_type_symbol
_atom_site_label
_atom_site_fract_x
_atom_site_fract_y
_atom_site_fract_z
Si Si1 0.501076 0.555456 0.376069
Si Si2 0.532115 0.750000 0.750000
Si Si3 0.865410 0.034112 0.571552
Si Si4 0.649182 0.259135 0.106420
Si Si5 0.647213 0.429733 0.481004
Si Si6 0.607027 0.760875 0.157915
Si Si7 0.484448 0.644767 0.028755
Si Si8 0.861110 0.446541 0.741728
O O1 0.545778 0.472488 0.430116
O O2 0.396520 0.597842 0.428623
O O3 0.600053 0.629590 0.360482
O O4 0.463116 0.510547 0.290416
O O5 0.449770 0.730182 0.826864
O O6 0.611571 0.662588 0.722248
O O7 0.904966 0.127351 0.526505
O O8 0.845708 0.059157 0.663442
O O9 0.750000 0.000000 0.530039
O O10 0.957066 0.952942 0.569478
O O11 0.679155 0.159005 0.071283
O O12 0.769863 0.286552 0.146328
O O13 0.617495 0.321560 0.028844
O O14 0.750000 0.500000 0.490520
O O15 0.566602 0.750000 0.250000
O O16 0.513269 0.715660 0.099725
O O17 0.750000 0.500000 0.705151
#
# Coordination Sequence:
#
# PCOD8216657 Si02
#       8
#     8   4   8   8   8   8   8   8
#     4  11  23  40  62  93 136 175 220 285 342 407
#     4  12  24  46  72  96 134 184 226 292 352 414
#     4  10  22  43  67  91 126 171 227 279 338 406
#     4  12  23  43  69  98 134 178 233 276 342 431
#     4  11  22  40  65  94 130 178 223 276 342 415
#     4  12  25  41  65 104 142 176 229 291 350 410
#     4  11  23  43  67  95 132 179 224 286 341 414
#     4  11  24  45  66  97 133 174 231 284 344 417
#
# _framework density 21.291135000000001
#
# number of rings (size 3 to 8) (size 9 to 14) (size 15 to 20)
#    0.000    0.800    6.000    2.000    0.000    0.000 
#    8.400    0.000    0.000    0.000    0.000    0.000 
#    0.000    0.000    0.000    0.000    0.000    0.000 
#
# Total GULP energy -743396.230007 kJ/mol
# GULP energy per Si atom -12389.937167 kJ/mol
# Density = 2.124268 g / cm^3
# Si number density = 21.291135 Si / 1000 Ang^3
#
#
#
# Elastic Constant Matrix: (Units=GPa)
#
#
# Indices 1 2 3 4 5 6 
#
# 1 87.3031 24.8298 17.8662 0.0000 0.0000 0.0000
# 2 24.8298 83.6494 18.0876 0.0000 0.0000 0.0000
# 3 17.8662 18.0876 85.4245 0.0000 0.0000 0.0000
# 4 0.0000 0.0000 0.0000 24.4163 0.0000 0.0000
# 5 0.0000 0.0000 0.0000 0.0000 23.0157 0.0000
# 6 0.0000 0.0000 0.0000 0.0000 0.0000 39.7546
#
#
#
# Elastic Compliance Matrix: (Units=1/GPa)
#
#
# Indices 1 2 3 4 5 6 
#
# 1 0.012818 -0.003380 -0.001965 0.000000 0.000000 0.000000
# 2 -0.003380 0.013419 -0.002135 0.000000 0.000000 0.000000
# 3 -0.001965 -0.002135 0.012569 0.000000 0.000000 0.000000
# 4 0.000000 0.000000 0.000000 0.040956 0.000000 0.000000
# 5 0.000000 0.000000 0.000000 0.000000 0.043449 0.000000
# 6 0.000000 0.000000 0.000000 0.000000 0.000000 0.025154
#
#
# Mechanical properties :
#
#
# Convention : Reuss Voigt Hill
#
# Bulk Modulus (GPa) = 41.93322 41.99382 41.96352
# Shear Modulus (GPa) = 29.19307 30.47690 29.83499
#
# Velocity S-wave (km/s) = 3.70690 3.78754 3.74744
# Velocity P-wave (km/s) = 6.16923 6.23648 6.20295
#
# Compressibility (1/GPa) = 0.02384744
#
# Stress axis : x y z
#
# Youngs Moduli (GPa) = 78.01684 74.51880 79.55955
#
# Poissons Ratio (x) = 0.25186 0.15635
# Poissons Ratio (y) = 0.26368 0.16982
# Poissons Ratio (z) = 0.15331 0.15906
#
# Static dielectric constant tensor:
#      x y z
#    x 3.897360 0.000000 0.000000 
#    y 0.000000 3.844050 0.000000 
#    z 0.000000 0.000000 3.888560 
# 
# 
# High freq. dielectric constant tensor:
#      x y z
#    x 1.830590 0.000000 0.000000 
#    y 0.000000 1.831590 0.000000 
#    z 0.000000 0.000000 1.842230 
# 
# From -- ./inp_files/32388.got.cif
#   From: 2010.06.25/outbox.cif.g09.slc.cpg/sg52_17_cif.got.tgz:32388.got - 2010.06.26 19:32:48.
