data_PCOD8216656
_publ_section_title
;
Structure prediction by ZEFSAII (Michael W. Deem and Ramdas Pophale) SiO2 
 PCOD8216656
Probable space group: P N N A
;
_chemical_formula_sum "Si O2"
_cell_formula_units_Z 36
_cell_length_a 25.752694
_cell_length_b 7.921520
_cell_length_c 7.496469
_cell_angle_alpha 90.000000
_cell_angle_beta 90.000000
_cell_angle_gamma 90.000000
_cell_volume 1529.283279
_symmetry_space_group_name_H-M "P N N A"
_symmetry_group_IT_number 52
_symmetry_cell_setting 'orthorhombic'
loop_
_space_group_symop_operation_xyz
x,y,z
1/2-x,-y,z
x,1/2-y,1/2-z
1/2-x,1/2+y,1/2-z
-x,-y,-z
1/2+x,y,-z
-x,1/2+y,1/2+z
1/2+x,1/2-y,1/2+z
loop_
_atom_site_type_symbol
_atom_site_label
_atom_site_fract_x
_atom_site_fract_y
_atom_site_fract_z
Si Si1 0.106306 0.939078 0.698765
Si Si2 0.671688 0.250000 0.250000
Si Si3 0.991728 0.558582 0.796663
Si Si4 0.791549 0.636642 0.598410
Si Si5 0.884271 0.062080 0.720277
O O1 0.125178 0.750000 0.750000
O O2 0.112496 0.978501 0.489461
O O3 0.049059 0.970423 0.784175
O O4 0.140603 0.078718 0.795737
O O5 0.703983 0.234693 0.431382
O O6 0.975929 0.750000 0.750000
O O7 0.944201 0.453233 0.708234
O O8 0.000000 0.500000 0.000000
O O9 0.750000 0.500000 0.538377
O O10 0.765142 0.750000 0.750000
O O11 0.846072 0.563788 0.675369
O O12 0.863739 0.250000 0.750000
#
# Coordination Sequence:
#
# PCOD8216656 Si02
#       5
#     8   4   8   8   8
#     4  10  22  43  67 109 149 188 238 290 359 434
#     4  12  26  48  78 104 144 188 238 304 364 434
#     4   9  20  37  63 100 147 191 237 288 353 432
#     4  12  27  50  75 104 138 186 242 305 373 435
#     4  11  22  42  69 103 145 189 239 299 354 431
#
# _framework density 23.540437000000001
#
# number of rings (size 3 to 8) (size 9 to 14) (size 15 to 20)
#    0.000    1.333    2.222    2.667    4.667    0.889 
#    6.000    4.444    0.000    0.000    0.000    0.000 
#    0.000    0.000    0.000    0.000    0.000    0.000 
#
# Total GULP energy -445976.827091 kJ/mol
# GULP energy per Si atom -12388.245197 kJ/mol
# Density = 2.348686 g / cm^3
# Si number density = 23.540437 Si / 1000 Ang^3
#
#
#
# Elastic Constant Matrix: (Units=GPa)
#
#
# Indices 1 2 3 4 5 6 
#
# 1 94.4374 27.7342 28.3577 0.0000 0.0000 0.0000
# 2 27.7342 117.9398 26.8247 0.0000 0.0000 0.0000
# 3 28.3577 26.8247 114.4821 0.0000 0.0000 0.0000
# 4 0.0000 0.0000 0.0000 42.8045 0.0000 0.0000
# 5 0.0000 0.0000 0.0000 0.0000 -12.1626 0.0000
# 6 0.0000 0.0000 0.0000 0.0000 0.0000 27.0199
#
#
#
# Elastic Compliance Matrix: (Units=1/GPa)
#
#
# Indices 1 2 3 4 5 6 
#
# 1 0.011986 -0.002264 -0.002439 0.000000 0.000000 0.000000
# 2 -0.002264 0.009384 -0.001638 0.000000 0.000000 0.000000
# 3 -0.002439 -0.001638 0.009723 0.000000 0.000000 0.000000
# 4 0.000000 0.000000 0.000000 0.023362 0.000000 0.000000
# 5 0.000000 0.000000 0.000000 0.000000 -0.082219 0.000000
# 6 0.000000 0.000000 0.000000 0.000000 0.000000 0.037010
#
#
# Mechanical properties :
#
#
# Convention : Reuss Voigt Hill
#
# Bulk Modulus (GPa) = 54.31284 54.74360 54.52822
# Shear Modulus (GPa) = 178.16600 27.79520 102.98060
#
# Velocity S-wave (km/s) = 8.70916 3.43992 6.62127
# Velocity P-wave (km/s) = 11.14696 6.25164 9.03708
#
# Compressibility (1/GPa) = 0.01841185
#
# Stress axis : x y z
#
# Youngs Moduli (GPa) = 83.42955 106.56623 102.85078
#
# Poissons Ratio (x) = 0.24126 0.25081
# Poissons Ratio (y) = 0.18888 0.16847
# Poissons Ratio (z) = 0.20345 0.17455
#
# Static dielectric constant tensor:
#      x y z
#    x 4.339660 0.000000 0.000000 
#    y 0.000000 3.669770 0.000000 
#    z 0.000000 0.000000 4.122390 
# 
# 
# High freq. dielectric constant tensor:
#      x y z
#    x 1.928270 0.000000 0.000000 
#    y 0.000000 1.932900 0.000000 
#    z 0.000000 0.000000 1.932650 
# 
# From -- ./inp_files/12946.got.cif
#   From: 2010.06.25/outbox.cif.g09.slc.cpg/sg52_7_cif.got.tgz:12946.got - 2010.06.26 19:32:48.
