data_PCOD8216696
_publ_section_title
;
Structure prediction by ZEFSAII (Michael W. Deem and Ramdas Pophale) SiO2 
 PCOD8216696
Probable space group: P N N A
;
_chemical_formula_sum "Si O2"
_cell_formula_units_Z 40
_cell_length_a 24.232138
_cell_length_b 8.445024
_cell_length_c 8.482474
_cell_angle_alpha 90.000000
_cell_angle_beta 90.000000
_cell_angle_gamma 90.000000
_cell_volume 1735.861851
_symmetry_space_group_name_H-M "P N N A"
_symmetry_group_IT_number 52
_symmetry_cell_setting 'orthorhombic'
loop_
_space_group_symop_operation_xyz
x,y,z
1/2-x,-y,z
x,1/2-y,1/2-z
1/2-x,1/2+y,1/2-z
-x,-y,-z
1/2+x,y,-z
-x,1/2+y,1/2+z
1/2+x,1/2-y,1/2+z
loop_
_atom_site_type_symbol
_atom_site_label
_atom_site_fract_x
_atom_site_fract_y
_atom_site_fract_z
Si Si1 0.259831 0.765439 0.065009
Si Si2 0.057699 0.946484 0.435331
Si Si3 0.829706 0.050708 0.062353
Si Si4 0.444684 0.073067 0.071562
Si Si5 0.844152 0.598377 0.133628
O O1 0.255344 0.750000 0.250000
O O2 0.196776 0.782001 0.996396
O O3 0.292682 0.620625 0.985235
O O4 0.294087 0.920046 0.025161
O O5 0.061484 0.984452 0.250609
O O6 0.060024 0.759357 0.457086
O O7 0.103316 0.045452 0.531143
O O8 0.000000 0.000000 0.500000
O O9 0.825538 0.044260 0.251772
O O10 0.892356 0.007581 0.020700
O O11 0.500000 0.000000 0.000000
O O12 0.856391 0.750000 0.250000
#
# Coordination Sequence:
#
# PCOD8216696 Si02
#       5
#     8   8   8   8   8
#     4  10  22  44  72  98 139 187 234 291 350 422
#     4  11  26  44  74 105 137 190 239 290 364 426
#     4  10  23  45  67 104 137 185 238 283 363 420
#     4  11  26  47  72 103 144 183 237 299 354 432
#     4  10  23  46  70 104 145 184 240 298 356 433
#
# _framework density 23.043309000000001
#
# number of rings (size 3 to 8) (size 9 to 14) (size 15 to 20)
#    0.000    1.600    0.000    2.400   11.200    3.200 
#   21.600    0.000    0.000    0.000    0.000    0.000 
#    0.000    0.000    0.000    0.000    0.000    0.000 
#
# Total GULP energy -495732.195236 kJ/mol
# GULP energy per Si atom -12393.304881 kJ/mol
# Density = 2.299086 g / cm^3
# Si number density = 23.043309 Si / 1000 Ang^3
#
#
#
# Elastic Constant Matrix: (Units=GPa)
#
#
# Indices 1 2 3 4 5 6 
#
# 1 194.0174 36.2051 94.8092 0.0000 0.0000 0.0000
# 2 36.2051 28.6909 56.8191 0.0000 0.0000 0.0000
# 3 94.8092 56.8191 213.9085 0.0000 0.0000 0.0000
# 4 0.0000 0.0000 0.0000 26.1981 0.0000 0.0000
# 5 0.0000 0.0000 0.0000 0.0000 46.1178 0.0000
# 6 0.0000 0.0000 0.0000 0.0000 0.0000 42.8974
#
#
#
# Elastic Compliance Matrix: (Units=1/GPa)
#
#
# Indices 1 2 3 4 5 6 
#
# 1 0.006990 -0.005665 -0.001593 0.000000 0.000000 0.000000
# 2 -0.005665 0.078130 -0.018242 0.000000 0.000000 0.000000
# 3 -0.001593 -0.018242 0.010227 0.000000 0.000000 0.000000
# 4 0.000000 0.000000 0.000000 0.038171 0.000000 0.000000
# 5 0.000000 0.000000 0.000000 0.000000 0.021684 0.000000
# 6 0.000000 0.000000 0.000000 0.000000 0.000000 0.023311
#
#
# Mechanical properties :
#
#
# Convention : Reuss Voigt Hill
#
# Bulk Modulus (GPa) = 22.55047 90.25375 56.40211
# Shear Modulus (GPa) = 20.46703 39.62822 30.04763
#
# Velocity S-wave (km/s) = 2.98350 4.15146 3.61496
# Velocity P-wave (km/s) = 4.65572 7.88870 6.47716
#
# Compressibility (1/GPa) = 0.04434498
#
# Stress axis : x y z
#
# Youngs Moduli (GPa) = 143.06270 12.79919 97.78421
#
# Poissons Ratio (x) = 0.07251 0.15579
# Poissons Ratio (y) = 0.81051 1.78379
# Poissons Ratio (z) = 0.22793 0.23348
#
# Static dielectric constant tensor:
#      x y z
#    x 5.817520 0.000000 0.000000 
#    y 0.000000 4.669480 0.000000 
#    z 0.000000 0.000000 4.440560 
# 
# 
# High freq. dielectric constant tensor:
#      x y z
#    x 1.926780 0.000000 0.000000 
#    y 0.000000 1.910100 0.000000 
#    z 0.000000 0.000000 1.927630 
# 
# From -- ./inp_files/13987.got.cif
#   From: 2010.06.25/outbox.cif.g09.slc.cpg/sg52_7_cif.got.tgz:13987.got - 2010.06.26 19:32:48.
