data_PCOD8216301
_publ_section_title
;
Structure prediction by ZEFSAII (Michael W. Deem and Ramdas Pophale) SiO2 
 PCOD8216301
Probable space group: P N N A
;
_chemical_formula_sum "Si O2"
_cell_formula_units_Z 28
_cell_length_a 29.847546
_cell_length_b 4.955520
_cell_length_c 8.671116
_cell_angle_alpha 90.000000
_cell_angle_beta 90.000000
_cell_angle_gamma 90.000000
_cell_volume 1282.545731
_symmetry_space_group_name_H-M "P N N A"
_symmetry_group_IT_number 52
_symmetry_cell_setting 'orthorhombic'
loop_
_space_group_symop_operation_xyz
x,y,z
1/2-x,-y,z
x,1/2-y,1/2-z
1/2-x,1/2+y,1/2-z
-x,-y,-z
1/2+x,y,-z
-x,1/2+y,1/2+z
1/2+x,1/2-y,1/2+z
loop_
_atom_site_type_symbol
_atom_site_label
_atom_site_fract_x
_atom_site_fract_y
_atom_site_fract_z
Si Si1 0.750000 0.500000 0.649153
Si Si2 0.618314 0.231712 0.074759
Si Si3 0.975540 0.748095 0.929221
Si Si4 0.322694 0.238627 0.574190
O O1 0.729148 0.250000 0.750000
O O2 0.714659 0.660513 0.544042
O O3 0.601165 0.250000 0.250000
O O4 0.659597 0.436523 0.038312
O O5 0.634664 0.928103 0.051133
O O6 0.577243 0.275239 0.961044
O O7 0.983417 0.750000 0.750000
O O8 0.000000 0.500000 0.000000
O O9 0.000000 0.000000 0.000000
O O10 0.303810 0.250000 0.750000
#
# Coordination Sequence:
#
# PCOD8216301 Si02
#       4
#     4   8   8   8
#     4  12  26  42  64  98 134 166 210 274 326 374
#     4  10  21  40  65  94 125 164 214 266 317 377
#     4  12  25  42  66  96 131 171 213 263 318 381
#     4  10  23  42  66  91 125 171 214 258 318 390
#
# _framework density 21.831579999999999
#
# number of rings (size 3 to 8) (size 9 to 14) (size 15 to 20)
#    0.000    1.143    0.000    6.000    0.000   10.286 
#    0.000    0.000    0.000    0.000    0.000    0.000 
#    0.000    0.000    0.000    0.000    0.000    0.000 
#
# Total GULP energy -347142.860498 kJ/mol
# GULP energy per Si atom -12397.959303 kJ/mol
# Density = 2.178189 g / cm^3
# Si number density = 21.831580 Si / 1000 Ang^3
#
#
#
# Elastic Constant Matrix: (Units=GPa)
#
#
# Indices 1 2 3 4 5 6 
#
# 1 86.0939 24.6791 62.4620 0.0000 0.0000 0.0000
# 2 24.6791 132.7861 58.6967 0.0000 0.0000 0.0000
# 3 62.4620 58.6967 164.5313 0.0000 0.0000 0.0000
# 4 0.0000 0.0000 0.0000 39.7896 0.0000 0.0000
# 5 0.0000 0.0000 0.0000 0.0000 26.1120 0.0000
# 6 0.0000 0.0000 0.0000 0.0000 0.0000 26.3894
#
#
#
# Elastic Compliance Matrix: (Units=1/GPa)
#
#
# Indices 1 2 3 4 5 6 
#
# 1 0.016044 -0.000344 -0.005968 0.000000 0.000000 0.000000
# 2 -0.000344 0.008948 -0.003062 0.000000 0.000000 0.000000
# 3 -0.005968 -0.003062 0.009436 0.000000 0.000000 0.000000
# 4 0.000000 0.000000 0.000000 0.025132 0.000000 0.000000
# 5 0.000000 0.000000 0.000000 0.000000 0.038297 0.000000
# 6 0.000000 0.000000 0.000000 0.000000 0.000000 0.037894
#
#
# Mechanical properties :
#
#
# Convention : Reuss Voigt Hill
#
# Bulk Modulus (GPa) = 63.77330 75.00968 69.39149
# Shear Modulus (GPa) = 31.30384 34.29642 32.80013
#
# Velocity S-wave (km/s) = 3.79077 3.96783 3.88031
# Velocity P-wave (km/s) = 6.95951 7.44476 7.20622
#
# Compressibility (1/GPa) = 0.01568054
#
# Stress axis : x y z
#
# Youngs Moduli (GPa) = 62.32971 111.75399 105.97807
#
# Poissons Ratio (x) = 0.03840 0.63250
# Poissons Ratio (y) = 0.02142 0.32449
# Poissons Ratio (z) = 0.37199 0.34217
#
# Static dielectric constant tensor:
#      x y z
#    x 3.728170 0.000000 0.000000 
#    y 0.000000 4.287310 0.000000 
#    z 0.000000 0.000000 4.342680 
# 
# 
# High freq. dielectric constant tensor:
#      x y z
#    x 1.848540 0.000000 0.000000 
#    y 0.000000 1.885980 0.000000 
#    z 0.000000 0.000000 1.866600 
# 
# From -- ./inp_files/14674.got.cif
#   From: 2010.06.25/outbox.cif.g09.slc.cpg/sg52_8_cif.got.tgz:14674.got - 2010.06.26 19:32:48.
