data_PCOD8216620
_publ_section_title
;
Structure prediction by ZEFSAII (Michael W. Deem and Ramdas Pophale) SiO2 
 PCOD8216620
Probable space group: P N N A
;
_chemical_formula_sum "Si O2"
_cell_formula_units_Z 48
_cell_length_a 14.512662
_cell_length_b 18.958620
_cell_length_c 9.062722
_cell_angle_alpha 90.000000
_cell_angle_beta 90.000000
_cell_angle_gamma 90.000000
_cell_volume 2493.517730
_symmetry_space_group_name_H-M "P N N A"
_symmetry_group_IT_number 52
_symmetry_cell_setting 'orthorhombic'
loop_
_space_group_symop_operation_xyz
x,y,z
1/2-x,-y,z
x,1/2-y,1/2-z
1/2-x,1/2+y,1/2-z
-x,-y,-z
1/2+x,y,-z
-x,1/2+y,1/2+z
1/2+x,1/2-y,1/2+z
loop_
_atom_site_type_symbol
_atom_site_label
_atom_site_fract_x
_atom_site_fract_y
_atom_site_fract_z
Si Si1 0.994351 0.426110 0.920878
Si Si2 0.866242 0.832084 0.584164
Si Si3 0.106482 0.750000 0.750000
Si Si4 0.059823 0.050618 0.897967
Si Si5 0.312324 0.128595 0.562083
Si Si6 0.561412 0.181552 0.896747
Si Si7 0.250000 0.000000 0.765802
O O1 0.999336 0.439525 0.747658
O O2 0.901210 0.388503 0.966845
O O3 0.000000 0.500000 0.000000
O O4 0.078209 0.375859 0.963207
O O5 0.760485 0.851594 0.563409
O O6 0.898791 0.853981 0.747740
O O7 0.878292 0.748866 0.557099
O O8 0.171612 0.804382 0.666094
O O9 0.043150 0.793239 0.865831
O O10 0.162081 0.019829 0.867248
O O11 0.068710 0.126628 0.972309
O O12 0.000000 0.000000 0.000000
O O13 0.278750 0.064256 0.661952
#
# Coordination Sequence:
#
# PCOD8216620 Si02
#       7
#     8   8   4   8   8   8   4
#     4  12  22  42  68  93 128 174 222 270 330 401
#     4  10  22  42  65  96 128 177 215 275 325 408
#     4  10  22  42  72  90 136 182 216 276 346 384
#     4  12  26  43  68  99 138 171 224 280 335 398
#     4  12  22  42  69 100 129 178 230 270 336 407
#     4  10  22  46  63  94 140 170 214 283 340 382
#     4  12  26  42  70 100 130 182 222 270 342 400
#
# _framework density 19.249911999999998
#
# number of rings (size 3 to 8) (size 9 to 14) (size 15 to 20)
#    0.000    1.000    6.667    2.000    2.333    2.000 
#    6.000    0.000    0.000    0.000    0.000    0.000 
#    0.000    0.000    0.000    0.000    0.000    0.000 
#
# Total GULP energy -595317.359635 kJ/mol
# GULP energy per Si atom -12402.444992 kJ/mol
# Density = 1.920610 g / cm^3
# Si number density = 19.249912 Si / 1000 Ang^3
#
#
#
# Elastic Constant Matrix: (Units=GPa)
#
#
# Indices 1 2 3 4 5 6 
#
# 1 105.0574 35.7850 33.0695 0.0000 0.0000 0.0000
# 2 35.7850 103.5927 65.5731 0.0000 0.0000 0.0000
# 3 33.0695 65.5731 123.1229 0.0000 0.0000 0.0000
# 4 0.0000 0.0000 0.0000 44.2494 0.0000 0.0000
# 5 0.0000 0.0000 0.0000 0.0000 31.4033 0.0000
# 6 0.0000 0.0000 0.0000 0.0000 0.0000 29.8690
#
#
#
# Elastic Compliance Matrix: (Units=1/GPa)
#
#
# Indices 1 2 3 4 5 6 
#
# 1 0.010945 -0.002896 -0.001397 0.000000 0.000000 0.000000
# 2 -0.002896 0.015329 -0.007386 0.000000 0.000000 0.000000
# 3 -0.001397 -0.007386 0.012431 0.000000 0.000000 0.000000
# 4 0.000000 0.000000 0.000000 0.022599 0.000000 0.000000
# 5 0.000000 0.000000 0.000000 0.000000 0.031844 0.000000
# 6 0.000000 0.000000 0.000000 0.000000 0.000000 0.033480
#
#
# Mechanical properties :
#
#
# Convention : Reuss Voigt Hill
#
# Bulk Modulus (GPa) = 65.16477 66.73645 65.95061
# Shear Modulus (GPa) = 32.23691 34.26070 33.24880
#
# Velocity S-wave (km/s) = 4.09669 4.22333 4.16049
# Velocity P-wave (km/s) = 7.50351 7.65021 7.57721
#
# Compressibility (1/GPa) = 0.01534572
#
# Stress axis : x y z
#
# Youngs Moduli (GPa) = 91.36605 65.23584 80.44497
#
# Poissons Ratio (x) = 0.18895 0.11239
# Poissons Ratio (y) = 0.26464 0.59417
# Poissons Ratio (z) = 0.12765 0.48183
#
# Static dielectric constant tensor:
#      x y z
#    x 3.658930 0.000000 0.000000 
#    y 0.000000 3.714010 0.000000 
#    z 0.000000 0.000000 1.235410 
# 
# 
# High freq. dielectric constant tensor:
#      x y z
#    x 1.757510 0.000000 0.000000 
#    y 0.000000 1.766770 0.000000 
#    z 0.000000 0.000000 1.746660 
# 
# From -- ./inp_files/10537.got.cif
#   From: 2010.06.25/outbox.cif.g09.slc.cpg/sg52_6_cif.got.tgz:10537.got - 2010.06.26 19:32:48.
