data_PCOD8216042
_publ_section_title
;
Structure prediction by ZEFSAII (Michael W. Deem and Ramdas Pophale) SiO2 
 PCOD8216042
Probable space group: P N N A
;
_chemical_formula_sum "Si O2"
_cell_formula_units_Z 48
_cell_length_a 7.606873
_cell_length_b 12.226708
_cell_length_c 25.247900
_cell_angle_alpha 90.000000
_cell_angle_beta 90.000000
_cell_angle_gamma 90.000000
_cell_volume 2348.231813
_symmetry_space_group_name_H-M "P N N A"
_symmetry_group_IT_number 52
_symmetry_cell_setting 'orthorhombic'
loop_
_space_group_symop_operation_xyz
x,y,z
1/2-x,-y,z
x,1/2-y,1/2-z
1/2-x,1/2+y,1/2-z
-x,-y,-z
1/2+x,y,-z
-x,1/2+y,1/2+z
1/2+x,1/2-y,1/2+z
loop_
_atom_site_type_symbol
_atom_site_label
_atom_site_fract_x
_atom_site_fract_y
_atom_site_fract_z
Si Si1 0.250000 0.000000 0.504370
Si Si2 0.750000 0.500000 0.466204
Si Si3 0.250000 0.500000 0.360455
Si Si4 0.531060 0.631259 0.932820
Si Si5 0.048599 0.523942 0.723343
Si Si6 0.867378 0.397732 0.815401
Si Si7 0.925496 0.374566 0.556297
Si Si8 0.620058 0.250000 0.750000
O O1 0.291578 0.099841 0.464175
O O2 0.104013 0.042398 0.544860
O O3 0.831830 0.402577 0.501256
O O4 0.591912 0.453131 0.430727
O O5 0.424379 0.503245 0.326105
O O6 0.221166 0.606967 0.397731
O O7 0.531209 0.630593 0.869070
O O8 0.492225 0.755113 0.947941
O O9 0.250000 0.500000 0.708050
O O10 0.001002 0.437818 0.769733
O O11 0.011725 0.650944 0.736547
O O12 0.750000 0.500000 0.830652
O O13 0.750319 0.293349 0.796622
#
# Coordination Sequence:
#
# PCOD8216042 Si02
#       8
#     4   4   4   8   8   8   8   4
#     4  10  24  37  60  88 134 153 224 252 306 380
#     4   9  20  40  58  94 124 156 212 267 312 392
#     4  11  22  43  62  98 130 159 208 281 320 388
#     4  11  21  40  60  91 119 174 201 264 311 378
#     4  11  24  42  63  93 129 165 216 267 317 392
#     4  10  21  40  66  88 130 165 212 261 324 376
#     4  10  21  37  66  87 125 166 209 260 331 374
#     4  10  20  44  66  90 122 176 206 262 330 388
#
# _framework density 20.440912000000001
#
# number of rings (size 3 to 8) (size 9 to 14) (size 15 to 20)
#    0.000    1.667    3.333    2.000    2.333    0.667 
#    0.000    0.000    0.000    0.000    0.000    0.000 
#    0.000    0.000    0.000    0.000    0.000    0.000 
#
# Total GULP energy -594662.742152 kJ/mol
# GULP energy per Si atom -12388.807128 kJ/mol
# Density = 2.039439 g / cm^3
# Si number density = 20.440912 Si / 1000 Ang^3
#
#
#
# Elastic Constant Matrix: (Units=GPa)
#
#
# Indices 1 2 3 4 5 6 
#
# 1 111.9766 35.8057 49.6325 0.0000 0.0000 0.0000
# 2 35.8057 111.7667 50.4548 0.0000 0.0000 0.0000
# 3 49.6325 50.4548 112.9158 0.0000 0.0000 0.0000
# 4 0.0000 0.0000 0.0000 12.5157 0.0000 0.0000
# 5 0.0000 0.0000 0.0000 0.0000 18.1794 0.0000
# 6 0.0000 0.0000 0.0000 0.0000 0.0000 27.1786
#
#
#
# Elastic Compliance Matrix: (Units=1/GPa)
#
#
# Indices 1 2 3 4 5 6 
#
# 1 0.011353 -0.001734 -0.004216 0.000000 0.000000 0.000000
# 2 -0.001734 0.011473 -0.004364 0.000000 0.000000 0.000000
# 3 -0.004216 -0.004364 0.012659 0.000000 0.000000 0.000000
# 4 0.000000 0.000000 0.000000 0.079899 0.000000 0.000000
# 5 0.000000 0.000000 0.000000 0.000000 0.055007 0.000000
# 6 0.000000 0.000000 0.000000 0.000000 0.000000 0.036794
#
#
# Mechanical properties :
#
#
# Convention : Reuss Voigt Hill
#
# Bulk Modulus (GPa) = 67.30544 67.60500 67.45522
# Shear Modulus (GPa) = 21.48076 24.95916 23.21996
#
# Velocity S-wave (km/s) = 3.24523 3.49813 3.37405
# Velocity P-wave (km/s) = 6.85860 7.03285 6.94627
#
# Compressibility (1/GPa) = 0.01485764
#
# Stress axis : x y z
#
# Youngs Moduli (GPa) = 88.07888 87.16174 78.99380
#
# Poissons Ratio (x) = 0.15115 0.33300
# Poissons Ratio (y) = 0.15274 0.34475
# Poissons Ratio (z) = 0.37130 0.38040
#
# Static dielectric constant tensor:
#      x y z
#    x 3.807320 0.000000 0.000000 
#    y 0.000000 3.769880 0.000000 
#    z 0.000000 0.000000 3.713340 
# 
# 
# High freq. dielectric constant tensor:
#      x y z
#    x 1.791750 0.000000 0.000000 
#    y 0.000000 1.801600 0.000000 
#    z 0.000000 0.000000 1.801980 
# 
# From -- ./inp_files/39540.got.cif
#   From: 2010.06.25/outbox.cif.g09.slc.cpg/sg52_20_cif.got.tgz:39540.got - 2010.06.26 19:32:48.
