data_PCOD8216774
_publ_section_title
;
Structure prediction by ZEFSAII (Michael W. Deem and Ramdas Pophale) SiO2 
 PCOD8216774
Probable space group: P N N A
;
_chemical_formula_sum "Si O2"
_cell_formula_units_Z 60
_cell_length_a 9.182627
_cell_length_b 26.904786
_cell_length_c 11.577658
_cell_angle_alpha 90.000000
_cell_angle_beta 90.000000
_cell_angle_gamma 90.000000
_cell_volume 2860.336988
_symmetry_space_group_name_H-M "P N N A"
_symmetry_group_IT_number 52
_symmetry_cell_setting 'orthorhombic'
loop_
_space_group_symop_operation_xyz
x,y,z
1/2-x,-y,z
x,1/2-y,1/2-z
1/2-x,1/2+y,1/2-z
-x,-y,-z
1/2+x,y,-z
-x,1/2+y,1/2+z
1/2+x,1/2-y,1/2+z
loop_
_atom_site_type_symbol
_atom_site_label
_atom_site_fract_x
_atom_site_fract_y
_atom_site_fract_z
Si Si1 0.091593 0.898528 0.750243
Si Si2 0.145803 0.047269 0.679139
Si Si3 0.314387 0.321578 0.073111
Si Si4 0.439720 0.250000 0.250000
Si Si5 0.659476 0.233366 0.043103
Si Si6 0.942284 0.206864 0.155340
Si Si7 0.079345 0.991582 0.882994
Si Si8 0.056581 0.112522 0.475297
O O1 0.264895 0.906011 0.733533
O O2 0.035900 0.843545 0.775069
O O3 0.037087 0.935308 0.849996
O O4 0.027600 0.914428 0.626922
O O5 0.065419 0.068270 0.567892
O O6 0.250000 0.000000 0.650079
O O7 0.031485 0.028826 0.778229
O O8 0.336917 0.294152 0.197928
O O9 0.211022 0.369730 0.078155
O O10 0.240067 0.285716 0.978547
O O11 0.471457 0.339126 0.025769
O O12 0.539412 0.232693 0.143801
O O13 0.793989 0.198580 0.081572
O O14 0.582401 0.215249 0.925904
O O15 0.926230 0.250000 0.250000
O O16 0.250000 0.000000 0.901995
O O17 0.000000 0.000000 0.000000
#
# Coordination Sequence:
#
# PCOD8216774 Si02
#       8
#     8   8   8   4   8   8   8   8
#     4  10  23  42  66  93 135 174 218 274 345 404
#     4   9  22  43  70  98 135 173 217 282 354 419
#     4  12  25  43  64  98 135 181 227 287 334 411
#     4  12  26  42  64  92 138 176 238 268 346 400
#     4  12  25  42  62  92 131 180 226 278 329 398
#     4  12  26  41  66  94 135 180 227 279 336 405
#     4   9  21  46  69  95 131 173 215 276 342 415
#     4  12  23  43  68 100 132 171 231 279 351 406
#
# _framework density 20.976548000000001
#
# number of rings (size 3 to 8) (size 9 to 14) (size 15 to 20)
#    0.000    1.333    4.667    1.600    4.667    4.267 
#    2.400    0.000    0.000    0.000    0.000    0.000 
#    0.000    0.000    0.000    0.000    0.000    0.000 
#
# Total GULP energy -743561.916913 kJ/mol
# GULP energy per Si atom -12392.698615 kJ/mol
# Density = 2.092880 g / cm^3
# Si number density = 20.976548 Si / 1000 Ang^3
#
#
#
# Elastic Constant Matrix: (Units=GPa)
#
#
# Indices 1 2 3 4 5 6 
#
# 1 73.6720 39.3999 56.6933 0.0000 0.0000 0.0000
# 2 39.3999 112.8529 77.8354 0.0000 0.0000 0.0000
# 3 56.6933 77.8354 157.8046 0.0000 0.0000 0.0000
# 4 0.0000 0.0000 0.0000 42.9094 0.0000 0.0000
# 5 0.0000 0.0000 0.0000 0.0000 44.5394 0.0000
# 6 0.0000 0.0000 0.0000 0.0000 0.0000 24.6254
#
#
#
# Elastic Compliance Matrix: (Units=1/GPa)
#
#
# Indices 1 2 3 4 5 6 
#
# 1 0.019400 -0.002980 -0.005500 0.000000 0.000000 0.000000
# 2 -0.002980 0.013887 -0.005779 0.000000 0.000000 0.000000
# 3 -0.005500 -0.005779 0.011163 0.000000 0.000000 0.000000
# 4 0.000000 0.000000 0.000000 0.023305 0.000000 0.000000
# 5 0.000000 0.000000 0.000000 0.000000 0.022452 0.000000
# 6 0.000000 0.000000 0.000000 0.000000 0.000000 0.040608
#
#
# Mechanical properties :
#
#
# Convention : Reuss Voigt Hill
#
# Bulk Modulus (GPa) = 62.76379 76.90964 69.83672
# Shear Modulus (GPa) = 30.36849 33.77490 32.07170
#
# Velocity S-wave (km/s) = 3.80904 4.01699 3.91440
# Velocity P-wave (km/s) = 7.02360 7.63277 7.33451
#
# Compressibility (1/GPa) = 0.01593275
#
# Stress axis : x y z
#
# Youngs Moduli (GPa) = 51.54765 72.00775 89.57800
#
# Poissons Ratio (x) = 0.21455 0.49267
# Poissons Ratio (y) = 0.15359 0.51770
# Poissons Ratio (z) = 0.28351 0.41616
#
# Static dielectric constant tensor:
#      x y z
#    x 3.013040 0.000000 0.000000 
#    y 0.000000 3.432700 0.000000 
#    z 0.000000 0.000000 4.128810 
# 
# 
# High freq. dielectric constant tensor:
#      x y z
#    x 1.816620 0.000000 0.000000 
#    y 0.000000 1.809560 0.000000 
#    z 0.000000 0.000000 1.832030 
# 
# From -- ./inp_files/17121.got.cif
#   From: 2010.06.25/outbox.cif.g09.slc.cpg/sg52_9_cif.got.tgz:17121.got - 2010.06.26 19:32:48.
