data_PCOD8216860
_publ_section_title
;
Structure prediction by ZEFSAII (Michael W. Deem and Ramdas Pophale) SiO2 
 PCOD8216860
Probable space group: P N N A
;
_chemical_formula_sum "Si O2"
_cell_formula_units_Z 60
_cell_length_a 11.814201
_cell_length_b 8.259333
_cell_length_c 27.355571
_cell_angle_alpha 90.000000
_cell_angle_beta 90.000000
_cell_angle_gamma 90.000000
_cell_volume 2669.286046
_symmetry_space_group_name_H-M "P N N A"
_symmetry_group_IT_number 52
_symmetry_cell_setting 'orthorhombic'
loop_
_space_group_symop_operation_xyz
x,y,z
1/2-x,-y,z
x,1/2-y,1/2-z
1/2-x,1/2+y,1/2-z
-x,-y,-z
1/2+x,y,-z
-x,1/2+y,1/2+z
1/2+x,1/2-y,1/2+z
loop_
_atom_site_type_symbol
_atom_site_label
_atom_site_fract_x
_atom_site_fract_y
_atom_site_fract_z
Si Si1 0.397277 0.251214 0.357985
Si Si2 0.551305 0.310699 0.052135
Si Si3 0.750000 0.500000 0.167992
Si Si4 0.146969 0.337856 0.140391
Si Si5 0.263046 0.185211 0.899767
Si Si6 0.132135 0.461435 0.295559
Si Si7 0.017872 0.815132 0.556557
Si Si8 0.009459 0.041091 0.705729
O O1 0.462005 0.255556 0.408884
O O2 0.282860 0.138175 0.363769
O O3 0.360212 0.433160 0.345377
O O4 0.479864 0.225794 0.309037
O O5 0.670213 0.218450 0.058441
O O6 0.567292 0.502882 0.059347
O O7 0.506444 0.266210 0.998826
O O8 0.755089 0.670132 0.139308
O O9 0.860217 0.492209 0.202133
O O10 0.097536 0.289276 0.087404
O O11 0.066388 0.483868 0.158195
O O12 0.121296 0.220013 0.185984
O O13 0.387861 0.194814 0.922284
O O14 0.250000 0.000000 0.878710
O O15 0.250000 0.500000 0.266416
O O16 0.028891 0.486847 0.258768
#
# Coordination Sequence:
#
# PCOD8216860 Si02
#       8
#     8   8   4   8   8   8   8   8
#     4  11  22  40  65  98 130 172 226 284 342 415
#     4  11  24  43  69 100 138 183 235 291 346 422
#     4  12  24  48  68 106 142 186 242 286 344 414
#     4  11  22  40  65  98 130 172 226 284 342 415
#     4  12  24  46  71  98 145 198 227 290 355 410
#     4  10  24  42  65  97 136 175 222 290 357 415
#     4  11  24  43  69 100 138 183 235 291 346 422
#     4  12  22  42  68  91 137 175 228 283 339 421
#
# _framework density 22.477922
#
# number of rings (size 3 to 8) (size 9 to 14) (size 15 to 20)
#    0.000    0.800    5.333    2.000    3.733    2.667 
#    0.000    4.000    0.000    0.000    0.000    0.000 
#    0.000    0.000    0.000    0.000    0.000    0.000 
#
# Total GULP energy -743548.753890 kJ/mol
# GULP energy per Si atom -12392.479232 kJ/mol
# Density = 2.242676 g / cm^3
# Si number density = 22.477922 Si / 1000 Ang^3
#
#
#
# Elastic Constant Matrix: (Units=GPa)
#
#
# Indices 1 2 3 4 5 6 
#
# 1 158.4760 19.9791 41.5136 0.0000 0.0000 0.0000
# 2 19.9791 62.9068 4.6334 0.0000 0.0000 0.0000
# 3 41.5136 4.6334 95.7763 0.0000 0.0000 0.0000
# 4 0.0000 0.0000 0.0000 10.0650 0.0000 0.0000
# 5 0.0000 0.0000 0.0000 0.0000 30.7085 0.0000
# 6 0.0000 0.0000 0.0000 0.0000 0.0000 26.5366
#
#
#
# Elastic Compliance Matrix: (Units=1/GPa)
#
#
# Indices 1 2 3 4 5 6 
#
# 1 0.007389 -0.002118 -0.003100 0.000000 0.000000 0.000000
# 2 -0.002118 0.016561 0.000117 0.000000 0.000000 0.000000
# 3 -0.003100 0.000117 0.011779 0.000000 0.000000 0.000000
# 4 0.000000 0.000000 0.000000 0.099354 0.000000 0.000000
# 5 0.000000 0.000000 0.000000 0.000000 0.032564 0.000000
# 6 0.000000 0.000000 0.000000 0.000000 0.000000 0.037684
#
#
# Mechanical properties :
#
#
# Convention : Reuss Voigt Hill
#
# Bulk Modulus (GPa) = 39.17621 49.93457 44.55539
# Shear Modulus (GPa) = 22.31709 30.19757 26.25733
#
# Velocity S-wave (km/s) = 3.15436 3.66926 3.42151
# Velocity P-wave (km/s) = 5.54376 6.34149 5.95599
#
# Compressibility (1/GPa) = 0.02552569
#
# Stress axis : x y z
#
# Youngs Moduli (GPa) = 135.33008 60.38383 84.89565
#
# Poissons Ratio (x) = 0.12792 0.26321
# Poissons Ratio (y) = 0.28669 -0.00994
# Poissons Ratio (z) = 0.41957 -0.00707
#
# Static dielectric constant tensor:
#      x y z
#    x 4.169190 0.000000 0.000000 
#    y 0.000000 4.197050 0.000000 
#    z 0.000000 0.000000 3.713120 
# 
# 
# High freq. dielectric constant tensor:
#      x y z
#    x 1.895270 0.000000 0.000000 
#    y 0.000000 1.895720 0.000000 
#    z 0.000000 0.000000 1.870290 
# 
# From -- ./inp_files/42792.got.cif
#   From: 2010.06.25/outbox.cif.g09.slc.cpg/sg52_22_cif.got.tgz:42792.got - 2010.06.26 19:32:48.
