data_PCOD8216866
_publ_section_title
;
Structure prediction by ZEFSAII (Michael W. Deem and Ramdas Pophale) SiO2 
 PCOD8216866
Probable space group: P N N A
;
_chemical_formula_sum "Si O2"
_cell_formula_units_Z 60
_cell_length_a 8.487341
_cell_length_b 26.389925
_cell_length_c 11.996853
_cell_angle_alpha 90.000000
_cell_angle_beta 90.000000
_cell_angle_gamma 90.000000
_cell_volume 2687.058643
_symmetry_space_group_name_H-M "P N N A"
_symmetry_group_IT_number 52
_symmetry_cell_setting 'orthorhombic'
loop_
_space_group_symop_operation_xyz
x,y,z
1/2-x,-y,z
x,1/2-y,1/2-z
1/2-x,1/2+y,1/2-z
-x,-y,-z
1/2+x,y,-z
-x,1/2+y,1/2+z
1/2+x,1/2-y,1/2+z
loop_
_atom_site_type_symbol
_atom_site_label
_atom_site_fract_x
_atom_site_fract_y
_atom_site_fract_z
Si Si1 0.891531 0.143214 0.369222
Si Si2 0.603969 0.535190 0.765894
Si Si3 0.311798 0.392232 0.633130
Si Si4 0.131561 0.960793 0.511875
Si Si5 0.565586 0.736449 0.628159
Si Si6 0.250000 0.500000 0.727033
Si Si7 0.662058 0.295155 0.981883
Si Si8 0.463795 0.375619 0.404692
O O1 0.882390 0.140197 0.235996
O O2 0.896309 0.085211 0.407219
O O3 0.738436 0.169886 0.421848
O O4 0.049265 0.170643 0.406403
O O5 0.750000 0.500000 0.722367
O O6 0.669144 0.557232 0.885475
O O7 0.429724 0.509060 0.782051
O O8 0.596339 0.582462 0.681802
O O9 0.277390 0.450850 0.653752
O O10 0.431873 0.391342 0.531322
O O11 0.149125 0.365158 0.603159
O O12 0.250000 0.000000 0.573544
O O13 0.000000 0.000000 0.500000
O O14 0.501799 0.750000 0.750000
O O15 0.713073 0.772410 0.602878
O O16 0.429018 0.748963 0.539583
O O17 0.618460 0.678118 0.621379
#
# Coordination Sequence:
#
# PCOD8216866 Si02
#       8
#     8   8   8   8   8   4   8   8
#     4  11  24  43  70 102 141 177 233 287 360 426
#     4  10  25  44  70 106 144 192 242 292 359 438
#     4  11  26  43  69 100 142 188 236 288 350 424
#     4  11  24  39  66 102 139 179 228 287 358 436
#     4  11  24  46  71  98 136 177 233 293 359 415
#     4  10  24  42  68 100 148 192 232 296 348 418
#     4  10  25  43  69 103 131 179 229 295 356 427
#     4  11  26  44  72  98 139 186 240 292 355 422
#
# _framework density 22.329248
#
# number of rings (size 3 to 8) (size 9 to 14) (size 15 to 20)
#    0.000    1.333    0.000    3.200   15.867    4.267 
#    0.000    2.667    0.000    0.000    0.000    0.000 
#    0.000    0.000    0.000    0.000    0.000    0.000 
#
# Total GULP energy -743395.352931 kJ/mol
# GULP energy per Si atom -12389.922549 kJ/mol
# Density = 2.227843 g / cm^3
# Si number density = 22.329248 Si / 1000 Ang^3
#
#
#
# Elastic Constant Matrix: (Units=GPa)
#
#
# Indices 1 2 3 4 5 6 
#
# 1 103.6283 35.4714 30.5080 0.0000 0.0000 0.0000
# 2 35.4714 114.9069 33.5394 0.0000 0.0000 0.0000
# 3 30.5080 33.5394 111.2422 0.0000 0.0000 0.0000
# 4 0.0000 0.0000 0.0000 1.5369 0.0000 0.0000
# 5 0.0000 0.0000 0.0000 0.0000 32.7869 0.0000
# 6 0.0000 0.0000 0.0000 0.0000 0.0000 19.3443
#
#
#
# Elastic Compliance Matrix: (Units=1/GPa)
#
#
# Indices 1 2 3 4 5 6 
#
# 1 0.011277 -0.002827 -0.002240 0.000000 0.000000 0.000000
# 2 -0.002827 0.010251 -0.002315 0.000000 0.000000 0.000000
# 3 -0.002240 -0.002315 0.010302 0.000000 0.000000 0.000000
# 4 0.000000 0.000000 0.000000 0.650645 0.000000 0.000000
# 5 0.000000 0.000000 0.000000 0.000000 0.030500 0.000000
# 6 0.000000 0.000000 0.000000 0.000000 0.000000 0.051695
#
#
# Mechanical properties :
#
#
# Convention : Reuss Voigt Hill
#
# Bulk Modulus (GPa) = 58.60169 58.75724 58.67946
# Shear Modulus (GPa) = 6.36842 26.08419 16.22630
#
# Velocity S-wave (km/s) = 1.69063 3.42155 2.69863
# Velocity P-wave (km/s) = 5.48747 6.47923 6.00387
#
# Compressibility (1/GPa) = 0.01706435
#
# Stress axis : x y z
#
# Youngs Moduli (GPa) = 88.67451 97.54861 97.06969
#
# Poissons Ratio (x) = 0.27580 0.21747
# Poissons Ratio (y) = 0.25071 0.22475
# Poissons Ratio (z) = 0.19866 0.22586
#
# Static dielectric constant tensor:
#      x y z
#    x 4.687440 0.000000 0.000000 
#    y 0.000000 4.062690 0.000000 
#    z 0.000000 0.000000 5.096090 
# 
# 
# High freq. dielectric constant tensor:
#      x y z
#    x 1.892340 0.000000 0.000000 
#    y 0.000000 1.886120 0.000000 
#    z 0.000000 0.000000 1.889910 
# 
# From -- ./inp_files/17127.got.cif
#   From: 2010.06.25/outbox.cif.g09.slc.cpg/sg52_9_cif.got.tgz:17127.got - 2010.06.26 19:32:48.
