data_PCOD8216832
_publ_section_title
;
Structure prediction by ZEFSAII (Michael W. Deem and Ramdas Pophale) SiO2 
 PCOD8216832
Probable space group: P N N A
;
_chemical_formula_sum "Si O2"
_cell_formula_units_Z 40
_cell_length_a 12.707956
_cell_length_b 10.769552
_cell_length_c 12.862833
_cell_angle_alpha 90.000000
_cell_angle_beta 90.000000
_cell_angle_gamma 90.000000
_cell_volume 1760.394371
_symmetry_space_group_name_H-M "P N N A"
_symmetry_group_IT_number 52
_symmetry_cell_setting 'orthorhombic'
loop_
_space_group_symop_operation_xyz
x,y,z
1/2-x,-y,z
x,1/2-y,1/2-z
1/2-x,1/2+y,1/2-z
-x,-y,-z
1/2+x,y,-z
-x,1/2+y,1/2+z
1/2+x,1/2-y,1/2+z
loop_
_atom_site_type_symbol
_atom_site_label
_atom_site_fract_x
_atom_site_fract_y
_atom_site_fract_z
Si Si1 0.705736 0.286002 0.948672
Si Si2 0.427470 0.898079 0.943194
Si Si3 0.066854 0.690575 0.139469
Si Si4 0.250000 0.500000 0.906652
Si Si5 0.937647 0.478374 0.232303
Si Si6 0.071128 0.250000 0.250000
O O1 0.827291 0.308679 0.925920
O O2 0.640441 0.302173 0.843656
O O3 0.677679 0.147387 0.994254
O O4 0.683711 0.397056 0.029678
O O5 0.489926 0.769661 0.932808
O O6 0.393937 0.940930 0.828524
O O7 0.500000 0.000000 0.000000
O O8 0.091770 0.750000 0.250000
O O9 0.018954 0.554610 0.159462
O O10 0.161929 0.566752 0.834940
O O11 0.997165 0.362942 0.284986
#
# Coordination Sequence:
#
# PCOD8216832 Si02
#       6
#     8   8   8   4   8   4
#     4  12  25  45  74 108 139 196 251 305 380 445
#     4  11  24  46  71 106 146 190 246 308 369 448
#     4  10  23  46  71  99 145 187 239 307 365 446
#     4  12  28  44  76 108 152 198 240 312 394 460
#     4  11  26  47  71 106 152 194 243 310 379 456
#     4  12  26  46  72 106 144 192 258 304 366 456
#
# _framework density 22.722180999999999
#
# number of rings (size 3 to 8) (size 9 to 14) (size 15 to 20)
#    0.000    0.800    5.000    1.200    2.800    5.600 
#    0.000    0.000    0.000    0.000    0.000    0.000 
#    0.000    0.000    0.000    0.000    0.000    0.000 
#
# Total GULP energy -495880.588957 kJ/mol
# GULP energy per Si atom -12397.014724 kJ/mol
# Density = 2.267046 g / cm^3
# Si number density = 22.722181 Si / 1000 Ang^3
#
#
#
# Elastic Constant Matrix: (Units=GPa)
#
#
# Indices 1 2 3 4 5 6 
#
# 1 94.7647 35.5987 47.2820 0.0000 0.0000 0.0000
# 2 35.5987 112.4365 29.8793 0.0000 0.0000 0.0000
# 3 47.2820 29.8793 105.0771 0.0000 0.0000 0.0000
# 4 0.0000 0.0000 0.0000 35.0209 0.0000 0.0000
# 5 0.0000 0.0000 0.0000 0.0000 28.9181 0.0000
# 6 0.0000 0.0000 0.0000 0.0000 0.0000 33.5501
#
#
#
# Elastic Compliance Matrix: (Units=1/GPa)
#
#
# Indices 1 2 3 4 5 6 
#
# 1 0.014542 -0.003099 -0.005662 0.000000 0.000000 0.000000
# 2 -0.003099 0.010282 -0.001529 0.000000 0.000000 0.000000
# 3 -0.005662 -0.001529 0.012499 0.000000 0.000000 0.000000
# 4 0.000000 0.000000 0.000000 0.028554 0.000000 0.000000
# 5 0.000000 0.000000 0.000000 0.000000 0.034580 0.000000
# 6 0.000000 0.000000 0.000000 0.000000 0.000000 0.029806
#
#
# Mechanical properties :
#
#
# Convention : Reuss Voigt Hill
#
# Bulk Modulus (GPa) = 59.73088 59.75538 59.74313
# Shear Modulus (GPa) = 31.96413 32.79903 32.38158
#
# Velocity S-wave (km/s) = 3.75472 3.80344 3.77916
# Velocity P-wave (km/s) = 6.71876 6.75600 6.73741
#
# Compressibility (1/GPa) = 0.01674176
#
# Stress axis : x y z
#
# Youngs Moduli (GPa) = 68.76714 97.26172 80.00386
#
# Poissons Ratio (x) = 0.30146 0.45299
# Poissons Ratio (y) = 0.21314 0.12232
# Poissons Ratio (z) = 0.38937 0.14871
#
# Static dielectric constant tensor:
#      x y z
#    x 3.941610 0.000000 0.000000 
#    y 0.000000 3.948640 0.000000 
#    z 0.000000 0.000000 4.173430 
# 
# 
# High freq. dielectric constant tensor:
#      x y z
#    x 1.893090 0.000000 0.000000 
#    y 0.000000 1.891720 0.000000 
#    z 0.000000 0.000000 1.911930 
# 
# From -- ./inp_files/25878.got.cif
#   From: 2010.06.25/outbox.cif.g09.slc.cpg/sg52_13_cif.got.tgz:25878.got - 2010.06.26 19:32:48.
