data_PCOD8216007
_publ_section_title
;
Structure prediction by ZEFSAII (Michael W. Deem and Ramdas Pophale) SiO2 
 PCOD8216007
Probable space group: P N N A
;
_chemical_formula_sum "Si O2"
_cell_formula_units_Z 52
_cell_length_a 19.978362
_cell_length_b 8.563525
_cell_length_c 15.091072
_cell_angle_alpha 90.000000
_cell_angle_beta 90.000000
_cell_angle_gamma 90.000000
_cell_volume 2581.859108
_symmetry_space_group_name_H-M "P N N A"
_symmetry_group_IT_number 52
_symmetry_cell_setting 'orthorhombic'
loop_
_space_group_symop_operation_xyz
x,y,z
1/2-x,-y,z
x,1/2-y,1/2-z
1/2-x,1/2+y,1/2-z
-x,-y,-z
1/2+x,y,-z
-x,1/2+y,1/2+z
1/2+x,1/2-y,1/2+z
loop_
_atom_site_type_symbol
_atom_site_label
_atom_site_fract_x
_atom_site_fract_y
_atom_site_fract_z
Si Si1 0.956931 0.579989 0.150975
Si Si2 0.647987 0.250000 0.250000
Si Si3 0.374632 0.155653 0.547643
Si Si4 0.997809 0.314700 0.505625
Si Si5 0.938542 0.844056 0.663852
Si Si6 0.189463 0.398955 0.072004
Si Si7 0.759128 0.817224 0.080229
O O1 0.904077 0.610340 0.229908
O O2 0.928305 0.419611 0.112372
O O3 0.031229 0.520041 0.177825
O O4 0.964451 0.735054 0.089940
O O5 0.693651 0.216241 0.164470
O O6 0.418180 0.277487 0.490127
O O7 0.313110 0.238358 0.598387
O O8 0.351477 0.011137 0.490944
O O9 0.000000 0.500000 0.500000
O O10 0.035069 0.245818 0.421536
O O11 0.958243 0.750000 0.750000
O O12 0.857831 0.849960 0.653289
O O13 0.250000 0.500000 0.112710
O O14 0.212293 0.252073 0.011695
O O15 0.750000 0.000000 0.066789
#
# Coordination Sequence:
#
# PCOD8216007 Si02
#       7
#     8   4   8   8   8   8   8
#     4  11  23  42  65  93 130 180 213 267 329 407
#     4  12  26  38  62  92 146 164 216 264 336 398
#     4  10  20  41  65  87 121 176 220 249 324 390
#     4  11  23  40  69  95 127 173 222 276 321 392
#     4  11  23  42  67  96 126 165 219 275 334 386
#     4  10  20  44  69  86 121 175 216 258 330 404
#     4  11  26  38  62  96 129 173 218 270 320 403
#
# _framework density 20.140525
#
# number of rings (size 3 to 8) (size 9 to 14) (size 15 to 20)
#    0.000    1.231    4.615    0.923    8.615    1.231 
#    1.385    0.769    1.692    0.000    0.000    0.000 
#    0.000    0.000    0.000    0.000    0.000    0.000 
#
# Total GULP energy -644202.800444 kJ/mol
# GULP energy per Si atom -12388.515393 kJ/mol
# Density = 2.009468 g / cm^3
# Si number density = 20.140525 Si / 1000 Ang^3
#
#
#
# Elastic Constant Matrix: (Units=GPa)
#
#
# Indices 1 2 3 4 5 6 
#
# 1 128.4221 46.2157 31.2430 0.0000 0.0000 0.0000
# 2 46.2157 134.5614 22.5307 0.0000 0.0000 0.0000
# 3 31.2430 22.5307 51.6903 0.0000 0.0000 0.0000
# 4 0.0000 0.0000 0.0000 20.0173 0.0000 0.0000
# 5 0.0000 0.0000 0.0000 0.0000 59.7455 0.0000
# 6 0.0000 0.0000 0.0000 0.0000 0.0000 29.0394
#
#
#
# Elastic Compliance Matrix: (Units=1/GPa)
#
#
# Indices 1 2 3 4 5 6 
#
# 1 0.009899 -0.002587 -0.004856 0.000000 0.000000 0.000000
# 2 -0.002587 0.008693 -0.002225 0.000000 0.000000 0.000000
# 3 -0.004856 -0.002225 0.023251 0.000000 0.000000 0.000000
# 4 0.000000 0.000000 0.000000 0.049957 0.000000 0.000000
# 5 0.000000 0.000000 0.000000 0.000000 0.016738 0.000000
# 6 0.000000 0.000000 0.000000 0.000000 0.000000 0.034436
#
#
# Mechanical properties :
#
#
# Convention : Reuss Voigt Hill
#
# Bulk Modulus (GPa) = 44.43114 57.18361 50.80737
# Shear Modulus (GPa) = 29.44451 36.07276 32.75863
#
# Velocity S-wave (km/s) = 3.82770 4.23668 4.03737
# Velocity P-wave (km/s) = 6.45318 7.23785 6.85675
#
# Compressibility (1/GPa) = 0.02250674
#
# Stress axis : x y z
#
# Youngs Moduli (GPa) = 101.01954 115.04005 43.00914
#
# Poissons Ratio (x) = 0.29759 0.20884
# Poissons Ratio (y) = 0.26132 0.09571
# Poissons Ratio (z) = 0.49052 0.25601
#
# Static dielectric constant tensor:
#      x y z
#    x 1.944250 0.000000 0.000000 
#    y 0.000000 2.944140 0.000000 
#    z 0.000000 0.000000 3.633440 
# 
# 
# High freq. dielectric constant tensor:
#      x y z
#    x 1.811530 0.000000 0.000000 
#    y 0.000000 1.790000 0.000000 
#    z 0.000000 0.000000 1.752610 
# 
# From -- ./inp_files/28698.got.cif
#   From: 2010.06.25/outbox.cif.g09.slc.cpg/sg52_15_cif.got.tgz:28698.got - 2010.06.26 19:32:48.
