data_PCOD8216761
_publ_section_title
;
Structure prediction by ZEFSAII (Michael W. Deem and Ramdas Pophale) SiO2 
 PCOD8216761
Probable space group: P N N A
;
_chemical_formula_sum "Si O2"
_cell_formula_units_Z 64
_cell_length_a 15.211131
_cell_length_b 18.128333
_cell_length_c 11.404042
_cell_angle_alpha 90.000000
_cell_angle_beta 90.000000
_cell_angle_gamma 90.000000
_cell_volume 3144.692499
_symmetry_space_group_name_H-M "P N N A"
_symmetry_group_IT_number 52
_symmetry_cell_setting 'orthorhombic'
loop_
_space_group_symop_operation_xyz
x,y,z
1/2-x,-y,z
x,1/2-y,1/2-z
1/2-x,1/2+y,1/2-z
-x,-y,-z
1/2+x,y,-z
-x,1/2+y,1/2+z
1/2+x,1/2-y,1/2+z
loop_
_atom_site_type_symbol
_atom_site_label
_atom_site_fract_x
_atom_site_fract_y
_atom_site_fract_z
Si Si1 0.889346 0.678574 0.509546
Si Si2 0.736298 0.581557 0.518636
Si Si3 0.333174 0.657837 0.064858
Si Si4 0.816039 0.162813 0.750829
Si Si5 0.979844 0.665605 0.749643
Si Si6 0.653839 0.575830 0.276996
Si Si7 0.006331 0.331430 0.712708
Si Si8 0.332686 0.587658 0.823421
O O1 0.823120 0.616364 0.458207
O O2 0.840743 0.758571 0.513422
O O3 0.920500 0.651628 0.636432
O O4 0.974985 0.673163 0.426543
O O5 0.750000 0.500000 0.570750
O O6 0.720179 0.637199 0.624357
O O7 0.661196 0.574468 0.418759
O O8 0.245734 0.640544 0.141873
O O9 0.420690 0.644596 0.139766
O O10 0.330492 0.596272 0.963819
O O11 0.816597 0.250000 0.750000
O O12 0.915081 0.127666 0.749471
O O13 0.011383 0.750000 0.750000
O O14 0.065443 0.616005 0.758322
O O15 0.651105 0.495098 0.219920
O O16 0.739069 0.617580 0.224681
O O17 0.989079 0.250000 0.750000
O O18 0.088309 0.362589 0.780806
#
# Coordination Sequence:
#
# PCOD8216761 Si02
#       8
#     8   8   8   8   8   8   8   8
#     4  11  20  41  69  97 134 171 219 287 336 395
#     4  12  22  41  71  94 131 178 222 277 341 398
#     4  11  22  43  67  94 138 178 218 277 342 401
#     4  11  23  42  67 101 135 171 225 280 337 414
#     4  10  23  41  68  99 128 170 224 279 340 408
#     4  11  24  45  66  93 133 174 229 283 330 402
#     4  11  22  38  65  99 129 168 222 273 336 394
#     4  11  24  43  63  90 135 179 221 277 333 403
#
# _framework density 20.351751
#
# number of rings (size 3 to 8) (size 9 to 14) (size 15 to 20)
#    0.000    1.000    6.250    1.125    0.000    4.000 
#    4.500    2.500    0.000    0.000    0.000    0.000 
#    0.000    0.000    0.000    0.000    0.000    0.000 
#
# Total GULP energy -793186.481165 kJ/mol
# GULP energy per Si atom -12393.538768 kJ/mol
# Density = 2.030543 g / cm^3
# Si number density = 20.351751 Si / 1000 Ang^3
#
#
#
# Elastic Constant Matrix: (Units=GPa)
#
#
# Indices 1 2 3 4 5 6 
#
# 1 103.0371 33.3826 31.2642 0.0000 0.0000 0.0000
# 2 33.3826 64.1459 41.7895 0.0000 0.0000 0.0000
# 3 31.2642 41.7895 127.8774 0.0000 0.0000 0.0000
# 4 0.0000 0.0000 0.0000 30.6352 0.0000 0.0000
# 5 0.0000 0.0000 0.0000 0.0000 36.2493 0.0000
# 6 0.0000 0.0000 0.0000 0.0000 0.0000 26.8715
#
#
#
# Elastic Compliance Matrix: (Units=1/GPa)
#
#
# Indices 1 2 3 4 5 6 
#
# 1 0.011797 -0.005413 -0.001115 0.000000 0.000000 0.000000
# 2 -0.005413 0.022290 -0.005961 0.000000 0.000000 0.000000
# 3 -0.001115 -0.005961 0.010041 0.000000 0.000000 0.000000
# 4 0.000000 0.000000 0.000000 0.032642 0.000000 0.000000
# 5 0.000000 0.000000 0.000000 0.000000 0.027587 0.000000
# 6 0.000000 0.000000 0.000000 0.000000 0.000000 0.037214
#
#
# Mechanical properties :
#
#
# Convention : Reuss Voigt Hill
#
# Bulk Modulus (GPa) = 52.22035 56.43700 54.32867
# Shear Modulus (GPa) = 28.91308 31.32615 30.11962
#
# Velocity S-wave (km/s) = 3.77326 3.92757 3.85119
# Velocity P-wave (km/s) = 6.68565 6.95404 6.82117
#
# Compressibility (1/GPa) = 0.01914962
#
# Stress axis : x y z
#
# Youngs Moduli (GPa) = 84.76446 44.86369 99.59545
#
# Poissons Ratio (x) = 0.24284 0.11109
# Poissons Ratio (y) = 0.45882 0.59366
# Poissons Ratio (z) = 0.09455 0.26742
#
# Static dielectric constant tensor:
#      x y z
#    x 4.873210 0.000000 0.000000 
#    y 0.000000 3.490720 0.000000 
#    z 0.000000 0.000000 3.801690 
# 
# 
# High freq. dielectric constant tensor:
#      x y z
#    x 1.806900 0.000000 0.000000 
#    y 0.000000 1.778430 0.000000 
#    z 0.000000 0.000000 1.804570 
# 
# From -- ./inp_files/19876.got.cif
#   From: 2010.06.25/outbox.cif.g09.slc.cpg/sg52_10_cif.got.tgz:19876.got - 2010.06.26 19:32:48.
