data_PCOD8216010
_publ_section_title
;
Structure prediction by ZEFSAII (Michael W. Deem and Ramdas Pophale) SiO2 
 PCOD8216010
Probable space group: P N N A
;
_chemical_formula_sum "Si O2"
_cell_formula_units_Z 24
_cell_length_a 8.586886
_cell_length_b 14.209853
_cell_length_c 9.227882
_cell_angle_alpha 90.000000
_cell_angle_beta 90.000000
_cell_angle_gamma 90.000000
_cell_volume 1125.971284
_symmetry_space_group_name_H-M "P N N A"
_symmetry_group_IT_number 52
_symmetry_cell_setting 'orthorhombic'
loop_
_space_group_symop_operation_xyz
x,y,z
1/2-x,-y,z
x,1/2-y,1/2-z
1/2-x,1/2+y,1/2-z
-x,-y,-z
1/2+x,y,-z
-x,1/2+y,1/2+z
1/2+x,1/2-y,1/2+z
loop_
_atom_site_type_symbol
_atom_site_label
_atom_site_fract_x
_atom_site_fract_y
_atom_site_fract_z
Si Si1 0.058635 0.407098 0.913304
Si Si2 0.066764 0.002615 0.158795
Si Si3 0.605393 0.842336 0.338147
O O1 0.243182 0.399567 0.891510
O O2 0.985613 0.411134 0.752203
O O3 0.000000 0.500000 0.000000
O O4 0.993550 0.320975 0.013488
O O5 0.001903 0.096731 0.232304
O O6 0.250000 0.000000 0.150468
O O7 0.000000 0.000000 0.000000
O O8 0.654969 0.750000 0.250000
#
# Coordination Sequence:
#
# PCOD8216010 Si02
#       3
#     8   8   8
#     4  10  20  41  66  88 127 179 221 261 332 420
#     4  11  22  40  65  91 125 171 220 264 320 406
#     4  11  24  41  64  97 129 166 220 281 336 388
#
# _framework density 21.31493
#
# number of rings (size 3 to 8) (size 9 to 14) (size 15 to 20)
#    0.000    1.333    0.000   10.000    0.000    5.333 
#    0.000    3.333    0.000    0.000    0.000    0.000 
#    0.000    0.000    0.000    0.000    0.000    0.000 
#
# Total GULP energy -297339.788801 kJ/mol
# GULP energy per Si atom -12389.157867 kJ/mol
# Density = 2.126642 g / cm^3
# Si number density = 21.314930 Si / 1000 Ang^3
#
#
#
# Elastic Constant Matrix: (Units=GPa)
#
#
# Indices 1 2 3 4 5 6 
#
# 1 211.3848 40.6178 81.7846 0.0000 0.0000 0.0000
# 2 40.6178 74.1029 41.7098 0.0000 0.0000 0.0000
# 3 81.7846 41.7098 204.7030 0.0000 0.0000 0.0000
# 4 0.0000 0.0000 0.0000 33.8838 0.0000 0.0000
# 5 0.0000 0.0000 0.0000 0.0000 42.4337 0.0000
# 6 0.0000 0.0000 0.0000 0.0000 0.0000 23.7611
#
#
#
# Elastic Compliance Matrix: (Units=1/GPa)
#
#
# Indices 1 2 3 4 5 6 
#
# 1 0.005884 -0.002148 -0.001913 0.000000 0.000000 0.000000
# 2 -0.002148 0.016027 -0.002407 0.000000 0.000000 0.000000
# 3 -0.001913 -0.002407 0.006140 0.000000 0.000000 0.000000
# 4 0.000000 0.000000 0.000000 0.029513 0.000000 0.000000
# 5 0.000000 0.000000 0.000000 0.000000 0.023566 0.000000
# 6 0.000000 0.000000 0.000000 0.000000 0.000000 0.042086
#
#
# Mechanical properties :
#
#
# Convention : Reuss Voigt Hill
#
# Bulk Modulus (GPa) = 66.16530 90.93500 78.55015
# Shear Modulus (GPa) = 35.41321 41.75429 38.58375
#
# Velocity S-wave (km/s) = 4.08048 4.43077 4.25923
# Velocity P-wave (km/s) = 7.30134 8.30246 7.81794
#
# Compressibility (1/GPa) = 0.01511366
#
# Stress axis : x y z
#
# Youngs Moduli (GPa) = 169.96358 62.39354 162.86837
#
# Poissons Ratio (x) = 0.13404 0.31156
# Poissons Ratio (y) = 0.36512 0.39209
# Poissons Ratio (z) = 0.32513 0.15021
#
# Static dielectric constant tensor:
#      x y z
#    x 3.415330 0.000000 0.000000 
#    y 0.000000 3.631820 0.000000 
#    z 0.000000 0.000000 4.843270 
# 
# 
# High freq. dielectric constant tensor:
#      x y z
#    x 1.857930 0.000000 0.000000 
#    y 0.000000 1.790000 0.000000 
#    z 0.000000 0.000000 1.866400 
# 
# From -- ./inp_files/6988.got.cif
#   From: 2010.06.25/outbox.cif.g09.slc.cpg/sg52_4_cif.got.tgz:6988.got - 2010.06.26 19:32:48.
