data_PCOD8216159
_publ_section_title
;
Structure prediction by ZEFSAII (Michael W. Deem and Ramdas Pophale) SiO2 
 PCOD8216159
Probable space group: P N N A
;
_chemical_formula_sum "Si O2"
_cell_formula_units_Z 64
_cell_length_a 22.051689
_cell_length_b 9.030151
_cell_length_c 15.862753
_cell_angle_alpha 90.000000
_cell_angle_beta 90.000000
_cell_angle_gamma 90.000000
_cell_volume 3158.751297
_symmetry_space_group_name_H-M "P N N A"
_symmetry_group_IT_number 52
_symmetry_cell_setting 'orthorhombic'
loop_
_space_group_symop_operation_xyz
x,y,z
1/2-x,-y,z
x,1/2-y,1/2-z
1/2-x,1/2+y,1/2-z
-x,-y,-z
1/2+x,y,-z
-x,1/2+y,1/2+z
1/2+x,1/2-y,1/2+z
loop_
_atom_site_type_symbol
_atom_site_label
_atom_site_fract_x
_atom_site_fract_y
_atom_site_fract_z
Si Si1 0.901445 0.871184 0.376135
Si Si2 0.579939 0.796452 0.349444
Si Si3 0.241051 0.663650 0.514277
Si Si4 0.052707 0.339424 0.166380
Si Si5 0.609845 0.856628 0.982078
Si Si6 0.872456 0.693855 0.536687
Si Si7 0.039431 0.822119 0.337081
Si Si8 0.270235 0.664280 0.828128
O O1 0.900243 0.811864 0.471236
O O2 0.842571 0.800599 0.330863
O O3 0.965927 0.823038 0.337237
O O4 0.888708 0.046071 0.367488
O O5 0.588635 0.750000 0.250000
O O6 0.510994 0.818616 0.380809
O O7 0.604578 0.678612 0.417574
O O8 0.250000 0.500000 0.553921
O O9 0.180236 0.675670 0.457560
O O10 0.299906 0.695759 0.457999
O O11 0.236263 0.781049 0.588751
O O12 0.041178 0.250000 0.250000
O O13 0.108809 0.255946 0.126127
O O14 0.066850 0.513707 0.169727
O O15 0.566180 0.764746 0.918869
O O16 0.597497 0.032094 0.975982
O O17 0.061065 0.750000 0.250000
O O18 0.250000 0.500000 0.813825
O O19 0.241687 0.750000 0.750000
#
# Coordination Sequence:
#
# PCOD8216159 Si02
#       8
#     8   8   8   8   8   8   8   8
#     4  10  22  38  57  83 118 154 191 235 286 340
#     4  10  22  37  57  85 118 154 191 233 282 342
#     4   9  21  39  56  78 109 147 190 235 282 339
#     4  10  21  38  58  84 116 148 187 236 290 344
#     4  11  22  38  61  86 115 152 194 239 289 344
#     4  10  21  38  60  84 114 152 192 236 290 345
#     4  11  23  39  61  87 117 150 192 241 290 346
#     4  11  22  35  55  81 113 151 192 234 281 337
#
# _framework density 20.261171999999998
#
# number of rings (size 3 to 8) (size 9 to 14) (size 15 to 20)
#    0.000    1.750    0.000    3.750    0.000   13.000 
#    0.000    0.625    0.000    0.000    0.000    0.000 
#    0.000    0.000    0.000    0.000    0.000    0.000 
#
# Total GULP energy -793006.384002 kJ/mol
# GULP energy per Si atom -12390.724750 kJ/mol
# Density = 2.021506 g / cm^3
# Si number density = 20.261172 Si / 1000 Ang^3
#
#
#
# Elastic Constant Matrix: (Units=GPa)
#
#
# Indices 1 2 3 4 5 6 
#
# 1 77.6344 36.2945 32.1441 0.0000 0.0000 0.0000
# 2 36.2945 124.2060 33.3763 0.0000 0.0000 0.0000
# 3 32.1441 33.3763 65.6795 0.0000 0.0000 0.0000
# 4 0.0000 0.0000 0.0000 36.3871 0.0000 0.0000
# 5 0.0000 0.0000 0.0000 0.0000 -25.2369 0.0000
# 6 0.0000 0.0000 0.0000 0.0000 0.0000 31.9222
#
#
#
# Elastic Compliance Matrix: (Units=1/GPa)
#
#
# Indices 1 2 3 4 5 6 
#
# 1 0.017186 -0.003198 -0.006785 0.000000 0.000000 0.000000
# 2 -0.003198 0.009920 -0.003476 0.000000 0.000000 0.000000
# 3 -0.006785 -0.003476 0.020312 0.000000 0.000000 0.000000
# 4 0.000000 0.000000 0.000000 0.027482 0.000000 0.000000
# 5 0.000000 0.000000 0.000000 0.000000 -0.039624 0.000000
# 6 0.000000 0.000000 0.000000 0.000000 0.000000 0.031326
#
#
# Mechanical properties :
#
#
# Convention : Reuss Voigt Hill
#
# Bulk Modulus (GPa) = 48.78303 52.34996 50.56650
# Shear Modulus (GPa) = 49.82378 19.66148 34.74263
#
# Velocity S-wave (km/s) = 4.96429 3.11851 4.14543
# Velocity P-wave (km/s) = 7.54906 6.23381 6.92274
#
# Compressibility (1/GPa) = 0.02049893
#
# Stress axis : x y z
#
# Youngs Moduli (GPa) = 58.18801 100.80940 49.23089
#
# Poissons Ratio (x) = 0.32244 0.33405
# Poissons Ratio (y) = 0.18611 0.17110
# Poissons Ratio (z) = 0.39483 0.35036
#
# Static dielectric constant tensor:
#      x y z
#    x 3.860680 0.000000 0.000000 
#    y 0.000000 4.095160 0.000000 
#    z 0.000000 0.000000 3.450140 
# 
# 
# High freq. dielectric constant tensor:
#      x y z
#    x 1.800830 0.000000 0.000000 
#    y 0.000000 1.804590 0.000000 
#    z 0.000000 0.000000 1.770790 
# 
# From -- ./inp_files/29251.got.cif
#   From: 2010.06.25/outbox.cif.g09.slc.cpg/sg52_15_cif.got.tgz:29251.got - 2010.06.26 19:32:48.
