data_PCOD8216359
_publ_section_title
;
Structure prediction by ZEFSAII (Michael W. Deem and Ramdas Pophale) SiO2 
 PCOD8216359
Probable space group: P N N A
;
_chemical_formula_sum "Si O2"
_cell_formula_units_Z 36
_cell_length_a 13.456901
_cell_length_b 16.858341
_cell_length_c 8.077652
_cell_angle_alpha 90.000000
_cell_angle_beta 90.000000
_cell_angle_gamma 90.000000
_cell_volume 1832.504419
_symmetry_space_group_name_H-M "P N N A"
_symmetry_group_IT_number 52
_symmetry_cell_setting 'orthorhombic'
loop_
_space_group_symop_operation_xyz
x,y,z
1/2-x,-y,z
x,1/2-y,1/2-z
1/2-x,1/2+y,1/2-z
-x,-y,-z
1/2+x,y,-z
-x,1/2+y,1/2+z
1/2+x,1/2-y,1/2+z
loop_
_atom_site_type_symbol
_atom_site_label
_atom_site_fract_x
_atom_site_fract_y
_atom_site_fract_z
Si Si1 0.250000 0.000000 0.075621
Si Si2 0.110778 0.365691 0.521742
Si Si3 0.883759 0.214094 0.494017
Si Si4 0.399473 0.126957 0.174156
Si Si5 0.723469 0.250000 0.250000
Si Si6 0.551712 0.250000 0.750000
O O1 0.326562 0.051985 0.181753
O O2 0.183000 0.059044 0.967830
O O3 0.147862 0.304247 0.654484
O O4 0.112906 0.322019 0.339130
O O5 0.003023 0.395232 0.584855
O O6 0.905459 0.149798 0.633812
O O7 0.854806 0.300008 0.569241
O O8 0.792236 0.195504 0.370769
O O9 0.985974 0.212278 0.394226
#
# Coordination Sequence:
#
# PCOD8216359 Si02
#       6
#     4   8   8   8   4   4
#     4  12  24  38  62  90 132 164 196 248 316 382
#     4  11  23  39  66  91 123 164 206 254 311 360
#     4   9  19  39  67  88 117 155 217 255 292 356
#     4  10  21  42  61  90 122 163 204 253 307 364
#     4  11  20  36  67  96 116 160 213 258 291 360
#     4   9  20  38  65  88 114 160 213 260 291 352
#
# _framework density 19.645247000000001
#
# number of rings (size 3 to 8) (size 9 to 14) (size 15 to 20)
#    0.000    1.778    2.222    3.333    3.111    0.000 
#    0.000    2.222    0.000    0.000    0.000    0.000 
#    0.000    0.000    0.000    0.000    0.000    0.000 
#
# Total GULP energy -446119.998733 kJ/mol
# GULP energy per Si atom -12392.222187 kJ/mol
# Density = 1.960053 g / cm^3
# Si number density = 19.645247 Si / 1000 Ang^3
#
#
#
# Elastic Constant Matrix: (Units=GPa)
#
#
# Indices 1 2 3 4 5 6 
#
# 1 100.7513 54.3559 39.0114 0.0000 0.0000 0.0000
# 2 54.3559 111.5944 50.1742 0.0000 0.0000 0.0000
# 3 39.0114 50.1742 119.9985 0.0000 0.0000 0.0000
# 4 0.0000 0.0000 0.0000 17.4316 0.0000 0.0000
# 5 0.0000 0.0000 0.0000 0.0000 20.5296 0.0000
# 6 0.0000 0.0000 0.0000 0.0000 0.0000 35.0915
#
#
#
# Elastic Compliance Matrix: (Units=1/GPa)
#
#
# Indices 1 2 3 4 5 6 
#
# 1 0.013870 -0.005823 -0.002074 0.000000 0.000000 0.000000
# 2 -0.005823 0.013481 -0.003743 0.000000 0.000000 0.000000
# 3 -0.002074 -0.003743 0.010573 0.000000 0.000000 0.000000
# 4 0.000000 0.000000 0.000000 0.057367 0.000000 0.000000
# 5 0.000000 0.000000 0.000000 0.000000 0.048710 0.000000
# 6 0.000000 0.000000 0.000000 0.000000 0.000000 0.028497
#
#
# Mechanical properties :
#
#
# Convention : Reuss Voigt Hill
#
# Bulk Modulus (GPa) = 68.29793 68.82524 68.56159
# Shear Modulus (GPa) = 24.91766 27.19740 26.05753
#
# Velocity S-wave (km/s) = 3.56530 3.72482 3.64593
# Velocity P-wave (km/s) = 7.19650 7.32183 7.25943
#
# Compressibility (1/GPa) = 0.01464173
#
# Stress axis : x y z
#
# Youngs Moduli (GPa) = 72.09601 74.18077 94.58056
#
# Poissons Ratio (x) = 0.43198 0.19619
# Poissons Ratio (y) = 0.41984 0.35405
# Poissons Ratio (z) = 0.14955 0.27769
#
# Static dielectric constant tensor:
#      x y z
#    x 3.774830 0.000000 0.000000 
#    y 0.000000 3.477300 0.000000 
#    z 0.000000 0.000000 3.803900 
# 
# 
# High freq. dielectric constant tensor:
#      x y z
#    x 1.785530 0.000000 0.000000 
#    y 0.000000 1.736210 0.000000 
#    z 0.000000 0.000000 1.766410 
# 
# From -- ./inp_files/9992.got.cif
#   From: 2010.06.25/outbox.cif.g09.slc.cpg/sg52_5_cif.got.tgz:9992.got - 2010.06.26 19:32:48.
