data_PCOD8216456
_publ_section_title
;
Structure prediction by ZEFSAII (Michael W. Deem and Ramdas Pophale) SiO2 
 PCOD8216456
Probable space group: P N N A
;
_chemical_formula_sum "Si O2"
_cell_formula_units_Z 32
_cell_length_a 15.324907
_cell_length_b 20.287494
_cell_length_c 5.159581
_cell_angle_alpha 90.000000
_cell_angle_beta 90.000000
_cell_angle_gamma 90.000000
_cell_volume 1604.134159
_symmetry_space_group_name_H-M "P N N A"
_symmetry_group_IT_number 52
_symmetry_cell_setting 'orthorhombic'
loop_
_space_group_symop_operation_xyz
x,y,z
1/2-x,-y,z
x,1/2-y,1/2-z
1/2-x,1/2+y,1/2-z
-x,-y,-z
1/2+x,y,-z
-x,1/2+y,1/2+z
1/2+x,1/2-y,1/2+z
loop_
_atom_site_type_symbol
_atom_site_label
_atom_site_fract_x
_atom_site_fract_y
_atom_site_fract_z
Si Si1 0.527658 0.321971 0.356774
Si Si2 0.282708 0.794864 0.998230
Si Si3 0.874235 0.110545 0.072929
Si Si4 0.052040 0.935791 0.419964
O O1 0.511816 0.250000 0.250000
O O2 0.621447 0.327085 0.494215
O O3 0.452145 0.335223 0.568134
O O4 0.517284 0.375727 0.123432
O O5 0.265878 0.750000 0.750000
O O6 0.217160 0.855966 0.993270
O O7 0.268494 0.750000 0.250000
O O8 0.876381 0.078833 0.357163
O O9 0.893882 0.055269 0.849455
O O10 0.000000 0.000000 0.500000
#
# Coordination Sequence:
#
# PCOD8216456 Si02
#       4
#     8   8   8   8
#     4   9  23  36  63  89 124 157 203 255 317 361
#     4  11  23  36  60  95 129 155 205 260 315 377
#     4  10  22  37  64  82 125 156 210 245 319 357
#     4  10  22  40  63  85 120 166 209 252 308 372
#
# _framework density 19.948457000000001
#
# number of rings (size 3 to 8) (size 9 to 14) (size 15 to 20)
#    1.500    0.500    0.000    3.000   10.500    0.000 
#    0.000    1.250    0.000    0.000    0.000    0.000 
#    0.000    0.000    0.000    0.000    0.000    0.000 
#
# Total GULP energy -396507.043877 kJ/mol
# GULP energy per Si atom -12390.845121 kJ/mol
# Density = 1.990305 g / cm^3
# Si number density = 19.948457 Si / 1000 Ang^3
#
#
#
# Elastic Constant Matrix: (Units=GPa)
#
#
# Indices 1 2 3 4 5 6 
#
# 1 57.0326 0.2316 3.4643 0.0000 0.0000 0.0000
# 2 0.2316 78.7747 13.1430 0.0000 0.0000 0.0000
# 3 3.4643 13.1430 120.0372 0.0000 0.0000 0.0000
# 4 0.0000 0.0000 0.0000 32.7651 0.0000 0.0000
# 5 0.0000 0.0000 0.0000 0.0000 38.7522 0.0000
# 6 0.0000 0.0000 0.0000 0.0000 0.0000 9.7999
#
#
#
# Elastic Compliance Matrix: (Units=1/GPa)
#
#
# Indices 1 2 3 4 5 6 
#
# 1 0.017565 0.000034 -0.000511 0.000000 0.000000 0.000000
# 2 0.000034 0.012931 -0.001417 0.000000 0.000000 0.000000
# 3 -0.000511 -0.001417 0.008501 0.000000 0.000000 0.000000
# 4 0.000000 0.000000 0.000000 0.030520 0.000000 0.000000
# 5 0.000000 0.000000 0.000000 0.000000 0.025805 0.000000
# 6 0.000000 0.000000 0.000000 0.000000 0.000000 0.102042
#
#
# Mechanical properties :
#
#
# Convention : Reuss Voigt Hill
#
# Bulk Modulus (GPa) = 28.40229 32.16913 30.28571
# Shear Modulus (GPa) = 23.48660 32.19714 27.84187
#
# Velocity S-wave (km/s) = 3.43500 4.02184 3.73995
# Velocity P-wave (km/s) = 5.47732 6.14232 5.81932
#
# Compressibility (1/GPa) = 0.03520843
#
# Stress axis : x y z
#
# Youngs Moduli (GPa) = 56.93232 77.33525 117.63863
#
# Poissons Ratio (x) = -0.00259 0.06007
# Poissons Ratio (y) = -0.00191 0.16667
# Poissons Ratio (z) = 0.02907 0.10957
#
# Static dielectric constant tensor:
#      x y z
#    x 3.580270 0.000000 0.000000 
#    y 0.000000 3.343870 0.000000 
#    z 0.000000 0.000000 4.906470 
# 
# 
# High freq. dielectric constant tensor:
#      x y z
#    x 1.770630 0.000000 0.000000 
#    y 0.000000 1.757830 0.000000 
#    z 0.000000 0.000000 1.788870 
# 
# From -- ./inp_files/2072.got.cif
#   From: 2010.06.25/outbox.cif.g09.slc.cpg/sg52_2_cif.got.tgz:2072.got - 2010.06.26 19:32:48.
