data_PCOD8216012
_publ_section_title
;
Structure prediction by ZEFSAII (Michael W. Deem and Ramdas Pophale) SiO2 
 PCOD8216012
Probable space group: P N N A
;
_chemical_formula_sum "Si O2"
_cell_formula_units_Z 28
_cell_length_a 12.601612
_cell_length_b 13.229495
_cell_length_c 6.739912
_cell_angle_alpha 90.000000
_cell_angle_beta 90.000000
_cell_angle_gamma 90.000000
_cell_volume 1123.630700
_symmetry_space_group_name_H-M "P N N A"
_symmetry_group_IT_number 52
_symmetry_cell_setting 'orthorhombic'
loop_
_space_group_symop_operation_xyz
x,y,z
1/2-x,-y,z
x,1/2-y,1/2-z
1/2-x,1/2+y,1/2-z
-x,-y,-z
1/2+x,y,-z
-x,1/2+y,1/2+z
1/2+x,1/2-y,1/2+z
loop_
_atom_site_type_symbol
_atom_site_label
_atom_site_fract_x
_atom_site_fract_y
_atom_site_fract_z
Si Si1 0.486813 0.150361 0.031471
Si Si2 0.147287 0.193494 0.460209
Si Si3 0.172883 0.750000 0.750000
Si Si4 0.128416 0.488453 0.282588
O O1 0.548571 0.255368 0.078615
O O2 0.400873 0.167042 0.856610
O O3 0.577226 0.072441 0.964524
O O4 0.427216 0.100170 0.222808
O O5 0.166148 0.250000 0.250000
O O6 0.254398 0.193881 0.587635
O O7 0.117084 0.075771 0.421133
O O8 0.250000 0.500000 0.339803
#
# Coordination Sequence:
#
# PCOD8216012 Si02
#       4
#     8   8   4   8
#     4  10  20  41  72 101 147 192 252 315 376 450
#     4  10  22  44  66 108 147 191 251 312 383 452
#     4  12  22  44  76 102 146 202 252 308 386 462
#     4  10  20  41  68 101 146 191 241 315 370 447
#
# _framework density 24.919222000000001
#
# number of rings (size 3 to 8) (size 9 to 14) (size 15 to 20)
#    0.000    1.714    4.286    3.429    0.000    0.000 
#    7.714   12.857    0.000    0.000    0.000    0.000 
#    0.000    0.000    0.000    0.000    0.000    0.000 
#
# Total GULP energy -346936.246191 kJ/mol
# GULP energy per Si atom -12390.580221 kJ/mol
# Density = 2.486250 g / cm^3
# Si number density = 24.919222 Si / 1000 Ang^3
#
#
#
# Elastic Constant Matrix: (Units=GPa)
#
#
# Indices 1 2 3 4 5 6 
#
# 1 188.0856 95.1226 46.8480 0.0000 0.0000 0.0000
# 2 95.1226 145.1333 49.6096 0.0000 0.0000 0.0000
# 3 46.8480 49.6096 80.0333 0.0000 0.0000 0.0000
# 4 0.0000 0.0000 0.0000 46.9982 0.0000 0.0000
# 5 0.0000 0.0000 0.0000 0.0000 30.5573 0.0000
# 6 0.0000 0.0000 0.0000 0.0000 0.0000 35.0052
#
#
#
# Elastic Compliance Matrix: (Units=1/GPa)
#
#
# Indices 1 2 3 4 5 6 
#
# 1 0.008164 -0.004717 -0.001855 0.000000 0.000000 0.000000
# 2 -0.004717 0.011468 -0.004347 0.000000 0.000000 0.000000
# 3 -0.001855 -0.004347 0.016276 0.000000 0.000000 0.000000
# 4 0.000000 0.000000 0.000000 0.021277 0.000000 0.000000
# 5 0.000000 0.000000 0.000000 0.000000 0.032725 0.000000
# 6 0.000000 0.000000 0.000000 0.000000 0.000000 0.028567
#
#
# Mechanical properties :
#
#
# Convention : Reuss Voigt Hill
#
# Bulk Modulus (GPa) = 71.07994 88.49031 79.78512
# Shear Modulus (GPa) = 34.48130 37.29028 35.88579
#
# Velocity S-wave (km/s) = 3.72388 3.87259 3.79896
# Velocity P-wave (km/s) = 6.86118 7.45546 7.16448
#
# Compressibility (1/GPa) = 0.01406867
#
# Stress axis : x y z
#
# Youngs Moduli (GPa) = 122.48377 87.20099 61.44187
#
# Poissons Ratio (x) = 0.41132 0.11399
# Poissons Ratio (y) = 0.57774 0.26711
# Poissons Ratio (z) = 0.22724 0.37910
#
# Static dielectric constant tensor:
#      x y z
#    x 4.811130 0.000000 0.000000 
#    y 0.000000 5.280370 0.000000 
#    z 0.000000 0.000000 4.217530 
# 
# 
# High freq. dielectric constant tensor:
#      x y z
#    x 2.012500 0.000000 0.000000 
#    y 0.000000 1.992280 0.000000 
#    z 0.000000 0.000000 1.964010 
# 
# From -- ./inp_files/8126.got.cif
#   From: 2010.06.25/outbox.cif.g09.slc.cpg/sg52_5_cif.got.tgz:8126.got - 2010.06.26 19:32:48.
