data_PCOD8216335
_publ_section_title
;
Structure prediction by ZEFSAII (Michael W. Deem and Ramdas Pophale) SiO2 
 PCOD8216335
Probable space group: P N N A
;
_chemical_formula_sum "Si O2"
_cell_formula_units_Z 48
_cell_length_a 14.402680
_cell_length_b 8.847823
_cell_length_c 18.397797
_cell_angle_alpha 90.000000
_cell_angle_beta 90.000000
_cell_angle_gamma 90.000000
_cell_volume 2344.474752
_symmetry_space_group_name_H-M "P N N A"
_symmetry_group_IT_number 52
_symmetry_cell_setting 'orthorhombic'
loop_
_space_group_symop_operation_xyz
x,y,z
1/2-x,-y,z
x,1/2-y,1/2-z
1/2-x,1/2+y,1/2-z
-x,-y,-z
1/2+x,y,-z
-x,1/2+y,1/2+z
1/2+x,1/2-y,1/2+z
loop_
_atom_site_type_symbol
_atom_site_label
_atom_site_fract_x
_atom_site_fract_y
_atom_site_fract_z
Si Si1 0.606037 0.331675 0.537726
Si Si2 0.518336 0.633790 0.683905
Si Si3 0.837436 0.613549 0.694517
Si Si4 0.749114 0.326844 0.052296
Si Si5 0.308781 0.640814 0.684016
Si Si6 0.910345 0.171303 0.974928
O O1 0.645297 0.304235 0.618010
O O2 0.652687 0.206919 0.487300
O O3 0.631130 0.503180 0.513978
O O4 0.496122 0.306568 0.529954
O O5 0.525458 0.750000 0.750000
O O6 0.569848 0.482681 0.711928
O O7 0.412969 0.593541 0.659940
O O8 0.566117 0.697706 0.610289
O O9 0.750000 0.500000 0.693285
O O10 0.820204 0.750000 0.750000
O O11 0.750000 0.500000 0.076741
O O12 0.752805 0.221131 0.122636
O O13 0.833757 0.292400 0.998155
O O14 0.250000 0.500000 0.711531
O O15 0.324208 0.750000 0.750000
#
# Coordination Sequence:
#
# PCOD8216335 Si02
#       6
#     8   8   8   8   8   8
#     4  10  21  41  64  94 120 170 224 260 323 381
#     4  10  22  43  68  96 128 169 214 270 329 385
#     4  11  24  41  64  97 128 172 215 263 329 391
#     4  12  25  40  63  98 132 169 211 270 333 384
#     4  11  24  44  67  94 131 172 219 269 326 390
#     4  10  21  41  68  90 126 170 219 268 317 392
#
# _framework density 20.473668
#
# number of rings (size 3 to 8) (size 9 to 14) (size 15 to 20)
#    0.000    1.333    1.667    4.500    4.667    3.333 
#    6.000    0.000    0.000    0.000    0.000    0.000 
#    0.000    0.000    0.000    0.000    0.000    0.000 
#
# Total GULP energy -595177.118450 kJ/mol
# GULP energy per Si atom -12399.523301 kJ/mol
# Density = 2.042707 g / cm^3
# Si number density = 20.473668 Si / 1000 Ang^3
#
#
#
# Elastic Constant Matrix: (Units=GPa)
#
#
# Indices 1 2 3 4 5 6 
#
# 1 112.0363 42.9083 36.2134 0.0000 0.0000 0.0000
# 2 42.9083 75.3903 23.0130 0.0000 0.0000 0.0000
# 3 36.2134 23.0130 92.3582 0.0000 0.0000 0.0000
# 4 0.0000 0.0000 0.0000 25.3118 0.0000 0.0000
# 5 0.0000 0.0000 0.0000 0.0000 30.5763 0.0000
# 6 0.0000 0.0000 0.0000 0.0000 0.0000 16.7180
#
#
#
# Elastic Compliance Matrix: (Units=1/GPa)
#
#
# Indices 1 2 3 4 5 6 
#
# 1 0.012292 -0.005980 -0.003330 0.000000 0.000000 0.000000
# 2 -0.005980 0.017265 -0.001957 0.000000 0.000000 0.000000
# 3 -0.003330 -0.001957 0.012621 0.000000 0.000000 0.000000
# 4 0.000000 0.000000 0.000000 0.039507 0.000000 0.000000
# 5 0.000000 0.000000 0.000000 0.000000 0.032705 0.000000
# 6 0.000000 0.000000 0.000000 0.000000 0.000000 0.059816
#
#
# Mechanical properties :
#
#
# Convention : Reuss Voigt Hill
#
# Bulk Modulus (GPa) = 50.90503 53.78379 52.34441
# Shear Modulus (GPa) = 24.59572 26.36456 25.48014
#
# Velocity S-wave (km/s) = 3.46979 3.59239 3.53162
# Velocity P-wave (km/s) = 6.40080 6.59801 6.50015
#
# Compressibility (1/GPa) = 0.01964443
#
# Stress axis : x y z
#
# Youngs Moduli (GPa) = 81.35340 57.92039 79.23478
#
# Poissons Ratio (x) = 0.34634 0.26383
# Poissons Ratio (y) = 0.48646 0.15509
# Poissons Ratio (z) = 0.27089 0.11337
#
# Static dielectric constant tensor:
#      x y z
#    x 3.890180 0.000000 0.000000 
#    y 0.000000 3.494970 0.000000 
#    z 0.000000 0.000000 3.819080 
# 
# 
# High freq. dielectric constant tensor:
#      x y z
#    x 1.814330 0.000000 0.000000 
#    y 0.000000 1.781220 0.000000 
#    z 0.000000 0.000000 1.808370 
# 
# From -- ./inp_files/33060.got.cif
#   From: 2010.06.25/outbox.cif.g09.slc.cpg/sg52_17_cif.got.tgz:33060.got - 2010.06.26 19:32:48.
