data_PCOD8216844
_publ_section_title
;
Structure prediction by ZEFSAII (Michael W. Deem and Ramdas Pophale) SiO2 
 PCOD8216844
Probable space group: P N N A
;
_chemical_formula_sum "Si O2"
_cell_formula_units_Z 60
_cell_length_a 22.100870
_cell_length_b 12.342972
_cell_length_c 11.148437
_cell_angle_alpha 90.000000
_cell_angle_beta 90.000000
_cell_angle_gamma 90.000000
_cell_volume 3041.186807
_symmetry_space_group_name_H-M "P N N A"
_symmetry_group_IT_number 52
_symmetry_cell_setting 'orthorhombic'
loop_
_space_group_symop_operation_xyz
x,y,z
1/2-x,-y,z
x,1/2-y,1/2-z
1/2-x,1/2+y,1/2-z
-x,-y,-z
1/2+x,y,-z
-x,1/2+y,1/2+z
1/2+x,1/2-y,1/2+z
loop_
_atom_site_type_symbol
_atom_site_label
_atom_site_fract_x
_atom_site_fract_y
_atom_site_fract_z
Si Si1 0.947842 0.788091 0.926735
Si Si2 0.381435 0.138945 0.541243
Si Si3 0.898337 0.495048 0.648042
Si Si4 0.051916 0.750000 0.750000
Si Si5 0.373204 0.927751 0.410841
Si Si6 0.741792 0.665289 0.922745
Si Si7 0.962776 0.208394 0.881777
Si Si8 0.282124 0.108456 0.154999
O O1 0.913684 0.678595 0.893052
O O2 0.006522 0.811468 0.841863
O O3 0.903179 0.890621 0.919931
O O4 0.971574 0.771693 0.060911
O O5 0.405066 0.165520 0.676633
O O6 0.308082 0.144773 0.527222
O O7 0.410867 0.226192 0.452292
O O8 0.399701 0.014252 0.507449
O O9 0.876100 0.515572 0.782832
O O10 0.957625 0.422835 0.626940
O O11 0.848466 0.409696 0.598322
O O12 0.304799 0.895660 0.449700
O O13 0.753173 0.793791 0.909872
O O14 0.713975 0.623582 0.798250
O O15 0.963520 0.250000 0.750000
O O16 0.250000 0.000000 0.118141
#
# Coordination Sequence:
#
# PCOD8216844 Si02
#       8
#     8   8   8   4   8   8   8   8
#     4  11  25  40  59  93 126 171 216 262 321 375
#     4  11  22  40  62  93 123 166 214 255 321 373
#     4  12  20  37  57  92 130 163 204 256 325 389
#     4  10  24  40  62  86 124 170 218 264 294 388
#     4  12  22  37  64  94 131 163 211 270 318 385
#     4  11  21  34  58  93 126 158 206 259 321 387
#     4  11  22  40  62  87 124 168 212 263 317 387
#     4  11  19  30  54  88 126 160 187 250 327 382
#
# _framework density 19.729140999999998
#
# number of rings (size 3 to 8) (size 9 to 14) (size 15 to 20)
#    0.000    0.800    6.667    1.600    1.867    3.200 
#    0.000    0.000    1.467    1.600    0.000    0.000 
#    0.000    0.000    0.000    0.000    0.000    0.000 
#
# Total GULP energy -743373.335253 kJ/mol
# GULP energy per Si atom -12389.555588 kJ/mol
# Density = 1.968424 g / cm^3
# Si number density = 19.729141 Si / 1000 Ang^3
#
#
#
# Elastic Constant Matrix: (Units=GPa)
#
#
# Indices 1 2 3 4 5 6 
#
# 1 85.0059 34.7939 35.2458 0.0000 0.0000 0.0000
# 2 34.7939 153.3441 30.0397 0.0000 0.0000 0.0000
# 3 35.2458 30.0397 53.5212 0.0000 0.0000 0.0000
# 4 0.0000 0.0000 0.0000 23.0775 0.0000 0.0000
# 5 0.0000 0.0000 0.0000 0.0000 21.3965 0.0000
# 6 0.0000 0.0000 0.0000 0.0000 0.0000 30.4755
#
#
#
# Elastic Compliance Matrix: (Units=1/GPa)
#
#
# Indices 1 2 3 4 5 6 
#
# 1 0.016627 -0.001829 -0.009923 0.000000 0.000000 0.000000
# 2 -0.001829 0.007528 -0.003021 0.000000 0.000000 0.000000
# 3 -0.009923 -0.003021 0.026914 0.000000 0.000000 0.000000
# 4 0.000000 0.000000 0.000000 0.043332 0.000000 0.000000
# 5 0.000000 0.000000 0.000000 0.000000 0.046737 0.000000
# 6 0.000000 0.000000 0.000000 0.000000 0.000000 0.032813
#
#
# Mechanical properties :
#
#
# Convention : Reuss Voigt Hill
#
# Bulk Modulus (GPa) = 46.45998 54.66998 50.56498
# Shear Modulus (GPa) = 23.73370 27.77603 25.75486
#
# Velocity S-wave (km/s) = 3.47216 3.75623 3.61698
# Velocity P-wave (km/s) = 6.29877 6.82516 6.56724
#
# Compressibility (1/GPa) = 0.02152390
#
# Stress axis : x y z
#
# Youngs Moduli (GPa) = 60.14413 132.83712 37.15492
#
# Poissons Ratio (x) = 0.24292 0.36869
# Poissons Ratio (y) = 0.10999 0.11224
# Poissons Ratio (z) = 0.59681 0.40129
#
# Static dielectric constant tensor:
#      x y z
#    x 5.139600 0.000000 0.000000 
#    y 0.000000 5.994580 0.000000 
#    z 0.000000 0.000000 2.825300 
# 
# 
# High freq. dielectric constant tensor:
#      x y z
#    x 1.767740 0.000000 0.000000 
#    y 0.000000 1.795300 0.000000 
#    z 0.000000 0.000000 1.718560 
# 
# From -- ./inp_files/21748.got.cif
#   From: 2010.06.25/outbox.cif.g09.slc.cpg/sg52_11_cif.got.tgz:21748.got - 2010.06.26 19:32:48.
