data_PCOD8216018
_publ_section_title
;
Structure prediction by ZEFSAII (Michael W. Deem and Ramdas Pophale) SiO2 
 PCOD8216018
Probable space group: P N N A
;
_chemical_formula_sum "Si O2"
_cell_formula_units_Z 36
_cell_length_a 10.664064
_cell_length_b 11.733387
_cell_length_c 13.189239
_cell_angle_alpha 90.000000
_cell_angle_beta 90.000000
_cell_angle_gamma 90.000000
_cell_volume 1650.311310
_symmetry_space_group_name_H-M "P N N A"
_symmetry_group_IT_number 52
_symmetry_cell_setting 'orthorhombic'
loop_
_space_group_symop_operation_xyz
x,y,z
1/2-x,-y,z
x,1/2-y,1/2-z
1/2-x,1/2+y,1/2-z
-x,-y,-z
1/2+x,y,-z
-x,1/2+y,1/2+z
1/2+x,1/2-y,1/2+z
loop_
_atom_site_type_symbol
_atom_site_label
_atom_site_fract_x
_atom_site_fract_y
_atom_site_fract_z
Si Si1 0.750000 0.500000 0.469270
Si Si2 0.864575 0.627725 0.766949
Si Si3 0.369701 0.929837 0.497204
Si Si4 0.891994 0.081352 0.845811
Si Si5 0.365561 0.713799 0.641257
O O1 0.865732 0.459385 0.539197
O O2 0.711792 0.393256 0.400230
O O3 0.931194 0.750000 0.750000
O O4 0.947994 0.526317 0.718584
O O5 0.733531 0.627521 0.706544
O O6 0.840145 0.608706 0.884098
O O7 0.371778 0.818051 0.564824
O O8 0.250000 0.000000 0.537406
O O9 0.500000 0.000000 0.500000
O O10 0.990039 0.181791 0.843386
O O11 0.307590 0.750000 0.750000
#
# Coordination Sequence:
#
# PCOD8216018 Si02
#       5
#     4   8   8   8   8
#     4  10  24  44  66 102 138 182 244 294 378 416
#     4  10  20  41  75 102 131 177 249 298 348 431
#     4  12  27  47  73 112 145 186 242 309 370 424
#     4  10  21  43  71  98 131 184 247 289 360 433
#     4  12  27  43  68  96 147 192 235 295 359 446
#
# _framework density 21.814067000000001
#
# number of rings (size 3 to 8) (size 9 to 14) (size 15 to 20)
#    0.000    1.333    2.222    5.333    7.778    0.000 
#    0.000    0.000    0.000    0.000    0.000    0.000 
#    0.000    0.000    0.000    0.000    0.000    0.000 
#
# Total GULP energy -446320.539492 kJ/mol
# GULP energy per Si atom -12397.792764 kJ/mol
# Density = 2.176442 g / cm^3
# Si number density = 21.814067 Si / 1000 Ang^3
#
#
#
# Elastic Constant Matrix: (Units=GPa)
#
#
# Indices 1 2 3 4 5 6 
#
# 1 84.3772 56.5586 32.2352 0.0000 0.0000 0.0000
# 2 56.5586 178.1475 85.6049 0.0000 0.0000 0.0000
# 3 32.2352 85.6049 167.4879 0.0000 0.0000 0.0000
# 4 0.0000 0.0000 0.0000 56.6809 0.0000 0.0000
# 5 0.0000 0.0000 0.0000 0.0000 8.3219 0.0000
# 6 0.0000 0.0000 0.0000 0.0000 0.0000 41.5517
#
#
#
# Elastic Compliance Matrix: (Units=1/GPa)
#
#
# Indices 1 2 3 4 5 6 
#
# 1 0.015102 -0.004504 -0.000604 0.000000 0.000000 0.000000
# 2 -0.004504 0.008784 -0.003623 0.000000 0.000000 0.000000
# 3 -0.000604 -0.003623 0.007939 0.000000 0.000000 0.000000
# 4 0.000000 0.000000 0.000000 0.017643 0.000000 0.000000
# 5 0.000000 0.000000 0.000000 0.000000 0.120164 0.000000
# 6 0.000000 0.000000 0.000000 0.000000 0.000000 0.024066
#
#
# Mechanical properties :
#
#
# Convention : Reuss Voigt Hill
#
# Bulk Modulus (GPa) = 69.62957 86.53441 78.08199
# Shear Modulus (GPa) = 23.15381 38.35183 30.75282
#
# Velocity S-wave (km/s) = 3.26147 4.19755 3.75876
# Velocity P-wave (km/s) = 6.79498 7.95285 7.39661
#
# Compressibility (1/GPa) = 0.01436172
#
# Stress axis : x y z
#
# Youngs Moduli (GPa) = 66.21852 113.84169 125.96730
#
# Poissons Ratio (x) = 0.51274 0.07614
# Poissons Ratio (y) = 0.29825 0.45636
# Poissons Ratio (z) = 0.04002 0.41243
#
# Static dielectric constant tensor:
#      x y z
#    x 3.744000 0.000000 0.000000 
#    y 0.000000 4.321010 0.000000 
#    z 0.000000 0.000000 4.230420 
# 
# 
# High freq. dielectric constant tensor:
#      x y z
#    x 1.827360 0.000000 0.000000 
#    y 0.000000 1.882830 0.000000 
#    z 0.000000 0.000000 1.875720 
# 
# From -- ./inp_files/17759.got.cif
#   From: 2010.06.25/outbox.cif.g09.slc.cpg/sg52_9_cif.got.tgz:17759.got - 2010.06.26 19:32:48.
