data_PCOD8216863
_publ_section_title
;
Structure prediction by ZEFSAII (Michael W. Deem and Ramdas Pophale) SiO2 
 PCOD8216863
Probable space group: P N N A
;
_chemical_formula_sum "Si O2"
_cell_formula_units_Z 24
_cell_length_a 5.256471
_cell_length_b 14.082725
_cell_length_c 13.985045
_cell_angle_alpha 90.000000
_cell_angle_beta 90.000000
_cell_angle_gamma 90.000000
_cell_volume 1035.249047
_symmetry_space_group_name_H-M "P N N A"
_symmetry_group_IT_number 52
_symmetry_cell_setting 'orthorhombic'
loop_
_space_group_symop_operation_xyz
x,y,z
1/2-x,-y,z
x,1/2-y,1/2-z
1/2-x,1/2+y,1/2-z
-x,-y,-z
1/2+x,y,-z
-x,1/2+y,1/2+z
1/2+x,1/2-y,1/2+z
loop_
_atom_site_type_symbol
_atom_site_label
_atom_site_fract_x
_atom_site_fract_y
_atom_site_fract_z
Si Si1 0.631956 0.199888 0.048891
Si Si2 0.821048 0.250000 0.250000
Si Si3 0.496528 0.449317 0.771173
Si Si4 0.250000 0.500000 0.588397
O O1 0.638971 0.215295 0.163416
O O2 0.630849 0.086019 0.026227
O O3 0.378428 0.245624 0.003618
O O4 0.995975 0.335830 0.209567
O O5 0.750000 0.500000 0.811415
O O6 0.477301 0.460202 0.656378
O O7 0.250000 0.500000 0.820798
#
# Coordination Sequence:
#
# PCOD8216863 Si02
#       4
#     8   4   8   4
#     4  11  24  37  61  94 123 162 206 255 318 378
#     4  10  24  42  66  88 136 168 202 266 312 376
#     4   9  20  35  60  92 118 169 201 246 314 377
#     4   8  20  34  60  88 130 144 196 262 336 372
#
# _framework density 23.182829999999999
#
# number of rings (size 3 to 8) (size 9 to 14) (size 15 to 20)
#    1.000    1.333    0.000    1.000    9.333    5.333 
#    0.000    0.000    0.000    6.000    0.000    0.000 
#    0.000    0.000    0.000    0.000    0.000    0.000 
#
# Total GULP energy -297395.148766 kJ/mol
# GULP energy per Si atom -12391.464532 kJ/mol
# Density = 2.313006 g / cm^3
# Si number density = 23.182830 Si / 1000 Ang^3
#
#
#
# Elastic Constant Matrix: (Units=GPa)
#
#
# Indices 1 2 3 4 5 6 
#
# 1 144.9353 38.2522 16.1452 0.0000 0.0000 0.0000
# 2 38.2522 138.6165 -4.6730 0.0000 0.0000 0.0000
# 3 16.1452 -4.6730 81.4313 0.0000 0.0000 0.0000
# 4 0.0000 0.0000 0.0000 23.8095 0.0000 0.0000
# 5 0.0000 0.0000 0.0000 0.0000 -102.9251 0.0000
# 6 0.0000 0.0000 0.0000 0.0000 0.0000 16.7397
#
#
#
# Elastic Compliance Matrix: (Units=1/GPa)
#
#
# Indices 1 2 3 4 5 6 
#
# 1 0.007655 -0.002168 -0.001642 0.000000 0.000000 0.000000
# 2 -0.002168 0.007842 0.000880 0.000000 0.000000 0.000000
# 3 -0.001642 0.000880 0.012656 0.000000 0.000000 0.000000
# 4 0.000000 0.000000 0.000000 0.042000 0.000000 0.000000
# 5 0.000000 0.000000 0.000000 0.000000 -0.009716 0.000000
# 6 0.000000 0.000000 0.000000 0.000000 0.000000 0.059738
#
#
# Mechanical properties :
#
#
# Convention : Reuss Voigt Hill
#
# Bulk Modulus (GPa) = 44.85701 51.60355 48.23028
# Shear Modulus (GPa) = 37.46262 8.54208 23.00235
#
# Velocity S-wave (km/s) = 4.02427 1.92163 3.15336
# Velocity P-wave (km/s) = 6.40189 5.21836 5.84018
#
# Compressibility (1/GPa) = 0.02229306
#
# Stress axis : x y z
#
# Youngs Moduli (GPa) = 130.63927 127.51844 79.01174
#
# Poissons Ratio (x) = 0.27642 0.12974
# Poissons Ratio (y) = 0.28319 -0.06951
# Poissons Ratio (z) = 0.21452 -0.11219
#
# Static dielectric constant tensor:
#      x y z
#    x 3.883730 0.000000 0.000000 
#    y 0.000000 4.148360 0.000000 
#    z 0.000000 0.000000 3.587640 
# 
# 
# High freq. dielectric constant tensor:
#      x y z
#    x 1.908310 0.000000 0.000000 
#    y 0.000000 1.901990 0.000000 
#    z 0.000000 0.000000 1.872250 
# 
# From -- ./inp_files/23371.got.cif
#   From: 2010.06.25/outbox.cif.g09.slc.cpg/sg52_12_cif.got.tgz:23371.got - 2010.06.26 19:32:48.
