data_PCOD8216573
_publ_section_title
;
Structure prediction by ZEFSAII (Michael W. Deem and Ramdas Pophale) SiO2 
 PCOD8216573
Probable space group: P N N A
;
_chemical_formula_sum "Si O2"
_cell_formula_units_Z 28
_cell_length_a 14.553805
_cell_length_b 5.087497
_cell_length_c 16.946978
_cell_angle_alpha 90.000000
_cell_angle_beta 90.000000
_cell_angle_gamma 90.000000
_cell_volume 1254.795589
_symmetry_space_group_name_H-M "P N N A"
_symmetry_group_IT_number 52
_symmetry_cell_setting 'orthorhombic'
loop_
_space_group_symop_operation_xyz
x,y,z
1/2-x,-y,z
x,1/2-y,1/2-z
1/2-x,1/2+y,1/2-z
-x,-y,-z
1/2+x,y,-z
-x,1/2+y,1/2+z
1/2+x,1/2-y,1/2+z
loop_
_atom_site_type_symbol
_atom_site_label
_atom_site_fract_x
_atom_site_fract_y
_atom_site_fract_z
Si Si1 0.990004 0.250000 0.750000
Si Si2 0.616765 0.750000 0.250000
Si Si3 0.121681 0.261704 0.507657
Si Si4 0.750000 0.000000 0.374751
Si Si5 0.077376 0.756384 0.418575
O O1 0.053400 0.501287 0.731329
O O2 0.922127 0.223452 0.675890
O O3 0.679703 0.824932 0.324200
O O4 0.199630 0.219711 0.572986
O O5 0.138676 0.521337 0.455091
O O6 0.026566 0.278776 0.553855
O O7 0.123463 0.021408 0.447617
#
# Coordination Sequence:
#
# PCOD8216573 Si02
#       5
#     4   4   8   4   8
#     4  12  23  44  66  94 131 168 218 272 321 392
#     4  12  27  38  62 102 135 170 192 272 347 408
#     4  10  23  39  62  88 131 168 215 256 315 393
#     4  12  26  42  62 100 140 170 212 268 348 406
#     4  10  22  41  61  90 123 175 214 259 309 382
#
# _framework density 22.31439
#
# number of rings (size 3 to 8) (size 9 to 14) (size 15 to 20)
#    0.000    1.143    2.857    2.571    8.000    3.429 
#    0.000    0.000    0.000    3.429    0.000    0.000 
#    0.000    0.000    0.000    0.000    0.000    0.000 
#
# Total GULP energy -347263.141457 kJ/mol
# GULP energy per Si atom -12402.255052 kJ/mol
# Density = 2.226360 g / cm^3
# Si number density = 22.314390 Si / 1000 Ang^3
#
#
#
# Elastic Constant Matrix: (Units=GPa)
#
#
# Indices 1 2 3 4 5 6 
#
# 1 42.1182 16.6185 35.7998 0.0000 0.0000 0.0000
# 2 16.6185 131.0843 62.0289 0.0000 0.0000 0.0000
# 3 35.7998 62.0289 184.7000 0.0000 0.0000 0.0000
# 4 0.0000 0.0000 0.0000 30.5791 0.0000 0.0000
# 5 0.0000 0.0000 0.0000 0.0000 -92.9917 0.0000
# 6 0.0000 0.0000 0.0000 0.0000 0.0000 16.4860
#
#
#
# Elastic Compliance Matrix: (Units=1/GPa)
#
#
# Indices 1 2 3 4 5 6 
#
# 1 0.028582 -0.001191 -0.005140 0.000000 0.000000 0.000000
# 2 -0.001191 0.009120 -0.002832 0.000000 0.000000 0.000000
# 3 -0.005140 -0.002832 0.007361 0.000000 0.000000 0.000000
# 4 0.000000 0.000000 0.000000 0.032702 0.000000 0.000000
# 5 0.000000 0.000000 0.000000 0.000000 -0.010754 0.000000
# 6 0.000000 0.000000 0.000000 0.000000 0.000000 0.060657
#
#
# Mechanical properties :
#
#
# Convention : Reuss Voigt Hill
#
# Bulk Modulus (GPa) = 37.40162 65.19963 51.30063
# Shear Modulus (GPa) = 32.27751 7.04505 19.66128
#
# Velocity S-wave (km/s) = 3.80740 1.77877 2.97156
# Velocity P-wave (km/s) = 6.01049 5.78799 5.90029
#
# Compressibility (1/GPa) = 0.02673681
#
# Stress axis : x y z
#
# Youngs Moduli (GPa) = 34.98766 109.65240 135.84316
#
# Poissons Ratio (x) = 0.13064 0.69820
# Poissons Ratio (y) = 0.04168 0.38468
# Poissons Ratio (z) = 0.17983 0.31052
#
# Static dielectric constant tensor:
#      x y z
#    x 3.915510 0.000000 0.000000 
#    y 0.000000 4.416780 0.000000 
#    z 0.000000 0.000000 3.796370 
# 
# 
# High freq. dielectric constant tensor:
#      x y z
#    x 1.850540 0.000000 0.000000 
#    y 0.000000 1.898270 0.000000 
#    z 0.000000 0.000000 1.887640 
# 
# From -- ./inp_files/32565.got.cif
#   From: 2010.06.25/outbox.cif.g09.slc.cpg/sg52_17_cif.got.tgz:32565.got - 2010.06.26 19:32:48.
