data_PCOD8216983
_publ_section_title
;
Structure prediction by ZEFSAII (Michael W. Deem and Ramdas Pophale) SiO2 
 PCOD8216983
Probable space group: P N N A
;
_chemical_formula_sum "Si O2"
_cell_formula_units_Z 48
_cell_length_a 9.629559
_cell_length_b 18.822999
_cell_length_c 14.653033
_cell_angle_alpha 90.000000
_cell_angle_beta 90.000000
_cell_angle_gamma 90.000000
_cell_volume 2655.967432
_symmetry_space_group_name_H-M "P N N A"
_symmetry_group_IT_number 52
_symmetry_cell_setting 'orthorhombic'
loop_
_space_group_symop_operation_xyz
x,y,z
1/2-x,-y,z
x,1/2-y,1/2-z
1/2-x,1/2+y,1/2-z
-x,-y,-z
1/2+x,y,-z
-x,1/2+y,1/2+z
1/2+x,1/2-y,1/2+z
loop_
_atom_site_type_symbol
_atom_site_label
_atom_site_fract_x
_atom_site_fract_y
_atom_site_fract_z
Si Si1 0.539010 0.311084 0.137023
Si Si2 0.823104 0.171518 0.286293
Si Si3 0.544527 0.841612 0.823052
Si Si4 0.238873 0.315341 0.470827
Si Si5 0.715127 0.418354 0.368635
Si Si6 0.027084 0.779912 0.550968
O O1 0.684370 0.348368 0.158133
O O2 0.549454 0.224599 0.139468
O O3 0.425039 0.333267 0.214155
O O4 0.495959 0.333348 0.034680
O O5 0.807352 0.250000 0.250000
O O6 0.829534 0.116795 0.201192
O O7 0.953619 0.171904 0.357280
O O8 0.687171 0.843533 0.878457
O O9 0.444480 0.909726 0.834979
O O10 0.217198 0.385304 0.530495
O O11 0.329704 0.261259 0.530980
O O12 0.098187 0.276382 0.438275
O O13 0.750000 0.500000 0.377335
#
# Coordination Sequence:
#
# PCOD8216983 Si02
#       6
#     8   8   8   8   8   8
#     4   9  15  31  52  72  99 141 173 227 287 325
#     4  11  17  34  54  75 110 143 189 237 268 332
#     4   9  17  32  51  74 109 144 186 218 279 341
#     4  11  19  34  52  84 109 144 180 233 285 337
#     4  11  21  34  55  82 117 158 188 220 282 354
#     4  11  18  32  56  82 109 133 187 237 289 319
#
# _framework density 18.072510999999999
#
# number of rings (size 3 to 8) (size 9 to 14) (size 15 to 20)
#    0.000    1.667   10.000    0.000    0.000    0.667 
#    6.000    0.000    0.000    4.000    0.000    0.000 
#    0.000    0.000    0.000    0.000    0.000    0.000 
#
# Total GULP energy -594633.139357 kJ/mol
# GULP energy per Si atom -12388.190403 kJ/mol
# Density = 1.803138 g / cm^3
# Si number density = 18.072511 Si / 1000 Ang^3
#
#
#
# Elastic Constant Matrix: (Units=GPa)
#
#
# Indices 1 2 3 4 5 6 
#
# 1 66.5816 20.4530 47.3633 0.0000 0.0000 0.0000
# 2 20.4530 57.1373 36.1061 0.0000 0.0000 0.0000
# 3 47.3633 36.1061 144.0678 0.0000 0.0000 0.0000
# 4 0.0000 0.0000 0.0000 17.8006 0.0000 0.0000
# 5 0.0000 0.0000 0.0000 0.0000 34.6659 0.0000
# 6 0.0000 0.0000 0.0000 0.0000 0.0000 10.0434
#
#
#
# Elastic Compliance Matrix: (Units=1/GPa)
#
#
# Indices 1 2 3 4 5 6 
#
# 1 0.020211 -0.003607 -0.005740 0.000000 0.000000 0.000000
# 2 -0.003607 0.021439 -0.004187 0.000000 0.000000 0.000000
# 3 -0.005740 -0.004187 0.009878 0.000000 0.000000 0.000000
# 4 0.000000 0.000000 0.000000 0.056178 0.000000 0.000000
# 5 0.000000 0.000000 0.000000 0.000000 0.028847 0.000000
# 6 0.000000 0.000000 0.000000 0.000000 0.000000 0.099568
#
#
# Mechanical properties :
#
#
# Convention : Reuss Voigt Hill
#
# Bulk Modulus (GPa) = 40.88655 52.84794 46.86724
# Shear Modulus (GPa) = 18.42696 23.42628 20.92662
#
# Velocity S-wave (km/s) = 3.19660 3.60424 3.40652
# Velocity P-wave (km/s) = 6.02471 6.82835 6.43908
#
# Compressibility (1/GPa) = 0.02445792
#
# Stress axis : x y z
#
# Youngs Moduli (GPa) = 49.47871 46.64430 101.23791
#
# Poissons Ratio (x) = 0.16826 0.58114
# Poissons Ratio (y) = 0.17848 0.42389
# Poissons Ratio (z) = 0.28403 0.19530
#
# Static dielectric constant tensor:
#      x y z
#    x 3.274590 0.000000 0.000000 
#    y 0.000000 2.771020 0.000000 
#    z 0.000000 0.000000 3.926290 
# 
# 
# High freq. dielectric constant tensor:
#      x y z
#    x 1.683380 0.000000 0.000000 
#    y 0.000000 1.628010 0.000000 
#    z 0.000000 0.000000 1.723530 
# 
# From -- ./inp_files/26240.got.cif
#   From: 2010.06.25/outbox.cif.g09.slc.cpg/sg52_14_cif.got.tgz:26240.got - 2010.06.26 19:32:48.
