data_PCOD8216055
_publ_section_title
;
Structure prediction by ZEFSAII (Michael W. Deem and Ramdas Pophale) SiO2 
 PCOD8216055
Probable space group: P N N A
;
_chemical_formula_sum "Si O2"
_cell_formula_units_Z 48
_cell_length_a 8.406443
_cell_length_b 19.714765
_cell_length_c 14.946790
_cell_angle_alpha 90.000000
_cell_angle_beta 90.000000
_cell_angle_gamma 90.000000
_cell_volume 2477.147174
_symmetry_space_group_name_H-M "P N N A"
_symmetry_group_IT_number 52
_symmetry_cell_setting 'orthorhombic'
loop_
_space_group_symop_operation_xyz
x,y,z
1/2-x,-y,z
x,1/2-y,1/2-z
1/2-x,1/2+y,1/2-z
-x,-y,-z
1/2+x,y,-z
-x,1/2+y,1/2+z
1/2+x,1/2-y,1/2+z
loop_
_atom_site_type_symbol
_atom_site_label
_atom_site_fract_x
_atom_site_fract_y
_atom_site_fract_z
Si Si1 0.018583 0.708441 0.065406
Si Si2 0.825689 0.327859 0.764174
Si Si3 0.153175 0.793476 0.617478
Si Si4 0.472407 0.138318 0.090908
Si Si5 0.463706 0.342188 0.710598
Si Si6 0.304857 0.423733 0.569985
O O1 0.834293 0.712493 0.088622
O O2 0.083404 0.785935 0.064121
O O3 0.115739 0.659269 0.133903
O O4 0.049102 0.679204 0.966075
O O5 0.873814 0.250000 0.750000
O O6 0.641549 0.341692 0.748229
O O7 0.923598 0.374462 0.694210
O O8 0.073675 0.723572 0.650783
O O9 0.146739 0.845571 0.700905
O O10 0.660424 0.128792 0.081044
O O11 0.382501 0.084791 0.027457
O O12 0.433579 0.407309 0.647765
O O13 0.250000 0.500000 0.582581
#
# Coordination Sequence:
#
# PCOD8216055 Si02
#       6
#     8   8   8   8   8   8
#     4  11  20  34  54  85 111 149 174 232 290 351
#     4  10  21  33  57  79 114 144 185 230 296 339
#     4  11  21  32  56  81 117 143 185 225 300 342
#     4  11  21  35  52  78 110 149 193 232 270 336
#     4  11  21  36  52  82 111 151 189 235 278 342
#     4  12  24  38  55  78 115 162 201 233 273 324
#
# _framework density 19.377129
#
# number of rings (size 3 to 8) (size 9 to 14) (size 15 to 20)
#    0.000    1.000    5.000    3.500    7.000    0.000 
#    0.000    0.000    0.000    0.000    0.000   11.667 
#    0.000    0.000    0.000    0.000    0.000    0.000 
#
# Total GULP energy -595111.219060 kJ/mol
# GULP energy per Si atom -12398.150397 kJ/mol
# Density = 1.933303 g / cm^3
# Si number density = 19.377129 Si / 1000 Ang^3
#
#
#
# Elastic Constant Matrix: (Units=GPa)
#
#
# Indices 1 2 3 4 5 6 
#
# 1 107.7574 1.7799 42.7903 0.0000 0.0000 0.0000
# 2 1.7799 33.1681 22.1317 0.0000 0.0000 0.0000
# 3 42.7903 22.1317 168.1528 0.0000 0.0000 0.0000
# 4 0.0000 0.0000 0.0000 17.7676 0.0000 0.0000
# 5 0.0000 0.0000 0.0000 0.0000 40.6697 0.0000
# 6 0.0000 0.0000 0.0000 0.0000 0.0000 12.9577
#
#
#
# Elastic Compliance Matrix: (Units=1/GPa)
#
#
# Indices 1 2 3 4 5 6 
#
# 1 0.010376 0.001321 -0.002814 0.000000 0.000000 0.000000
# 2 0.001321 0.033220 -0.004709 0.000000 0.000000 0.000000
# 3 -0.002814 -0.004709 0.007283 0.000000 0.000000 0.000000
# 4 0.000000 0.000000 0.000000 0.056282 0.000000 0.000000
# 5 0.000000 0.000000 0.000000 0.000000 0.024588 0.000000
# 6 0.000000 0.000000 0.000000 0.000000 0.000000 0.077174
#
#
# Mechanical properties :
#
#
# Convention : Reuss Voigt Hill
#
# Bulk Modulus (GPa) = 25.99050 49.16467 37.57758
# Shear Modulus (GPa) = 21.35363 30.43744 25.89554
#
# Velocity S-wave (km/s) = 3.32324 3.96762 3.65964
# Velocity P-wave (km/s) = 5.30729 6.81300 6.10673
#
# Compressibility (1/GPa) = 0.03847560
#
# Stress axis : x y z
#
# Youngs Moduli (GPa) = 96.37800 30.10199 137.30918
#
# Poissons Ratio (x) = -0.03977 0.38642
# Poissons Ratio (y) = -0.12732 0.64652
# Poissons Ratio (z) = 0.27123 0.14174
#
# Static dielectric constant tensor:
#      x y z
#    x 3.598110 0.000000 0.000000 
#    y 0.000000 3.000280 0.000000 
#    z 0.000000 0.000000 4.155590 
# 
# 
# High freq. dielectric constant tensor:
#      x y z
#    x 1.770730 0.000000 0.000000 
#    y 0.000000 1.675980 0.000000 
#    z 0.000000 0.000000 1.777840 
# 
# From -- ./inp_files/24706.got.cif
#   From: 2010.06.25/outbox.cif.g09.slc.cpg/sg52_13_cif.got.tgz:24706.got - 2010.06.26 19:32:48.
