data_PCOD8216287
_publ_section_title
;
Structure prediction by ZEFSAII (Michael W. Deem and Ramdas Pophale) SiO2 
 PCOD8216287
Probable space group: P N N A
;
_chemical_formula_sum "Si O2"
_cell_formula_units_Z 64
_cell_length_a 17.248448
_cell_length_b 14.675551
_cell_length_c 12.423042
_cell_angle_alpha 90.000000
_cell_angle_beta 90.000000
_cell_angle_gamma 90.000000
_cell_volume 3144.650563
_symmetry_space_group_name_H-M "P N N A"
_symmetry_group_IT_number 52
_symmetry_cell_setting 'orthorhombic'
loop_
_space_group_symop_operation_xyz
x,y,z
1/2-x,-y,z
x,1/2-y,1/2-z
1/2-x,1/2+y,1/2-z
-x,-y,-z
1/2+x,y,-z
-x,1/2+y,1/2+z
1/2+x,1/2-y,1/2+z
loop_
_atom_site_type_symbol
_atom_site_label
_atom_site_fract_x
_atom_site_fract_y
_atom_site_fract_z
Si Si1 0.605751 0.958297 0.193181
Si Si2 0.439829 0.481862 0.262492
Si Si3 0.697997 0.820293 0.329500
Si Si4 0.831140 0.460976 0.919597
Si Si5 0.830498 0.055120 0.955118
Si Si6 0.486232 0.811718 0.659252
Si Si7 0.865925 0.240296 0.542087
Si Si8 0.347224 0.575610 0.878387
O O1 0.641587 0.871786 0.249420
O O2 0.513295 0.954608 0.211334
O O3 0.641910 0.046440 0.254113
O O4 0.626839 0.961789 0.068193
O O5 0.393805 0.512829 0.155264
O O6 0.383897 0.488346 0.364337
O O7 0.465517 0.380079 0.234251
O O8 0.742242 0.750000 0.250000
O O9 0.642320 0.769821 0.414120
O O10 0.763090 0.878833 0.392398
O O11 0.750000 0.500000 0.880893
O O12 0.829004 0.351019 0.904151
O O13 0.851157 0.487385 0.043581
O O14 0.822506 0.164177 0.928709
O O15 0.750000 0.000000 0.954990
O O16 0.445865 0.750000 0.750000
O O17 0.543557 0.757420 0.577813
O O18 0.417691 0.857270 0.588971
#
# Coordination Sequence:
#
# PCOD8216287 Si02
#       8
#     8   8   8   8   8   8   8   8
#     4  11  23  39  63  88 125 164 210 264 327 385
#     4  10  24  40  64  89 120 170 219 261 326 389
#     4  12  22  38  61  95 133 166 209 264 329 385
#     4  11  21  40  66  95 132 161 206 271 324 385
#     4  12  24  44  65  88 125 175 225 268 322 391
#     4  10  21  40  63  91 128 166 214 263 319 392
#     4  11  23  38  63  91 124 170 211 262 328 383
#     4  11  22  38  63 100 129 163 211 262 325 385
#
# _framework density 20.352022000000002
#
# number of rings (size 3 to 8) (size 9 to 14) (size 15 to 20)
#    0.000    1.000    5.000    2.250    1.750    1.500 
#    0.000    0.000    2.750    0.000    0.000    0.000 
#    0.000    0.000    0.000    0.000    0.000    0.000 
#
# Total GULP energy -793062.050623 kJ/mol
# GULP energy per Si atom -12391.594541 kJ/mol
# Density = 2.030570 g / cm^3
# Si number density = 20.352022 Si / 1000 Ang^3
#
#
#
# Elastic Constant Matrix: (Units=GPa)
#
#
# Indices 1 2 3 4 5 6 
#
# 1 134.4635 57.8214 57.0744 0.0000 0.0000 0.0000
# 2 57.8214 96.6951 23.6470 0.0000 0.0000 0.0000
# 3 57.0744 23.6470 108.2238 0.0000 0.0000 0.0000
# 4 0.0000 0.0000 0.0000 17.5621 0.0000 0.0000
# 5 0.0000 0.0000 0.0000 0.0000 36.3102 0.0000
# 6 0.0000 0.0000 0.0000 0.0000 0.0000 25.1712
#
#
#
# Elastic Compliance Matrix: (Units=1/GPa)
#
#
# Indices 1 2 3 4 5 6 
#
# 1 0.012211 -0.006050 -0.005118 0.000000 0.000000 0.000000
# 2 -0.006050 0.013923 0.000149 0.000000 0.000000 0.000000
# 3 -0.005118 0.000149 0.011907 0.000000 0.000000 0.000000
# 4 0.000000 0.000000 0.000000 0.056941 0.000000 0.000000
# 5 0.000000 0.000000 0.000000 0.000000 0.027540 0.000000
# 6 0.000000 0.000000 0.000000 0.000000 0.000000 0.039728
#
#
# Mechanical properties :
#
#
# Convention : Reuss Voigt Hill
#
# Bulk Modulus (GPa) = 62.49262 68.49644 65.49453
# Shear Modulus (GPa) = 26.36806 29.19801 27.78303
#
# Velocity S-wave (km/s) = 3.60335 3.79179 3.69877
# Velocity P-wave (km/s) = 6.93431 7.27318 7.10576
#
# Compressibility (1/GPa) = 0.01600189
#
# Stress axis : x y z
#
# Youngs Moduli (GPa) = 81.89349 71.82143 83.98680
#
# Poissons Ratio (x) = 0.43454 0.42982
# Poissons Ratio (y) = 0.49548 -0.01247
# Poissons Ratio (z) = 0.41911 -0.01067
#
# Static dielectric constant tensor:
#      x y z
#    x 3.726070 0.000000 0.000000 
#    y 0.000000 3.740980 0.000000 
#    z 0.000000 0.000000 3.793950 
# 
# 
# High freq. dielectric constant tensor:
#      x y z
#    x 1.793050 0.000000 0.000000 
#    y 0.000000 1.787990 0.000000 
#    z 0.000000 0.000000 1.799820 
# 
# From -- ./inp_files/20872.got.cif
#   From: 2010.06.25/outbox.cif.g09.slc.cpg/sg52_11_cif.got.tgz:20872.got - 2010.06.26 19:32:48.
