data_PCOD8216395
_publ_section_title
;
Structure prediction by ZEFSAII (Michael W. Deem and Ramdas Pophale) SiO2 
 PCOD8216395
Probable space group: P N N A
;
_chemical_formula_sum "Si O2"
_cell_formula_units_Z 40
_cell_length_a 21.604604
_cell_length_b 14.048946
_cell_length_c 6.378091
_cell_angle_alpha 90.000000
_cell_angle_beta 90.000000
_cell_angle_gamma 90.000000
_cell_volume 1935.890394
_symmetry_space_group_name_H-M "P N N A"
_symmetry_group_IT_number 52
_symmetry_cell_setting 'orthorhombic'
loop_
_space_group_symop_operation_xyz
x,y,z
1/2-x,-y,z
x,1/2-y,1/2-z
1/2-x,1/2+y,1/2-z
-x,-y,-z
1/2+x,y,-z
-x,1/2+y,1/2+z
1/2+x,1/2-y,1/2+z
loop_
_atom_site_type_symbol
_atom_site_label
_atom_site_fract_x
_atom_site_fract_y
_atom_site_fract_z
Si Si1 0.895419 0.659922 0.118408
Si Si2 0.090407 0.978173 0.920949
Si Si3 0.473599 0.940041 0.308681
Si Si4 0.284628 0.401148 0.707599
Si Si5 0.237829 0.277456 0.017652
O O1 0.918646 0.750000 0.250000
O O2 0.896924 0.568172 0.269776
O O3 0.941046 0.650206 0.917613
O O4 0.828579 0.674434 0.016241
O O5 0.149684 0.909038 0.908151
O O6 0.031596 0.915785 0.841721
O O7 0.077983 0.007065 0.162830
O O8 0.500000 0.000000 0.500000
O O9 0.250000 0.500000 0.706473
O O10 0.239601 0.323321 0.601740
O O11 0.289734 0.355558 0.942342
O O12 0.253493 0.250000 0.250000
#
# Coordination Sequence:
#
# PCOD8216395 Si02
#       5
#     8   8   8   8   8
#     4  11  21  38  62  95 128 162 224 272 322 395
#     4  10  21  43  65  90 129 171 218 271 329 403
#     4   9  22  39  65  93 120 165 222 266 329 396
#     4  11  22  42  63  91 131 172 215 275 341 398
#     4  11  25  39  60  98 131 167 227 276 332 402
#
# _framework density 20.662327999999999
#
# number of rings (size 3 to 8) (size 9 to 14) (size 15 to 20)
#    0.000    1.600    4.000    0.000    5.600    4.000 
#    0.000   13.000    0.000    0.000    0.000    0.000 
#    0.000    0.000    0.000    0.000    0.000    0.000 
#
# Total GULP energy -495582.044643 kJ/mol
# GULP energy per Si atom -12389.551116 kJ/mol
# Density = 2.061530 g / cm^3
# Si number density = 20.662328 Si / 1000 Ang^3
#
#
#
# Elastic Constant Matrix: (Units=GPa)
#
#
# Indices 1 2 3 4 5 6 
#
# 1 103.1874 50.8069 67.3626 0.0000 0.0000 0.0000
# 2 50.8069 92.5104 28.1732 0.0000 0.0000 0.0000
# 3 67.3626 28.1732 107.6490 0.0000 0.0000 0.0000
# 4 0.0000 0.0000 0.0000 32.1364 0.0000 0.0000
# 5 0.0000 0.0000 0.0000 0.0000 34.2492 0.0000
# 6 0.0000 0.0000 0.0000 0.0000 0.0000 35.4811
#
#
#
# Elastic Compliance Matrix: (Units=1/GPa)
#
#
# Indices 1 2 3 4 5 6 
#
# 1 0.020788 -0.008101 -0.010888 0.000000 0.000000 0.000000
# 2 -0.008101 0.014903 0.001169 0.000000 0.000000 0.000000
# 3 -0.010888 0.001169 0.015797 0.000000 0.000000 0.000000
# 4 0.000000 0.000000 0.000000 0.031117 0.000000 0.000000
# 5 0.000000 0.000000 0.000000 0.000000 0.029198 0.000000
# 6 0.000000 0.000000 0.000000 0.000000 0.000000 0.028184
#
#
# Mechanical properties :
#
#
# Convention : Reuss Voigt Hill
#
# Bulk Modulus (GPa) = 63.10207 66.22580 64.66394
# Shear Modulus (GPa) = 27.63834 30.84028 29.23931
#
# Velocity S-wave (km/s) = 3.66132 3.86759 3.76587
# Velocity P-wave (km/s) = 6.96273 7.21564 7.09031
#
# Compressibility (1/GPa) = 0.01584734
#
# Stress axis : x y z
#
# Youngs Moduli (GPa) = 48.10566 67.10256 63.30393
#
# Poissons Ratio (x) = 0.54358 0.68925
# Poissons Ratio (y) = 0.38969 -0.07400
# Poissons Ratio (z) = 0.52377 -0.07844
#
# Static dielectric constant tensor:
#      x y z
#    x 4.062590 0.000000 0.000000 
#    y 0.000000 3.729930 0.000000 
#    z 0.000000 0.000000 4.577350 
# 
# 
# High freq. dielectric constant tensor:
#      x y z
#    x 1.808460 0.000000 0.000000 
#    y 0.000000 1.792760 0.000000 
#    z 0.000000 0.000000 1.821270 
# 
# From -- ./inp_files/5027.got.cif
#   From: 2010.06.25/outbox.cif.g09.slc.cpg/sg52_3_cif.got.tgz:5027.got - 2010.06.26 19:32:48.
