data_PCOD8216317
_publ_section_title
;
Structure prediction by ZEFSAII (Michael W. Deem and Ramdas Pophale) SiO2 
 PCOD8216317
Probable space group: P N N A
;
_chemical_formula_sum "Si O2"
_cell_formula_units_Z 64
_cell_length_a 19.040835
_cell_length_b 8.854170
_cell_length_c 18.211208
_cell_angle_alpha 90.000000
_cell_angle_beta 90.000000
_cell_angle_gamma 90.000000
_cell_volume 3070.241944
_symmetry_space_group_name_H-M "P N N A"
_symmetry_group_IT_number 52
_symmetry_cell_setting 'orthorhombic'
loop_
_space_group_symop_operation_xyz
x,y,z
1/2-x,-y,z
x,1/2-y,1/2-z
1/2-x,1/2+y,1/2-z
-x,-y,-z
1/2+x,y,-z
-x,1/2+y,1/2+z
1/2+x,1/2-y,1/2+z
loop_
_atom_site_type_symbol
_atom_site_label
_atom_site_fract_x
_atom_site_fract_y
_atom_site_fract_z
Si Si1 0.384535 0.811112 0.904308
Si Si2 0.937466 0.876132 0.693447
Si Si3 0.394040 0.121605 0.083662
Si Si4 0.677835 0.576758 0.728179
Si Si5 0.993427 0.179534 0.674087
Si Si6 0.242254 0.679153 0.669183
Si Si7 0.887476 0.342449 0.425081
Si Si8 0.952798 0.803690 0.942234
O O1 0.428167 0.734836 0.839111
O O2 0.303866 0.765931 0.886914
O O3 0.397024 0.988128 0.897480
O O4 0.415298 0.750962 0.982296
O O5 0.965615 0.750000 0.750000
O O6 0.911711 0.789068 0.620715
O O7 0.876180 0.979163 0.725214
O O8 0.998365 0.997321 0.675889
O O9 0.336518 0.066165 0.141459
O O10 0.440109 0.262875 0.111136
O O11 0.447366 0.983849 0.067404
O O12 0.354789 0.163159 0.007652
O O13 0.750000 0.500000 0.747017
O O14 0.678616 0.750000 0.750000
O O15 0.964209 0.250000 0.750000
O O16 0.250000 0.500000 0.677442
O O17 0.248186 0.750000 0.750000
O O18 0.168365 0.732345 0.631391
O O19 0.964225 0.262509 0.431770
#
# Coordination Sequence:
#
# PCOD8216317 Si02
#       8
#     8   8   8   8   8   8   8   8
#     4  10  21  40  67  95 124 179 226 274 339 404
#     4  12  24  40  59  98 135 170 222 271 334 399
#     4  11  19  41  67  94 127 172 222 270 331 394
#     4  12  25  43  65  93 137 177 218 265 329 411
#     4  12  20  38  65  90 127 169 218 276 330 395
#     4  10  23  46  66  94 133 178 230 271 336 410
#     4  10  21  40  69  97 131 170 227 280 331 402
#     4  11  21  38  67  99 135 164 222 289 330 396
#
# _framework density 20.845262999999999
#
# number of rings (size 3 to 8) (size 9 to 14) (size 15 to 20)
#    0.000    1.000    6.250    1.500    0.000    3.500 
#    4.500    0.000    0.000    0.000    0.000    0.000 
#    0.000    0.000    0.000    0.000    0.000    0.000 
#
# Total GULP energy -793241.907440 kJ/mol
# GULP energy per Si atom -12394.404804 kJ/mol
# Density = 2.079782 g / cm^3
# Si number density = 20.845263 Si / 1000 Ang^3
#
#
#
# Elastic Constant Matrix: (Units=GPa)
#
#
# Indices 1 2 3 4 5 6 
#
# 1 104.8603 36.8964 61.3003 0.0000 0.0000 0.0000
# 2 36.8964 91.4055 46.8166 0.0000 0.0000 0.0000
# 3 61.3003 46.8166 146.4135 0.0000 0.0000 0.0000
# 4 0.0000 0.0000 0.0000 30.7627 0.0000 0.0000
# 5 0.0000 0.0000 0.0000 0.0000 26.6917 0.0000
# 6 0.0000 0.0000 0.0000 0.0000 0.0000 21.7710
#
#
#
# Elastic Compliance Matrix: (Units=1/GPa)
#
#
# Indices 1 2 3 4 5 6 
#
# 1 0.013283 -0.003006 -0.004600 0.000000 0.000000 0.000000
# 2 -0.003006 0.013763 -0.003142 0.000000 0.000000 0.000000
# 3 -0.004600 -0.003142 0.009761 0.000000 0.000000 0.000000
# 4 0.000000 0.000000 0.000000 0.032507 0.000000 0.000000
# 5 0.000000 0.000000 0.000000 0.000000 0.037465 0.000000
# 6 0.000000 0.000000 0.000000 0.000000 0.000000 0.045933
#
#
# Mechanical properties :
#
#
# Convention : Reuss Voigt Hill
#
# Bulk Modulus (GPa) = 65.31530 70.30066 67.80798
# Shear Modulus (GPa) = 27.88433 29.02281 28.45357
#
# Velocity S-wave (km/s) = 3.66140 3.73540 3.69859
# Velocity P-wave (km/s) = 7.01968 7.23896 7.13016
#
# Compressibility (1/GPa) = 0.01531035
#
# Stress axis : x y z
#
# Youngs Moduli (GPa) = 75.28168 72.65856 102.44991
#
# Poissons Ratio (x) = 0.21839 0.47131
# Poissons Ratio (y) = 0.22627 0.32194
# Poissons Ratio (z) = 0.34633 0.22832
#
# Static dielectric constant tensor:
#      x y z
#    x 3.792350 0.000000 0.000000 
#    y 0.000000 4.064860 0.000000 
#    z 0.000000 0.000000 4.127630 
# 
# 
# High freq. dielectric constant tensor:
#      x y z
#    x 1.803400 0.000000 0.000000 
#    y 0.000000 1.799040 0.000000 
#    z 0.000000 0.000000 1.830260 
# 
# From -- ./inp_files/34123.got.cif
#   From: 2010.06.25/outbox.cif.g09.slc.cpg/sg52_18_cif.got.tgz:34123.got - 2010.06.26 19:32:48.
