data_PCOD8216067
_publ_section_title
;
Structure prediction by ZEFSAII (Michael W. Deem and Ramdas Pophale) SiO2 
 PCOD8216067
Probable space group: P N N A
;
_chemical_formula_sum "Si O2"
_cell_formula_units_Z 48
_cell_length_a 27.154477
_cell_length_b 5.945157
_cell_length_c 15.272074
_cell_angle_alpha 90.000000
_cell_angle_beta 90.000000
_cell_angle_gamma 90.000000
_cell_volume 2465.487417
_symmetry_space_group_name_H-M "P N N A"
_symmetry_group_IT_number 52
_symmetry_cell_setting 'orthorhombic'
loop_
_space_group_symop_operation_xyz
x,y,z
1/2-x,-y,z
x,1/2-y,1/2-z
1/2-x,1/2+y,1/2-z
-x,-y,-z
1/2+x,y,-z
-x,1/2+y,1/2+z
1/2+x,1/2-y,1/2+z
loop_
_atom_site_type_symbol
_atom_site_label
_atom_site_fract_x
_atom_site_fract_y
_atom_site_fract_z
Si Si1 0.630391 0.888306 0.865755
Si Si2 0.603863 0.231459 0.506742
Si Si3 0.326153 0.750000 0.250000
Si Si4 0.456557 0.421803 0.125985
Si Si5 0.452072 0.856493 0.843991
Si Si6 0.196323 0.504215 0.081628
Si Si7 0.509563 0.750000 0.250000
O O1 0.591620 0.700428 0.837758
O O2 0.680369 0.759476 0.895477
O O3 0.606547 0.032441 0.943486
O O4 0.639973 0.045745 0.782715
O O5 0.594077 0.297797 0.405970
O O6 0.656016 0.103574 0.516262
O O7 0.559064 0.075492 0.543042
O O8 0.295457 0.651759 0.168488
O O9 0.499654 0.241716 0.105775
O O10 0.474432 0.567857 0.207246
O O11 0.441487 0.750000 0.750000
O O12 0.457945 0.125144 0.825546
O O13 0.250000 0.500000 0.035323
#
# Coordination Sequence:
#
# PCOD8216067 Si02
#       7
#     8   8   4   8   8   8   4
#     4  10  22  35  52  81 115 153 189 227 269 324
#     4  10  22  38  56  81 111 147 187 234 283 333
#     4  10  22  33  54  80 116 150 186 222 272 323
#     4  10  21  35  54  80 118 154 190 224 271 325
#     4  10  22  38  56  81 112 145 189 234 283 334
#     4  10  23  38  57  81 109 148 186 230 279 332
#     4  10  22  33  52  80 112 156 196 228 266 323
#
# _framework density 19.468765000000001
#
# number of rings (size 3 to 8) (size 9 to 14) (size 15 to 20)
#    0.000    2.000    0.000    2.000    2.333   30.000 
#    0.000    0.000    0.000    0.000    4.333    0.000 
#    0.000    0.000    0.000    0.000    0.000    0.000 
#
# Total GULP energy -594977.831992 kJ/mol
# GULP energy per Si atom -12395.371500 kJ/mol
# Density = 1.942445 g / cm^3
# Si number density = 19.468765 Si / 1000 Ang^3
#
#
#
# Elastic Constant Matrix: (Units=GPa)
#
#
# Indices 1 2 3 4 5 6 
#
# 1 106.5205 46.1273 55.3744 0.0000 0.0000 0.0000
# 2 46.1273 123.0727 36.7527 0.0000 0.0000 0.0000
# 3 55.3744 36.7527 87.2881 0.0000 0.0000 0.0000
# 4 0.0000 0.0000 0.0000 20.8194 0.0000 0.0000
# 5 0.0000 0.0000 0.0000 0.0000 16.0686 0.0000
# 6 0.0000 0.0000 0.0000 0.0000 0.0000 12.1663
#
#
#
# Elastic Compliance Matrix: (Units=1/GPa)
#
#
# Indices 1 2 3 4 5 6 
#
# 1 0.015025 -0.003185 -0.008190 0.000000 0.000000 0.000000
# 2 -0.003185 0.009969 -0.002177 0.000000 0.000000 0.000000
# 3 -0.008190 -0.002177 0.017569 0.000000 0.000000 0.000000
# 4 0.000000 0.000000 0.000000 0.048032 0.000000 0.000000
# 5 0.000000 0.000000 0.000000 0.000000 0.062233 0.000000
# 6 0.000000 0.000000 0.000000 0.000000 0.000000 0.082194
#
#
# Mechanical properties :
#
#
# Convention : Reuss Voigt Hill
#
# Bulk Modulus (GPa) = 64.69257 65.93222 65.31240
# Shear Modulus (GPa) = 18.70692 21.71931 20.21311
#
# Velocity S-wave (km/s) = 3.10315 3.34368 3.22566
# Velocity P-wave (km/s) = 6.79267 6.98900 6.89154
#
# Compressibility (1/GPa) = 0.01545773
#
# Stress axis : x y z
#
# Youngs Moduli (GPa) = 66.55534 100.30887 56.91922
#
# Poissons Ratio (x) = 0.31953 0.46620
# Poissons Ratio (y) = 0.21201 0.12390
# Poissons Ratio (z) = 0.54512 0.21834
#
# Static dielectric constant tensor:
#      x y z
#    x 3.332300 0.000000 0.000000 
#    y 0.000000 4.168350 0.000000 
#    z 0.000000 0.000000 3.220890 
# 
# 
# High freq. dielectric constant tensor:
#      x y z
#    x 1.731710 0.000000 0.000000 
#    y 0.000000 1.784410 0.000000 
#    z 0.000000 0.000000 1.722490 
# 
# From -- ./inp_files/29478.got.cif
#   From: 2010.06.25/outbox.cif.g09.slc.cpg/sg52_15_cif.got.tgz:29478.got - 2010.06.26 19:32:48.
