data_PCOD8216695
_publ_section_title
;
Structure prediction by ZEFSAII (Michael W. Deem and Ramdas Pophale) SiO2 
 PCOD8216695
Probable space group: P N N A
;
_chemical_formula_sum "Si O2"
_cell_formula_units_Z 64
_cell_length_a 8.567402
_cell_length_b 29.816130
_cell_length_c 11.023697
_cell_angle_alpha 90.000000
_cell_angle_beta 90.000000
_cell_angle_gamma 90.000000
_cell_volume 2815.967812
_symmetry_space_group_name_H-M "P N N A"
_symmetry_group_IT_number 52
_symmetry_cell_setting 'orthorhombic'
loop_
_space_group_symop_operation_xyz
x,y,z
1/2-x,-y,z
x,1/2-y,1/2-z
1/2-x,1/2+y,1/2-z
-x,-y,-z
1/2+x,y,-z
-x,1/2+y,1/2+z
1/2+x,1/2-y,1/2+z
loop_
_atom_site_type_symbol
_atom_site_label
_atom_site_fract_x
_atom_site_fract_y
_atom_site_fract_z
Si Si1 0.369323 0.942678 0.413838
Si Si2 0.802075 0.212174 0.044774
Si Si3 0.935479 0.775128 0.511764
Si Si4 0.028952 0.899722 0.145768
Si Si5 0.847646 0.871465 0.918967
Si Si6 0.472812 0.145852 0.681621
Si Si7 0.529828 0.535716 0.848198
Si Si8 0.145156 0.176672 0.724410
O O1 0.457003 0.896828 0.385023
O O2 0.394176 0.955956 0.553965
O O3 0.184826 0.938135 0.394031
O O4 0.439396 0.982737 0.330408
O O5 0.742391 0.258418 0.981510
O O6 0.731359 0.210305 0.181120
O O7 0.763864 0.166598 0.975840
O O8 0.983716 0.225548 0.033088
O O9 0.953378 0.797827 0.379131
O O10 0.967377 0.808953 0.619584
O O11 0.218210 0.903921 0.140567
O O12 0.972585 0.943175 0.221140
O O13 0.984171 0.853709 0.212195
O O14 0.945487 0.900304 0.015409
O O15 0.972947 0.852528 0.822330
O O16 0.284608 0.145063 0.671367
#
# Coordination Sequence:
#
# PCOD8216695 Si02
#       8
#     8   8   8   8   8   8   8   8
#     4  10  23  42  73 104 141 174 224 288 354 423
#     4  11  24  44  63  90 131 179 234 281 348 404
#     4  12  25  40  66  95 130 175 231 290 346 406
#     4  11  23  45  70  98 138 186 225 281 345 417
#     4  11  24  43  69  96 136 187 232 282 341 410
#     4  12  25  42  66 100 135 182 230 289 348 415
#     4  10  22  44  72 106 140 177 222 288 353 422
#     4  11  25  44  65  94 138 179 231 296 345 418
#
# _framework density 22.727532
#
# number of rings (size 3 to 8) (size 9 to 14) (size 15 to 20)
#    0.000    1.000    2.500    4.875    5.250    1.500 
#    0.000    0.625    0.000    0.000    0.000    0.000 
#    0.000    0.000    0.000    0.000    0.000    0.000 
#
# Total GULP energy -793442.317083 kJ/mol
# GULP energy per Si atom -12397.536204 kJ/mol
# Density = 2.267580 g / cm^3
# Si number density = 22.727532 Si / 1000 Ang^3
#
#
#
# Elastic Constant Matrix: (Units=GPa)
#
#
# Indices 1 2 3 4 5 6 
#
# 1 58.9608 2.5455 8.9178 0.0000 0.0000 0.0000
# 2 2.5455 65.2795 11.8457 0.0000 0.0000 0.0000
# 3 8.9178 11.8457 91.4483 0.0000 0.0000 0.0000
# 4 0.0000 0.0000 0.0000 36.0846 0.0000 0.0000
# 5 0.0000 0.0000 0.0000 0.0000 33.7686 0.0000
# 6 0.0000 0.0000 0.0000 0.0000 0.0000 30.6733
#
#
#
# Elastic Compliance Matrix: (Units=1/GPa)
#
#
# Indices 1 2 3 4 5 6 
#
# 1 0.017223 -0.000376 -0.001631 0.000000 0.000000 0.000000
# 2 -0.000376 0.015696 -0.001996 0.000000 0.000000 0.000000
# 3 -0.001631 -0.001996 0.011353 0.000000 0.000000 0.000000
# 4 0.000000 0.000000 0.000000 0.027713 0.000000 0.000000
# 5 0.000000 0.000000 0.000000 0.000000 0.029613 0.000000
# 6 0.000000 0.000000 0.000000 0.000000 0.000000 0.032602
#
#
# Mechanical properties :
#
#
# Convention : Reuss Voigt Hill
#
# Bulk Modulus (GPa) = 27.57430 29.14519 28.35974
# Shear Modulus (GPa) = 32.40564 32.93059 32.66811
#
# Velocity S-wave (km/s) = 3.78012 3.81061 3.79539
# Velocity P-wave (km/s) = 5.58670 5.67561 5.63133
#
# Compressibility (1/GPa) = 0.03626565
#
# Stress axis : x y z
#
# Youngs Moduli (GPa) = 58.06083 63.71178 88.08404
#
# Poissons Ratio (x) = 0.02393 0.14366
# Poissons Ratio (y) = 0.02181 0.17586
# Poissons Ratio (z) = 0.09469 0.12720
#
# Static dielectric constant tensor:
#      x y z
#    x 4.176680 0.000000 0.000000 
#    y 0.000000 3.948500 0.000000 
#    z 0.000000 0.000000 4.138440 
# 
# 
# High freq. dielectric constant tensor:
#      x y z
#    x 1.907270 0.000000 0.000000 
#    y 0.000000 1.887350 0.000000 
#    z 0.000000 0.000000 1.894240 
# 
# From -- ./inp_files/17249.got.cif
#   From: 2010.06.25/outbox.cif.g09.slc.cpg/sg52_9_cif.got.tgz:17249.got - 2010.06.26 19:32:48.
