data_PCOD8216389
_publ_section_title
;
Structure prediction by ZEFSAII (Michael W. Deem and Ramdas Pophale) SiO2 
 PCOD8216389
Probable space group: P N N A
;
_chemical_formula_sum "Si O2"
_cell_formula_units_Z 48
_cell_length_a 9.502179
_cell_length_b 7.848399
_cell_length_c 27.359808
_cell_angle_alpha 90.000000
_cell_angle_beta 90.000000
_cell_angle_gamma 90.000000
_cell_volume 2040.409451
_symmetry_space_group_name_H-M "P N N A"
_symmetry_group_IT_number 52
_symmetry_cell_setting 'orthorhombic'
loop_
_space_group_symop_operation_xyz
x,y,z
1/2-x,-y,z
x,1/2-y,1/2-z
1/2-x,1/2+y,1/2-z
-x,-y,-z
1/2+x,y,-z
-x,1/2+y,1/2+z
1/2+x,1/2-y,1/2+z
loop_
_atom_site_type_symbol
_atom_site_label
_atom_site_fract_x
_atom_site_fract_y
_atom_site_fract_z
Si Si1 0.909554 0.552817 0.736366
Si Si2 0.267603 0.821369 0.044592
Si Si3 0.891482 0.091594 0.153276
Si Si4 0.750000 0.500000 0.098579
Si Si5 0.524606 0.971052 0.335007
Si Si6 0.089502 0.698734 0.548896
Si Si7 0.250000 0.500000 0.104585
O O1 0.750000 0.500000 0.732376
O O2 0.918319 0.750000 0.750000
O O3 0.982165 0.507735 0.684839
O O4 0.990954 0.455873 0.780976
O O5 0.428513 0.769745 0.032565
O O6 0.198968 0.661623 0.072681
O O7 0.250000 0.000000 0.074997
O O8 0.176388 0.870077 0.996679
O O9 0.889115 0.292496 0.165769
O O10 0.912352 0.066602 0.094740
O O11 0.750000 0.000000 0.170758
O O12 0.630387 0.408122 0.133621
O O13 0.833484 0.372293 0.064013
O O14 0.377681 0.936481 0.362160
#
# Coordination Sequence:
#
# PCOD8216389 Si02
#       7
#     8   8   8   4   8   8   4
#     4  10  22  44  69 104 144 184 242 303 372 455
#     4  12  27  46  73 107 151 197 256 311 380 442
#     4  10  22  45  65  96 143 185 243 303 365 437
#     4  10  21  42  70 102 146 188 248 303 370 444
#     4  10  22  44  70 105 146 192 243 306 374 460
#     4  11  25  47  68 109 142 198 256 312 370 456
#     4  12  23  48  78 108 152 200 248 311 384 454
#
# _framework density 23.52469
#
# number of rings (size 3 to 8) (size 9 to 14) (size 15 to 20)
#    0.000    1.333    4.167    1.500    3.500    2.000 
#    9.000    0.000    0.000    0.000    0.000    0.000 
#    0.000    0.000    0.000    0.000    0.000    0.000 
#
# Total GULP energy -594817.441217 kJ/mol
# GULP energy per Si atom -12392.030025 kJ/mol
# Density = 2.347115 g / cm^3
# Si number density = 23.524690 Si / 1000 Ang^3
#
#
#
# Elastic Constant Matrix: (Units=GPa)
#
#
# Indices 1 2 3 4 5 6 
#
# 1 134.9692 26.6741 25.6510 0.0000 0.0000 0.0000
# 2 26.6741 87.6096 23.4786 0.0000 0.0000 0.0000
# 3 25.6510 23.4786 113.6521 0.0000 0.0000 0.0000
# 4 0.0000 0.0000 0.0000 16.1401 0.0000 0.0000
# 5 0.0000 0.0000 0.0000 0.0000 42.3125 0.0000
# 6 0.0000 0.0000 0.0000 0.0000 0.0000 33.9648
#
#
#
# Elastic Compliance Matrix: (Units=1/GPa)
#
#
# Indices 1 2 3 4 5 6 
#
# 1 0.008087 -0.002089 -0.001394 0.000000 0.000000 0.000000
# 2 -0.002089 0.012623 -0.002136 0.000000 0.000000 0.000000
# 3 -0.001394 -0.002136 0.009555 0.000000 0.000000 0.000000
# 4 0.000000 0.000000 0.000000 0.061957 0.000000 0.000000
# 5 0.000000 0.000000 0.000000 0.000000 0.023634 0.000000
# 6 0.000000 0.000000 0.000000 0.000000 0.000000 0.029442
#
#
# Mechanical properties :
#
#
# Convention : Reuss Voigt Hill
#
# Bulk Modulus (GPa) = 52.55700 54.20427 53.38063
# Shear Modulus (GPa) = 30.69806 35.84531 33.27168
#
# Velocity S-wave (km/s) = 3.61630 3.90774 3.76484
# Velocity P-wave (km/s) = 6.31083 6.59181 6.45285
#
# Compressibility (1/GPa) = 0.01902696
#
# Stress axis : x y z
#
# Youngs Moduli (GPa) = 123.65910 79.22239 104.66121
#
# Poissons Ratio (x) = 0.16547 0.14586
# Poissons Ratio (y) = 0.25828 0.22358
# Poissons Ratio (z) = 0.17234 0.16924
#
# Static dielectric constant tensor:
#      x y z
#    x 4.771430 0.000000 0.000000 
#    y 0.000000 3.983410 0.000000 
#    z 0.000000 0.000000 4.663080 
# 
# 
# High freq. dielectric constant tensor:
#      x y z
#    x 1.948360 0.000000 0.000000 
#    y 0.000000 1.903140 0.000000 
#    z 0.000000 0.000000 1.934970 
# 
# From -- ./inp_files/44422.got.cif
#   From: 2010.06.25/outbox.cif.g09.slc.cpg/sg52_23_cif.got.tgz:44422.got - 2010.06.26 19:32:48.
