data_PCOD8216163
_publ_section_title
;
Structure prediction by ZEFSAII (Michael W. Deem and Ramdas Pophale) SiO2 
 PCOD8216163
Probable space group: P N N A
;
_chemical_formula_sum "Si O2"
_cell_formula_units_Z 64
_cell_length_a 15.111064
_cell_length_b 23.935517
_cell_length_c 9.012540
_cell_angle_alpha 90.000000
_cell_angle_beta 90.000000
_cell_angle_gamma 90.000000
_cell_volume 3259.755770
_symmetry_space_group_name_H-M "P N N A"
_symmetry_group_IT_number 52
_symmetry_cell_setting 'orthorhombic'
loop_
_space_group_symop_operation_xyz
x,y,z
1/2-x,-y,z
x,1/2-y,1/2-z
1/2-x,1/2+y,1/2-z
-x,-y,-z
1/2+x,y,-z
-x,1/2+y,1/2+z
1/2+x,1/2-y,1/2+z
loop_
_atom_site_type_symbol
_atom_site_label
_atom_site_fract_x
_atom_site_fract_y
_atom_site_fract_z
Si Si1 0.012731 0.186331 0.922079
Si Si2 0.353295 0.503222 0.608347
Si Si3 0.857176 0.104768 0.923226
Si Si4 0.511368 0.314432 0.075848
Si Si5 0.597240 0.497047 0.063715
Si Si6 0.153296 0.387126 0.427461
Si Si7 0.350995 0.392741 0.083188
Si Si8 0.654394 0.114922 0.584827
O O1 0.923465 0.154206 0.968837
O O2 0.996389 0.250277 0.966453
O O3 0.032469 0.178610 0.748718
O O4 0.098269 0.164787 0.009674
O O5 0.250000 0.500000 0.646999
O O6 0.383706 0.448897 0.518645
O O7 0.408704 0.507387 0.759056
O O8 0.376783 0.556736 0.509810
O O9 0.757101 0.124971 0.954539
O O10 0.868717 0.087965 0.751585
O O11 0.423706 0.348343 0.029530
O O12 0.593605 0.337321 0.983480
O O13 0.500000 0.500000 0.000000
O O14 0.649380 0.552812 0.019953
O O15 0.646429 0.443181 0.001107
O O16 0.129850 0.394966 0.255565
O O17 0.255262 0.363752 0.069121
#
# Coordination Sequence:
#
# PCOD8216163 Si02
#       8
#     8   8   8   8   8   8   8   8
#     4  10  22  39  62  82 118 153 197 248 289 353
#     4  10  21  38  59  87 121 154 192 237 291 353
#     4   9  21  39  61  87 117 156 196 238 293 348
#     4  10  22  41  59  87 112 156 201 238 300 348
#     4  12  23  35  58  91 122 152 191 233 291 354
#     4  10  22  38  61  90 117 154 197 240 294 347
#     4  10  21  40  61  84 119 155 194 241 290 350
#     4  11  22  39  61  87 120 153 194 245 290 347
#
# _framework density 19.633372000000001
#
# number of rings (size 3 to 8) (size 9 to 14) (size 15 to 20)
#    0.000    1.750    1.250    2.625    3.500    5.000 
#    0.000    2.500    0.000    0.000    0.000    0.000 
#    0.000    0.000    0.000    0.000    0.000    0.000 
#
# Total GULP energy -793920.163428 kJ/mol
# GULP energy per Si atom -12405.002554 kJ/mol
# Density = 1.958869 g / cm^3
# Si number density = 19.633372 Si / 1000 Ang^3
#
#
#
# Elastic Constant Matrix: (Units=GPa)
#
#
# Indices 1 2 3 4 5 6 
#
# 1 102.8754 51.6600 50.2932 0.0000 0.0000 0.0000
# 2 51.6600 132.5538 58.9697 0.0000 0.0000 0.0000
# 3 50.2932 58.9697 104.1320 0.0000 0.0000 0.0000
# 4 0.0000 0.0000 0.0000 32.5838 0.0000 0.0000
# 5 0.0000 0.0000 0.0000 0.0000 33.1955 0.0000
# 6 0.0000 0.0000 0.0000 0.0000 0.0000 18.2831
#
#
#
# Elastic Compliance Matrix: (Units=1/GPa)
#
#
# Indices 1 2 3 4 5 6 
#
# 1 0.013667 -0.003195 -0.004792 0.000000 0.000000 0.000000
# 2 -0.003195 0.010832 -0.004591 0.000000 0.000000 0.000000
# 3 -0.004792 -0.004591 0.014517 0.000000 0.000000 0.000000
# 4 0.000000 0.000000 0.000000 0.030690 0.000000 0.000000
# 5 0.000000 0.000000 0.000000 0.000000 0.030125 0.000000
# 6 0.000000 0.000000 0.000000 0.000000 0.000000 0.054695
#
#
# Mechanical properties :
#
#
# Convention : Reuss Voigt Hill
#
# Bulk Modulus (GPa) = 72.14330 73.48967 72.81648
# Shear Modulus (GPa) = 27.12943 28.72170 27.92557
#
# Velocity S-wave (km/s) = 3.72129 3.82894 3.77550
# Velocity P-wave (km/s) = 7.43566 7.55380 7.49496
#
# Compressibility (1/GPa) = 0.01386130
#
# Stress axis : x y z
#
# Youngs Moduli (GPa) = 73.16673 92.32262 68.88319
#
# Poissons Ratio (x) = 0.29495 0.33007
# Poissons Ratio (y) = 0.23376 0.31623
# Poissons Ratio (z) = 0.35060 0.42384
#
# Static dielectric constant tensor:
#      x y z
#    x 3.683220 0.000000 0.000000 
#    y 0.000000 3.562000 0.000000 
#    z 0.000000 0.000000 3.674020 
# 
# 
# High freq. dielectric constant tensor:
#      x y z
#    x 1.775830 0.000000 0.000000 
#    y 0.000000 1.758150 0.000000 
#    z 0.000000 0.000000 1.767390 
# 
# From -- ./inp_files/11005.got.cif
#   From: 2010.06.25/outbox.cif.g09.slc.cpg/sg52_6_cif.got.tgz:11005.got - 2010.06.26 19:32:48.
