data_PCOD8216250
_publ_section_title
;
Structure prediction by ZEFSAII (Michael W. Deem and Ramdas Pophale) SiO2 
 PCOD8216250
Probable space group: P N N A
;
_chemical_formula_sum "Si O2"
_cell_formula_units_Z 24
_cell_length_a 26.136369
_cell_length_b 4.929851
_cell_length_c 8.036021
_cell_angle_alpha 90.000000
_cell_angle_beta 90.000000
_cell_angle_gamma 90.000000
_cell_volume 1035.428487
_symmetry_space_group_name_H-M "P N N A"
_symmetry_group_IT_number 52
_symmetry_cell_setting 'orthorhombic'
loop_
_space_group_symop_operation_xyz
x,y,z
1/2-x,-y,z
x,1/2-y,1/2-z
1/2-x,1/2+y,1/2-z
-x,-y,-z
1/2+x,y,-z
-x,1/2+y,1/2+z
1/2+x,1/2-y,1/2+z
loop_
_atom_site_type_symbol
_atom_site_label
_atom_site_fract_x
_atom_site_fract_y
_atom_site_fract_z
Si Si1 0.894504 0.337768 0.067170
Si Si2 0.785357 0.245352 0.558490
Si Si3 0.448641 0.634161 0.430239
O O1 0.913018 0.250000 0.250000
O O2 0.833340 0.324268 0.059081
O O3 0.922098 0.626603 0.037563
O O4 0.910003 0.117367 0.927035
O O5 0.750000 0.500000 0.508770
O O6 0.803737 0.250000 0.750000
O O7 0.750000 0.000000 0.521247
O O8 0.460399 0.750000 0.250000
O O9 0.500000 0.500000 0.500000
#
# Coordination Sequence:
#
# PCOD8216250 Si02
#       3
#     8   8   8
#     4  12  26  44  69 103 140 178 226 284 345 406
#     4  10  21  39  65  97 134 178 225 273 334 406
#     4  12  26  47  71  98 134 180 231 283 343 410
#
# _framework density 23.178808
#
# number of rings (size 3 to 8) (size 9 to 14) (size 15 to 20)
#    0.000    0.667    0.000    8.000    0.000    6.667 
#    0.000    0.000    0.000    0.000    0.000    0.000 
#    0.000    0.000    0.000    0.000    0.000    0.000 
#
# Total GULP energy -297357.892422 kJ/mol
# GULP energy per Si atom -12389.912184 kJ/mol
# Density = 2.312605 g / cm^3
# Si number density = 23.178808 Si / 1000 Ang^3
#
#
#
# Elastic Constant Matrix: (Units=GPa)
#
#
# Indices 1 2 3 4 5 6 
#
# 1 160.4709 81.8764 51.0109 0.0000 0.0000 0.0000
# 2 81.8764 185.9063 23.7177 0.0000 0.0000 0.0000
# 3 51.0109 23.7177 70.6888 0.0000 0.0000 0.0000
# 4 0.0000 0.0000 0.0000 34.2810 0.0000 0.0000
# 5 0.0000 0.0000 0.0000 0.0000 6.5915 0.0000
# 6 0.0000 0.0000 0.0000 0.0000 0.0000 73.8790
#
#
#
# Elastic Compliance Matrix: (Units=1/GPa)
#
#
# Indices 1 2 3 4 5 6 
#
# 1 0.009991 -0.003636 -0.005990 0.000000 0.000000 0.000000
# 2 -0.003636 0.006943 0.000294 0.000000 0.000000 0.000000
# 3 -0.005990 0.000294 0.018370 0.000000 0.000000 0.000000
# 4 0.000000 0.000000 0.000000 0.029171 0.000000 0.000000
# 5 0.000000 0.000000 0.000000 0.000000 0.151711 0.000000
# 6 0.000000 0.000000 0.000000 0.000000 0.000000 0.013536
#
#
# Mechanical properties :
#
#
# Convention : Reuss Voigt Hill
#
# Bulk Modulus (GPa) = 60.09226 81.14179 70.61702
# Shear Modulus (GPa) = 19.69040 40.31436 30.00238
#
# Velocity S-wave (km/s) = 2.91778 4.17499 3.60166
# Velocity P-wave (km/s) = 6.11008 7.63699 6.91580
#
# Compressibility (1/GPa) = 0.01664108
#
# Stress axis : x y z
#
# Youngs Moduli (GPa) = 100.09157 144.03297 54.43637
#
# Poissons Ratio (x) = 0.52370 0.32606
# Poissons Ratio (y) = 0.36393 -0.01602
# Poissons Ratio (z) = 0.59952 -0.04239
#
# Static dielectric constant tensor:
#      x y z
#    x 4.325750 0.000000 0.000000 
#    y 0.000000 4.209710 0.000000 
#    z 0.000000 0.000000 3.974750 
# 
# 
# High freq. dielectric constant tensor:
#      x y z
#    x 1.937660 0.000000 0.000000 
#    y 0.000000 1.939810 0.000000 
#    z 0.000000 0.000000 1.907320 
# 
# From -- ./inp_files/13755.got.cif
#   From: 2010.06.25/outbox.cif.g09.slc.cpg/sg52_7_cif.got.tgz:13755.got - 2010.06.26 19:32:48.
