data_PCOD8216645
_publ_section_title
;
Structure prediction by ZEFSAII (Michael W. Deem and Ramdas Pophale) SiO2 
 PCOD8216645
Probable space group: P N N A
;
_chemical_formula_sum "Si O2"
_cell_formula_units_Z 24
_cell_length_a 10.730481
_cell_length_b 7.769292
_cell_length_c 11.446301
_cell_angle_alpha 90.000000
_cell_angle_beta 90.000000
_cell_angle_gamma 90.000000
_cell_volume 954.257971
_symmetry_space_group_name_H-M "P N N A"
_symmetry_group_IT_number 52
_symmetry_cell_setting 'orthorhombic'
loop_
_space_group_symop_operation_xyz
x,y,z
1/2-x,-y,z
x,1/2-y,1/2-z
1/2-x,1/2+y,1/2-z
-x,-y,-z
1/2+x,y,-z
-x,1/2+y,1/2+z
1/2+x,1/2-y,1/2+z
loop_
_atom_site_type_symbol
_atom_site_label
_atom_site_fract_x
_atom_site_fract_y
_atom_site_fract_z
Si Si1 0.367279 0.122419 0.860149
Si Si2 0.876099 0.549435 0.715438
Si Si3 0.873229 0.089703 0.535404
O O1 0.359953 0.250000 0.750000
O O2 0.496041 0.011994 0.853755
O O3 0.250000 0.000000 0.855673
O O4 0.371963 0.218619 0.984377
O O5 0.750000 0.500000 0.641772
O O6 0.875181 0.750000 0.750000
O O7 0.868083 0.417458 0.824868
O O8 0.750000 0.000000 0.481025
O O9 0.000000 0.000000 0.500000
#
# Coordination Sequence:
#
# PCOD8216645 Si02
#       3
#     8   8   8
#     4  11  23  42  72 104 140 190 245 297 362 426
#     4  10  22  42  71 100 136 189 238 292 364 432
#     4  11  22  44  71  99 144 184 233 301 362 427
#
# _framework density 25.150431999999999
#
# number of rings (size 3 to 8) (size 9 to 14) (size 15 to 20)
#    0.000    1.333    6.667    1.000    0.000    1.333 
#    6.000    8.333    0.000    0.000    0.000    0.000 
#    0.000    0.000    0.000    0.000    0.000    0.000 
#
# Total GULP energy -297418.932947 kJ/mol
# GULP energy per Si atom -12392.455539 kJ/mol
# Density = 2.509319 g / cm^3
# Si number density = 25.150432 Si / 1000 Ang^3
#
#
#
# Elastic Constant Matrix: (Units=GPa)
#
#
# Indices 1 2 3 4 5 6 
#
# 1 338.1819 87.2830 38.9346 0.0000 0.0000 0.0000
# 2 87.2830 83.9810 55.1643 0.0000 0.0000 0.0000
# 3 38.9346 55.1643 92.5301 0.0000 0.0000 0.0000
# 4 0.0000 0.0000 0.0000 44.7459 0.0000 0.0000
# 5 0.0000 0.0000 0.0000 0.0000 2.9740 0.0000
# 6 0.0000 0.0000 0.0000 0.0000 0.0000 56.1526
#
#
#
# Elastic Compliance Matrix: (Units=1/GPa)
#
#
# Indices 1 2 3 4 5 6 
#
# 1 0.004142 -0.005194 0.001354 0.000000 0.000000 0.000000
# 2 -0.005194 0.026085 -0.013366 0.000000 0.000000 0.000000
# 3 0.001354 -0.013366 0.018206 0.000000 0.000000 0.000000
# 4 0.000000 0.000000 0.000000 0.022348 0.000000 0.000000
# 5 0.000000 0.000000 0.000000 0.000000 0.336251 0.000000
# 6 0.000000 0.000000 0.000000 0.000000 0.000000 0.017809
#
#
# Mechanical properties :
#
#
# Convention : Reuss Voigt Hill
#
# Bulk Modulus (GPa) = 71.32194 97.49521 84.40857
# Shear Modulus (GPa) = 10.77759 42.99524 26.88641
#
# Velocity S-wave (km/s) = 2.07233 4.13912 3.27314
# Velocity P-wave (km/s) = 5.84344 7.85443 6.92235
#
# Compressibility (1/GPa) = 0.01402093
#
# Stress axis : x y z
#
# Youngs Moduli (GPa) = 241.45394 38.33666 54.92671
#
# Poissons Ratio (x) = 0.19910 -0.07435
# Poissons Ratio (y) = 1.25400 0.73414
# Poissons Ratio (z) = -0.32683 0.51240
#
# Static dielectric constant tensor:
#      x y z
#    x 5.650360 0.000000 0.000000 
#    y 0.000000 5.167240 0.000000 
#    z 0.000000 0.000000 5.897270 
# 
# 
# High freq. dielectric constant tensor:
#      x y z
#    x 2.048290 0.000000 0.000000 
#    y 0.000000 1.987640 0.000000 
#    z 0.000000 0.000000 1.985670 
# 
# From -- ./inp_files/17430.got.cif
#   From: 2010.06.25/outbox.cif.g09.slc.cpg/sg52_9_cif.got.tgz:17430.got - 2010.06.26 19:32:48.
