data_PCOD8216932
_publ_section_title
;
Structure prediction by ZEFSAII (Michael W. Deem and Ramdas Pophale) SiO2 
 PCOD8216932
Probable space group: P N N A
;
_chemical_formula_sum "Si O2"
_cell_formula_units_Z 60
_cell_length_a 9.425714
_cell_length_b 11.396573
_cell_length_c 24.863170
_cell_angle_alpha 90.000000
_cell_angle_beta 90.000000
_cell_angle_gamma 90.000000
_cell_volume 2670.822549
_symmetry_space_group_name_H-M "P N N A"
_symmetry_group_IT_number 52
_symmetry_cell_setting 'orthorhombic'
loop_
_space_group_symop_operation_xyz
x,y,z
1/2-x,-y,z
x,1/2-y,1/2-z
1/2-x,1/2+y,1/2-z
-x,-y,-z
1/2+x,y,-z
-x,1/2+y,1/2+z
1/2+x,1/2-y,1/2+z
loop_
_atom_site_type_symbol
_atom_site_label
_atom_site_fract_x
_atom_site_fract_y
_atom_site_fract_z
Si Si1 0.760300 0.134490 0.588761
Si Si2 0.437811 0.616941 0.477212
Si Si3 0.752999 0.137772 0.356496
Si Si4 0.022330 0.719325 0.343183
Si Si5 0.097631 0.471545 0.362584
Si Si6 0.050268 0.274192 0.167706
Si Si7 0.710176 0.768696 0.474262
Si Si8 0.271899 0.250000 0.250000
O O1 0.614829 0.194384 0.609059
O O2 0.772708 0.143353 0.524500
O O3 0.896162 0.198232 0.614576
O O4 0.750000 0.000000 0.606240
O O5 0.500000 0.500000 0.500000
O O6 0.369005 0.584188 0.420545
O O7 0.553192 0.718671 0.470039
O O8 0.317757 0.660672 0.518309
O O9 0.623202 0.211642 0.329826
O O10 0.753831 0.162076 0.420007
O O11 0.894551 0.175178 0.325223
O O12 0.750000 0.000000 0.346020
O O13 0.996351 0.587406 0.366635
O O14 0.119398 0.688139 0.291172
O O15 0.250000 0.500000 0.336811
O O16 0.032033 0.367385 0.326211
O O17 0.161808 0.325584 0.212557
#
# Coordination Sequence:
#
# PCOD8216932 Si02
#       8
#     8   8   8   8   8   8   8   4
#     4  11  21  40  65  99 135 189 240 274 319 408
#     4  12  23  34  61  96 138 184 227 274 337 402
#     4  12  26  46  66 103 148 185 223 283 346 417
#     4  11  25  44  73 102 137 176 233 293 349 405
#     4  12  20  44  69 101 137 173 232 293 338 400
#     4  11  24  46  71 100 138 175 229 287 346 409
#     4  12  22  40  61  96 141 187 233 271 332 408
#     4  10  24  50  76 100 122 174 240 274 354 424
#
# _framework density 22.464988999999999
#
# number of rings (size 3 to 8) (size 9 to 14) (size 15 to 20)
#    0.000    0.533    5.333    4.800    0.000    1.067 
#   14.400    4.000    0.000    0.000    0.000    0.000 
#    0.000    0.000    0.000    0.000    0.000    0.000 
#
# Total GULP energy -743535.249801 kJ/mol
# GULP energy per Si atom -12392.254163 kJ/mol
# Density = 2.241386 g / cm^3
# Si number density = 22.464989 Si / 1000 Ang^3
#
#
#
# Elastic Constant Matrix: (Units=GPa)
#
#
# Indices 1 2 3 4 5 6 
#
# 1 151.9318 52.7363 41.8304 0.0000 0.0000 0.0000
# 2 52.7363 159.7478 29.2606 0.0000 0.0000 0.0000
# 3 41.8304 29.2606 86.5397 0.0000 0.0000 0.0000
# 4 0.0000 0.0000 0.0000 13.8269 0.0000 0.0000
# 5 0.0000 0.0000 0.0000 0.0000 27.9224 0.0000
# 6 0.0000 0.0000 0.0000 0.0000 0.0000 35.2456
#
#
#
# Elastic Compliance Matrix: (Units=1/GPa)
#
#
# Indices 1 2 3 4 5 6 
#
# 1 0.008212 -0.002115 -0.003254 0.000000 0.000000 0.000000
# 2 -0.002115 0.007218 -0.001418 0.000000 0.000000 0.000000
# 3 -0.003254 -0.001418 0.013608 0.000000 0.000000 0.000000
# 4 0.000000 0.000000 0.000000 0.072323 0.000000 0.000000
# 5 0.000000 0.000000 0.000000 0.000000 0.035813 0.000000
# 6 0.000000 0.000000 0.000000 0.000000 0.000000 0.028372
#
#
# Mechanical properties :
#
#
# Convention : Reuss Voigt Hill
#
# Bulk Modulus (GPa) = 64.67085 71.76377 68.21731
# Shear Modulus (GPa) = 27.13332 33.69179 30.41256
#
# Velocity S-wave (km/s) = 3.47912 3.87686 3.68336
# Velocity P-wave (km/s) = 6.70738 7.21485 6.96574
#
# Compressibility (1/GPa) = 0.01546292
#
# Stress axis : x y z
#
# Youngs Moduli (GPa) = 121.77341 138.54626 73.48653
#
# Poissons Ratio (x) = 0.29301 0.23915
# Poissons Ratio (y) = 0.25754 0.10422
# Poissons Ratio (z) = 0.39629 0.19649
#
# Static dielectric constant tensor:
#      x y z
#    x 4.196180 0.000000 0.000000 
#    y 0.000000 4.095900 0.000000 
#    z 0.000000 0.000000 4.273070 
# 
# 
# High freq. dielectric constant tensor:
#      x y z
#    x 1.885370 0.000000 0.000000 
#    y 0.000000 1.884430 0.000000 
#    z 0.000000 0.000000 1.876950 
# 
# From -- ./inp_files/42354.got.cif
#   From: 2010.06.25/outbox.cif.g09.slc.cpg/sg52_22_cif.got.tgz:42354.got - 2010.06.26 19:32:48.
