data_PCOD8216785
_publ_section_title
;
Structure prediction by ZEFSAII (Michael W. Deem and Ramdas Pophale) SiO2 
 PCOD8216785
Probable space group: P N N A
;
_chemical_formula_sum "Si O2"
_cell_formula_units_Z 64
_cell_length_a 8.957010
_cell_length_b 14.481319
_cell_length_c 24.762671
_cell_angle_alpha 90.000000
_cell_angle_beta 90.000000
_cell_angle_gamma 90.000000
_cell_volume 3211.949194
_symmetry_space_group_name_H-M "P N N A"
_symmetry_group_IT_number 52
_symmetry_cell_setting 'orthorhombic'
loop_
_space_group_symop_operation_xyz
x,y,z
1/2-x,-y,z
x,1/2-y,1/2-z
1/2-x,1/2+y,1/2-z
-x,-y,-z
1/2+x,y,-z
-x,1/2+y,1/2+z
1/2+x,1/2-y,1/2+z
loop_
_atom_site_type_symbol
_atom_site_label
_atom_site_fract_x
_atom_site_fract_y
_atom_site_fract_z
Si Si1 0.926244 0.997091 0.649468
Si Si2 0.072411 0.499984 0.271896
Si Si3 0.419633 0.687322 0.699056
Si Si4 0.808551 0.098327 0.044459
Si Si5 0.414376 0.695936 0.107017
Si Si6 0.899523 0.353670 0.339798
Si Si7 0.070831 0.693513 0.110476
Si Si8 0.957292 0.783046 0.007489
O O1 0.977736 0.907587 0.615585
O O2 0.750000 0.000000 0.651077
O O3 0.986986 0.991838 0.710608
O O4 0.987477 0.089235 0.620483
O O5 0.250000 0.500000 0.275552
O O6 0.009022 0.592416 0.298061
O O7 0.013710 0.413287 0.305170
O O8 0.461016 0.750000 0.750000
O O9 0.243045 0.669474 0.696880
O O10 0.471191 0.737103 0.644842
O O11 0.849618 0.089593 0.107334
O O12 0.691734 0.181370 0.036316
O O13 0.750000 0.000000 0.023280
O O14 0.952090 0.125013 0.008963
O O15 0.516471 0.760683 0.143632
O O16 0.243841 0.704179 0.127222
O O17 0.422900 0.720705 0.044296
O O18 0.049852 0.718251 0.047874
#
# Coordination Sequence:
#
# PCOD8216785 Si02
#       8
#     8   8   8   8   8   8   8   8
#     4   9  21  40  65  89 124 166 220 265 310 376
#     4  11  23  43  65  96 128 172 219 259 317 395
#     4  12  24  40  63  96 132 170 209 267 330 375
#     4  11  22  41  60  93 125 168 208 259 321 387
#     4  10  23  43  64  94 122 172 221 264 320 381
#     4  11  25  41  64  94 134 168 208 268 328 382
#     4  11  21  43  66  90 128 170 215 268 312 393
#     4  11  22  39  66  89 128 165 212 268 320 375
#
# _framework density 19.925597
#
# number of rings (size 3 to 8) (size 9 to 14) (size 15 to 20)
#    0.000    1.250    3.750    2.250    1.750    0.500 
#    0.000    0.625    0.000    0.000    0.000    0.000 
#    0.000    0.000    0.000    0.000    0.000    0.000 
#
# Total GULP energy -793903.906827 kJ/mol
# GULP energy per Si atom -12404.748544 kJ/mol
# Density = 1.988025 g / cm^3
# Si number density = 19.925597 Si / 1000 Ang^3
#
#
#
# Elastic Constant Matrix: (Units=GPa)
#
#
# Indices 1 2 3 4 5 6 
#
# 1 83.6618 33.9795 20.6290 0.0000 0.0000 0.0000
# 2 33.9795 140.8490 58.2738 0.0000 0.0000 0.0000
# 3 20.6290 58.2738 103.3436 0.0000 0.0000 0.0000
# 4 0.0000 0.0000 0.0000 24.5988 0.0000 0.0000
# 5 0.0000 0.0000 0.0000 0.0000 20.9949 0.0000
# 6 0.0000 0.0000 0.0000 0.0000 0.0000 23.9490
#
#
#
# Elastic Compliance Matrix: (Units=1/GPa)
#
#
# Indices 1 2 3 4 5 6 
#
# 1 0.013348 -0.002762 -0.001107 0.000000 0.000000 0.000000
# 2 -0.002762 0.009832 -0.004993 0.000000 0.000000 0.000000
# 3 -0.001107 -0.004993 0.012713 0.000000 0.000000 0.000000
# 4 0.000000 0.000000 0.000000 0.040652 0.000000 0.000000
# 5 0.000000 0.000000 0.000000 0.000000 0.047631 0.000000
# 6 0.000000 0.000000 0.000000 0.000000 0.000000 0.041755
#
#
# Mechanical properties :
#
#
# Convention : Reuss Voigt Hill
#
# Bulk Modulus (GPa) = 55.03932 61.51325 58.27629
# Shear Modulus (GPa) = 26.35601 28.24000 27.29801
#
# Velocity S-wave (km/s) = 3.64087 3.76875 3.70536
# Velocity P-wave (km/s) = 6.73476 7.06233 6.90049
#
# Compressibility (1/GPa) = 0.01816883
#
# Stress axis : x y z
#
# Youngs Moduli (GPa) = 74.91947 101.71101 78.66170
#
# Poissons Ratio (x) = 0.28094 0.08707
# Poissons Ratio (y) = 0.20694 0.39273
# Poissons Ratio (z) = 0.08293 0.50780
#
# Static dielectric constant tensor:
#      x y z
#    x 3.605810 0.000000 0.000000 
#    y 0.000000 3.734250 0.000000 
#    z 0.000000 0.000000 3.642310 
# 
# 
# High freq. dielectric constant tensor:
#      x y z
#    x 1.777260 0.000000 0.000000 
#    y 0.000000 1.784660 0.000000 
#    z 0.000000 0.000000 1.781360 
# 
# From -- ./inp_files/39687.got.cif
#   From: 2010.06.25/outbox.cif.g09.slc.cpg/sg52_20_cif.got.tgz:39687.got - 2010.06.26 19:32:48.
