data_PCOD8216286
_publ_section_title
;
Structure prediction by ZEFSAII (Michael W. Deem and Ramdas Pophale) SiO2 
 PCOD8216286
Probable space group: P N N A
;
_chemical_formula_sum "Si O2"
_cell_formula_units_Z 52
_cell_length_a 9.126740
_cell_length_b 17.705659
_cell_length_c 16.066360
_cell_angle_alpha 90.000000
_cell_angle_beta 90.000000
_cell_angle_gamma 90.000000
_cell_volume 2596.242580
_symmetry_space_group_name_H-M "P N N A"
_symmetry_group_IT_number 52
_symmetry_cell_setting 'orthorhombic'
loop_
_space_group_symop_operation_xyz
x,y,z
1/2-x,-y,z
x,1/2-y,1/2-z
1/2-x,1/2+y,1/2-z
-x,-y,-z
1/2+x,y,-z
-x,1/2+y,1/2+z
1/2+x,1/2-y,1/2+z
loop_
_atom_site_type_symbol
_atom_site_label
_atom_site_fract_x
_atom_site_fract_y
_atom_site_fract_z
Si Si1 0.700215 0.166356 0.918832
Si Si2 0.301048 0.616794 0.239087
Si Si3 0.039721 0.073598 0.551579
Si Si4 0.750000 0.500000 0.350854
Si Si5 0.495291 0.472884 0.231422
Si Si6 0.925977 0.420222 0.481270
Si Si7 0.252179 0.334221 0.059716
O O1 0.682766 0.171812 0.818615
O O2 0.547197 0.141175 0.958547
O O3 0.742021 0.245894 0.961259
O O4 0.830670 0.107467 0.939906
O O5 0.432261 0.556872 0.240595
O O6 0.139232 0.582788 0.245489
O O7 0.319646 0.658350 0.151065
O O8 0.177228 0.113931 0.509934
O O9 0.073768 0.042755 0.643444
O O10 0.917571 0.137997 0.557732
O O11 0.000000 0.000000 0.500000
O O12 0.621880 0.460247 0.298500
O O13 0.813660 0.431231 0.405214
O O14 0.000000 0.500000 0.500000
#
# Coordination Sequence:
#
# PCOD8216286 Si02
#       7
#     8   8   8   4   8   8   8
#     4  12  24  41  64  92 132 166 207 268 315 388
#     4  10  21  40  63  91 123 167 213 258 307 384
#     4  11  22  41  66  94 127 163 217 262 308 383
#     4  12  22  38  60 100 116 154 212 258 316 352
#     4  10  22  36  64  94 122 161 214 264 308 367
#     4  12  24  40  64  93 122 166 214 259 313 378
#     4  11  24  41  63  97 127 171 207 256 335 372
#
# _framework density 20.028943999999999
#
# number of rings (size 3 to 8) (size 9 to 14) (size 15 to 20)
#    0.000    0.923    4.615    2.769    4.308    0.000 
#    0.000    0.000    0.000    0.000    0.000    0.000 
#    0.000    0.000    0.000    0.000    0.000    0.000 
#
# Total GULP energy -644771.912493 kJ/mol
# GULP energy per Si atom -12399.459856 kJ/mol
# Density = 1.998336 g / cm^3
# Si number density = 20.028944 Si / 1000 Ang^3
#
#
#
# Elastic Constant Matrix: (Units=GPa)
#
#
# Indices 1 2 3 4 5 6 
#
# 1 82.9701 20.1523 28.7130 0.0000 0.0000 0.0000
# 2 20.1523 94.0618 14.3347 0.0000 0.0000 0.0000
# 3 28.7130 14.3347 105.1386 0.0000 0.0000 0.0000
# 4 0.0000 0.0000 0.0000 28.7298 0.0000 0.0000
# 5 0.0000 0.0000 0.0000 0.0000 42.7810 0.0000
# 6 0.0000 0.0000 0.0000 0.0000 0.0000 32.2010
#
#
#
# Elastic Compliance Matrix: (Units=1/GPa)
#
#
# Indices 1 2 3 4 5 6 
#
# 1 0.013838 -0.002439 -0.003446 0.000000 0.000000 0.000000
# 2 -0.002439 0.011287 -0.000873 0.000000 0.000000 0.000000
# 3 -0.003446 -0.000873 0.010571 0.000000 0.000000 0.000000
# 4 0.000000 0.000000 0.000000 0.034807 0.000000 0.000000
# 5 0.000000 0.000000 0.000000 0.000000 0.023375 0.000000
# 6 0.000000 0.000000 0.000000 0.000000 0.000000 0.031055
#
#
# Mechanical properties :
#
#
# Convention : Reuss Voigt Hill
#
# Bulk Modulus (GPa) = 45.08767 45.39672 45.24219
# Shear Modulus (GPa) = 34.28341 35.34039 34.81190
#
# Velocity S-wave (km/s) = 4.14175 4.20511 4.17355
# Velocity P-wave (km/s) = 6.74035 6.80383 6.77216
#
# Compressibility (1/GPa) = 0.02217901
#
# Stress axis : x y z
#
# Youngs Moduli (GPa) = 72.26621 88.59798 94.59438
#
# Poissons Ratio (x) = 0.21613 0.32601
# Poissons Ratio (y) = 0.17629 0.08255
# Poissons Ratio (z) = 0.24906 0.07732
#
# Static dielectric constant tensor:
#      x y z
#    x 3.772760 0.000000 0.000000 
#    y 0.000000 4.351670 0.000000 
#    z 0.000000 0.000000 3.983700 
# 
# 
# High freq. dielectric constant tensor:
#      x y z
#    x 1.786360 0.000000 0.000000 
#    y 0.000000 1.767680 0.000000 
#    z 0.000000 0.000000 1.795370 
# 
# From -- ./inp_files/24888.got.cif
#   From: 2010.06.25/outbox.cif.g09.slc.cpg/sg52_13_cif.got.tgz:24888.got - 2010.06.26 19:32:48.
