data_PCOD8216333
_publ_section_title
;
Structure prediction by ZEFSAII (Michael W. Deem and Ramdas Pophale) SiO2 
 PCOD8216333
Probable space group: P N N A
;
_chemical_formula_sum "Si O2"
_cell_formula_units_Z 40
_cell_length_a 13.447475
_cell_length_b 13.811505
_cell_length_c 10.884105
_cell_angle_alpha 90.000000
_cell_angle_beta 90.000000
_cell_angle_gamma 90.000000
_cell_volume 2021.503387
_symmetry_space_group_name_H-M "P N N A"
_symmetry_group_IT_number 52
_symmetry_cell_setting 'orthorhombic'
loop_
_space_group_symop_operation_xyz
x,y,z
1/2-x,-y,z
x,1/2-y,1/2-z
1/2-x,1/2+y,1/2-z
-x,-y,-z
1/2+x,y,-z
-x,1/2+y,1/2+z
1/2+x,1/2-y,1/2+z
loop_
_atom_site_type_symbol
_atom_site_label
_atom_site_fract_x
_atom_site_fract_y
_atom_site_fract_z
Si Si1 0.746921 0.894524 0.446851
Si Si2 0.750000 0.500000 0.679487
Si Si3 0.645373 0.163544 0.668891
Si Si4 0.927319 0.272723 0.120378
Si Si5 0.250000 0.000000 0.785541
Si Si6 0.903524 0.065596 0.017960
O O1 0.818264 0.826593 0.527606
O O2 0.637424 0.848687 0.456487
O O3 0.779933 0.908983 0.303925
O O4 0.750000 0.000000 0.512110
O O5 0.680563 0.433554 0.764214
O O6 0.826943 0.438127 0.596144
O O7 0.690389 0.250000 0.750000
O O8 0.527291 0.171841 0.659478
O O9 0.872277 0.250000 0.250000
O O10 0.941256 0.175349 0.039940
O O11 0.346700 0.025516 0.863010
O O12 0.000000 0.000000 0.000000
#
# Coordination Sequence:
#
# PCOD8216333 Si02
#       6
#     8   4   8   8   4   8
#     4  10  21  41  63  88 123 164 208 263 313 369
#     4  11  23  40  64  90 131 163 212 260 316 379
#     4  11  23  41  64  92 124 169 208 260 322 382
#     4  11  21  39  63  90 124 160 212 253 312 383
#     4   9  21  40  64  92 125 165 214 258 322 373
#     4  11  22  40  64  95 127 169 209 263 318 382
#
# _framework density 19.787254999999998
#
# number of rings (size 3 to 8) (size 9 to 14) (size 15 to 20)
#    0.600    0.800    3.000    3.600    0.000    2.400 
#    3.600    0.000    0.000    0.000    0.000    0.000 
#    0.000    0.000    0.000    0.000    0.000    0.000 
#
# Total GULP energy -495573.509377 kJ/mol
# GULP energy per Si atom -12389.337734 kJ/mol
# Density = 1.974222 g / cm^3
# Si number density = 19.787255 Si / 1000 Ang^3
#
#
#
# Elastic Constant Matrix: (Units=GPa)
#
#
# Indices 1 2 3 4 5 6 
#
# 1 97.1061 62.2034 51.9845 0.0000 0.0000 0.0000
# 2 62.2034 131.1417 44.7485 0.0000 0.0000 0.0000
# 3 51.9845 44.7485 115.3856 0.0000 0.0000 0.0000
# 4 0.0000 0.0000 0.0000 27.4551 0.0000 0.0000
# 5 0.0000 0.0000 0.0000 0.0000 24.3839 0.0000
# 6 0.0000 0.0000 0.0000 0.0000 0.0000 37.3091
#
#
#
# Elastic Compliance Matrix: (Units=1/GPa)
#
#
# Indices 1 2 3 4 5 6 
#
# 1 0.017197 -0.006354 -0.005283 0.000000 0.000000 0.000000
# 2 -0.006354 0.011136 -0.001456 0.000000 0.000000 0.000000
# 3 -0.005283 -0.001456 0.011612 0.000000 0.000000 0.000000
# 4 0.000000 0.000000 0.000000 0.036423 0.000000 0.000000
# 5 0.000000 0.000000 0.000000 0.000000 0.041011 0.000000
# 6 0.000000 0.000000 0.000000 0.000000 0.000000 0.026803
#
#
# Mechanical properties :
#
#
# Convention : Reuss Voigt Hill
#
# Bulk Modulus (GPa) = 72.68837 73.50068 73.09453
# Shear Modulus (GPa) = 28.57902 30.14276 29.36089
#
# Velocity S-wave (km/s) = 3.80454 3.90724 3.85623
# Velocity P-wave (km/s) = 7.49093 7.58824 7.53974
#
# Compressibility (1/GPa) = 0.01375736
#
# Stress axis : x y z
#
# Youngs Moduli (GPa) = 58.15134 89.79903 86.12072
#
# Poissons Ratio (x) = 0.57057 0.45501
# Poissons Ratio (y) = 0.36949 0.12540
# Poissons Ratio (z) = 0.30724 0.13076
#
# Static dielectric constant tensor:
#      x y z
#    x 3.425350 0.000000 0.000000 
#    y 0.000000 3.651430 0.000000 
#    z 0.000000 0.000000 3.846280 
# 
# 
# High freq. dielectric constant tensor:
#      x y z
#    x 1.759480 0.000000 0.000000 
#    y 0.000000 1.769070 0.000000 
#    z 0.000000 0.000000 1.782530 
# 
# From -- ./inp_files/18045.got.cif
#   From: 2010.06.25/outbox.cif.g09.slc.cpg/sg52_10_cif.got.tgz:18045.got - 2010.06.26 19:32:48.
