data_PCOD8216680
_publ_section_title
;
Structure prediction by ZEFSAII (Michael W. Deem and Ramdas Pophale) SiO2 
 PCOD8216680
Probable space group: P N N A
;
_chemical_formula_sum "Si O2"
_cell_formula_units_Z 28
_cell_length_a 10.786799
_cell_length_b 13.767186
_cell_length_c 9.029558
_cell_angle_alpha 90.000000
_cell_angle_beta 90.000000
_cell_angle_gamma 90.000000
_cell_volume 1340.924291
_symmetry_space_group_name_H-M "P N N A"
_symmetry_group_IT_number 52
_symmetry_cell_setting 'orthorhombic'
loop_
_space_group_symop_operation_xyz
x,y,z
1/2-x,-y,z
x,1/2-y,1/2-z
1/2-x,1/2+y,1/2-z
-x,-y,-z
1/2+x,y,-z
-x,1/2+y,1/2+z
1/2+x,1/2-y,1/2+z
loop_
_atom_site_type_symbol
_atom_site_label
_atom_site_fract_x
_atom_site_fract_y
_atom_site_fract_z
Si Si1 0.851348 0.250000 0.250000
Si Si2 0.679090 0.091196 0.379464
Si Si3 0.414175 0.746231 0.413893
Si Si4 0.119130 0.050705 0.928584
O O1 0.773871 0.155109 0.283828
O O2 0.938158 0.270298 0.393874
O O3 0.608012 0.150850 0.504780
O O4 0.589246 0.051692 0.248484
O O5 0.750000 0.000000 0.455339
O O6 0.350495 0.750000 0.250000
O O7 0.360534 0.660212 0.512304
O O8 0.250000 0.000000 0.965135
O O9 0.000000 0.000000 0.000000
#
# Coordination Sequence:
#
# PCOD8216680 Si02
#       4
#     4   8   8   8
#     4  10  22  44  64  94 142 166 242 276 350 408
#     4  11  22  43  70  91 136 185 218 290 352 403
#     4  10  23  41  63  97 130 176 227 286 332 419
#     4  11  23  43  68 100 134 182 231 280 349 417
#
# _framework density 20.881118000000001
#
# number of rings (size 3 to 8) (size 9 to 14) (size 15 to 20)
#    0.857    0.571    2.857    3.429    0.000    2.286 
#    5.143    0.000    0.000    0.000    0.000    0.000 
#    0.000    0.000    0.000    0.000    0.000    0.000 
#
# Total GULP energy -346980.139332 kJ/mol
# GULP energy per Si atom -12392.147833 kJ/mol
# Density = 2.083359 g / cm^3
# Si number density = 20.881118 Si / 1000 Ang^3
#
#
#
# Elastic Constant Matrix: (Units=GPa)
#
#
# Indices 1 2 3 4 5 6 
#
# 1 92.0759 21.2887 32.1180 0.0000 0.0000 0.0000
# 2 21.2887 94.8272 17.4253 0.0000 0.0000 0.0000
# 3 32.1180 17.4253 106.0318 0.0000 0.0000 0.0000
# 4 0.0000 0.0000 0.0000 43.7783 0.0000 0.0000
# 5 0.0000 0.0000 0.0000 0.0000 25.9903 0.0000
# 6 0.0000 0.0000 0.0000 0.0000 0.0000 25.4493
#
#
#
# Elastic Compliance Matrix: (Units=1/GPa)
#
#
# Indices 1 2 3 4 5 6 
#
# 1 0.012569 -0.002188 -0.003448 0.000000 0.000000 0.000000
# 2 -0.002188 0.011255 -0.001187 0.000000 0.000000 0.000000
# 3 -0.003448 -0.001187 0.010671 0.000000 0.000000 0.000000
# 4 0.000000 0.000000 0.000000 0.022842 0.000000 0.000000
# 5 0.000000 0.000000 0.000000 0.000000 0.038476 0.000000
# 6 0.000000 0.000000 0.000000 0.000000 0.000000 0.039294
#
#
# Mechanical properties :
#
#
# Convention : Reuss Voigt Hill
#
# Bulk Modulus (GPa) = 47.96374 48.28875 48.12624
# Shear Modulus (GPa) = 32.11267 33.85044 32.98156
#
# Velocity S-wave (km/s) = 3.92584 4.03066 3.97859
# Velocity P-wave (km/s) = 6.60071 6.69607 6.64856
#
# Compressibility (1/GPa) = 0.02084908
#
# Stress axis : x y z
#
# Youngs Moduli (GPa) = 79.55973 88.85071 93.71629
#
# Poissons Ratio (x) = 0.19443 0.32311
# Poissons Ratio (y) = 0.17410 0.11122
# Poissons Ratio (z) = 0.27430 0.10545
#
# Static dielectric constant tensor:
#      x y z
#    x 3.571760 0.000000 0.000000 
#    y 0.000000 3.923530 0.000000 
#    z 0.000000 0.000000 3.774020 
# 
# 
# High freq. dielectric constant tensor:
#      x y z
#    x 1.798570 0.000000 0.000000 
#    y 0.000000 1.839880 0.000000 
#    z 0.000000 0.000000 1.812520 
# 
# From -- ./inp_files/8149.got.cif
#   From: 2010.06.25/outbox.cif.g09.slc.cpg/sg52_5_cif.got.tgz:8149.got - 2010.06.26 19:32:48.
