data_PCOD8216966
_publ_section_title
;
Structure prediction by ZEFSAII (Michael W. Deem and Ramdas Pophale) SiO2 
 PCOD8216966
Probable space group: P N N A
;
_chemical_formula_sum "Si O2"
_cell_formula_units_Z 36
_cell_length_a 5.393346
_cell_length_b 13.851680
_cell_length_c 23.179502
_cell_angle_alpha 90.000000
_cell_angle_beta 90.000000
_cell_angle_gamma 90.000000
_cell_volume 1731.668806
_symmetry_space_group_name_H-M "P N N A"
_symmetry_group_IT_number 52
_symmetry_cell_setting 'orthorhombic'
loop_
_space_group_symop_operation_xyz
x,y,z
1/2-x,-y,z
x,1/2-y,1/2-z
1/2-x,1/2+y,1/2-z
-x,-y,-z
1/2+x,y,-z
-x,1/2+y,1/2+z
1/2+x,1/2-y,1/2+z
loop_
_atom_site_type_symbol
_atom_site_label
_atom_site_fract_x
_atom_site_fract_y
_atom_site_fract_z
Si Si1 0.243966 0.610161 0.535755
Si Si2 0.957991 0.750000 0.250000
Si Si3 0.835615 0.899574 0.782461
Si Si4 0.506178 0.557868 0.163251
Si Si5 0.879026 0.262456 0.359627
O O1 0.250000 0.500000 0.559454
O O2 0.486995 0.629094 0.497559
O O3 0.258200 0.688335 0.586751
O O4 0.809894 0.755034 0.308522
O O5 0.116801 0.847340 0.251973
O O6 0.038352 0.917968 0.731988
O O7 0.915138 0.836447 0.836737
O O8 0.750000 0.000000 0.810310
O O9 0.250000 0.500000 0.151452
O O10 0.499274 0.658114 0.126239
O O11 0.750000 0.500000 0.142926
#
# Coordination Sequence:
#
# PCOD8216966 Si02
#       5
#     8   4   8   8   8
#     4  10  26  47  69  98 132 178 235 284 337 399
#     4  12  22  40  58 102 136 176 226 270 340 430
#     4  11  24  35  57  93 140 177 217 266 333 416
#     4  11  23  40  61  92 136 174 210 268 332 407
#     4  12  24  40  67  95 136 181 224 285 339 409
#
# _framework density 20.789196
#
# number of rings (size 3 to 8) (size 9 to 14) (size 15 to 20)
#    0.000    0.889    4.444    2.667    6.222    0.889 
#    0.000    0.000    0.000    4.000    0.000    0.000 
#    0.000    0.000    0.000    0.000    0.000    0.000 
#
# Total GULP energy -446296.517428 kJ/mol
# GULP energy per Si atom -12397.125484 kJ/mol
# Density = 2.074188 g / cm^3
# Si number density = 20.789196 Si / 1000 Ang^3
#
#
#
# Elastic Constant Matrix: (Units=GPa)
#
#
# Indices 1 2 3 4 5 6 
#
# 1 129.0935 64.3641 40.4462 0.0000 0.0000 0.0000
# 2 64.3641 187.4491 53.6987 0.0000 0.0000 0.0000
# 3 40.4462 53.6987 79.2873 0.0000 0.0000 0.0000
# 4 0.0000 0.0000 0.0000 27.0875 0.0000 0.0000
# 5 0.0000 0.0000 0.0000 0.0000 1.2445 0.0000
# 6 0.0000 0.0000 0.0000 0.0000 0.0000 59.2868
#
#
#
# Elastic Compliance Matrix: (Units=1/GPa)
#
#
# Indices 1 2 3 4 5 6 
#
# 1 0.010059 -0.002462 -0.003464 0.000000 0.000000 0.000000
# 2 -0.002462 0.007221 -0.003635 0.000000 0.000000 0.000000
# 3 -0.003464 -0.003635 0.016841 0.000000 0.000000 0.000000
# 4 0.000000 0.000000 0.000000 0.036917 0.000000 0.000000
# 5 0.000000 0.000000 0.000000 0.000000 0.803548 0.000000
# 6 0.000000 0.000000 0.000000 0.000000 0.000000 0.016867
#
#
# Mechanical properties :
#
#
# Convention : Reuss Voigt Hill
#
# Bulk Modulus (GPa) = 66.66610 79.20531 72.93570
# Shear Modulus (GPa) = 5.46104 33.34514 19.40309
#
# Velocity S-wave (km/s) = 1.62252 4.00930 3.05835
# Velocity P-wave (km/s) = 5.97054 7.72105 6.90152
#
# Compressibility (1/GPa) = 0.01500013
#
# Stress axis : x y z
#
# Youngs Moduli (GPa) = 99.41370 138.47837 59.37736
#
# Poissons Ratio (x) = 0.34087 0.20569
# Poissons Ratio (y) = 0.24471 0.21584
# Poissons Ratio (z) = 0.34439 0.50338
#
# Static dielectric constant tensor:
#      x y z
#    x 3.889340 0.000000 0.000000 
#    y 0.000000 4.370020 0.000000 
#    z 0.000000 0.000000 3.230980 
# 
# 
# High freq. dielectric constant tensor:
#      x y z
#    x 1.825250 0.000000 0.000000 
#    y 0.000000 1.840580 0.000000 
#    z 0.000000 0.000000 1.758300 
# 
# From -- ./inp_files/34938.got.cif
#   From: 2010.06.25/outbox.cif.g09.slc.cpg/sg52_18_cif.got.tgz:34938.got - 2010.06.26 19:32:48.
