data_PCOD8216900
_publ_section_title
;
Structure prediction by ZEFSAII (Michael W. Deem and Ramdas Pophale) SiO2 
 PCOD8216900
Probable space group: P N N A
;
_chemical_formula_sum "Si O2"
_cell_formula_units_Z 40
_cell_length_a 14.386116
_cell_length_b 5.179151
_cell_length_c 24.498674
_cell_angle_alpha 90.000000
_cell_angle_beta 90.000000
_cell_angle_gamma 90.000000
_cell_volume 1825.343946
_symmetry_space_group_name_H-M "P N N A"
_symmetry_group_IT_number 52
_symmetry_cell_setting 'orthorhombic'
loop_
_space_group_symop_operation_xyz
x,y,z
1/2-x,-y,z
x,1/2-y,1/2-z
1/2-x,1/2+y,1/2-z
-x,-y,-z
1/2+x,y,-z
-x,1/2+y,1/2+z
1/2+x,1/2-y,1/2+z
loop_
_atom_site_type_symbol
_atom_site_label
_atom_site_fract_x
_atom_site_fract_y
_atom_site_fract_z
Si Si1 0.931185 0.329989 0.080836
Si Si2 0.808814 0.750000 0.250000
Si Si3 0.601740 0.914713 0.623453
Si Si4 0.191096 0.755253 0.483286
Si Si5 0.250000 0.000000 0.287807
Si Si6 0.082416 0.322228 0.641541
O O1 0.880072 0.589412 0.102877
O O2 0.043267 0.362114 0.090189
O O3 0.891059 0.094450 0.115721
O O4 0.905400 0.267978 0.017925
O O5 0.750000 0.500000 0.233912
O O6 0.873795 0.677960 0.299653
O O7 0.668650 0.768465 0.580940
O O8 0.529279 0.707453 0.648168
O O9 0.660025 0.033068 0.673365
O O10 0.250000 0.500000 0.495663
O O11 0.250000 0.000000 0.502117
O O12 0.241440 0.750000 0.250000
#
# Coordination Sequence:
#
# PCOD8216900 Si02
#       6
#     8   4   8   8   4   8
#     4  10  24  44  70  99 141 182 233 283 351 427
#     4  12  26  44  68 100 138 180 228 298 354 416
#     4  10  27  46  73  98 146 180 240 284 357 419
#     4  12  26  42  71 106 146 184 233 290 357 415
#     4  12  30  46  76 104 140 184 242 298 350 416
#     4  10  25  42  71  96 135 183 235 282 349 417
#
# _framework density 21.913678999999998
#
# number of rings (size 3 to 8) (size 9 to 14) (size 15 to 20)
#    1.200    0.000    1.000    3.000    8.400    5.600 
#    0.000    0.000    0.000    0.000    0.000    0.000 
#    0.000    0.000    0.000    0.000    0.000    0.000 
#
# Total GULP energy -495826.084324 kJ/mol
# GULP energy per Si atom -12395.652108 kJ/mol
# Density = 2.186380 g / cm^3
# Si number density = 21.913679 Si / 1000 Ang^3
#
#
#
# Elastic Constant Matrix: (Units=GPa)
#
#
# Indices 1 2 3 4 5 6 
#
# 1 95.1089 39.1240 55.9980 0.0000 0.0000 0.0000
# 2 39.1240 156.7181 36.8527 0.0000 0.0000 0.0000
# 3 55.9980 36.8527 125.8505 0.0000 0.0000 0.0000
# 4 0.0000 0.0000 0.0000 19.0167 0.0000 0.0000
# 5 0.0000 0.0000 0.0000 0.0000 -112.7404 0.0000
# 6 0.0000 0.0000 0.0000 0.0000 0.0000 75.4974
#
#
#
# Elastic Compliance Matrix: (Units=1/GPa)
#
#
# Indices 1 2 3 4 5 6 
#
# 1 0.015003 -0.002337 -0.005992 0.000000 0.000000 0.000000
# 2 -0.002337 0.007217 -0.001074 0.000000 0.000000 0.000000
# 3 -0.005992 -0.001074 0.010926 0.000000 0.000000 0.000000
# 4 0.000000 0.000000 0.000000 0.052585 0.000000 0.000000
# 5 0.000000 0.000000 0.000000 0.000000 -0.008870 0.000000
# 6 0.000000 0.000000 0.000000 0.000000 0.000000 0.013245
#
#
# Mechanical properties :
#
#
# Convention : Reuss Voigt Hill
#
# Bulk Modulus (GPa) = 69.72171 71.29188 70.50680
# Shear Modulus (GPa) = 43.97879 12.73491 28.35685
#
# Velocity S-wave (km/s) = 4.48472 2.41330 3.60116
# Velocity P-wave (km/s) = 7.66176 6.35366 7.03816
#
# Compressibility (1/GPa) = 0.01434273
#
# Stress axis : x y z
#
# Youngs Moduli (GPa) = 66.65288 138.56849 91.52239
#
# Poissons Ratio (x) = 0.32377 0.54836
# Poissons Ratio (y) = 0.15574 0.09826
# Poissons Ratio (z) = 0.39935 0.14877
#
# Static dielectric constant tensor:
#      x y z
#    x 3.917730 0.000000 0.000000 
#    y 0.000000 3.941070 0.000000 
#    z 0.000000 0.000000 3.926120 
# 
# 
# High freq. dielectric constant tensor:
#      x y z
#    x 1.855630 0.000000 0.000000 
#    y 0.000000 1.865130 0.000000 
#    z 0.000000 0.000000 1.863820 
# 
# From -- ./inp_files/40530.got.cif
#   From: 2010.06.25/outbox.cif.g09.slc.cpg/sg52_21_cif.got.tgz:40530.got - 2010.06.26 19:32:48.
