data_PCOD8216872
_publ_section_title
;
Structure prediction by ZEFSAII (Michael W. Deem and Ramdas Pophale) SiO2 
 PCOD8216872
Probable space group: P N N A
;
_chemical_formula_sum "Si O2"
_cell_formula_units_Z 40
_cell_length_a 15.790696
_cell_length_b 16.373292
_cell_length_c 7.386481
_cell_angle_alpha 90.000000
_cell_angle_beta 90.000000
_cell_angle_gamma 90.000000
_cell_volume 1909.742727
_symmetry_space_group_name_H-M "P N N A"
_symmetry_group_IT_number 52
_symmetry_cell_setting 'orthorhombic'
loop_
_space_group_symop_operation_xyz
x,y,z
1/2-x,-y,z
x,1/2-y,1/2-z
1/2-x,1/2+y,1/2-z
-x,-y,-z
1/2+x,y,-z
-x,1/2+y,1/2+z
1/2+x,1/2-y,1/2+z
loop_
_atom_site_type_symbol
_atom_site_label
_atom_site_fract_x
_atom_site_fract_y
_atom_site_fract_z
Si Si1 0.989411 0.250000 0.750000
Si Si2 0.702195 0.081983 0.752691
Si Si3 0.404495 0.511370 0.939277
Si Si4 0.345811 0.159802 0.448748
Si Si5 0.260530 0.250000 0.750000
Si Si6 0.876267 0.630313 0.376893
O O1 0.934227 0.185311 0.639281
O O2 0.047732 0.304012 0.617247
O O3 0.773488 0.149520 0.705189
O O4 0.750000 0.000000 0.811058
O O5 0.642112 0.071637 0.578838
O O6 0.642353 0.108609 0.916432
O O7 0.400611 0.549716 0.738276
O O8 0.500000 0.500000 0.000000
O O9 0.357031 0.424278 0.939640
O O10 0.319861 0.233137 0.579304
O O11 0.205828 0.330614 0.715518
#
# Coordination Sequence:
#
# PCOD8216872 Si02
#       6
#     4   8   8   8   4   8
#     4  11  24  44  62  99 142 170 226 283 338 408
#     4  10  24  42  70  96 129 175 227 277 322 403
#     4  11  23  45  68  96 137 173 223 284 333 402
#     4  11  23  44  67 101 136 176 229 286 335 407
#     4  11  24  40  70  97 130 178 216 281 338 398
#     4  11  24  44  67  95 133 179 223 271 347 401
#
# _framework density 20.945229999999999
#
# number of rings (size 3 to 8) (size 9 to 14) (size 15 to 20)
#    0.000    1.200    4.000    1.200    2.800    2.400 
#    0.000    0.000    0.000    0.000    0.000    0.000 
#    0.000    0.000    0.000    0.000    0.000    0.000 
#
# Total GULP energy -496197.711141 kJ/mol
# GULP energy per Si atom -12404.942779 kJ/mol
# Density = 2.089756 g / cm^3
# Si number density = 20.945230 Si / 1000 Ang^3
#
#
#
# Elastic Constant Matrix: (Units=GPa)
#
#
# Indices 1 2 3 4 5 6 
#
# 1 128.0034 39.3550 55.9412 0.0000 0.0000 0.0000
# 2 39.3550 93.0696 54.7361 0.0000 0.0000 0.0000
# 3 55.9412 54.7361 118.6415 0.0000 0.0000 0.0000
# 4 0.0000 0.0000 0.0000 35.3269 0.0000 0.0000
# 5 0.0000 0.0000 0.0000 0.0000 33.6216 0.0000
# 6 0.0000 0.0000 0.0000 0.0000 0.0000 34.2328
#
#
#
# Elastic Compliance Matrix: (Units=1/GPa)
#
#
# Indices 1 2 3 4 5 6 
#
# 1 0.010109 -0.002019 -0.003835 0.000000 0.000000 0.000000
# 2 -0.002019 0.015149 -0.006037 0.000000 0.000000 0.000000
# 3 -0.003835 -0.006037 0.013022 0.000000 0.000000 0.000000
# 4 0.000000 0.000000 0.000000 0.028307 0.000000 0.000000
# 5 0.000000 0.000000 0.000000 0.000000 0.029743 0.000000
# 6 0.000000 0.000000 0.000000 0.000000 0.000000 0.029212
#
#
# Mechanical properties :
#
#
# Convention : Reuss Voigt Hill
#
# Bulk Modulus (GPa) = 68.97577 71.08654 70.03115
# Shear Modulus (GPa) = 32.43447 33.28174 32.85810
#
# Velocity S-wave (km/s) = 3.93941 3.99054 3.96506
# Velocity P-wave (km/s) = 7.32769 7.43273 7.38039
#
# Compressibility (1/GPa) = 0.01449785
#
# Stress axis : x y z
#
# Youngs Moduli (GPa) = 98.92053 66.01108 76.79187
#
# Poissons Ratio (x) = 0.13329 0.29450
# Poissons Ratio (y) = 0.19975 0.46359
# Poissons Ratio (z) = 0.37936 0.39851
#
# Static dielectric constant tensor:
#      x y z
#    x 3.916210 0.000000 0.000000 
#    y 0.000000 3.790120 0.000000 
#    z 0.000000 0.000000 3.599780 
# 
# 
# High freq. dielectric constant tensor:
#      x y z
#    x 1.836240 0.000000 0.000000 
#    y 0.000000 1.826370 0.000000 
#    z 0.000000 0.000000 1.806930 
# 
# From -- ./inp_files/3260.got.cif
#   From: 2010.06.25/outbox.cif.g09.slc.cpg/sg52_2_cif.got.tgz:3260.got - 2010.06.26 19:32:48.
