data_PCOD8216471
_publ_section_title
;
Structure prediction by ZEFSAII (Michael W. Deem and Ramdas Pophale) SiO2 
 PCOD8216471
Probable space group: P N N A
;
_chemical_formula_sum "Si O2"
_cell_formula_units_Z 32
_cell_length_a 17.037204
_cell_length_b 9.997157
_cell_length_c 8.467226
_cell_angle_alpha 90.000000
_cell_angle_beta 90.000000
_cell_angle_gamma 90.000000
_cell_volume 1442.168442
_symmetry_space_group_name_H-M "P N N A"
_symmetry_group_IT_number 52
_symmetry_cell_setting 'orthorhombic'
loop_
_space_group_symop_operation_xyz
x,y,z
1/2-x,-y,z
x,1/2-y,1/2-z
1/2-x,1/2+y,1/2-z
-x,-y,-z
1/2+x,y,-z
-x,1/2+y,1/2+z
1/2+x,1/2-y,1/2+z
loop_
_atom_site_type_symbol
_atom_site_label
_atom_site_fract_x
_atom_site_fract_y
_atom_site_fract_z
Si Si1 0.351456 0.830928 0.525302
Si Si2 0.297384 0.180839 0.037557
Si Si3 0.478391 0.750000 0.750000
Si Si4 0.250000 0.000000 0.768377
Si Si5 0.881474 0.419372 0.827101
O O1 0.292605 0.728310 0.442050
O O2 0.423995 0.746379 0.594412
O O3 0.307016 0.909120 0.664940
O O4 0.385076 0.933504 0.396931
O O5 0.355016 0.310855 0.038344
O O6 0.317674 0.086822 0.186502
O O7 0.304822 0.096279 0.876320
O O8 0.532903 0.617804 0.757998
#
# Coordination Sequence:
#
# PCOD8216471 Si02
#       5
#     8   8   4   4   8
#     4  12  21  41  68  96 130 181 217 279 322 391
#     4  10  22  38  61  96 127 170 220 270 322 386
#     4  10  22  42  64 102 134 178 218 268 340 390
#     4  12  22  34  66  98 126 164 232 276 320 380
#     4  10  24  41  65  94 139 173 218 277 328 395
#
# _framework density 22.188808000000002
#
# number of rings (size 3 to 8) (size 9 to 14) (size 15 to 20)
#    0.000    1.500    5.000    0.750    7.000    0.000 
#    0.000    5.000    0.000    6.000    0.000    0.000 
#    0.000    0.000    0.000    0.000    0.000    0.000 
#
# Total GULP energy -396728.942125 kJ/mol
# GULP energy per Si atom -12397.779441 kJ/mol
# Density = 2.213831 g / cm^3
# Si number density = 22.188808 Si / 1000 Ang^3
#
#
#
# Elastic Constant Matrix: (Units=GPa)
#
#
# Indices 1 2 3 4 5 6 
#
# 1 155.5815 45.7192 58.0687 0.0000 0.0000 0.0000
# 2 45.7192 71.0569 38.5593 0.0000 0.0000 0.0000
# 3 58.0687 38.5593 99.9967 0.0000 0.0000 0.0000
# 4 0.0000 0.0000 0.0000 48.1873 0.0000 0.0000
# 5 0.0000 0.0000 0.0000 0.0000 38.4908 0.0000
# 6 0.0000 0.0000 0.0000 0.0000 0.0000 18.8314
#
#
#
# Elastic Compliance Matrix: (Units=1/GPa)
#
#
# Indices 1 2 3 4 5 6 
#
# 1 0.008915 -0.003701 -0.003750 0.000000 0.000000 0.000000
# 2 -0.003701 0.019334 -0.005306 0.000000 0.000000 0.000000
# 3 -0.003750 -0.005306 0.014224 0.000000 0.000000 0.000000
# 4 0.000000 0.000000 0.000000 0.020752 0.000000 0.000000
# 5 0.000000 0.000000 0.000000 0.000000 0.025980 0.000000
# 6 0.000000 0.000000 0.000000 0.000000 0.000000 0.053103
#
#
# Mechanical properties :
#
#
# Convention : Reuss Voigt Hill
#
# Bulk Modulus (GPa) = 58.96617 67.92548 63.44583
# Shear Modulus (GPa) = 28.82279 33.38777 31.10528
#
# Velocity S-wave (km/s) = 3.60804 3.88327 3.74818
# Velocity P-wave (km/s) = 6.63248 7.12638 6.88386
#
# Compressibility (1/GPa) = 0.01695888
#
# Stress axis : x y z
#
# Youngs Moduli (GPa) = 112.17576 51.72263 70.30484
#
# Poissons Ratio (x) = 0.19143 0.26361
# Poissons Ratio (y) = 0.41517 0.37304
# Poissons Ratio (z) = 0.42061 0.27444
#
# Static dielectric constant tensor:
#      x y z
#    x 4.057140 0.000000 0.000000 
#    y 0.000000 4.047220 0.000000 
#    z 0.000000 0.000000 4.057220 
# 
# 
# High freq. dielectric constant tensor:
#      x y z
#    x 1.860950 0.000000 0.000000 
#    y 0.000000 1.872060 0.000000 
#    z 0.000000 0.000000 1.869020 
# 
# From -- ./inp_files/9636.got.cif
#   From: 2010.06.25/outbox.cif.g09.slc.cpg/sg52_5_cif.got.tgz:9636.got - 2010.06.26 19:32:48.
