data_PCOD8216549
_publ_section_title
;
Structure prediction by ZEFSAII (Michael W. Deem and Ramdas Pophale) SiO2 
 PCOD8216549
Probable space group: P N N A
;
_chemical_formula_sum "Si O2"
_cell_formula_units_Z 44
_cell_length_a 19.964008
_cell_length_b 9.114116
_cell_length_c 11.489931
_cell_angle_alpha 90.000000
_cell_angle_beta 90.000000
_cell_angle_gamma 90.000000
_cell_volume 2090.642177
_symmetry_space_group_name_H-M "P N N A"
_symmetry_group_IT_number 52
_symmetry_cell_setting 'orthorhombic'
loop_
_space_group_symop_operation_xyz
x,y,z
1/2-x,-y,z
x,1/2-y,1/2-z
1/2-x,1/2+y,1/2-z
-x,-y,-z
1/2+x,y,-z
-x,1/2+y,1/2+z
1/2+x,1/2-y,1/2+z
loop_
_atom_site_type_symbol
_atom_site_label
_atom_site_fract_x
_atom_site_fract_y
_atom_site_fract_z
Si Si1 0.771315 0.342774 0.859818
Si Si2 0.495905 0.250000 0.250000
Si Si3 0.840598 0.398210 0.368413
Si Si4 0.700526 0.211830 0.065630
Si Si5 0.908962 0.184791 0.523790
Si Si6 0.100367 0.041977 0.659171
O O1 0.750000 0.500000 0.812985
O O2 0.792305 0.250000 0.750000
O O3 0.835971 0.365290 0.937522
O O4 0.712486 0.263863 0.932893
O O5 0.453414 0.242313 0.368939
O O6 0.542469 0.105798 0.256603
O O7 0.772030 0.304267 0.369691
O O8 0.834293 0.553757 0.434872
O O9 0.901704 0.319677 0.434924
O O10 0.859299 0.419847 0.232920
O O11 0.652650 0.329547 0.127604
O O12 0.933915 0.039583 0.452334
#
# Coordination Sequence:
#
# PCOD8216549 Si02
#       6
#     8   4   8   8   8   8
#     4  11  23  39  66  97 135 172 217 275 345 405
#     4  12  26  46  68  88 142 184 234 266 324 414
#     4  10  23  40  68 101 133 163 222 282 346 399
#     4  10  22  40  66 102 134 166 216 282 351 402
#     4  11  25  43  69  96 130 181 225 279 328 405
#     4  12  23  46  66  98 133 182 221 279 339 406
#
# _framework density 21.046164000000001
#
# number of rings (size 3 to 8) (size 9 to 14) (size 15 to 20)
#    0.000    1.091    4.545    1.091    5.091   10.909 
#    0.000    0.000    0.000    0.000    0.000    0.000 
#    0.000    0.000    0.000    0.000    0.000    0.000 
#
# Total GULP energy -545362.301510 kJ/mol
# GULP energy per Si atom -12394.597762 kJ/mol
# Density = 2.099826 g / cm^3
# Si number density = 21.046164 Si / 1000 Ang^3
#
#
#
# Elastic Constant Matrix: (Units=GPa)
#
#
# Indices 1 2 3 4 5 6 
#
# 1 78.0291 47.9925 39.8458 0.0000 0.0000 0.0000
# 2 47.9925 111.7935 69.8399 0.0000 0.0000 0.0000
# 3 39.8458 69.8399 106.7734 0.0000 0.0000 0.0000
# 4 0.0000 0.0000 0.0000 43.3874 0.0000 0.0000
# 5 0.0000 0.0000 0.0000 0.0000 32.8351 0.0000
# 6 0.0000 0.0000 0.0000 0.0000 0.0000 19.8524
#
#
#
# Elastic Compliance Matrix: (Units=1/GPa)
#
#
# Indices 1 2 3 4 5 6 
#
# 1 0.017894 -0.005935 -0.002795 0.000000 0.000000 0.000000
# 2 -0.005935 0.017095 -0.008967 0.000000 0.000000 0.000000
# 3 -0.002795 -0.008967 0.016274 0.000000 0.000000 0.000000
# 4 0.000000 0.000000 0.000000 0.023048 0.000000 0.000000
# 5 0.000000 0.000000 0.000000 0.000000 0.030455 0.000000
# 6 0.000000 0.000000 0.000000 0.000000 0.000000 0.050372
#
#
# Mechanical properties :
#
#
# Convention : Reuss Voigt Hill
#
# Bulk Modulus (GPa) = 63.02117 67.99471 65.50794
# Shear Modulus (GPa) = 25.53347 28.47616 27.00481
#
# Velocity S-wave (km/s) = 3.48690 3.68235 3.58596
# Velocity P-wave (km/s) = 6.79857 7.10332 6.95261
#
# Compressibility (1/GPa) = 0.01586768
#
# Stress axis : x y z
#
# Youngs Moduli (GPa) = 55.88525 58.49747 61.44862
#
# Poissons Ratio (x) = 0.34721 0.17177
# Poissons Ratio (y) = 0.33170 0.55098
# Poissons Ratio (z) = 0.15621 0.52452
#
# Static dielectric constant tensor:
#      x y z
#    x 3.728920 0.000000 0.000000 
#    y 0.000000 3.990020 0.000000 
#    z 0.000000 0.000000 3.847940 
# 
# 
# High freq. dielectric constant tensor:
#      x y z
#    x 1.805000 0.000000 0.000000 
#    y 0.000000 1.839870 0.000000 
#    z 0.000000 0.000000 1.829430 
# 
# From -- ./inp_files/22226.got.cif
#   From: 2010.06.25/outbox.cif.g09.slc.cpg/sg52_12_cif.got.tgz:22226.got - 2010.06.26 19:32:48.
