data_PCOD8216931
_publ_section_title
;
Structure prediction by ZEFSAII (Michael W. Deem and Ramdas Pophale) SiO2 
 PCOD8216931
Probable space group: P N N A
;
_chemical_formula_sum "Si O2"
_cell_formula_units_Z 60
_cell_length_a 26.055367
_cell_length_b 8.662660
_cell_length_c 11.786208
_cell_angle_alpha 90.000000
_cell_angle_beta 90.000000
_cell_angle_gamma 90.000000
_cell_volume 2660.250693
_symmetry_space_group_name_H-M "P N N A"
_symmetry_group_IT_number 52
_symmetry_cell_setting 'orthorhombic'
loop_
_space_group_symop_operation_xyz
x,y,z
1/2-x,-y,z
x,1/2-y,1/2-z
1/2-x,1/2+y,1/2-z
-x,-y,-z
1/2+x,y,-z
-x,1/2+y,1/2+z
1/2+x,1/2-y,1/2+z
loop_
_atom_site_type_symbol
_atom_site_label
_atom_site_fract_x
_atom_site_fract_y
_atom_site_fract_z
Si Si1 0.611360 0.071600 0.047259
Si Si2 0.206821 0.878311 0.656188
Si Si3 0.065970 0.411262 0.308817
Si Si4 0.853554 0.459886 0.838185
Si Si5 0.689191 0.680012 0.549367
Si Si6 0.538459 0.429533 0.249044
Si Si7 0.881398 0.584907 0.071349
Si Si8 0.250000 0.500000 0.274966
O O1 0.578704 0.013509 0.154685
O O2 0.634766 0.236017 0.086474
O O3 0.570716 0.097058 0.944765
O O4 0.658239 0.957200 0.014253
O O5 0.198399 0.750000 0.750000
O O6 0.219126 0.788540 0.539638
O O7 0.250000 0.000000 0.690562
O O8 0.155904 0.977195 0.642973
O O9 0.078875 0.250000 0.250000
O O10 0.109991 0.532064 0.271035
O O11 0.010939 0.465716 0.265929
O O12 0.850124 0.282707 0.877563
O O13 0.798559 0.537783 0.805569
O O14 0.880720 0.555049 0.937883
O O15 0.733241 0.635059 0.638821
O O16 0.522978 0.250000 0.250000
O O17 0.562811 0.454630 0.124057
#
# Coordination Sequence:
#
# PCOD8216931 Si02
#       8
#     8   8   8   8   8   8   8   4
#     4  11  23  45  72 104 138 185 240 299 356 434
#     4  11  27  45  72 105 143 190 245 297 358 427
#     4  12  25  43  69 105 142 184 238 295 364 428
#     4  11  26  45  67 104 140 185 238 291 357 433
#     4  11  27  43  71 103 141 193 234 293 370 423
#     4  10  25  45  71  99 137 183 237 296 365 429
#     4  10  24  48  70  99 140 185 236 300 355 432
#     4  12  26  42  72 102 146 184 238 288 368 424
#
# _framework density 22.554265000000001
#
# number of rings (size 3 to 8) (size 9 to 14) (size 15 to 20)
#    0.000    1.067    2.667    1.600    8.400    6.933 
#    0.000    0.000    0.000    0.000    0.000    0.000 
#    0.000    0.000    0.000    0.000    0.000    0.000 
#
# Total GULP energy -743790.774462 kJ/mol
# GULP energy per Si atom -12396.512908 kJ/mol
# Density = 2.250293 g / cm^3
# Si number density = 22.554265 Si / 1000 Ang^3
#
#
#
# Elastic Constant Matrix: (Units=GPa)
#
#
# Indices 1 2 3 4 5 6 
#
# 1 88.5691 36.6873 56.3759 0.0000 0.0000 0.0000
# 2 36.6873 105.8004 42.6474 0.0000 0.0000 0.0000
# 3 56.3759 42.6474 125.9186 0.0000 0.0000 0.0000
# 4 0.0000 0.0000 0.0000 23.5409 0.0000 0.0000
# 5 0.0000 0.0000 0.0000 0.0000 36.2560 0.0000
# 6 0.0000 0.0000 0.0000 0.0000 0.0000 29.7009
#
#
#
# Elastic Compliance Matrix: (Units=1/GPa)
#
#
# Indices 1 2 3 4 5 6 
#
# 1 0.016683 -0.003213 -0.006381 0.000000 0.000000 0.000000
# 2 -0.003213 0.011565 -0.002478 0.000000 0.000000 0.000000
# 3 -0.006381 -0.002478 0.011638 0.000000 0.000000 0.000000
# 4 0.000000 0.000000 0.000000 0.042479 0.000000 0.000000
# 5 0.000000 0.000000 0.000000 0.000000 0.027582 0.000000
# 6 0.000000 0.000000 0.000000 0.000000 0.000000 0.033669
#
#
# Mechanical properties :
#
#
# Convention : Reuss Voigt Hill
#
# Bulk Modulus (GPa) = 63.52791 65.74550 64.63671
# Shear Modulus (GPa) = 28.90039 30.20474 29.55256
#
# Velocity S-wave (km/s) = 3.58351 3.66348 3.62372
# Velocity P-wave (km/s) = 6.73423 6.86353 6.79919
#
# Compressibility (1/GPa) = 0.01574111
#
# Stress axis : x y z
#
# Youngs Moduli (GPa) = 59.94051 86.46854 85.92511
#
# Poissons Ratio (x) = 0.27781 0.54831
# Poissons Ratio (y) = 0.19258 0.21296
# Poissons Ratio (z) = 0.38249 0.21431
#
# Static dielectric constant tensor:
#      x y z
#    x 3.880390 0.000000 0.000000 
#    y 0.000000 4.462170 0.000000 
#    z 0.000000 0.000000 4.466590 
# 
# 
# High freq. dielectric constant tensor:
#      x y z
#    x 1.872360 0.000000 0.000000 
#    y 0.000000 1.896520 0.000000 
#    z 0.000000 0.000000 1.911930 
# 
# From -- ./inp_files/22913.got.cif
#   From: 2010.06.25/outbox.cif.g09.slc.cpg/sg52_12_cif.got.tgz:22913.got - 2010.06.26 19:32:48.
