data_PCOD8216688
_publ_section_title
;
Structure prediction by ZEFSAII (Michael W. Deem and Ramdas Pophale) SiO2 
 PCOD8216688
Probable space group: P N N A
;
_chemical_formula_sum "Si O2"
_cell_formula_units_Z 64
_cell_length_a 19.138310
_cell_length_b 9.810668
_cell_length_c 17.386170
_cell_angle_alpha 90.000000
_cell_angle_beta 90.000000
_cell_angle_gamma 90.000000
_cell_volume 3264.420420
_symmetry_space_group_name_H-M "P N N A"
_symmetry_group_IT_number 52
_symmetry_cell_setting 'orthorhombic'
loop_
_space_group_symop_operation_xyz
x,y,z
1/2-x,-y,z
x,1/2-y,1/2-z
1/2-x,1/2+y,1/2-z
-x,-y,-z
1/2+x,y,-z
-x,1/2+y,1/2+z
1/2+x,1/2-y,1/2+z
loop_
_atom_site_type_symbol
_atom_site_label
_atom_site_fract_x
_atom_site_fract_y
_atom_site_fract_z
Si Si1 0.448383 0.183664 0.832133
Si Si2 0.708184 0.631176 0.310933
Si Si3 0.009800 0.841616 0.519058
Si Si4 0.137113 0.281491 0.070396
Si Si5 0.830343 0.479206 0.823745
Si Si6 0.878085 0.271977 0.586344
Si Si7 0.407964 0.952694 0.171388
Si Si8 0.241884 0.843465 0.979560
O O1 0.462165 0.250000 0.750000
O O2 0.373776 0.105295 0.830964
O O3 0.451786 0.299837 0.899824
O O4 0.509188 0.070894 0.840200
O O5 0.750000 0.500000 0.278249
O O6 0.715963 0.750000 0.250000
O O7 0.745929 0.676246 0.388634
O O8 0.048214 0.781414 0.444644
O O9 0.934050 0.773846 0.522531
O O10 0.000000 0.000000 0.500000
O O11 0.152726 0.432046 0.101260
O O12 0.135456 0.177780 0.142096
O O13 0.195799 0.245963 0.010490
O O14 0.750000 0.500000 0.796419
O O15 0.844001 0.323137 0.847896
O O16 0.885528 0.522481 0.758910
O O17 0.886738 0.419403 0.621397
O O18 0.829145 0.281686 0.512193
O O19 0.250000 0.000000 0.004525
#
# Coordination Sequence:
#
# PCOD8216688 Si02
#       8
#     8   8   8   8   8   8   8   8
#     4  10  22  44  69  91 131 178 212 264 333 402
#     4  10  23  46  70  96 128 168 219 275 335 392
#     4  11  23  42  66  95 128 166 219 269 324 385
#     4  11  23  41  66  93 127 176 218 257 323 390
#     4  12  25  40  62  95 138 176 215 262 317 385
#     4  12  24  40  63  96 131 166 217 272 320 370
#     4  11  25  40  63  94 130 175 217 253 321 390
#     4  11  22  42  66  96 131 165 214 272 318 381
#
# _framework density 19.605318
#
# number of rings (size 3 to 8) (size 9 to 14) (size 15 to 20)
#    0.000    1.000    5.000    2.250    1.750    5.000 
#    6.750    1.250    0.000    0.000    0.000    0.000 
#    0.000    0.000    0.000    0.000    0.000    0.000 
#
# Total GULP energy -793601.027566 kJ/mol
# GULP energy per Si atom -12400.016056 kJ/mol
# Density = 1.956070 g / cm^3
# Si number density = 19.605318 Si / 1000 Ang^3
#
#
#
# Elastic Constant Matrix: (Units=GPa)
#
#
# Indices 1 2 3 4 5 6 
#
# 1 115.8127 41.6285 31.2776 0.0000 0.0000 0.0000
# 2 41.6285 87.3370 28.1319 0.0000 0.0000 0.0000
# 3 31.2776 28.1319 78.6156 0.0000 0.0000 0.0000
# 4 0.0000 0.0000 0.0000 50.3087 0.0000 0.0000
# 5 0.0000 0.0000 0.0000 0.0000 28.7193 0.0000
# 6 0.0000 0.0000 0.0000 0.0000 0.0000 32.8721
#
#
#
# Elastic Compliance Matrix: (Units=1/GPa)
#
#
# Indices 1 2 3 4 5 6 
#
# 1 0.010943 -0.004310 -0.002811 0.000000 0.000000 0.000000
# 2 -0.004310 0.014639 -0.003524 0.000000 0.000000 0.000000
# 3 -0.002811 -0.003524 0.015100 0.000000 0.000000 0.000000
# 4 0.000000 0.000000 0.000000 0.019877 0.000000 0.000000
# 5 0.000000 0.000000 0.000000 0.000000 0.034820 0.000000
# 6 0.000000 0.000000 0.000000 0.000000 0.000000 0.030421
#
#
# Mechanical properties :
#
#
# Convention : Reuss Voigt Hill
#
# Bulk Modulus (GPa) = 51.56956 53.76015 52.66485
# Shear Modulus (GPa) = 32.56161 34.42851 33.49506
#
# Velocity S-wave (km/s) = 4.07978 4.19511 4.13785
# Velocity P-wave (km/s) = 6.96806 7.13764 7.05336
#
# Compressibility (1/GPa) = 0.01939128
#
# Stress axis : x y z
#
# Youngs Moduli (GPa) = 91.38017 68.30858 66.22708
#
# Poissons Ratio (x) = 0.29444 0.18619
# Poissons Ratio (y) = 0.39389 0.23336
# Poissons Ratio (z) = 0.25690 0.24070
#
# Static dielectric constant tensor:
#      x y z
#    x 3.823210 0.000000 0.000000 
#    y 0.000000 3.652880 0.000000 
#    z 0.000000 0.000000 3.596440 
# 
# 
# High freq. dielectric constant tensor:
#      x y z
#    x 1.776260 0.000000 0.000000 
#    y 0.000000 1.762540 0.000000 
#    z 0.000000 0.000000 1.766670 
# 
# From -- ./inp_files/34119.got.cif
#   From: 2010.06.25/outbox.cif.g09.slc.cpg/sg52_18_cif.got.tgz:34119.got - 2010.06.26 19:32:48.
