data_PCOD8216135
_publ_section_title
;
Structure prediction by ZEFSAII (Michael W. Deem and Ramdas Pophale) SiO2 
 PCOD8216135
Probable space group: P N N A
;
_chemical_formula_sum "Si O2"
_cell_formula_units_Z 56
_cell_length_a 12.805972
_cell_length_b 19.979915
_cell_length_c 11.102356
_cell_angle_alpha 90.000000
_cell_angle_beta 90.000000
_cell_angle_gamma 90.000000
_cell_volume 2840.673587
_symmetry_space_group_name_H-M "P N N A"
_symmetry_group_IT_number 52
_symmetry_cell_setting 'orthorhombic'
loop_
_space_group_symop_operation_xyz
x,y,z
1/2-x,-y,z
x,1/2-y,1/2-z
1/2-x,1/2+y,1/2-z
-x,-y,-z
1/2+x,y,-z
-x,1/2+y,1/2+z
1/2+x,1/2-y,1/2+z
loop_
_atom_site_type_symbol
_atom_site_label
_atom_site_fract_x
_atom_site_fract_y
_atom_site_fract_z
Si Si1 0.273567 0.241172 0.385872
Si Si2 0.454328 0.744093 0.393079
Si Si3 0.066137 0.643128 0.038729
Si Si4 0.451739 0.592010 0.740712
Si Si5 0.416135 0.142990 0.030338
Si Si6 0.733216 0.578814 0.346611
Si Si7 0.138599 0.532534 0.872059
O O1 0.240308 0.250000 0.250000
O O2 0.319010 0.168332 0.420169
O O3 0.365153 0.293506 0.407351
O O4 0.162345 0.252035 0.451185
O O5 0.460615 0.750000 0.250000
O O6 0.518870 0.807140 0.441197
O O7 0.499617 0.672229 0.435964
O O8 0.990565 0.642032 0.155118
O O9 0.080794 0.568463 0.983379
O O10 0.534625 0.592838 0.630004
O O11 0.343048 0.616018 0.679898
O O12 0.438466 0.520304 0.806264
O O13 0.322679 0.104797 0.964854
O O14 0.750000 0.500000 0.364084
O O15 0.662319 0.589793 0.227772
O O16 0.250000 0.500000 0.913377
#
# Coordination Sequence:
#
# PCOD8216135 Si02
#       7
#     8   8   8   8   8   8   8
#     4  10  21  38  55  85 120 151 198 252 297 361
#     4  10  23  37  59  89 119 164 203 256 311 366
#     4  11  21  38  64  85 123 164 201 255 311 374
#     4  10  21  37  61  90 116 163 203 252 310 372
#     4  11  20  39  61  85 121 158 203 254 309 368
#     4   9  21  38  59  87 121 154 203 255 295 368
#     4   9  21  38  59  89 125 154 204 254 302 369
#
# _framework density 19.713633999999999
#
# number of rings (size 3 to 8) (size 9 to 14) (size 15 to 20)
#    0.000    2.286    1.429    2.143    4.000    2.286 
#    0.000    3.571    0.000    0.000    0.000    0.000 
#    0.000    0.000    0.000    0.000    0.000    0.000 
#
# Total GULP energy -693876.139968 kJ/mol
# GULP energy per Si atom -12390.645357 kJ/mol
# Density = 1.966877 g / cm^3
# Si number density = 19.713634 Si / 1000 Ang^3
#
#
#
# Elastic Constant Matrix: (Units=GPa)
#
#
# Indices 1 2 3 4 5 6 
#
# 1 115.7547 45.3221 58.1531 0.0000 0.0000 0.0000
# 2 45.3221 70.3053 40.7349 0.0000 0.0000 0.0000
# 3 58.1531 40.7349 111.3926 0.0000 0.0000 0.0000
# 4 0.0000 0.0000 0.0000 25.5298 0.0000 0.0000
# 5 0.0000 0.0000 0.0000 0.0000 7.5479 0.0000
# 6 0.0000 0.0000 0.0000 0.0000 0.0000 91.6993
#
#
#
# Elastic Compliance Matrix: (Units=1/GPa)
#
#
# Indices 1 2 3 4 5 6 
#
# 1 0.013342 -0.005793 -0.004847 0.000000 0.000000 0.000000
# 2 -0.005793 0.020562 -0.004495 0.000000 0.000000 0.000000
# 3 -0.004847 -0.004495 0.013152 0.000000 0.000000 0.000000
# 4 0.000000 0.000000 0.000000 0.039170 0.000000 0.000000
# 5 0.000000 0.000000 0.000000 0.000000 0.132488 0.000000
# 6 0.000000 0.000000 0.000000 0.000000 0.000000 0.010905
#
#
# Mechanical properties :
#
#
# Convention : Reuss Voigt Hill
#
# Bulk Modulus (GPa) = 59.57296 65.09699 62.33498
# Shear Modulus (GPa) = 18.83350 35.17157 27.00253
#
# Velocity S-wave (km/s) = 3.09423 4.22847 3.70501
# Velocity P-wave (km/s) = 6.56129 7.54539 7.07048
#
# Compressibility (1/GPa) = 0.01678614
#
# Stress axis : x y z
#
# Youngs Moduli (GPa) = 74.95135 48.63230 76.03650
#
# Poissons Ratio (x) = 0.28170 0.36855
# Poissons Ratio (y) = 0.43416 0.34182
# Poissons Ratio (z) = 0.36329 0.21862
#
# Static dielectric constant tensor:
#      x y z
#    x 3.780090 0.000000 0.000000 
#    y 0.000000 3.474440 0.000000 
#    z 0.000000 0.000000 3.680660 
# 
# 
# High freq. dielectric constant tensor:
#      x y z
#    x 1.778630 0.000000 0.000000 
#    y 0.000000 1.746480 0.000000 
#    z 0.000000 0.000000 1.771580 
# 
# From -- ./inp_files/18334.got.cif
#   From: 2010.06.25/outbox.cif.g09.slc.cpg/sg52_10_cif.got.tgz:18334.got - 2010.06.26 19:32:48.
