data_PCOD8216920
_publ_section_title
;
Structure prediction by ZEFSAII (Michael W. Deem and Ramdas Pophale) SiO2 
 PCOD8216920
Probable space group: P N N A
;
_chemical_formula_sum "Si O2"
_cell_formula_units_Z 32
_cell_length_a 10.070651
_cell_length_b 13.028717
_cell_length_c 8.766741
_cell_angle_alpha 90.000000
_cell_angle_beta 90.000000
_cell_angle_gamma 90.000000
_cell_volume 1150.263589
_symmetry_space_group_name_H-M "P N N A"
_symmetry_group_IT_number 52
_symmetry_cell_setting 'orthorhombic'
loop_
_space_group_symop_operation_xyz
x,y,z
1/2-x,-y,z
x,1/2-y,1/2-z
1/2-x,1/2+y,1/2-z
-x,-y,-z
1/2+x,y,-z
-x,1/2+y,1/2+z
1/2+x,1/2-y,1/2+z
loop_
_atom_site_type_symbol
_atom_site_label
_atom_site_fract_x
_atom_site_fract_y
_atom_site_fract_z
Si Si1 0.487752 0.877186 0.851388
Si Si2 0.217828 0.697107 0.548808
Si Si3 0.129793 0.384752 0.956880
Si Si4 0.436367 0.077793 0.706769
O O1 0.368782 0.844784 0.967106
O O2 0.459211 0.832595 0.679460
O O3 0.490885 0.002115 0.839800
O O4 0.630420 0.840578 0.908413
O O5 0.228909 0.822729 0.538716
O O6 0.160135 0.659557 0.711734
O O7 0.144461 0.506364 0.917140
O O8 0.056595 0.365961 0.118720
#
# Coordination Sequence:
#
# PCOD8216920 Si02
#       4
#     8   8   8   8
#     4  10  24  46  80 117 163 209 270 333 405 481
#     4  12  23  47  84 115 161 212 271 338 401 488
#     4   9  23  47  80 119 161 218 265 330 407 492
#     4   9  22  49  81 114 165 214 264 335 410 480
#
# _framework density 27.819710000000001
#
# number of rings (size 3 to 8) (size 9 to 14) (size 15 to 20)
#    1.500    0.500    0.000    2.250    0.000    4.000 
#    0.000   10.000   16.500    0.000    0.000    0.000 
#    0.000    0.000    0.000    0.000    0.000    0.000 
#
# Total GULP energy -396630.778553 kJ/mol
# GULP energy per Si atom -12394.711830 kJ/mol
# Density = 2.775639 g / cm^3
# Si number density = 27.819710 Si / 1000 Ang^3
#
#
#
# Elastic Constant Matrix: (Units=GPa)
#
#
# Indices 1 2 3 4 5 6 
#
# 1 149.1549 68.1896 68.6889 0.0000 0.0000 0.0000
# 2 68.1896 180.5264 48.5144 0.0000 0.0000 0.0000
# 3 68.6889 48.5144 89.1714 0.0000 0.0000 0.0000
# 4 0.0000 0.0000 0.0000 32.3758 0.0000 0.0000
# 5 0.0000 0.0000 0.0000 0.0000 54.2185 0.0000
# 6 0.0000 0.0000 0.0000 0.0000 0.0000 51.2460
#
#
#
# Elastic Compliance Matrix: (Units=1/GPa)
#
#
# Indices 1 2 3 4 5 6 
#
# 1 0.011101 -0.002220 -0.007344 0.000000 0.000000 0.000000
# 2 -0.002220 0.006932 -0.002061 0.000000 0.000000 0.000000
# 3 -0.007344 -0.002061 0.017993 0.000000 0.000000 0.000000
# 4 0.000000 0.000000 0.000000 0.030887 0.000000 0.000000
# 5 0.000000 0.000000 0.000000 0.000000 0.018444 0.000000
# 6 0.000000 0.000000 0.000000 0.000000 0.000000 0.019514
#
#
# Mechanical properties :
#
#
# Convention : Reuss Voigt Hill
#
# Bulk Modulus (GPa) = 78.27093 87.73760 83.00427
# Shear Modulus (GPa) = 37.77047 43.13202 40.45125
#
# Velocity S-wave (km/s) = 3.68868 3.94180 3.81734
# Velocity P-wave (km/s) = 6.80720 7.23349 7.02358
#
# Compressibility (1/GPa) = 0.01277614
#
# Stress axis : x y z
#
# Youngs Moduli (GPa) = 90.08139 144.26299 55.57823
#
# Poissons Ratio (x) = 0.32022 0.40814
# Poissons Ratio (y) = 0.19995 0.11457
# Poissons Ratio (z) = 0.66152 0.29739
#
# Static dielectric constant tensor:
#      x y z
#    x 4.755670 0.000000 0.000000 
#    y 0.000000 5.352920 0.000000 
#    z 0.000000 0.000000 4.622700 
# 
# 
# High freq. dielectric constant tensor:
#      x y z
#    x 2.108570 0.000000 0.000000 
#    y 0.000000 2.154730 0.000000 
#    z 0.000000 0.000000 2.105780 
# 
# From -- ./inp_files/8220.got.cif
#   From: 2010.06.25/outbox.cif.g09.slc.cpg/sg52_5_cif.got.tgz:8220.got - 2010.06.26 19:32:48.
