data_PCOD8216624
_publ_section_title
;
Structure prediction by ZEFSAII (Michael W. Deem and Ramdas Pophale) SiO2 
 PCOD8216624
Probable space group: P N N A
;
_chemical_formula_sum "Si O2"
_cell_formula_units_Z 36
_cell_length_a 22.971500
_cell_length_b 6.009246
_cell_length_c 11.101636
_cell_angle_alpha 90.000000
_cell_angle_beta 90.000000
_cell_angle_gamma 90.000000
_cell_volume 1532.485315
_symmetry_space_group_name_H-M "P N N A"
_symmetry_group_IT_number 52
_symmetry_cell_setting 'orthorhombic'
loop_
_space_group_symop_operation_xyz
x,y,z
1/2-x,-y,z
x,1/2-y,1/2-z
1/2-x,1/2+y,1/2-z
-x,-y,-z
1/2+x,y,-z
-x,1/2+y,1/2+z
1/2+x,1/2-y,1/2+z
loop_
_atom_site_type_symbol
_atom_site_label
_atom_site_fract_x
_atom_site_fract_y
_atom_site_fract_z
Si Si1 0.394553 0.250000 0.250000
Si Si2 0.198162 0.156193 0.880983
Si Si3 0.536601 0.382227 0.626775
Si Si4 0.631913 0.448467 0.955300
Si Si5 0.908875 0.338101 0.379237
O O1 0.434167 0.377178 0.348421
O O2 0.356672 0.435661 0.176318
O O3 0.216091 0.250000 0.750000
O O4 0.250000 0.000000 0.926643
O O5 0.136755 0.035484 0.868500
O O6 0.190279 0.338389 0.987925
O O7 0.527865 0.250000 0.750000
O O8 0.580192 0.234075 0.546123
O O9 0.471631 0.420243 0.566524
O O10 0.616569 0.639423 0.046288
O O11 0.924131 0.250000 0.250000
#
# Coordination Sequence:
#
# PCOD8216624 Si02
#       5
#     4   8   8   8   8
#     4  10  22  42  66 104 140 186 226 278 348 422
#     4  12  27  44  68 102 139 181 235 295 355 418
#     4   9  21  38  67 105 145 184 226 278 345 424
#     4  11  23  42  68 103 141 181 230 285 348 417
#     4  11  22  40  67 105 147 184 225 283 350 420
#
# _framework density 23.491254999999999
#
# number of rings (size 3 to 8) (size 9 to 14) (size 15 to 20)
#    0.000    1.333    2.222    2.667    1.556    5.333 
#    0.000    0.000    0.000    0.000  130.000    0.000 
#    0.000    0.000    0.000    0.000    0.000    0.000 
#
# Total GULP energy -446269.442048 kJ/mol
# GULP energy per Si atom -12396.373390 kJ/mol
# Density = 2.343779 g / cm^3
# Si number density = 23.491255 Si / 1000 Ang^3
#
#
#
# Elastic Constant Matrix: (Units=GPa)
#
#
# Indices 1 2 3 4 5 6 
#
# 1 93.7858 34.4561 50.8876 0.0000 0.0000 0.0000
# 2 34.4561 100.6700 34.7342 0.0000 0.0000 0.0000
# 3 50.8876 34.7342 86.3806 0.0000 0.0000 0.0000
# 4 0.0000 0.0000 0.0000 17.0969 0.0000 0.0000
# 5 0.0000 0.0000 0.0000 0.0000 21.0140 0.0000
# 6 0.0000 0.0000 0.0000 0.0000 0.0000 46.6321
#
#
#
# Elastic Compliance Matrix: (Units=1/GPa)
#
#
# Indices 1 2 3 4 5 6 
#
# 1 0.016247 -0.002622 -0.008517 0.000000 0.000000 0.000000
# 2 -0.002622 0.011957 -0.003263 0.000000 0.000000 0.000000
# 3 -0.008517 -0.003263 0.017906 0.000000 0.000000 0.000000
# 4 0.000000 0.000000 0.000000 0.058490 0.000000 0.000000
# 5 0.000000 0.000000 0.000000 0.000000 0.047587 0.000000
# 6 0.000000 0.000000 0.000000 0.000000 0.000000 0.021444
#
#
# Mechanical properties :
#
#
# Convention : Reuss Voigt Hill
#
# Bulk Modulus (GPa) = 57.78486 57.88804 57.83645
# Shear Modulus (GPa) = 24.01474 27.66583 25.84029
#
# Velocity S-wave (km/s) = 3.20079 3.43550 3.32022
# Velocity P-wave (km/s) = 6.18966 6.35867 6.27474
#
# Compressibility (1/GPa) = 0.01730557
#
# Stress axis : x y z
#
# Youngs Moduli (GPa) = 61.54880 83.63405 55.84654
#
# Poissons Ratio (x) = 0.21931 0.47564
# Poissons Ratio (y) = 0.16140 0.18223
# Poissons Ratio (z) = 0.52421 0.27291
#
# Static dielectric constant tensor:
#      x y z
#    x 4.065670 0.000000 0.000000 
#    y 0.000000 4.519540 0.000000 
#    z 0.000000 0.000000 4.676320 
# 
# 
# High freq. dielectric constant tensor:
#      x y z
#    x 1.906140 0.000000 0.000000 
#    y 0.000000 1.949240 0.000000 
#    z 0.000000 0.000000 1.956650 
# 
# From -- ./inp_files/22066.got.cif
#   From: 2010.06.25/outbox.cif.g09.slc.cpg/sg52_12_cif.got.tgz:22066.got - 2010.06.26 19:32:48.
