data_PCOD8216047
_publ_section_title
;
Structure prediction by ZEFSAII (Michael W. Deem and Ramdas Pophale) SiO2 
 PCOD8216047
Probable space group: P N N A
;
_chemical_formula_sum "Si O2"
_cell_formula_units_Z 60
_cell_length_a 15.268519
_cell_length_b 16.632014
_cell_length_c 11.368500
_cell_angle_alpha 90.000000
_cell_angle_beta 90.000000
_cell_angle_gamma 90.000000
_cell_volume 2886.987622
_symmetry_space_group_name_H-M "P N N A"
_symmetry_group_IT_number 52
_symmetry_cell_setting 'orthorhombic'
loop_
_space_group_symop_operation_xyz
x,y,z
1/2-x,-y,z
x,1/2-y,1/2-z
1/2-x,1/2+y,1/2-z
-x,-y,-z
1/2+x,y,-z
-x,1/2+y,1/2+z
1/2+x,1/2-y,1/2+z
loop_
_atom_site_type_symbol
_atom_site_label
_atom_site_fract_x
_atom_site_fract_y
_atom_site_fract_z
Si Si1 0.746611 0.250000 0.750000
Si Si2 0.001635 0.245994 0.050534
Si Si3 0.809234 0.928244 0.482442
Si Si4 0.192277 0.773826 0.498172
Si Si5 0.655712 0.034394 0.220294
Si Si6 0.899869 0.632464 0.801627
Si Si7 0.346067 0.794076 0.873263
Si Si8 0.489447 0.063087 0.892570
O O1 0.807897 0.252432 0.637091
O O2 0.689512 0.331023 0.751133
O O3 0.974377 0.153280 0.063563
O O4 0.036033 0.291953 0.167146
O O5 0.909768 0.288702 0.023003
O O6 0.080615 0.249828 0.954777
O O7 0.744606 0.853740 0.470195
O O8 0.854533 0.945492 0.357781
O O9 0.885617 0.916024 0.577670
O O10 0.750000 0.000000 0.528684
O O11 0.247509 0.707990 0.572528
O O12 0.631599 0.112172 0.142186
O O13 0.750000 0.000000 0.189804
O O14 0.591188 0.962962 0.187247
O O15 0.930399 0.570512 0.700178
O O16 0.346905 0.750000 0.750000
O O17 0.500000 0.000000 0.000000
#
# Coordination Sequence:
#
# PCOD8216047 Si02
#       8
#     4   8   8   8   8   8   8   8
#     4  10  20  46  66  90 134 172 220 278 332 402
#     4  12  24  43  71 102 131 179 239 273 347 419
#     4  10  23  46  65 101 133 174 226 282 345 404
#     4  11  24  41  69  97 128 178 230 275 335 416
#     4  11  24  42  66  95 139 173 222 287 344 400
#     4  11  22  46  73  92 135 183 223 284 337 412
#     4  12  22  44  67  96 139 178 226 289 343 399
#     4  12  25  43  65  99 136 174 221 277 343 410
#
# _framework density 20.782909
#
# number of rings (size 3 to 8) (size 9 to 14) (size 15 to 20)
#    0.000    0.800    6.667    0.800    4.667    1.600 
#    7.200    0.000    0.000    0.000    0.000    0.000 
#    0.000    0.000    0.000    0.000    0.000    0.000 
#
# Total GULP energy -743604.793102 kJ/mol
# GULP energy per Si atom -12393.413218 kJ/mol
# Density = 2.073561 g / cm^3
# Si number density = 20.782909 Si / 1000 Ang^3
#
#
#
# Elastic Constant Matrix: (Units=GPa)
#
#
# Indices 1 2 3 4 5 6 
#
# 1 84.2461 -1.6012 42.8695 0.0000 0.0000 0.0000
# 2 -1.6012 78.3774 40.3904 0.0000 0.0000 0.0000
# 3 42.8695 40.3904 119.3964 0.0000 0.0000 0.0000
# 4 0.0000 0.0000 0.0000 37.9382 0.0000 0.0000
# 5 0.0000 0.0000 0.0000 0.0000 -45.3514 0.0000
# 6 0.0000 0.0000 0.0000 0.0000 0.0000 27.6330
#
#
#
# Elastic Compliance Matrix: (Units=1/GPa)
#
#
# Indices 1 2 3 4 5 6 
#
# 1 0.015421 0.003837 -0.006835 0.000000 0.000000 0.000000
# 2 0.003837 0.016408 -0.006928 0.000000 0.000000 0.000000
# 3 -0.006835 -0.006928 0.013173 0.000000 0.000000 0.000000
# 4 0.000000 0.000000 0.000000 0.026359 0.000000 0.000000
# 5 0.000000 0.000000 0.000000 0.000000 -0.022050 0.000000
# 6 0.000000 0.000000 0.000000 0.000000 0.000000 0.036189
#
#
# Mechanical properties :
#
#
# Convention : Reuss Voigt Hill
#
# Bulk Modulus (GPa) = 39.76153 49.48192 44.62173
# Shear Modulus (GPa) = 43.96202 17.40137 30.68169
#
# Velocity S-wave (km/s) = 4.60422 2.89674 3.84643
# Velocity P-wave (km/s) = 6.88757 5.92020 6.42212
#
# Compressibility (1/GPa) = 0.02514994
#
# Stress axis : x y z
#
# Youngs Moduli (GPa) = 64.84649 60.94755 75.91070
#
# Poissons Ratio (x) = -0.23388 0.51886
# Poissons Ratio (y) = -0.24884 0.52593
# Poissons Ratio (z) = 0.44323 0.42226
#
# Static dielectric constant tensor:
#      x y z
#    x 3.541000 0.000000 0.000000 
#    y 0.000000 4.230270 0.000000 
#    z 0.000000 0.000000 3.942490 
# 
# 
# High freq. dielectric constant tensor:
#      x y z
#    x 1.803880 0.000000 0.000000 
#    y 0.000000 1.817050 0.000000 
#    z 0.000000 0.000000 1.827860 
# 
# From -- ./inp_files/19827.got.cif
#   From: 2010.06.25/outbox.cif.g09.slc.cpg/sg52_10_cif.got.tgz:19827.got - 2010.06.26 19:32:48.
