data_PCOD8216778
_publ_section_title
;
Structure prediction by ZEFSAII (Michael W. Deem and Ramdas Pophale) SiO2 
 PCOD8216778
Probable space group: P N N A
;
_chemical_formula_sum "Si O2"
_cell_formula_units_Z 40
_cell_length_a 14.840924
_cell_length_b 20.689121
_cell_length_c 5.386094
_cell_angle_alpha 90.000000
_cell_angle_beta 90.000000
_cell_angle_gamma 90.000000
_cell_volume 1653.776854
_symmetry_space_group_name_H-M "P N N A"
_symmetry_group_IT_number 52
_symmetry_cell_setting 'orthorhombic'
loop_
_space_group_symop_operation_xyz
x,y,z
1/2-x,-y,z
x,1/2-y,1/2-z
1/2-x,1/2+y,1/2-z
-x,-y,-z
1/2+x,y,-z
-x,1/2+y,1/2+z
1/2+x,1/2-y,1/2+z
loop_
_atom_site_type_symbol
_atom_site_label
_atom_site_fract_x
_atom_site_fract_y
_atom_site_fract_z
Si Si1 0.128319 0.550187 0.997742
Si Si2 0.678924 0.408665 0.956731
Si Si3 0.914110 0.684247 0.323952
Si Si4 0.260153 0.310739 0.413403
Si Si5 0.426116 0.113304 0.982617
O O1 0.227141 0.573878 0.906257
O O2 0.126390 0.475905 0.086144
O O3 0.070432 0.561737 0.744418
O O4 0.089843 0.587526 0.237165
O O5 0.609278 0.364082 0.102119
O O6 0.712457 0.373486 0.709356
O O7 0.968117 0.750000 0.250000
O O8 0.820277 0.714581 0.418442
O O9 0.975838 0.646944 0.524210
O O10 0.291593 0.250000 0.250000
O O11 0.347466 0.333925 0.567800
#
# Coordination Sequence:
#
# PCOD8216778 Si02
#       5
#     8   8   8   8   8
#     4  10  24  45  69 101 137 182 227 281 343 407
#     4  10  23  42  70  97 137 182 230 278 341 412
#     4  12  25  43  68 101 133 180 234 281 339 413
#     4  11  23  45  68  98 139 185 225 288 349 407
#     4  11  26  44  70 101 136 180 228 284 345 407
#
# _framework density 24.187062000000001
#
# number of rings (size 3 to 8) (size 9 to 14) (size 15 to 20)
#    0.000    1.200    4.000    0.600    5.600    3.200 
#    0.000    3.000    0.000    0.000    0.000    0.000 
#    0.000    0.000    0.000    0.000    0.000    0.000 
#
# Total GULP energy -495546.303232 kJ/mol
# GULP energy per Si atom -12388.657581 kJ/mol
# Density = 2.413201 g / cm^3
# Si number density = 24.187062 Si / 1000 Ang^3
#
#
#
# Elastic Constant Matrix: (Units=GPa)
#
#
# Indices 1 2 3 4 5 6 
#
# 1 76.8272 15.5064 4.1547 0.0000 0.0000 0.0000
# 2 15.5064 128.2568 15.8515 0.0000 0.0000 0.0000
# 3 4.1547 15.8515 87.1686 0.0000 0.0000 0.0000
# 4 0.0000 0.0000 0.0000 38.8145 0.0000 0.0000
# 5 0.0000 0.0000 0.0000 0.0000 3.0470 0.0000
# 6 0.0000 0.0000 0.0000 0.0000 0.0000 19.2587
#
#
#
# Elastic Compliance Matrix: (Units=1/GPa)
#
#
# Indices 1 2 3 4 5 6 
#
# 1 0.013352 -0.001571 -0.000351 0.000000 0.000000 0.000000
# 2 -0.001571 0.008161 -0.001409 0.000000 0.000000 0.000000
# 3 -0.000351 -0.001409 0.011745 0.000000 0.000000 0.000000
# 4 0.000000 0.000000 0.000000 0.025764 0.000000 0.000000
# 5 0.000000 0.000000 0.000000 0.000000 0.328189 0.000000
# 6 0.000000 0.000000 0.000000 0.000000 0.000000 0.051925
#
#
# Mechanical properties :
#
#
# Convention : Reuss Voigt Hill
#
# Bulk Modulus (GPa) = 37.59897 40.36419 38.98158
# Shear Modulus (GPa) = 10.99718 29.34007 20.16862
#
# Velocity S-wave (km/s) = 2.13462 3.48666 2.89080
# Velocity P-wave (km/s) = 4.65342 5.73879 5.22436
#
# Compressibility (1/GPa) = 0.02659648
#
# Stress axis : x y z
#
# Youngs Moduli (GPa) = 74.89366 122.53476 85.14269
#
# Poissons Ratio (x) = 0.19250 0.02986
# Poissons Ratio (y) = 0.11765 0.11998
# Poissons Ratio (z) = 0.02627 0.17267
#
# Static dielectric constant tensor:
#      x y z
#    x 4.585530 0.000000 0.000000 
#    y 0.000000 4.654700 0.000000 
#    z 0.000000 0.000000 3.995720 
# 
# 
# High freq. dielectric constant tensor:
#      x y z
#    x 1.968520 0.000000 0.000000 
#    y 0.000000 1.972710 0.000000 
#    z 0.000000 0.000000 1.938170 
# 
# From -- ./inp_files/2252.got.cif
#   From: 2010.06.25/outbox.cif.g09.slc.cpg/sg52_2_cif.got.tgz:2252.got - 2010.06.26 19:32:48.
