data_PCOD8216248
_publ_section_title
;
Structure prediction by ZEFSAII (Michael W. Deem and Ramdas Pophale) SiO2 
 PCOD8216248
Probable space group: P N N A
;
_chemical_formula_sum "Si O2"
_cell_formula_units_Z 36
_cell_length_a 23.366848
_cell_length_b 8.115105
_cell_length_c 8.270072
_cell_angle_alpha 90.000000
_cell_angle_beta 90.000000
_cell_angle_gamma 90.000000
_cell_volume 1568.207648
_symmetry_space_group_name_H-M "P N N A"
_symmetry_group_IT_number 52
_symmetry_cell_setting 'orthorhombic'
loop_
_space_group_symop_operation_xyz
x,y,z
1/2-x,-y,z
x,1/2-y,1/2-z
1/2-x,1/2+y,1/2-z
-x,-y,-z
1/2+x,y,-z
-x,1/2+y,1/2+z
1/2+x,1/2-y,1/2+z
loop_
_atom_site_type_symbol
_atom_site_label
_atom_site_fract_x
_atom_site_fract_y
_atom_site_fract_z
Si Si1 0.808607 0.896287 0.015087
Si Si2 0.499241 0.250000 0.750000
Si Si3 0.914873 0.499073 0.659316
Si Si4 0.686303 0.456122 0.131413
Si Si5 0.085548 0.845266 0.500016
O O1 0.804951 0.697520 0.009504
O O2 0.839606 0.925681 0.189125
O O3 0.750000 0.000000 0.988703
O O4 0.850171 0.940156 0.866526
O O5 0.538992 0.356541 0.626197
O O6 0.459954 0.125102 0.643610
O O7 0.920864 0.346989 0.538307
O O8 0.927795 0.453891 0.844500
O O9 0.750000 0.500000 0.176837
O O10 0.649720 0.604857 0.054655
#
# Coordination Sequence:
#
# PCOD8216248 Si02
#       5
#     8   4   8   8   8
#     4  10  21  39  65  95 129 169 214 266 324 389
#     4  12  24  44  66  90 130 174 218 268 324 402
#     4  11  24  41  63  94 127 166 216 271 330 387
#     4  10  21  39  65  95 128 170 216 262 322 394
#     4  11  24  41  64  93 127 168 215 269 327 390
#
# _framework density 22.956143000000001
#
# number of rings (size 3 to 8) (size 9 to 14) (size 15 to 20)
#    0.000    1.333    0.000    5.333    0.000    4.444 
#    0.000    6.667    0.000    0.000    0.000    0.000 
#    0.000    0.000    0.000    0.000    0.000    0.000 
#
# Total GULP energy -446014.278461 kJ/mol
# GULP energy per Si atom -12389.285513 kJ/mol
# Density = 2.290389 g / cm^3
# Si number density = 22.956143 Si / 1000 Ang^3
#
#
#
# Elastic Constant Matrix: (Units=GPa)
#
#
# Indices 1 2 3 4 5 6 
#
# 1 150.1103 58.0222 51.5582 0.0000 0.0000 0.0000
# 2 58.0222 114.7106 32.3678 0.0000 0.0000 0.0000
# 3 51.5582 32.3678 75.2030 0.0000 0.0000 0.0000
# 4 0.0000 0.0000 0.0000 25.3884 0.0000 0.0000
# 5 0.0000 0.0000 0.0000 0.0000 29.8194 0.0000
# 6 0.0000 0.0000 0.0000 0.0000 0.0000 44.7543
#
#
#
# Elastic Compliance Matrix: (Units=1/GPa)
#
#
# Indices 1 2 3 4 5 6 
#
# 1 0.009802 -0.003485 -0.005220 0.000000 0.000000 0.000000
# 2 -0.003485 0.011162 -0.002415 0.000000 0.000000 0.000000
# 3 -0.005220 -0.002415 0.017915 0.000000 0.000000 0.000000
# 4 0.000000 0.000000 0.000000 0.039388 0.000000 0.000000
# 5 0.000000 0.000000 0.000000 0.000000 0.033535 0.000000
# 6 0.000000 0.000000 0.000000 0.000000 0.000000 0.022344
#
#
# Mechanical properties :
#
#
# Convention : Reuss Voigt Hill
#
# Bulk Modulus (GPa) = 60.09844 69.32447 64.71146
# Shear Modulus (GPa) = 30.87709 33.19745 32.03727
#
# Velocity S-wave (km/s) = 3.67147 3.80692 3.73981
# Velocity P-wave (km/s) = 6.64902 7.04186 6.84825
#
# Compressibility (1/GPa) = 0.01663937
#
# Stress axis : x y z
#
# Youngs Moduli (GPa) = 102.02311 89.59204 55.81767
#
# Poissons Ratio (x) = 0.31222 0.29137
# Poissons Ratio (y) = 0.35554 0.13479
# Poissons Ratio (z) = 0.53256 0.21635
#
# Static dielectric constant tensor:
#      x y z
#    x 3.986550 0.000000 0.000000 
#    y 0.000000 4.294310 0.000000 
#    z 0.000000 0.000000 3.972070 
# 
# 
# High freq. dielectric constant tensor:
#      x y z
#    x 1.902080 0.000000 0.000000 
#    y 0.000000 1.910180 0.000000 
#    z 0.000000 0.000000 1.902560 
# 
# From -- ./inp_files/12925.got.cif
#   From: 2010.06.25/outbox.cif.g09.slc.cpg/sg52_7_cif.got.tgz:12925.got - 2010.06.26 19:32:48.
