data_PCOD8216612
_publ_section_title
;
Structure prediction by ZEFSAII (Michael W. Deem and Ramdas Pophale) SiO2 
 PCOD8216612
Probable space group: P N N A
;
_chemical_formula_sum "Si O2"
_cell_formula_units_Z 40
_cell_length_a 16.676616
_cell_length_b 8.903514
_cell_length_c 12.726878
_cell_angle_alpha 90.000000
_cell_angle_beta 90.000000
_cell_angle_gamma 90.000000
_cell_volume 1889.693006
_symmetry_space_group_name_H-M "P N N A"
_symmetry_group_IT_number 52
_symmetry_cell_setting 'orthorhombic'
loop_
_space_group_symop_operation_xyz
x,y,z
1/2-x,-y,z
x,1/2-y,1/2-z
1/2-x,1/2+y,1/2-z
-x,-y,-z
1/2+x,y,-z
-x,1/2+y,1/2+z
1/2+x,1/2-y,1/2+z
loop_
_atom_site_type_symbol
_atom_site_label
_atom_site_fract_x
_atom_site_fract_y
_atom_site_fract_z
Si Si1 0.004262 0.098349 0.287552
Si Si2 0.347792 0.876393 0.427262
Si Si3 0.316223 0.219605 0.369794
Si Si4 0.591213 0.174968 0.353166
Si Si5 0.957868 0.409341 0.593079
O O1 0.960174 0.250000 0.250000
O O2 0.067148 0.157361 0.374633
O O3 0.051644 0.016392 0.193619
O O4 0.934644 0.996277 0.334401
O O5 0.279929 0.763599 0.380744
O O6 0.348122 0.830211 0.549914
O O7 0.332397 0.052112 0.410348
O O8 0.341929 0.250000 0.250000
O O9 0.369531 0.340906 0.436238
O O10 0.633116 0.250000 0.250000
O O11 0.511195 0.266629 0.378059
O O12 0.000000 0.500000 0.500000
#
# Coordination Sequence:
#
# PCOD8216612 Si02
#       5
#     8   8   8   8   8
#     4  11  21  36  63  98 125 170 223 276 335 403
#     4  11  22  38  68  91 132 176 213 280 352 406
#     4  11  22  41  63  98 134 169 215 284 346 417
#     4  10  22  42  63  88 128 173 229 279 327 408
#     4  11  22  39  63  94 132 170 224 280 334 410
#
# _framework density 21.167459000000001
#
# number of rings (size 3 to 8) (size 9 to 14) (size 15 to 20)
#    0.000    1.200    4.000    3.000    2.800    0.000 
#    0.000    0.000   17.600    0.000    0.000    0.000 
#    0.000    0.000    0.000    0.000    0.000    0.000 
#
# Total GULP energy -495780.507012 kJ/mol
# GULP energy per Si atom -12394.512675 kJ/mol
# Density = 2.111928 g / cm^3
# Si number density = 21.167459 Si / 1000 Ang^3
#
#
#
# Elastic Constant Matrix: (Units=GPa)
#
#
# Indices 1 2 3 4 5 6 
#
# 1 60.1049 31.4008 38.2253 0.0000 0.0000 0.0000
# 2 31.4008 114.3341 37.1733 0.0000 0.0000 0.0000
# 3 38.2253 37.1733 133.1764 0.0000 0.0000 0.0000
# 4 0.0000 0.0000 0.0000 39.5832 0.0000 0.0000
# 5 0.0000 0.0000 0.0000 0.0000 33.4227 0.0000
# 6 0.0000 0.0000 0.0000 0.0000 0.0000 32.8928
#
#
#
# Elastic Compliance Matrix: (Units=1/GPa)
#
#
# Indices 1 2 3 4 5 6 
#
# 1 0.022223 -0.004432 -0.005142 0.000000 0.000000 0.000000
# 2 -0.004432 0.010503 -0.001660 0.000000 0.000000 0.000000
# 3 -0.005142 -0.001660 0.009448 0.000000 0.000000 0.000000
# 4 0.000000 0.000000 0.000000 0.025263 0.000000 0.000000
# 5 0.000000 0.000000 0.000000 0.000000 0.029920 0.000000
# 6 0.000000 0.000000 0.000000 0.000000 0.000000 0.030402
#
#
# Mechanical properties :
#
#
# Convention : Reuss Voigt Hill
#
# Bulk Modulus (GPa) = 50.74107 57.91269 54.32688
# Shear Modulus (GPa) = 31.88912 34.56749 33.22831
#
# Velocity S-wave (km/s) = 3.88560 4.04548 3.96635
# Velocity P-wave (km/s) = 6.64483 7.01712 6.83351
#
# Compressibility (1/GPa) = 0.01970790
#
# Stress axis : x y z
#
# Youngs Moduli (GPa) = 44.99905 95.21088 105.84386
#
# Poissons Ratio (x) = 0.42193 0.54420
# Poissons Ratio (y) = 0.19942 0.17567
# Poissons Ratio (z) = 0.23137 0.15802
#
# Static dielectric constant tensor:
#      x y z
#    x 3.707320 0.000000 0.000000 
#    y 0.000000 4.007130 0.000000 
#    z 0.000000 0.000000 4.101940 
# 
# 
# High freq. dielectric constant tensor:
#      x y z
#    x 1.796150 0.000000 0.000000 
#    y 0.000000 1.843540 0.000000 
#    z 0.000000 0.000000 1.828690 
# 
# From -- ./inp_files/20297.got.cif
#   From: 2010.06.25/outbox.cif.g09.slc.cpg/sg52_11_cif.got.tgz:20297.got - 2010.06.26 19:32:48.
