data_PCOD8216952
_publ_section_title
;
Structure prediction by ZEFSAII (Michael W. Deem and Ramdas Pophale) SiO2 
 PCOD8216952
Probable space group: P N N A
;
_chemical_formula_sum "Si O2"
_cell_formula_units_Z 20
_cell_length_a 26.928466
_cell_length_b 5.051046
_cell_length_c 5.992100
_cell_angle_alpha 90.000000
_cell_angle_beta 90.000000
_cell_angle_gamma 90.000000
_cell_volume 815.026989
_symmetry_space_group_name_H-M "P N N A"
_symmetry_group_IT_number 52
_symmetry_cell_setting 'orthorhombic'
loop_
_space_group_symop_operation_xyz
x,y,z
1/2-x,-y,z
x,1/2-y,1/2-z
1/2-x,1/2+y,1/2-z
-x,-y,-z
1/2+x,y,-z
-x,1/2+y,1/2+z
1/2+x,1/2-y,1/2+z
loop_
_atom_site_type_symbol
_atom_site_label
_atom_site_fract_x
_atom_site_fract_y
_atom_site_fract_z
Si Si1 0.554962 0.997068 0.404056
Si Si2 0.125406 0.750000 0.250000
Si Si3 0.192924 0.502305 0.599728
O O1 0.562497 0.750000 0.250000
O O2 0.592527 0.956457 0.608168
O O3 0.567117 0.250000 0.250000
O O4 0.500000 0.000000 0.500000
O O5 0.159041 0.537918 0.382988
O O6 0.250000 0.500000 0.520602
O O7 0.178668 0.250000 0.750000
O O8 0.180900 0.750000 0.750000
#
# Coordination Sequence:
#
# PCOD8216952 Si02
#       3
#     8   4   8
#     4  12  28  51  77 111 152 202 256 314 382 457
#     4  12  28  48  82 114 156 204 258 318 392 448
#     4  10  25  50  76 111 156 202 257 317 383 464
#
# _framework density 24.539062000000001
#
# number of rings (size 3 to 8) (size 9 to 14) (size 15 to 20)
#    0.000    0.800    2.000    2.400    0.000   16.000 
#    0.000    4.000    0.000    0.000    0.000    0.000 
#    0.000    0.000    0.000    0.000    0.000    0.000 
#
# Total GULP energy -248010.667530 kJ/mol
# GULP energy per Si atom -12400.533377 kJ/mol
# Density = 2.448321 g / cm^3
# Si number density = 24.539062 Si / 1000 Ang^3
#
#
#
# Elastic Constant Matrix: (Units=GPa)
#
#
# Indices 1 2 3 4 5 6 
#
# 1 182.8294 67.4160 121.4054 0.0000 0.0000 0.0000
# 2 67.4160 220.3558 101.0136 0.0000 0.0000 0.0000
# 3 121.4054 101.0136 186.1271 0.0000 0.0000 0.0000
# 4 0.0000 0.0000 0.0000 51.9642 0.0000 0.0000
# 5 0.0000 0.0000 0.0000 0.0000 75.5450 0.0000
# 6 0.0000 0.0000 0.0000 0.0000 0.0000 42.4374
#
#
#
# Elastic Compliance Matrix: (Units=1/GPa)
#
#
# Indices 1 2 3 4 5 6 
#
# 1 0.009650 -0.000089 -0.006246 0.000000 0.000000 0.000000
# 2 -0.000089 0.006042 -0.003221 0.000000 0.000000 0.000000
# 3 -0.006246 -0.003221 0.011195 0.000000 0.000000 0.000000
# 4 0.000000 0.000000 0.000000 0.019244 0.000000 0.000000
# 5 0.000000 0.000000 0.000000 0.000000 0.013237 0.000000
# 6 0.000000 0.000000 0.000000 0.000000 0.000000 0.023564
#
#
# Mechanical properties :
#
#
# Convention : Reuss Voigt Hill
#
# Bulk Modulus (GPa) = 128.62375 129.88691 129.25533
# Shear Modulus (GPa) = 47.78478 53.95449 50.86963
#
# Velocity S-wave (km/s) = 4.41760 4.69414 4.55797
# Velocity P-wave (km/s) = 8.86284 9.07885 8.97150
#
# Compressibility (1/GPa) = 0.00777461
#
# Stress axis : x y z
#
# Youngs Moduli (GPa) = 103.62608 165.51186 89.32657
#
# Poissons Ratio (x) = 0.01474 0.55795
# Poissons Ratio (y) = 0.00923 0.28771
# Poissons Ratio (z) = 0.64726 0.53310
#
# Static dielectric constant tensor:
#      x y z
#    x 4.786080 0.000000 0.000000 
#    y 0.000000 4.420940 0.000000 
#    z 0.000000 0.000000 4.682770 
# 
# 
# High freq. dielectric constant tensor:
#      x y z
#    x 2.005630 0.000000 0.000000 
#    y 0.000000 1.988710 0.000000 
#    z 0.000000 0.000000 1.988310 
# 
# From -- ./inp_files/5409.got.cif
#   From: 2010.06.25/outbox.cif.g09.slc.cpg/sg52_3_cif.got.tgz:5409.got - 2010.06.26 19:32:48.
