data_PCOD8216176
_publ_section_title
;
Structure prediction by ZEFSAII (Michael W. Deem and Ramdas Pophale) SiO2 
 PCOD8216176
Probable space group: P N N A
;
_chemical_formula_sum "Si O2"
_cell_formula_units_Z 64
_cell_length_a 8.890903
_cell_length_b 14.632457
_cell_length_c 24.672139
_cell_angle_alpha 90.000000
_cell_angle_beta 90.000000
_cell_angle_gamma 90.000000
_cell_volume 3209.740571
_symmetry_space_group_name_H-M "P N N A"
_symmetry_group_IT_number 52
_symmetry_cell_setting 'orthorhombic'
loop_
_space_group_symop_operation_xyz
x,y,z
1/2-x,-y,z
x,1/2-y,1/2-z
1/2-x,1/2+y,1/2-z
-x,-y,-z
1/2+x,y,-z
-x,1/2+y,1/2+z
1/2+x,1/2-y,1/2+z
loop_
_atom_site_type_symbol
_atom_site_label
_atom_site_fract_x
_atom_site_fract_y
_atom_site_fract_z
Si Si1 0.574149 0.595333 0.362468
Si Si2 0.944083 0.230470 0.428636
Si Si3 0.901182 0.764901 0.460076
Si Si4 0.147086 0.089924 0.234394
Si Si5 0.100659 0.783971 0.196432
Si Si6 0.901571 0.117595 0.616012
Si Si7 0.915015 0.896038 0.118028
Si Si8 0.576555 0.418602 0.859283
O O1 0.506511 0.677911 0.397092
O O2 0.500390 0.583377 0.303396
O O3 0.750173 0.616035 0.356553
O O4 0.550196 0.501341 0.396626
O O5 0.776562 0.224889 0.452086
O O6 0.065142 0.229252 0.476663
O O7 0.953349 0.146286 0.386862
O O8 0.946211 0.666342 0.434773
O O9 0.999403 0.846243 0.433834
O O10 0.236118 0.179097 0.214219
O O11 0.097964 0.106079 0.296323
O O12 0.250000 0.000000 0.230131
O O13 0.011715 0.750000 0.250000
O O14 0.106932 0.693990 0.161221
O O15 0.021253 0.867156 0.166940
O O16 0.726935 0.095413 0.604025
O O17 0.978263 0.023887 0.637174
#
# Coordination Sequence:
#
# PCOD8216176 Si02
#       8
#     8   8   8   8   8   8   8   8
#     4  10  22  40  60  93 128 164 198 254 314 378
#     4  11  24  42  65  88 122 160 211 262 318 365
#     4  10  23  44  64  91 117 161 210 266 316 372
#     4  12  21  37  61  96 131 162 204 249 302 366
#     4  11  19  35  60  88 124 167 203 249 296 368
#     4  10  21  38  62  86 121 161 207 251 306 358
#     4   9  21  41  61  88 129 160 205 250 312 385
#     4  11  22  40  59  91 127 163 206 258 299 372
#
# _framework density 19.939306999999999
#
# number of rings (size 3 to 8) (size 9 to 14) (size 15 to 20)
#    0.000    1.500    3.750    1.500    0.000    2.500 
#    6.750    0.000    0.000    0.000    0.000    0.000 
#    0.000    0.000    0.000    0.000    0.000    0.000 
#
# Total GULP energy -793222.209935 kJ/mol
# GULP energy per Si atom -12394.097030 kJ/mol
# Density = 1.989392 g / cm^3
# Si number density = 19.939307 Si / 1000 Ang^3
#
#
#
# Elastic Constant Matrix: (Units=GPa)
#
#
# Indices 1 2 3 4 5 6 
#
# 1 57.8893 35.4707 43.2761 0.0000 0.0000 0.0000
# 2 35.4707 143.7389 56.6519 0.0000 0.0000 0.0000
# 3 43.2761 56.6519 111.9481 0.0000 0.0000 0.0000
# 4 0.0000 0.0000 0.0000 20.0030 0.0000 0.0000
# 5 0.0000 0.0000 0.0000 0.0000 31.9646 0.0000
# 6 0.0000 0.0000 0.0000 0.0000 0.0000 24.5107
#
#
#
# Elastic Compliance Matrix: (Units=1/GPa)
#
#
# Indices 1 2 3 4 5 6 
#
# 1 0.025278 -0.002981 -0.008263 0.000000 0.000000 0.000000
# 2 -0.002981 0.009042 -0.003423 0.000000 0.000000 0.000000
# 3 -0.008263 -0.003423 0.013859 0.000000 0.000000 0.000000
# 4 0.000000 0.000000 0.000000 0.049992 0.000000 0.000000
# 5 0.000000 0.000000 0.000000 0.000000 0.031285 0.000000
# 6 0.000000 0.000000 0.000000 0.000000 0.000000 0.040798
#
#
# Mechanical properties :
#
#
# Convention : Reuss Voigt Hill
#
# Bulk Modulus (GPa) = 53.06655 64.93040 58.99848
# Shear Modulus (GPa) = 24.28692 27.17418 25.73055
#
# Velocity S-wave (km/s) = 3.49383 3.69568 3.59617
# Velocity P-wave (km/s) = 6.55344 7.13060 6.84810
#
# Compressibility (1/GPa) = 0.01884426
#
# Stress axis : x y z
#
# Youngs Moduli (GPa) = 39.55954 110.59560 72.15292
#
# Poissons Ratio (x) = 0.32970 0.59622
# Poissons Ratio (y) = 0.11793 0.24700
# Poissons Ratio (z) = 0.32689 0.37860
#
# Static dielectric constant tensor:
#      x y z
#    x 3.611810 0.000000 0.000000 
#    y 0.000000 4.054740 0.000000 
#    z 0.000000 0.000000 3.590300 
# 
# 
# High freq. dielectric constant tensor:
#      x y z
#    x 1.763460 0.000000 0.000000 
#    y 0.000000 1.801550 0.000000 
#    z 0.000000 0.000000 1.769800 
# 
# From -- ./inp_files/39666.got.cif
#   From: 2010.06.25/outbox.cif.g09.slc.cpg/sg52_20_cif.got.tgz:39666.got - 2010.06.26 19:32:48.
