data_PCOD8216328
_publ_section_title
;
Structure prediction by ZEFSAII (Michael W. Deem and Ramdas Pophale) SiO2 
 PCOD8216328
Probable space group: P N N A
;
_chemical_formula_sum "Si O2"
_cell_formula_units_Z 36
_cell_length_a 12.363848
_cell_length_b 20.849630
_cell_length_c 6.710989
_cell_angle_alpha 90.000000
_cell_angle_beta 90.000000
_cell_angle_gamma 90.000000
_cell_volume 1729.969859
_symmetry_space_group_name_H-M "P N N A"
_symmetry_group_IT_number 52
_symmetry_cell_setting 'orthorhombic'
loop_
_space_group_symop_operation_xyz
x,y,z
1/2-x,-y,z
x,1/2-y,1/2-z
1/2-x,1/2+y,1/2-z
-x,-y,-z
1/2+x,y,-z
-x,1/2+y,1/2+z
1/2+x,1/2-y,1/2+z
loop_
_atom_site_type_symbol
_atom_site_label
_atom_site_fract_x
_atom_site_fract_y
_atom_site_fract_z
Si Si1 0.653810 0.353808 0.730828
Si Si2 0.971817 0.570859 0.054907
Si Si3 0.485151 0.250000 0.750000
Si Si4 0.340376 0.343892 0.980615
Si Si5 0.717907 0.425853 0.344014
O O1 0.566224 0.302198 0.650518
O O2 0.714601 0.390183 0.554551
O O3 0.590429 0.405005 0.861144
O O4 0.743587 0.320919 0.875523
O O5 0.901183 0.575645 0.252651
O O6 0.000000 0.500000 0.000000
O O7 0.079280 0.610805 0.104742
O O8 0.406731 0.280809 0.915016
O O9 0.300833 0.385829 0.792054
O O10 0.750000 0.500000 0.370150
#
# Coordination Sequence:
#
# PCOD8216328 Si02
#       5
#     8   8   4   8   8
#     4  10  25  41  64  98 127 171 221 273 322 398
#     4  10  21  41  61  94 136 167 207 270 338 386
#     4  10  24  48  64  94 128 176 230 258 340 390
#     4  10  23  44  67  89 134 173 209 284 327 383
#     4  11  23  39  67 100 127 168 222 266 334 406
#
# _framework density 20.809611
#
# number of rings (size 3 to 8) (size 9 to 14) (size 15 to 20)
#    0.000    1.778    2.222    0.000    6.222    4.444 
#    0.000    2.222    0.000    0.000    0.000    0.000 
#    0.000    0.000    0.000    0.000    0.000    0.000 
#
# Total GULP energy -446353.740687 kJ/mol
# GULP energy per Si atom -12398.715019 kJ/mol
# Density = 2.076225 g / cm^3
# Si number density = 20.809611 Si / 1000 Ang^3
#
#
#
# Elastic Constant Matrix: (Units=GPa)
#
#
# Indices 1 2 3 4 5 6 
#
# 1 139.8568 66.0386 48.2972 0.0000 0.0000 0.0000
# 2 66.0386 130.3482 49.0063 0.0000 0.0000 0.0000
# 3 48.2972 49.0063 93.4362 0.0000 0.0000 0.0000
# 4 0.0000 0.0000 0.0000 23.6959 0.0000 0.0000
# 5 0.0000 0.0000 0.0000 0.0000 27.4684 0.0000
# 6 0.0000 0.0000 0.0000 0.0000 0.0000 42.3302
#
#
#
# Elastic Compliance Matrix: (Units=1/GPa)
#
#
# Indices 1 2 3 4 5 6 
#
# 1 0.010095 -0.003927 -0.003159 0.000000 0.000000 0.000000
# 2 -0.003927 0.011084 -0.003783 0.000000 0.000000 0.000000
# 3 -0.003159 -0.003783 0.014319 0.000000 0.000000 0.000000
# 4 0.000000 0.000000 0.000000 0.042201 0.000000 0.000000
# 5 0.000000 0.000000 0.000000 0.000000 0.036406 0.000000
# 6 0.000000 0.000000 0.000000 0.000000 0.000000 0.023624
#
#
# Mechanical properties :
#
#
# Convention : Reuss Voigt Hill
#
# Bulk Modulus (GPa) = 72.67189 76.70281 74.68735
# Shear Modulus (GPa) = 30.47775 32.05216 31.26495
#
# Velocity S-wave (km/s) = 3.83116 3.92887 3.88032
# Velocity P-wave (km/s) = 7.38705 7.58424 7.48629
#
# Compressibility (1/GPa) = 0.01376048
#
# Stress axis : x y z
#
# Youngs Moduli (GPa) = 99.05671 90.22199 69.83489
#
# Poissons Ratio (x) = 0.35431 0.22057
# Poissons Ratio (y) = 0.38900 0.26421
# Poissons Ratio (z) = 0.31287 0.34135
#
# Static dielectric constant tensor:
#      x y z
#    x 4.228160 0.000000 0.000000 
#    y 0.000000 3.797060 0.000000 
#    z 0.000000 0.000000 3.839550 
# 
# 
# High freq. dielectric constant tensor:
#      x y z
#    x 1.838310 0.000000 0.000000 
#    y 0.000000 1.823330 0.000000 
#    z 0.000000 0.000000 1.794740 
# 
# From -- ./inp_files/1227.got.cif
#   From: 2010.06.25/outbox.cif.g09.slc.cpg/sg52_1_cif.got.tgz:1227.got - 2010.06.26 19:32:48.
