data_PCOD8216651
_publ_section_title
;
Structure prediction by ZEFSAII (Michael W. Deem and Ramdas Pophale) SiO2 
 PCOD8216651
Probable space group: P N N A
;
_chemical_formula_sum "Si O2"
_cell_formula_units_Z 40
_cell_length_a 25.739421
_cell_length_b 13.088896
_cell_length_c 4.849510
_cell_angle_alpha 90.000000
_cell_angle_beta 90.000000
_cell_angle_gamma 90.000000
_cell_volume 1633.802851
_symmetry_space_group_name_H-M "P N N A"
_symmetry_group_IT_number 52
_symmetry_cell_setting 'orthorhombic'
loop_
_space_group_symop_operation_xyz
x,y,z
1/2-x,-y,z
x,1/2-y,1/2-z
1/2-x,1/2+y,1/2-z
-x,-y,-z
1/2+x,y,-z
-x,1/2+y,1/2+z
1/2+x,1/2-y,1/2+z
loop_
_atom_site_type_symbol
_atom_site_label
_atom_site_fract_x
_atom_site_fract_y
_atom_site_fract_z
Si Si1 0.038987 0.851273 0.403401
Si Si2 0.158137 0.647169 0.113580
Si Si3 0.808619 0.026937 0.117268
Si Si4 0.456208 0.926390 0.209453
Si Si5 0.109396 0.133154 0.711837
O O1 0.018196 0.750000 0.250000
O O2 0.099028 0.837495 0.486409
O O3 0.007222 0.864995 0.687965
O O4 0.031961 0.951862 0.210094
O O5 0.181129 0.750000 0.250000
O O6 0.161461 0.558861 0.341180
O O7 0.191178 0.617471 0.844286
O O8 0.750000 0.000000 0.041073
O O9 0.838495 0.928794 0.229763
O O10 0.407861 0.895554 0.404088
O O11 0.440304 0.894723 0.901350
O O12 0.124769 0.250000 0.750000
#
# Coordination Sequence:
#
# PCOD8216651 Si02
#       5
#     8   8   8   8   8
#     4  10  22  42  73 105 139 184 228 283 346 418
#     4  11  24  45  72 106 141 179 229 292 355 414
#     4  12  25  47  71 104 138 182 241 297 349 411
#     4  11  24  44  68 102 141 182 233 283 340 427
#     4  12  25  45  67  97 142 188 233 283 349 415
#
# _framework density 24.482756999999999
#
# number of rings (size 3 to 8) (size 9 to 14) (size 15 to 20)
#    0.000    0.800    4.000    2.400    0.000    6.400 
#    0.000    7.000    0.000    0.000    0.000    0.000 
#    0.000    0.000    0.000    0.000    0.000    0.000 
#
# Total GULP energy -496355.809321 kJ/mol
# GULP energy per Si atom -12408.895233 kJ/mol
# Density = 2.442703 g / cm^3
# Si number density = 24.482757 Si / 1000 Ang^3
#
#
#
# Elastic Constant Matrix: (Units=GPa)
#
#
# Indices 1 2 3 4 5 6 
#
# 1 111.6832 37.6684 10.6007 0.0000 0.0000 0.0000
# 2 37.6684 131.7300 9.0860 0.0000 0.0000 0.0000
# 3 10.6007 9.0860 73.1812 0.0000 0.0000 0.0000
# 4 0.0000 0.0000 0.0000 34.3512 0.0000 0.0000
# 5 0.0000 0.0000 0.0000 0.0000 17.1504 0.0000
# 6 0.0000 0.0000 0.0000 0.0000 0.0000 21.1712
#
#
#
# Elastic Compliance Matrix: (Units=1/GPa)
#
#
# Indices 1 2 3 4 5 6 
#
# 1 0.009997 -0.002783 -0.001103 0.000000 0.000000 0.000000
# 2 -0.002783 0.008431 -0.000644 0.000000 0.000000 0.000000
# 3 -0.001103 -0.000644 0.013904 0.000000 0.000000 0.000000
# 4 0.000000 0.000000 0.000000 0.029111 0.000000 0.000000
# 5 0.000000 0.000000 0.000000 0.000000 0.058308 0.000000
# 6 0.000000 0.000000 0.000000 0.000000 0.000000 0.047234
#
#
# Mechanical properties :
#
#
# Convention : Reuss Voigt Hill
#
# Bulk Modulus (GPa) = 42.96495 47.92274 45.44384
# Shear Modulus (GPa) = 27.20321 31.81719 29.51020
#
# Velocity S-wave (km/s) = 3.33696 3.60887 3.47558
# Velocity P-wave (km/s) = 5.69511 6.08127 5.89135
#
# Compressibility (1/GPa) = 0.02327479
#
# Stress axis : x y z
#
# Youngs Moduli (GPa) = 100.02917 118.60447 71.91992
#
# Poissons Ratio (x) = 0.33003 0.07930
# Poissons Ratio (y) = 0.27834 0.04630
# Poissons Ratio (z) = 0.11030 0.07635
#
# Static dielectric constant tensor:
#      x y z
#    x 4.048710 0.000000 0.000000 
#    y 0.000000 4.684250 0.000000 
#    z 0.000000 0.000000 4.348450 
# 
# 
# High freq. dielectric constant tensor:
#      x y z
#    x 1.958600 0.000000 0.000000 
#    y 0.000000 1.987120 0.000000 
#    z 0.000000 0.000000 1.980650 
# 
# From -- ./inp_files/5008.got.cif
#   From: 2010.06.25/outbox.cif.g09.slc.cpg/sg52_3_cif.got.tgz:5008.got - 2010.06.26 19:32:48.
