data_PCOD8216987
_publ_section_title
;
Structure prediction by ZEFSAII (Michael W. Deem and Ramdas Pophale) SiO2 
 PCOD8216987
Probable space group: P N N A
;
_chemical_formula_sum "Si O2"
_cell_formula_units_Z 64
_cell_length_a 9.534142
_cell_length_b 12.971343
_cell_length_c 30.780834
_cell_angle_alpha 90.000000
_cell_angle_beta 90.000000
_cell_angle_gamma 90.000000
_cell_volume 3806.685012
_symmetry_space_group_name_H-M "P N N A"
_symmetry_group_IT_number 52
_symmetry_cell_setting 'orthorhombic'
loop_
_space_group_symop_operation_xyz
x,y,z
1/2-x,-y,z
x,1/2-y,1/2-z
1/2-x,1/2+y,1/2-z
-x,-y,-z
1/2+x,y,-z
-x,1/2+y,1/2+z
1/2+x,1/2-y,1/2+z
loop_
_atom_site_type_symbol
_atom_site_label
_atom_site_fract_x
_atom_site_fract_y
_atom_site_fract_z
Si Si1 0.982377 0.379562 0.862814
Si Si2 0.402126 0.121844 0.535643
Si Si3 0.974949 0.381542 0.128975
Si Si4 0.589476 0.376980 0.042830
Si Si5 0.330427 0.102249 0.778840
Si Si6 0.835116 0.901683 0.772516
Si Si7 0.787766 0.805459 0.682629
Si Si8 0.741385 0.184621 0.313578
O O1 0.031299 0.341309 0.910366
O O2 0.078209 0.333275 0.824074
O O3 0.973492 0.502542 0.863109
O O4 0.829755 0.336435 0.851973
O O5 0.483070 0.155549 0.579214
O O6 0.484280 0.165939 0.494001
O O7 0.245003 0.168573 0.535096
O O8 0.398888 0.998861 0.537599
O O9 0.067090 0.303288 0.156701
O O10 0.816118 0.370302 0.145650
O O11 0.498231 0.087856 0.780512
O O12 0.283565 0.125985 0.730010
O O13 0.280391 0.194817 0.810104
O O14 0.250000 0.000000 0.794979
O O15 0.801749 0.886919 0.721724
O O16 0.766792 0.808430 0.799090
O O17 0.750000 0.000000 0.789440
#
# Coordination Sequence:
#
# PCOD8216987 Si02
#       8
#     8   8   8   8   8   8   8   8
#     4  11  22  31  53  78 103 138 179 211 245 306
#     4   9  18  29  47  66 103 136 169 206 251 299
#     4  11  18  35  51  73 103 145 169 212 254 294
#     4   9  18  31  43  71 100 136 171 205 248 302
#     4  11  23  37  56  74 100 137 174 215 264 302
#     4  11  23  39  53  72 106 135 169 219 265 302
#     4  11  23  36  52  75 104 136 177 212 255 306
#     4  11  21  36  53  75 103 131 181 218 247 297
#
# _framework density 16.812528
#
# number of rings (size 3 to 8) (size 9 to 14) (size 15 to 20)
#    0.000    1.500    3.750    3.000    5.250    1.000 
#    0.000    0.000    0.000    0.000    0.000    0.000 
#    0.000    6.000    0.000    0.000    0.000    0.000 
#
# Total GULP energy -793554.456652 kJ/mol
# GULP energy per Si atom -12399.288385 kJ/mol
# Density = 1.677426 g / cm^3
# Si number density = 16.812528 Si / 1000 Ang^3
#
#
#
# Elastic Constant Matrix: (Units=GPa)
#
#
# Indices 1 2 3 4 5 6 
#
# 1 82.2174 25.1131 34.1571 0.0000 0.0000 0.0000
# 2 25.1131 52.3377 16.2927 0.0000 0.0000 0.0000
# 3 34.1571 16.2927 90.1464 0.0000 0.0000 0.0000
# 4 0.0000 0.0000 0.0000 13.9861 0.0000 0.0000
# 5 0.0000 0.0000 0.0000 0.0000 24.7040 0.0000
# 6 0.0000 0.0000 0.0000 0.0000 0.0000 24.2619
#
#
#
# Elastic Compliance Matrix: (Units=1/GPa)
#
#
# Indices 1 2 3 4 5 6 
#
# 1 0.016126 -0.006183 -0.004993 0.000000 0.000000 0.000000
# 2 -0.006183 0.022617 -0.001745 0.000000 0.000000 0.000000
# 3 -0.004993 -0.001745 0.013300 0.000000 0.000000 0.000000
# 4 0.000000 0.000000 0.000000 0.071500 0.000000 0.000000
# 5 0.000000 0.000000 0.000000 0.000000 0.040479 0.000000
# 6 0.000000 0.000000 0.000000 0.000000 0.000000 0.041217
#
#
# Mechanical properties :
#
#
# Convention : Reuss Voigt Hill
#
# Bulk Modulus (GPa) = 38.16618 41.75859 39.96238
# Shear Modulus (GPa) = 20.84954 22.53298 21.69126
#
# Velocity S-wave (km/s) = 3.52535 3.66491 3.59581
# Velocity P-wave (km/s) = 6.27066 6.54221 6.40787
#
# Compressibility (1/GPa) = 0.02620121
#
# Stress axis : x y z
#
# Youngs Moduli (GPa) = 62.01264 44.21494 75.18720
#
# Poissons Ratio (x) = 0.27340 0.37538
# Poissons Ratio (y) = 0.38345 0.13118
# Poissons Ratio (z) = 0.30960 0.07714
#
# Static dielectric constant tensor:
#      x y z
#    x 3.273220 0.000000 0.000000 
#    y 0.000000 2.859850 0.000000 
#    z 0.000000 0.000000 3.169240 
# 
# 
# High freq. dielectric constant tensor:
#      x y z
#    x 1.665460 0.000000 0.000000 
#    y 0.000000 1.603200 0.000000 
#    z 0.000000 0.000000 1.642870 
# 
# From -- ./inp_files/44605.got.cif
#   From: 2010.06.25/outbox.cif.g09.slc.cpg/sg52_23_cif.got.tgz:44605.got - 2010.06.26 19:32:48.
