data_PCOD8216238
_publ_section_title
;
Structure prediction by ZEFSAII (Michael W. Deem and Ramdas Pophale) SiO2 
 PCOD8216238
Probable space group: P N N A
;
_chemical_formula_sum "Si O2"
_cell_formula_units_Z 60
_cell_length_a 8.993256
_cell_length_b 12.995252
_cell_length_c 24.750732
_cell_angle_alpha 90.000000
_cell_angle_beta 90.000000
_cell_angle_gamma 90.000000
_cell_volume 2892.608842
_symmetry_space_group_name_H-M "P N N A"
_symmetry_group_IT_number 52
_symmetry_cell_setting 'orthorhombic'
loop_
_space_group_symop_operation_xyz
x,y,z
1/2-x,-y,z
x,1/2-y,1/2-z
1/2-x,1/2+y,1/2-z
-x,-y,-z
1/2+x,y,-z
-x,1/2+y,1/2+z
1/2+x,1/2-y,1/2+z
loop_
_atom_site_type_symbol
_atom_site_label
_atom_site_fract_x
_atom_site_fract_y
_atom_site_fract_z
Si Si1 0.750000 0.000000 0.504756
Si Si2 0.916207 0.691718 0.400674
Si Si3 0.572886 0.484189 0.622756
Si Si4 0.404087 0.679541 0.797619
Si Si5 0.433576 0.277731 0.590228
Si Si6 0.996039 0.149301 0.516491
Si Si7 0.077097 0.998352 0.245494
Si Si8 0.917312 0.173900 0.299997
O O1 0.642351 0.078781 0.472198
O O2 0.859411 0.076953 0.536990
O O3 0.965406 0.750462 0.346138
O O4 0.739792 0.691076 0.410669
O O5 0.000293 0.749865 0.448142
O O6 0.982058 0.577911 0.403241
O O7 0.750000 0.500000 0.618628
O O8 0.529771 0.382957 0.588040
O O9 0.514216 0.480270 0.685145
O O10 0.346564 0.750000 0.750000
O O11 0.530492 0.608568 0.772611
O O12 0.247044 0.625980 0.813327
O O13 0.475616 0.192874 0.544582
O O14 0.479300 0.228337 0.646894
O O15 0.026011 0.081056 0.288431
O O16 0.250000 0.000000 0.239984
O O17 0.925421 0.250000 0.250000
#
# Coordination Sequence:
#
# PCOD8216238 Si02
#       8
#     4   8   8   8   8   8   8   8
#     4  10  24  46  72  90 136 166 216 270 326 382
#     4  11  24  44  69  96 130 173 223 272 319 391
#     4  11  25  40  66  97 137 174 211 266 335 390
#     4  10  21  39  64  91 124 171 219 261 314 383
#     4  11  24  44  69  96 130 173 223 272 319 391
#     4  11  24  47  70  98 130 173 216 269 330 380
#     4  11  23  39  58  94 135 172 209 265 330 386
#     4  10  21  39  64  91 124 171 219 261 314 383
#
# _framework density 20.742522000000001
#
# number of rings (size 3 to 8) (size 9 to 14) (size 15 to 20)
#    0.000    1.333    4.000    0.800    1.867    5.333 
#    2.400    0.000    0.000    0.000    0.000    0.000 
#    0.000    0.000    0.000    0.000    0.000    0.000 
#
# Total GULP energy -743419.275285 kJ/mol
# GULP energy per Si atom -12390.321255 kJ/mol
# Density = 2.069531 g / cm^3
# Si number density = 20.742522 Si / 1000 Ang^3
#
#
#
# Elastic Constant Matrix: (Units=GPa)
#
#
# Indices 1 2 3 4 5 6 
#
# 1 90.1639 53.6032 26.4463 0.0000 0.0000 0.0000
# 2 53.6032 126.4009 42.6905 0.0000 0.0000 0.0000
# 3 26.4463 42.6905 101.0956 0.0000 0.0000 0.0000
# 4 0.0000 0.0000 0.0000 29.3373 0.0000 0.0000
# 5 0.0000 0.0000 0.0000 0.0000 20.6954 0.0000
# 6 0.0000 0.0000 0.0000 0.0000 0.0000 107.7426
#
#
#
# Elastic Compliance Matrix: (Units=1/GPa)
#
#
# Indices 1 2 3 4 5 6 
#
# 1 0.015008 -0.005877 -0.001445 0.000000 0.000000 0.000000
# 2 -0.005877 0.011528 -0.003331 0.000000 0.000000 0.000000
# 3 -0.001445 -0.003331 0.011676 0.000000 0.000000 0.000000
# 4 0.000000 0.000000 0.000000 0.034086 0.000000 0.000000
# 5 0.000000 0.000000 0.000000 0.000000 0.048320 0.000000
# 6 0.000000 0.000000 0.000000 0.000000 0.000000 0.009281
#
#
# Mechanical properties :
#
#
# Convention : Reuss Voigt Hill
#
# Bulk Modulus (GPa) = 59.14152 62.57116 60.85634
# Shear Modulus (GPa) = 31.87941 44.54977 38.21459
#
# Velocity S-wave (km/s) = 3.92460 4.63941 4.29689
# Velocity P-wave (km/s) = 7.00791 7.67659 7.34985
#
# Compressibility (1/GPa) = 0.01690860
#
# Stress axis : x y z
#
# Youngs Moduli (GPa) = 66.62930 86.74158 85.64529
#
# Poissons Ratio (x) = 0.50976 0.12372
# Poissons Ratio (y) = 0.39157 0.28527
# Poissons Ratio (z) = 0.09625 0.28893
#
# Static dielectric constant tensor:
#      x y z
#    x 3.786430 0.000000 0.000000 
#    y 0.000000 3.600880 0.000000 
#    z 0.000000 0.000000 3.621380 
# 
# 
# High freq. dielectric constant tensor:
#      x y z
#    x 1.816870 0.000000 0.000000 
#    y 0.000000 1.822530 0.000000 
#    z 0.000000 0.000000 1.796330 
# 
# From -- ./inp_files/42343.got.cif
#   From: 2010.06.25/outbox.cif.g09.slc.cpg/sg52_22_cif.got.tgz:42343.got - 2010.06.26 19:32:48.
