data_PCOD8216736
_publ_section_title
;
Structure prediction by ZEFSAII (Michael W. Deem and Ramdas Pophale) SiO2 
 PCOD8216736
Probable space group: P N N A
;
_chemical_formula_sum "Si O2"
_cell_formula_units_Z 60
_cell_length_a 28.639854
_cell_length_b 10.934192
_cell_length_c 9.096745
_cell_angle_alpha 90.000000
_cell_angle_beta 90.000000
_cell_angle_gamma 90.000000
_cell_volume 2848.679013
_symmetry_space_group_name_H-M "P N N A"
_symmetry_group_IT_number 52
_symmetry_cell_setting 'orthorhombic'
loop_
_space_group_symop_operation_xyz
x,y,z
1/2-x,-y,z
x,1/2-y,1/2-z
1/2-x,1/2+y,1/2-z
-x,-y,-z
1/2+x,y,-z
-x,1/2+y,1/2+z
1/2+x,1/2-y,1/2+z
loop_
_atom_site_type_symbol
_atom_site_label
_atom_site_fract_x
_atom_site_fract_y
_atom_site_fract_z
Si Si1 0.938948 0.007301 0.870916
Si Si2 0.519810 0.823136 0.103298
Si Si3 0.363193 0.095880 0.531056
Si Si4 0.694797 0.814194 0.931143
Si Si5 0.274925 0.750000 0.250000
Si Si6 0.340711 0.523045 0.251763
Si Si7 0.964522 0.400808 0.942324
Si Si8 0.713338 0.605363 0.267137
O O1 0.885934 0.960990 0.855970
O O2 0.971322 0.888298 0.859976
O O3 0.951193 0.090980 0.728973
O O4 0.944776 0.077281 0.028193
O O5 0.538138 0.750000 0.250000
O O6 0.510208 0.727890 0.971759
O O7 0.348648 0.226983 0.464884
O O8 0.418965 0.097097 0.550002
O O9 0.334757 0.077828 0.681252
O O10 0.352694 0.983616 0.420570
O O11 0.741981 0.737192 0.895130
O O12 0.684010 0.894276 0.787697
O O13 0.702866 0.911375 0.061634
O O14 0.306389 0.633465 0.278080
O O15 0.000000 0.500000 0.000000
O O16 0.750000 0.500000 0.216878
O O17 0.729369 0.750000 0.250000
#
# Coordination Sequence:
#
# PCOD8216736 Si02
#       8
#     8   8   8   8   4   8   8   8
#     4  10  24  42  63  99 130 182 214 286 340 398
#     4  11  22  40  69  93 130 175 229 270 341 408
#     4  10  23  39  66  93 122 169 220 265 330 397
#     4  11  22  41  61  94 124 168 219 268 321 395
#     4  12  24  34  68  96 126 176 212 278 332 396
#     4  11  23  40  64  91 135 161 225 265 331 396
#     4  11  22  41  66  95 133 171 219 280 338 405
#     4  10  23  40  64  93 134 170 216 275 335 399
#
# _framework density 21.062393
#
# number of rings (size 3 to 8) (size 9 to 14) (size 15 to 20)
#    0.000    1.333    2.667    2.400    4.667    4.800 
#    0.000    0.000    0.000    0.000    0.000    0.000 
#    0.000    0.000    0.000    0.000    0.000    0.000 
#
# Total GULP energy -743497.332310 kJ/mol
# GULP energy per Si atom -12391.622205 kJ/mol
# Density = 2.101445 g / cm^3
# Si number density = 21.062393 Si / 1000 Ang^3
#
#
#
# Elastic Constant Matrix: (Units=GPa)
#
#
# Indices 1 2 3 4 5 6 
#
# 1 142.2168 66.8615 51.8265 0.0000 0.0000 0.0000
# 2 66.8615 63.5484 21.4652 0.0000 0.0000 0.0000
# 3 51.8265 21.4652 107.9685 0.0000 0.0000 0.0000
# 4 0.0000 0.0000 0.0000 33.7946 0.0000 0.0000
# 5 0.0000 0.0000 0.0000 0.0000 31.8743 0.0000
# 6 0.0000 0.0000 0.0000 0.0000 0.0000 26.7038
#
#
#
# Elastic Compliance Matrix: (Units=1/GPa)
#
#
# Indices 1 2 3 4 5 6 
#
# 1 0.015778 -0.015053 -0.004581 0.000000 0.000000 0.000000
# 2 -0.015053 0.031231 0.001017 0.000000 0.000000 0.000000
# 3 -0.004581 0.001017 0.011259 0.000000 0.000000 0.000000
# 4 0.000000 0.000000 0.000000 0.029590 0.000000 0.000000
# 5 0.000000 0.000000 0.000000 0.000000 0.031373 0.000000
# 6 0.000000 0.000000 0.000000 0.000000 0.000000 0.037448
#
#
# Mechanical properties :
#
#
# Convention : Reuss Voigt Hill
#
# Bulk Modulus (GPa) = 47.54521 66.00444 56.77482
# Shear Modulus (GPa) = 24.88499 30.04660 27.46579
#
# Velocity S-wave (km/s) = 3.44101 3.78107 3.61504
# Velocity P-wave (km/s) = 6.19757 7.10405 6.66624
#
# Compressibility (1/GPa) = 0.02103261
#
# Stress axis : x y z
#
# Youngs Moduli (GPa) = 63.37945 32.01990 88.82005
#
# Poissons Ratio (x) = 0.48200 0.40688
# Poissons Ratio (y) = 0.95406 -0.09031
# Poissons Ratio (z) = 0.29034 -0.03256
#
# Static dielectric constant tensor:
#      x y z
#    x 3.765080 0.000000 0.000000 
#    y 0.000000 3.890420 0.000000 
#    z 0.000000 0.000000 4.676300 
# 
# 
# High freq. dielectric constant tensor:
#      x y z
#    x 1.820350 0.000000 0.000000 
#    y 0.000000 1.818400 0.000000 
#    z 0.000000 0.000000 1.831830 
# 
# From -- ./inp_files/15074.got.cif
#   From: 2010.06.25/outbox.cif.g09.slc.cpg/sg52_8_cif.got.tgz:15074.got - 2010.06.26 19:32:48.
