data_PCOD8216393
_publ_section_title
;
Structure prediction by ZEFSAII (Michael W. Deem and Ramdas Pophale) SiO2 
 PCOD8216393
Probable space group: P N N A
;
_chemical_formula_sum "Si O2"
_cell_formula_units_Z 40
_cell_length_a 8.335637
_cell_length_b 15.910747
_cell_length_c 13.665709
_cell_angle_alpha 90.000000
_cell_angle_beta 90.000000
_cell_angle_gamma 90.000000
_cell_volume 1812.431211
_symmetry_space_group_name_H-M "P N N A"
_symmetry_group_IT_number 52
_symmetry_cell_setting 'orthorhombic'
loop_
_space_group_symop_operation_xyz
x,y,z
1/2-x,-y,z
x,1/2-y,1/2-z
1/2-x,1/2+y,1/2-z
-x,-y,-z
1/2+x,y,-z
-x,1/2+y,1/2+z
1/2+x,1/2-y,1/2+z
loop_
_atom_site_type_symbol
_atom_site_label
_atom_site_fract_x
_atom_site_fract_y
_atom_site_fract_z
Si Si1 0.372072 0.938107 0.955408
Si Si2 0.826494 0.590772 0.097126
Si Si3 0.507772 0.160045 0.224361
Si Si4 0.040897 0.693924 0.960009
Si Si5 0.741172 0.196847 0.900478
O O1 0.432696 0.868476 0.881387
O O2 0.250000 0.000000 0.899053
O O3 0.280843 0.889992 0.042220
O O4 0.500000 0.000000 0.000000
O O5 0.750000 0.500000 0.079488
O O6 0.941478 0.593081 0.192989
O O7 0.678070 0.655546 0.109709
O O8 0.934380 0.617907 0.004660
O O9 0.586826 0.250000 0.250000
O O10 0.313956 0.172346 0.207414
O O11 0.928372 0.754380 0.894054
O O12 0.122720 0.745261 0.048343
#
# Coordination Sequence:
#
# PCOD8216393 Si02
#       5
#     8   8   8   8   8
#     4  12  23  41  69 101 138 183 231 289 359 416
#     4  11  23  42  71 101 136 176 230 299 347 411
#     4  12  23  42  68  97 144 178 233 288 336 425
#     4  10  21  42  73  94 129 188 231 272 356 423
#     4  11  20  42  69  98 135 185 228 277 350 425
#
# _framework density 22.069803
#
# number of rings (size 3 to 8) (size 9 to 14) (size 15 to 20)
#    0.000    0.800    6.000    2.400    0.000    0.000 
#    0.000    9.000    4.400    0.000    0.000    0.000 
#    0.000    0.000    0.000    0.000    0.000    0.000 
#
# Total GULP energy -495717.986790 kJ/mol
# GULP energy per Si atom -12392.949670 kJ/mol
# Density = 2.201957 g / cm^3
# Si number density = 22.069803 Si / 1000 Ang^3
#
#
#
# Elastic Constant Matrix: (Units=GPa)
#
#
# Indices 1 2 3 4 5 6 
#
# 1 117.4053 36.9443 39.1881 0.0000 0.0000 0.0000
# 2 36.9443 118.0567 29.2694 0.0000 0.0000 0.0000
# 3 39.1881 29.2694 71.8806 0.0000 0.0000 0.0000
# 4 0.0000 0.0000 0.0000 31.5644 0.0000 0.0000
# 5 0.0000 0.0000 0.0000 0.0000 38.3864 0.0000
# 6 0.0000 0.0000 0.0000 0.0000 0.0000 49.1364
#
#
#
# Elastic Compliance Matrix: (Units=1/GPa)
#
#
# Indices 1 2 3 4 5 6 
#
# 1 0.010882 -0.002152 -0.005057 0.000000 0.000000 0.000000
# 2 -0.002152 0.009847 -0.002837 0.000000 0.000000 0.000000
# 3 -0.005057 -0.002837 0.017824 0.000000 0.000000 0.000000
# 4 0.000000 0.000000 0.000000 0.031681 0.000000 0.000000
# 5 0.000000 0.000000 0.000000 0.000000 0.026051 0.000000
# 6 0.000000 0.000000 0.000000 0.000000 0.000000 0.020352
#
#
# Mechanical properties :
#
#
# Convention : Reuss Voigt Hill
#
# Bulk Modulus (GPa) = 54.16173 57.57179 55.86676
# Shear Modulus (GPa) = 34.99394 37.28015 36.13704
#
# Velocity S-wave (km/s) = 3.98628 4.11444 4.05087
# Velocity P-wave (km/s) = 6.76621 6.97956 6.87372
#
# Compressibility (1/GPa) = 0.01846322
#
# Stress axis : x y z
#
# Youngs Moduli (GPa) = 91.89070 101.55218 56.10459
#
# Poissons Ratio (x) = 0.21852 0.28371
# Poissons Ratio (y) = 0.19773 0.15914
# Poissons Ratio (z) = 0.46467 0.28806
#
# Static dielectric constant tensor:
#      x y z
#    x 4.341130 0.000000 0.000000 
#    y 0.000000 4.138450 0.000000 
#    z 0.000000 0.000000 3.498150 
# 
# 
# High freq. dielectric constant tensor:
#      x y z
#    x 1.882940 0.000000 0.000000 
#    y 0.000000 1.880300 0.000000 
#    z 0.000000 0.000000 1.832780 
# 
# From -- ./inp_files/24399.got.cif
#   From: 2010.06.25/outbox.cif.g09.slc.cpg/sg52_13_cif.got.tgz:24399.got - 2010.06.26 19:32:48.
