data_PCOD8216428
_publ_section_title
;
Structure prediction by ZEFSAII (Michael W. Deem and Ramdas Pophale) SiO2 
 PCOD8216428
Probable space group: P N N A
;
_chemical_formula_sum "Si O2"
_cell_formula_units_Z 36
_cell_length_a 15.465790
_cell_length_b 5.262518
_cell_length_c 22.301461
_cell_angle_alpha 90.000000
_cell_angle_beta 90.000000
_cell_angle_gamma 90.000000
_cell_volume 1815.093571
_symmetry_space_group_name_H-M "P N N A"
_symmetry_group_IT_number 52
_symmetry_cell_setting 'orthorhombic'
loop_
_space_group_symop_operation_xyz
x,y,z
1/2-x,-y,z
x,1/2-y,1/2-z
1/2-x,1/2+y,1/2-z
-x,-y,-z
1/2+x,y,-z
-x,1/2+y,1/2+z
1/2+x,1/2-y,1/2+z
loop_
_atom_site_type_symbol
_atom_site_label
_atom_site_fract_x
_atom_site_fract_y
_atom_site_fract_z
Si Si1 0.840422 0.639453 0.311602
Si Si2 0.049116 0.973012 0.438682
Si Si3 0.825436 0.325372 0.494808
Si Si4 0.750000 0.500000 0.106683
Si Si5 0.964427 0.471315 0.406409
O O1 0.750000 0.500000 0.297125
O O2 0.880452 0.750000 0.250000
O O3 0.826483 0.881873 0.354274
O O4 0.904840 0.448080 0.346578
O O5 0.148248 0.895021 0.457163
O O6 0.013505 0.738325 0.399852
O O7 0.000000 0.000000 0.500000
O O8 0.035250 0.240409 0.403962
O O9 0.750000 0.500000 0.523870
O O10 0.910544 0.476978 0.470249
O O11 0.790358 0.218235 0.433023
#
# Coordination Sequence:
#
# PCOD8216428 Si02
#       5
#     8   8   8   4   8
#     4  12  23  34  53  76 107 152 198 245 284 335
#     4  10  22  34  52  73 103 146 188 226 282 343
#     4  11  21  31  54  76 106 146 191 235 288 339
#     4  12  20  34  50  76 114 142 190 240 284 324
#     4  11  21  38  50  73 108 146 187 235 278 333
#
# _framework density 19.833687000000001
#
# number of rings (size 3 to 8) (size 9 to 14) (size 15 to 20)
#    0.000    0.889    5.556    5.333    3.111    0.000 
#    0.000    0.000    0.000    0.000    0.000    0.000 
#    0.000    0.000    3.778    0.222    8.000    0.000 
#
# Total GULP energy -446092.575791 kJ/mol
# GULP energy per Si atom -12391.460439 kJ/mol
# Density = 1.978854 g / cm^3
# Si number density = 19.833687 Si / 1000 Ang^3
#
#
#
# Elastic Constant Matrix: (Units=GPa)
#
#
# Indices 1 2 3 4 5 6 
#
# 1 80.3917 42.9173 35.3632 0.0000 0.0000 0.0000
# 2 42.9173 126.5670 33.4478 0.0000 0.0000 0.0000
# 3 35.3632 33.4478 68.8495 0.0000 0.0000 0.0000
# 4 0.0000 0.0000 0.0000 19.4793 0.0000 0.0000
# 5 0.0000 0.0000 0.0000 0.0000 26.1060 0.0000
# 6 0.0000 0.0000 0.0000 0.0000 0.0000 39.1315
#
#
#
# Elastic Compliance Matrix: (Units=1/GPa)
#
#
# Indices 1 2 3 4 5 6 
#
# 1 0.017786 -0.004150 -0.007120 0.000000 0.000000 0.000000
# 2 -0.004150 0.010033 -0.002743 0.000000 0.000000 0.000000
# 3 -0.007120 -0.002743 0.019514 0.000000 0.000000 0.000000
# 4 0.000000 0.000000 0.000000 0.051337 0.000000 0.000000
# 5 0.000000 0.000000 0.000000 0.000000 0.038305 0.000000
# 6 0.000000 0.000000 0.000000 0.000000 0.000000 0.025555
#
#
# Mechanical properties :
#
#
# Convention : Reuss Voigt Hill
#
# Bulk Modulus (GPa) = 51.78946 55.47384 53.63165
# Shear Modulus (GPa) = 25.38206 27.88204 26.63205
#
# Velocity S-wave (km/s) = 3.58123 3.75346 3.66836
# Velocity P-wave (km/s) = 6.57791 6.84213 6.71132
#
# Compressibility (1/GPa) = 0.01930895
#
# Stress axis : x y z
#
# Youngs Moduli (GPa) = 56.22344 99.67274 51.24606
#
# Poissons Ratio (x) = 0.41360 0.36485
# Poissons Ratio (y) = 0.23330 0.14055
# Poissons Ratio (z) = 0.40029 0.27337
#
# Static dielectric constant tensor:
#      x y z
#    x 4.395560 0.000000 0.000000 
#    y 0.000000 4.240340 0.000000 
#    z 0.000000 0.000000 3.358190 
# 
# 
# High freq. dielectric constant tensor:
#      x y z
#    x 1.741750 0.000000 0.000000 
#    y 0.000000 1.798330 0.000000 
#    z 0.000000 0.000000 1.714470 
# 
# From -- ./inp_files/40425.got.cif
#   From: 2010.06.25/outbox.cif.g09.slc.cpg/sg52_21_cif.got.tgz:40425.got - 2010.06.26 19:32:48.
