data_PCOD8216485
_publ_section_title
;
Structure prediction by ZEFSAII (Michael W. Deem and Ramdas Pophale) SiO2 
 PCOD8216485
Probable space group: P N N A
;
_chemical_formula_sum "Si O2"
_cell_formula_units_Z 40
_cell_length_a 9.164249
_cell_length_b 8.362657
_cell_length_c 26.957134
_cell_angle_alpha 90.000000
_cell_angle_beta 90.000000
_cell_angle_gamma 90.000000
_cell_volume 2065.926577
_symmetry_space_group_name_H-M "P N N A"
_symmetry_group_IT_number 52
_symmetry_cell_setting 'orthorhombic'
loop_
_space_group_symop_operation_xyz
x,y,z
1/2-x,-y,z
x,1/2-y,1/2-z
1/2-x,1/2+y,1/2-z
-x,-y,-z
1/2+x,y,-z
-x,1/2+y,1/2+z
1/2+x,1/2-y,1/2+z
loop_
_atom_site_type_symbol
_atom_site_label
_atom_site_fract_x
_atom_site_fract_y
_atom_site_fract_z
Si Si1 0.581729 0.514600 0.340294
Si Si2 0.090606 0.949648 0.452950
Si Si3 0.433150 0.660756 0.140280
Si Si4 0.102037 0.574382 0.768318
Si Si5 0.839235 0.159662 0.895842
O O1 0.750000 0.500000 0.355015
O O2 0.538301 0.687059 0.361493
O O3 0.553622 0.484000 0.281785
O O4 0.481855 0.379687 0.364480
O O5 0.098254 0.757778 0.443109
O O6 0.250000 0.000000 0.467585
O O7 0.029418 0.042212 0.404680
O O8 0.000000 0.000000 0.500000
O O9 0.468649 0.570233 0.192212
O O10 0.264876 0.720584 0.136402
O O11 0.250000 0.500000 0.791828
O O12 0.144314 0.750000 0.750000
O O13 0.750000 0.000000 0.912183
#
# Coordination Sequence:
#
# PCOD8216485 Si02
#       5
#     8   8   8   8   8
#     4   9  18  34  56  83 112 146 186 225 268 325
#     4  10  22  39  57  80 107 137 179 230 279 330
#     4   9  19  36  54  77 111 146 180 227 277 325
#     4   9  18  32  52  81 113 145 187 230 267 317
#     4   9  19  39  58  77 112 146 179 226 278 335
#
# _framework density 19.361772999999999
#
# number of rings (size 3 to 8) (size 9 to 14) (size 15 to 20)
#    0.000    2.800    0.000    0.000    0.000    7.200 
#    0.000   33.000    0.000    0.000    0.000    0.000 
#    0.000    0.000    0.000    0.000    0.000    0.000 
#
# Total GULP energy -495645.488584 kJ/mol
# GULP energy per Si atom -12391.137215 kJ/mol
# Density = 1.931770 g / cm^3
# Si number density = 19.361773 Si / 1000 Ang^3
#
#
#
# Elastic Constant Matrix: (Units=GPa)
#
#
# Indices 1 2 3 4 5 6 
#
# 1 118.4972 51.3508 77.9663 0.0000 0.0000 0.0000
# 2 51.3508 83.1468 70.0236 0.0000 0.0000 0.0000
# 3 77.9663 70.0236 123.7297 0.0000 0.0000 0.0000
# 4 0.0000 0.0000 0.0000 13.2928 0.0000 0.0000
# 5 0.0000 0.0000 0.0000 0.0000 17.3014 0.0000
# 6 0.0000 0.0000 0.0000 0.0000 0.0000 26.4462
#
#
#
# Elastic Compliance Matrix: (Units=1/GPa)
#
#
# Indices 1 2 3 4 5 6 
#
# 1 0.014670 -0.002436 -0.007865 0.000000 0.000000 0.000000
# 2 -0.002436 0.023384 -0.011699 0.000000 0.000000 0.000000
# 3 -0.007865 -0.011699 0.019659 0.000000 0.000000 0.000000
# 4 0.000000 0.000000 0.000000 0.075229 0.000000 0.000000
# 5 0.000000 0.000000 0.000000 0.000000 0.057799 0.000000
# 6 0.000000 0.000000 0.000000 0.000000 0.000000 0.037813
#
#
# Mechanical properties :
#
#
# Convention : Reuss Voigt Hill
#
# Bulk Modulus (GPa) = 72.92644 80.45056 76.68850
# Shear Modulus (GPa) = 18.04249 19.81027 18.92638
#
# Velocity S-wave (km/s) = 3.05595 3.20216 3.12991
# Velocity P-wave (km/s) = 7.08511 7.43729 7.26333
#
# Compressibility (1/GPa) = 0.01371245
#
# Stress axis : x y z
#
# Youngs Moduli (GPa) = 68.16799 42.76478 50.86716
#
# Poissons Ratio (x) = 0.10418 0.40008
# Poissons Ratio (y) = 0.16606 0.59508
# Poissons Ratio (z) = 0.53615 0.50029
#
# Static dielectric constant tensor:
#      x y z
#    x 3.543380 0.000000 0.000000 
#    y 0.000000 3.726890 0.000000 
#    z 0.000000 0.000000 3.530030 
# 
# 
# High freq. dielectric constant tensor:
#      x y z
#    x 1.753260 0.000000 0.000000 
#    y 0.000000 1.763630 0.000000 
#    z 0.000000 0.000000 1.730600 
# 
# From -- ./inp_files/42092.got.cif
#   From: 2010.06.25/outbox.cif.g09.slc.cpg/sg52_22_cif.got.tgz:42092.got - 2010.06.26 19:32:48.
