data_PCOD8216862
_publ_section_title
;
Structure prediction by ZEFSAII (Michael W. Deem and Ramdas Pophale) SiO2 
 PCOD8216862
Probable space group: P N N A
;
_chemical_formula_sum "Si O2"
_cell_formula_units_Z 48
_cell_length_a 8.241195
_cell_length_b 14.576905
_cell_length_c 18.265371
_cell_angle_alpha 90.000000
_cell_angle_beta 90.000000
_cell_angle_gamma 90.000000
_cell_volume 2194.239413
_symmetry_space_group_name_H-M "P N N A"
_symmetry_group_IT_number 52
_symmetry_cell_setting 'orthorhombic'
loop_
_space_group_symop_operation_xyz
x,y,z
1/2-x,-y,z
x,1/2-y,1/2-z
1/2-x,1/2+y,1/2-z
-x,-y,-z
1/2+x,y,-z
-x,1/2+y,1/2+z
1/2+x,1/2-y,1/2+z
loop_
_atom_site_type_symbol
_atom_site_label
_atom_site_fract_x
_atom_site_fract_y
_atom_site_fract_z
Si Si1 0.393169 0.312377 0.032801
Si Si2 0.750000 0.500000 0.509787
Si Si3 0.673632 0.095819 0.226743
Si Si4 0.068299 0.750000 0.750000
Si Si5 0.551123 0.340943 0.890937
Si Si6 0.980998 0.617433 0.420072
Si Si7 0.926240 0.535159 0.119267
O O1 0.213731 0.317488 0.064810
O O2 0.477450 0.218137 0.053844
O O3 0.500330 0.398747 0.058527
O O4 0.397269 0.318217 0.944042
O O5 0.683186 0.416821 0.459844
O O6 0.883412 0.457878 0.563217
O O7 0.820955 0.165937 0.226834
O O8 0.540826 0.124138 0.167134
O O9 0.586394 0.091607 0.305217
O O10 0.750000 0.000000 0.203682
O O11 0.955308 0.721864 0.818531
O O12 0.544022 0.447807 0.868257
O O13 0.750000 0.500000 0.093043
#
# Coordination Sequence:
#
# PCOD8216862 Si02
#       7
#     8   4   8   4   8   8   8
#     4  12  27  45  73 109 145 190 243 307 366 441
#     4  10  24  42  66 102 142 186 252 306 364 432
#     4  11  23  43  73 100 138 190 236 291 367 435
#     4  12  26  46  76 104 142 188 242 296 360 446
#     4  12  27  46  74 105 148 190 246 301 367 433
#     4  11  24  44  69 103 141 190 242 302 366 439
#     4  11  23  48  71 107 141 193 239 299 367 434
#
# _framework density 21.87546
#
# number of rings (size 3 to 8) (size 9 to 14) (size 15 to 20)
#    0.000    0.667    4.167    4.000    4.667    2.667 
#    3.000    0.000    0.000    0.000    0.000    0.000 
#    0.000    0.000    0.000    0.000    0.000    0.000 
#
# Total GULP energy -595413.852971 kJ/mol
# GULP energy per Si atom -12404.455270 kJ/mol
# Density = 2.182567 g / cm^3
# Si number density = 21.875460 Si / 1000 Ang^3
#
#
#
# Elastic Constant Matrix: (Units=GPa)
#
#
# Indices 1 2 3 4 5 6 
#
# 1 98.0433 28.7262 47.1737 0.0000 0.0000 0.0000
# 2 28.7262 128.7833 30.9998 0.0000 0.0000 0.0000
# 3 47.1737 30.9998 129.1951 0.0000 0.0000 0.0000
# 4 0.0000 0.0000 0.0000 34.3549 0.0000 0.0000
# 5 0.0000 0.0000 0.0000 0.0000 38.9044 0.0000
# 6 0.0000 0.0000 0.0000 0.0000 0.0000 37.0321
#
#
#
# Elastic Compliance Matrix: (Units=1/GPa)
#
#
# Indices 1 2 3 4 5 6 
#
# 1 0.012768 -0.001832 -0.004223 0.000000 0.000000 0.000000
# 2 -0.001832 0.008504 -0.001372 0.000000 0.000000 0.000000
# 3 -0.004223 -0.001372 0.009611 0.000000 0.000000 0.000000
# 4 0.000000 0.000000 0.000000 0.029108 0.000000 0.000000
# 5 0.000000 0.000000 0.000000 0.000000 0.025704 0.000000
# 6 0.000000 0.000000 0.000000 0.000000 0.000000 0.027004
#
#
# Mechanical properties :
#
#
# Convention : Reuss Voigt Hill
#
# Bulk Modulus (GPa) = 62.37824 63.31347 62.84585
# Shear Modulus (GPa) = 37.62408 38.66640 38.14524
#
# Velocity S-wave (km/s) = 4.15169 4.20881 4.18035
# Velocity P-wave (km/s) = 7.18047 7.25426 7.21746
#
# Compressibility (1/GPa) = 0.01603123
#
# Stress axis : x y z
#
# Youngs Moduli (GPa) = 78.32141 117.59580 104.04581
#
# Poissons Ratio (x) = 0.21538 0.43934
# Poissons Ratio (y) = 0.14345 0.14272
# Poissons Ratio (z) = 0.33071 0.16130
#
# Static dielectric constant tensor:
#      x y z
#    x 3.876090 0.000000 0.000000 
#    y 0.000000 4.070260 0.000000 
#    z 0.000000 0.000000 4.080290 
# 
# 
# High freq. dielectric constant tensor:
#      x y z
#    x 1.850370 0.000000 0.000000 
#    y 0.000000 1.881040 0.000000 
#    z 0.000000 0.000000 1.868710 
# 
# From -- ./inp_files/31274.got.cif
#   From: 2010.06.25/outbox.cif.g09.slc.cpg/sg52_16_cif.got.tgz:31274.got - 2010.06.26 19:32:48.
