data_PCOD8216276
_publ_section_title
;
Structure prediction by ZEFSAII (Michael W. Deem and Ramdas Pophale) SiO2 
 PCOD8216276
Probable space group: P N N A
;
_chemical_formula_sum "Si O2"
_cell_formula_units_Z 40
_cell_length_a 9.366561
_cell_length_b 8.710955
_cell_length_c 22.380866
_cell_angle_alpha 90.000000
_cell_angle_beta 90.000000
_cell_angle_gamma 90.000000
_cell_volume 1826.092711
_symmetry_space_group_name_H-M "P N N A"
_symmetry_group_IT_number 52
_symmetry_cell_setting 'orthorhombic'
loop_
_space_group_symop_operation_xyz
x,y,z
1/2-x,-y,z
x,1/2-y,1/2-z
1/2-x,1/2+y,1/2-z
-x,-y,-z
1/2+x,y,-z
-x,1/2+y,1/2+z
1/2+x,1/2-y,1/2+z
loop_
_atom_site_type_symbol
_atom_site_label
_atom_site_fract_x
_atom_site_fract_y
_atom_site_fract_z
Si Si1 0.906497 0.252901 0.533224
Si Si2 0.731729 0.819374 0.189029
Si Si3 0.750000 0.000000 0.610958
Si Si4 0.250000 0.000000 0.104174
Si Si5 0.714224 0.322224 0.068166
Si Si6 0.901894 0.752436 0.682541
O O1 0.869398 0.415696 0.563684
O O2 0.847622 0.257197 0.465408
O O3 0.074255 0.216404 0.528873
O O4 0.833125 0.115947 0.568963
O O5 0.797853 0.750000 0.250000
O O6 0.816711 0.751194 0.132806
O O7 0.570294 0.766335 0.181973
O O8 0.750000 0.000000 0.190990
O O9 0.864769 0.915286 0.652846
O O10 0.331451 0.883215 0.146055
O O11 0.750000 0.500000 0.075131
O O12 0.842258 0.750000 0.750000
#
# Coordination Sequence:
#
# PCOD8216276 Si02
#       6
#     8   8   4   4   8   8
#     4  11  25  40  64  96 131 173 214 273 332 398
#     4  11  25  44  67  95 131 174 223 275 335 399
#     4  10  21  40  62  92 131 166 220 266 328 394
#     4  10  23  40  62  96 135 164 222 270 340 394
#     4  12  25  42  67  97 132 175 220 273 332 399
#     4  10  21  40  65  93 127 175 219 273 326 393
#
# _framework density 21.904691
#
# number of rings (size 3 to 8) (size 9 to 14) (size 15 to 20)
#    0.000    1.200    1.000    4.200    7.000    2.400 
#    0.000    5.000    0.000    0.000    0.000    0.000 
#    0.000    0.000    0.000    0.000    0.000    0.000 
#
# Total GULP energy -496211.362960 kJ/mol
# GULP energy per Si atom -12405.284074 kJ/mol
# Density = 2.185484 g / cm^3
# Si number density = 21.904691 Si / 1000 Ang^3
#
#
#
# Elastic Constant Matrix: (Units=GPa)
#
#
# Indices 1 2 3 4 5 6 
#
# 1 88.1634 27.9351 24.5458 0.0000 0.0000 0.0000
# 2 27.9351 129.5792 40.9122 0.0000 0.0000 0.0000
# 3 24.5458 40.9122 138.5758 0.0000 0.0000 0.0000
# 4 0.0000 0.0000 0.0000 14.6183 0.0000 0.0000
# 5 0.0000 0.0000 0.0000 0.0000 23.9707 0.0000
# 6 0.0000 0.0000 0.0000 0.0000 0.0000 31.1689
#
#
#
# Elastic Compliance Matrix: (Units=1/GPa)
#
#
# Indices 1 2 3 4 5 6 
#
# 1 0.012473 -0.002196 -0.001561 0.000000 0.000000 0.000000
# 2 -0.002196 0.008897 -0.002238 0.000000 0.000000 0.000000
# 3 -0.001561 -0.002238 0.008153 0.000000 0.000000 0.000000
# 4 0.000000 0.000000 0.000000 0.068407 0.000000 0.000000
# 5 0.000000 0.000000 0.000000 0.000000 0.041718 0.000000
# 6 0.000000 0.000000 0.000000 0.000000 0.000000 0.032083
#
#
# Mechanical properties :
#
#
# Convention : Reuss Voigt Hill
#
# Bulk Modulus (GPa) = 57.03211 60.34497 58.68854
# Shear Modulus (GPa) = 26.37597 31.47993 28.92795
#
# Velocity S-wave (km/s) = 3.47381 3.79506 3.63799
# Velocity P-wave (km/s) = 6.49483 6.84193 6.67064
#
# Compressibility (1/GPa) = 0.01753398
#
# Stress axis : x y z
#
# Youngs Moduli (GPa) = 80.17305 112.39405 122.64782
#
# Poissons Ratio (x) = 0.24683 0.19145
# Poissons Ratio (y) = 0.17607 0.27446
# Poissons Ratio (z) = 0.12515 0.25151
#
# Static dielectric constant tensor:
#      x y z
#    x 3.930110 0.000000 0.000000 
#    y 0.000000 4.112990 0.000000 
#    z 0.000000 0.000000 4.480850 
# 
# 
# High freq. dielectric constant tensor:
#      x y z
#    x 1.855180 0.000000 0.000000 
#    y 0.000000 1.873730 0.000000 
#    z 0.000000 0.000000 1.880480 
# 
# From -- ./inp_files/39278.got.cif
#   From: 2010.06.25/outbox.cif.g09.slc.cpg/sg52_20_cif.got.tgz:39278.got - 2010.06.26 19:32:48.
