data_PCOD8216892
_publ_section_title
;
Structure prediction by ZEFSAII (Michael W. Deem and Ramdas Pophale) SiO2 
 PCOD8216892
Probable space group: P N N A
;
_chemical_formula_sum "Si O2"
_cell_formula_units_Z 48
_cell_length_a 9.643087
_cell_length_b 8.292849
_cell_length_c 26.728065
_cell_angle_alpha 90.000000
_cell_angle_beta 90.000000
_cell_angle_gamma 90.000000
_cell_volume 2137.407660
_symmetry_space_group_name_H-M "P N N A"
_symmetry_group_IT_number 52
_symmetry_cell_setting 'orthorhombic'
loop_
_space_group_symop_operation_xyz
x,y,z
1/2-x,-y,z
x,1/2-y,1/2-z
1/2-x,1/2+y,1/2-z
-x,-y,-z
1/2+x,y,-z
-x,1/2+y,1/2+z
1/2+x,1/2-y,1/2+z
loop_
_atom_site_type_symbol
_atom_site_label
_atom_site_fract_x
_atom_site_fract_y
_atom_site_fract_z
Si Si1 0.939713 0.830398 0.850853
Si Si2 0.477869 0.179445 0.021544
Si Si3 0.511871 0.197100 0.134093
Si Si4 0.295314 0.178411 0.298952
Si Si5 0.274500 0.311273 0.693900
Si Si6 0.689919 0.179614 0.549273
O O1 0.840056 0.790531 0.804732
O O2 0.869348 0.750512 0.899260
O O3 0.091338 0.758958 0.838297
O O4 0.952561 0.021197 0.854127
O O5 0.546656 0.203022 0.075794
O O6 0.313206 0.211014 0.026055
O O7 0.557891 0.311137 0.987837
O O8 0.500000 0.000000 0.000000
O O9 0.390672 0.318970 0.151226
O O10 0.644239 0.260799 0.164455
O O11 0.375360 0.250000 0.250000
O O12 0.250000 0.000000 0.288263
O O13 0.250000 0.500000 0.695009
O O14 0.285848 0.250000 0.750000
O O15 0.750000 0.000000 0.556132
#
# Coordination Sequence:
#
# PCOD8216892 Si02
#       6
#     8   8   8   8   8   8
#     4  11  23  43  72  99 140 185 238 299 364 438
#     4  12  26  45  77 105 144 195 251 303 377 449
#     4  11  24  44  70 104 140 187 245 302 360 444
#     4  12  25  43  70 104 142 189 240 301 367 437
#     4  10  24  44  67 101 142 183 237 293 357 434
#     4  12  27  48  70 108 149 186 244 309 376 449
#
# _framework density 22.457111000000001
#
# number of rings (size 3 to 8) (size 9 to 14) (size 15 to 20)
#    0.000    0.667    3.333    4.000    2.333    5.333 
#    0.000    0.000    0.000    0.000    0.000    0.000 
#    0.000    0.000    0.000    0.000    0.000    0.000 
#
# Total GULP energy -595071.301521 kJ/mol
# GULP energy per Si atom -12397.318782 kJ/mol
# Density = 2.240600 g / cm^3
# Si number density = 22.457111 Si / 1000 Ang^3
#
#
#
# Elastic Constant Matrix: (Units=GPa)
#
#
# Indices 1 2 3 4 5 6 
#
# 1 154.2593 35.8977 60.5468 0.0000 0.0000 0.0000
# 2 35.8977 59.9958 39.1186 0.0000 0.0000 0.0000
# 3 60.5468 39.1186 139.7289 0.0000 0.0000 0.0000
# 4 0.0000 0.0000 0.0000 36.5258 0.0000 0.0000
# 5 0.0000 0.0000 0.0000 0.0000 52.5893 0.0000
# 6 0.0000 0.0000 0.0000 0.0000 0.0000 25.4559
#
#
#
# Elastic Compliance Matrix: (Units=1/GPa)
#
#
# Indices 1 2 3 4 5 6 
#
# 1 0.008285 -0.003201 -0.002694 0.000000 0.000000 0.000000
# 2 -0.003201 0.021626 -0.004668 0.000000 0.000000 0.000000
# 3 -0.002694 -0.004668 0.009631 0.000000 0.000000 0.000000
# 4 0.000000 0.000000 0.000000 0.027378 0.000000 0.000000
# 5 0.000000 0.000000 0.000000 0.000000 0.019015 0.000000
# 6 0.000000 0.000000 0.000000 0.000000 0.000000 0.039284
#
#
# Mechanical properties :
#
#
# Convention : Reuss Voigt Hill
#
# Bulk Modulus (GPa) = 54.29601 69.45671 61.87636
# Shear Modulus (GPa) = 32.79076 37.47558 35.13317
#
# Velocity S-wave (km/s) = 3.82534 4.08948 3.95961
# Velocity P-wave (km/s) = 6.61370 7.30029 6.96546
#
# Compressibility (1/GPa) = 0.01841756
#
# Stress axis : x y z
#
# Youngs Moduli (GPa) = 120.70370 46.24007 103.83384
#
# Poissons Ratio (x) = 0.14800 0.27972
# Poissons Ratio (y) = 0.38632 0.48466
# Poissons Ratio (z) = 0.32516 0.21583
#
# Static dielectric constant tensor:
#      x y z
#    x 4.474250 0.000000 0.000000 
#    y 0.000000 3.917770 0.000000 
#    z 0.000000 0.000000 4.221910 
# 
# 
# High freq. dielectric constant tensor:
#      x y z
#    x 1.898680 0.000000 0.000000 
#    y 0.000000 1.876000 0.000000 
#    z 0.000000 0.000000 1.901730 
# 
# From -- ./inp_files/44349.got.cif
#   From: 2010.06.25/outbox.cif.g09.slc.cpg/sg52_23_cif.got.tgz:44349.got - 2010.06.26 19:32:48.
