data_PCOD8216837
_publ_section_title
;
Structure prediction by ZEFSAII (Michael W. Deem and Ramdas Pophale) SiO2 
 PCOD8216837
Probable space group: P N N A
;
_chemical_formula_sum "Si O2"
_cell_formula_units_Z 32
_cell_length_a 5.311370
_cell_length_b 10.786933
_cell_length_c 23.304223
_cell_angle_alpha 90.000000
_cell_angle_beta 90.000000
_cell_angle_gamma 90.000000
_cell_volume 1335.177991
_symmetry_space_group_name_H-M "P N N A"
_symmetry_group_IT_number 52
_symmetry_cell_setting 'orthorhombic'
loop_
_space_group_symop_operation_xyz
x,y,z
1/2-x,-y,z
x,1/2-y,1/2-z
1/2-x,1/2+y,1/2-z
-x,-y,-z
1/2+x,y,-z
-x,1/2+y,1/2+z
1/2+x,1/2-y,1/2+z
loop_
_atom_site_type_symbol
_atom_site_label
_atom_site_fract_x
_atom_site_fract_y
_atom_site_fract_z
Si Si1 0.010603 0.861241 0.524095
Si Si2 0.942066 0.116312 0.722176
Si Si3 0.553604 0.835163 0.341342
Si Si4 0.499745 0.453861 0.665320
O O1 0.755586 0.792455 0.502838
O O2 0.026519 0.858874 0.591893
O O3 0.000000 0.000000 0.500000
O O4 0.930219 0.250000 0.750000
O O5 0.668997 0.089560 0.690814
O O6 0.171134 0.114842 0.676707
O O7 0.992517 0.016724 0.772065
O O8 0.511930 0.692023 0.325546
O O9 0.750000 0.500000 0.631090
O O10 0.250000 0.500000 0.631730
#
# Coordination Sequence:
#
# PCOD8216837 Si02
#       4
#     8   8   8   8
#     4  10  23  48  68  96 124 165 233 293 331 384
#     4  12  23  41  64 106 144 178 214 255 325 426
#     4  12  24  44  69  95 139 185 210 283 338 374
#     4  12  23  40  63  99 145 175 222 253 318 417
#
# _framework density 23.966843000000001
#
# number of rings (size 3 to 8) (size 9 to 14) (size 15 to 20)
#    0.000    0.500    5.000    3.750    0.000    0.000 
#   27.000    0.000    0.000    4.500    0.000    0.000 
#    0.000    0.000    0.000    0.000    0.000    0.000 
#
# Total GULP energy -396621.752710 kJ/mol
# GULP energy per Si atom -12394.429772 kJ/mol
# Density = 2.391229 g / cm^3
# Si number density = 23.966843 Si / 1000 Ang^3
#
#
#
# Elastic Constant Matrix: (Units=GPa)
#
#
# Indices 1 2 3 4 5 6 
#
# 1 265.7223 20.7535 48.7682 0.0000 0.0000 0.0000
# 2 20.7535 88.6293 26.4476 0.0000 0.0000 0.0000
# 3 48.7682 26.4476 141.1080 0.0000 0.0000 0.0000
# 4 0.0000 0.0000 0.0000 11.2051 0.0000 0.0000
# 5 0.0000 0.0000 0.0000 0.0000 36.7635 0.0000
# 6 0.0000 0.0000 0.0000 0.0000 0.0000 47.9227
#
#
#
# Elastic Compliance Matrix: (Units=1/GPa)
#
#
# Indices 1 2 3 4 5 6 
#
# 1 0.004044 -0.000561 -0.001293 0.000000 0.000000 0.000000
# 2 -0.000561 0.012029 -0.002061 0.000000 0.000000 0.000000
# 3 -0.001293 -0.002061 0.007920 0.000000 0.000000 0.000000
# 4 0.000000 0.000000 0.000000 0.089245 0.000000 0.000000
# 5 0.000000 0.000000 0.000000 0.000000 0.027201 0.000000
# 6 0.000000 0.000000 0.000000 0.000000 0.000000 0.020867
#
#
# Mechanical properties :
#
#
# Convention : Reuss Voigt Hill
#
# Bulk Modulus (GPa) = 61.86455 76.37760 69.12107
# Shear Modulus (GPa) = 28.64947 45.81094 37.23020
#
# Velocity S-wave (km/s) = 3.46118 4.37673 3.94560
# Velocity P-wave (km/s) = 6.46851 7.58144 7.04698
#
# Compressibility (1/GPa) = 0.01616435
#
# Stress axis : x y z
#
# Youngs Moduli (GPa) = 247.25576 83.13041 126.26713
#
# Poissons Ratio (x) = 0.04666 0.16321
# Poissons Ratio (y) = 0.13879 0.26019
# Poissons Ratio (z) = 0.31960 0.17130
#
# Static dielectric constant tensor:
#      x y z
#    x 7.687700 0.000000 0.000000 
#    y 0.000000 4.478220 0.000000 
#    z 0.000000 0.000000 3.910850 
# 
# 
# High freq. dielectric constant tensor:
#      x y z
#    x 2.007800 0.000000 0.000000 
#    y 0.000000 1.960980 0.000000 
#    z 0.000000 0.000000 1.908070 
# 
# From -- ./inp_files/15993.got.cif
#   From: 2010.06.25/outbox.cif.g09.slc.cpg/sg52_8_cif.got.tgz:15993.got - 2010.06.26 19:32:48.
