data_PCOD8216905
_publ_section_title
;
Structure prediction by ZEFSAII (Michael W. Deem and Ramdas Pophale) SiO2 
 PCOD8216905
Probable space group: P N N A
;
_chemical_formula_sum "Si O2"
_cell_formula_units_Z 56
_cell_length_a 19.589454
_cell_length_b 14.423647
_cell_length_c 9.384806
_cell_angle_alpha 90.000000
_cell_angle_beta 90.000000
_cell_angle_gamma 90.000000
_cell_volume 2651.689787
_symmetry_space_group_name_H-M "P N N A"
_symmetry_group_IT_number 52
_symmetry_cell_setting 'orthorhombic'
loop_
_space_group_symop_operation_xyz
x,y,z
1/2-x,-y,z
x,1/2-y,1/2-z
1/2-x,1/2+y,1/2-z
-x,-y,-z
1/2+x,y,-z
-x,1/2+y,1/2+z
1/2+x,1/2-y,1/2+z
loop_
_atom_site_type_symbol
_atom_site_label
_atom_site_fract_x
_atom_site_fract_y
_atom_site_fract_z
Si Si1 0.148074 0.525538 0.732636
Si Si2 0.385469 0.355678 0.204954
Si Si3 0.761162 0.838481 0.646487
Si Si4 0.032023 0.589756 0.936000
Si Si5 0.271730 0.848195 0.681186
Si Si6 0.597251 0.145755 0.725647
Si Si7 0.575349 0.503192 0.556299
O O1 0.080113 0.563052 0.805537
O O2 0.205503 0.604288 0.748166
O O3 0.168429 0.425401 0.799933
O O4 0.132404 0.516404 0.564756
O O5 0.384351 0.250000 0.250000
O O6 0.308279 0.394918 0.182994
O O7 0.421392 0.417693 0.323765
O O8 0.426971 0.356162 0.057174
O O9 0.760768 0.750000 0.750000
O O10 0.756565 0.817044 0.479310
O O11 0.831617 0.897886 0.663318
O O12 0.967679 0.647659 0.878675
O O13 0.000000 0.500000 0.000000
O O14 0.292223 0.750000 0.750000
O O15 0.617458 0.250000 0.750000
O O16 0.584656 0.096998 0.874695
O O17 0.500000 0.500000 0.500000
#
# Coordination Sequence:
#
# PCOD8216905 Si02
#       7
#     8   8   8   8   8   8   8
#     4  11  26  43  71 101 142 185 234 287 362 423
#     4  11  26  44  76 102 140 187 244 297 357 434
#     4  10  24  45  70 107 136 179 245 287 359 417
#     4  12  22  47  67 102 136 187 232 292 355 422
#     4  11  26  45  71 105 143 183 233 301 358 432
#     4  11  26  43  74 101 145 188 236 299 363 426
#     4  12  26  47  66 105 146 182 238 295 355 434
#
# _framework density 21.118608999999999
#
# number of rings (size 3 to 8) (size 9 to 14) (size 15 to 20)
#    0.000    0.857    4.286    0.857   10.000    2.286 
#    0.000    1.429    0.000    0.000    0.000    0.000 
#    0.000    0.000    0.000    0.000    0.000    0.000 
#
# Total GULP energy -694007.747502 kJ/mol
# GULP energy per Si atom -12392.995491 kJ/mol
# Density = 2.107054 g / cm^3
# Si number density = 21.118609 Si / 1000 Ang^3
#
#
#
# Elastic Constant Matrix: (Units=GPa)
#
#
# Indices 1 2 3 4 5 6 
#
# 1 175.1267 30.4723 60.4664 0.0000 0.0000 0.0000
# 2 30.4723 96.6934 38.2631 0.0000 0.0000 0.0000
# 3 60.4664 38.2631 152.1695 0.0000 0.0000 0.0000
# 4 0.0000 0.0000 0.0000 34.0375 0.0000 0.0000
# 5 0.0000 0.0000 0.0000 0.0000 47.7102 0.0000
# 6 0.0000 0.0000 0.0000 0.0000 0.0000 27.0384
#
#
#
# Elastic Compliance Matrix: (Units=1/GPa)
#
#
# Indices 1 2 3 4 5 6 
#
# 1 0.006738 -0.001181 -0.002380 0.000000 0.000000 0.000000
# 2 -0.001181 0.011692 -0.002470 0.000000 0.000000 0.000000
# 3 -0.002380 -0.002470 0.008139 0.000000 0.000000 0.000000
# 4 0.000000 0.000000 0.000000 0.029379 0.000000 0.000000
# 5 0.000000 0.000000 0.000000 0.000000 0.020960 0.000000
# 6 0.000000 0.000000 0.000000 0.000000 0.000000 0.036984
#
#
# Mechanical properties :
#
#
# Convention : Reuss Voigt Hill
#
# Bulk Modulus (GPa) = 68.94698 75.82145 72.38422
# Shear Modulus (GPa) = 38.22909 41.40974 39.81942
#
# Velocity S-wave (km/s) = 4.25927 4.43292 4.34696
# Velocity P-wave (km/s) = 7.54367 7.88553 7.71649
#
# Compressibility (1/GPa) = 0.01450390
#
# Stress axis : x y z
#
# Youngs Moduli (GPa) = 148.42242 85.52933 122.87107
#
# Poissons Ratio (x) = 0.10105 0.29245
# Poissons Ratio (y) = 0.17535 0.30355
# Poissons Ratio (z) = 0.35327 0.21130
#
# Static dielectric constant tensor:
#      x y z
#    x 3.897960 0.000000 0.000000 
#    y 0.000000 2.428480 0.000000 
#    z 0.000000 0.000000 3.865380 
# 
# 
# High freq. dielectric constant tensor:
#      x y z
#    x 1.855100 0.000000 0.000000 
#    y 0.000000 1.817340 0.000000 
#    z 0.000000 0.000000 1.839830 
# 
# From -- ./inp_files/13441.got.cif
#   From: 2010.06.25/outbox.cif.g09.slc.cpg/sg52_7_cif.got.tgz:13441.got - 2010.06.26 19:32:48.
