data_PCOD8216768
_publ_section_title
;
Structure prediction by ZEFSAII (Michael W. Deem and Ramdas Pophale) SiO2 
 PCOD8216768
Probable space group: P N N A
;
_chemical_formula_sum "Si O2"
_cell_formula_units_Z 48
_cell_length_a 26.278675
_cell_length_b 8.503736
_cell_length_c 9.744260
_cell_angle_alpha 90.000000
_cell_angle_beta 90.000000
_cell_angle_gamma 90.000000
_cell_volume 2177.519718
_symmetry_space_group_name_H-M "P N N A"
_symmetry_group_IT_number 52
_symmetry_cell_setting 'orthorhombic'
loop_
_space_group_symop_operation_xyz
x,y,z
1/2-x,-y,z
x,1/2-y,1/2-z
1/2-x,1/2+y,1/2-z
-x,-y,-z
1/2+x,y,-z
-x,1/2+y,1/2+z
1/2+x,1/2-y,1/2+z
loop_
_atom_site_type_symbol
_atom_site_label
_atom_site_fract_x
_atom_site_fract_y
_atom_site_fract_z
Si Si1 0.446021 0.579348 0.965321
Si Si2 0.287260 0.139044 0.365925
Si Si3 0.878374 0.572092 0.780604
Si Si4 0.283453 0.148295 0.867693
Si Si5 0.054871 0.435507 0.478254
Si Si6 0.107191 0.920317 0.782296
O O1 0.421570 0.536857 0.819673
O O2 0.500000 0.500000 0.000000
O O3 0.402613 0.539015 0.073097
O O4 0.452446 0.763099 0.965330
O O5 0.261547 0.250000 0.250000
O O6 0.299686 0.243953 0.501338
O O7 0.250000 0.000000 0.414305
O O8 0.334234 0.058676 0.282531
O O9 0.857187 0.750000 0.750000
O O10 0.924763 0.545583 0.675584
O O11 0.253603 0.250000 0.750000
O O12 0.331609 0.081854 0.780583
O O13 0.250000 0.000000 0.918617
O O14 0.095542 0.532803 0.563251
O O15 0.000000 0.500000 0.500000
O O16 0.084066 0.750000 0.750000
#
# Coordination Sequence:
#
# PCOD8216768 Si02
#       6
#     8   8   8   8   8   8
#     4  11  23  40  64  95 129 168 213 269 327 386
#     4  12  25  43  67  97 131 174 219 272 332 392
#     4  10  23  42  64  93 130 169 217 270 325 388
#     4  11  25  44  68  98 131 173 218 271 331 395
#     4  11  23  40  64  94 128 171 215 266 326 386
#     4  11  23  41  62  91 128 169 217 266 320 387
#
# _framework density 22.043427999999999
#
# number of rings (size 3 to 8) (size 9 to 14) (size 15 to 20)
#    0.000    1.000    0.000    7.000    0.000    6.667 
#    0.000    0.000    0.000    0.000    0.000    0.000 
#    0.000    0.000    0.000    0.000    0.000    0.000 
#
# Total GULP energy -594774.633650 kJ/mol
# GULP energy per Si atom -12391.138201 kJ/mol
# Density = 2.199326 g / cm^3
# Si number density = 22.043428 Si / 1000 Ang^3
#
#
#
# Elastic Constant Matrix: (Units=GPa)
#
#
# Indices 1 2 3 4 5 6 
#
# 1 96.9817 55.3388 23.9090 0.0000 0.0000 0.0000
# 2 55.3388 116.5704 37.5264 0.0000 0.0000 0.0000
# 3 23.9090 37.5264 97.9040 0.0000 0.0000 0.0000
# 4 0.0000 0.0000 0.0000 43.7692 0.0000 0.0000
# 5 0.0000 0.0000 0.0000 0.0000 105.4485 0.0000
# 6 0.0000 0.0000 0.0000 0.0000 0.0000 58.6315
#
#
#
# Elastic Compliance Matrix: (Units=1/GPa)
#
#
# Indices 1 2 3 4 5 6 
#
# 1 0.014229 -0.006430 -0.001010 0.000000 0.000000 0.000000
# 2 -0.006430 0.012691 -0.003294 0.000000 0.000000 0.000000
# 3 -0.001010 -0.003294 0.011724 0.000000 0.000000 0.000000
# 4 0.000000 0.000000 0.000000 0.022847 0.000000 0.000000
# 5 0.000000 0.000000 0.000000 0.000000 0.009483 0.000000
# 6 0.000000 0.000000 0.000000 0.000000 0.000000 0.017056
#
#
# Mechanical properties :
#
#
# Convention : Reuss Voigt Hill
#
# Bulk Modulus (GPa) = 58.22361 60.55606 59.38984
# Shear Modulus (GPa) = 43.39370 54.54864 48.97117
#
# Velocity S-wave (km/s) = 4.44165 4.97993 4.71847
# Velocity P-wave (km/s) = 7.26463 7.78442 7.52901
#
# Compressibility (1/GPa) = 0.01717516
#
# Stress axis : x y z
#
# Youngs Moduli (GPa) = 70.27826 78.79384 85.29827
#
# Poissons Ratio (x) = 0.50662 0.08619
# Poissons Ratio (y) = 0.45186 0.28101
# Poissons Ratio (z) = 0.07101 0.25958
#
# Static dielectric constant tensor:
#      x y z
#    x 3.648430 0.000000 0.000000 
#    y 0.000000 4.362060 0.000000 
#    z 0.000000 0.000000 4.100960 
# 
# 
# High freq. dielectric constant tensor:
#      x y z
#    x 1.861310 0.000000 0.000000 
#    y 0.000000 1.884270 0.000000 
#    z 0.000000 0.000000 1.881550 
# 
# From -- ./inp_files/15536.got.cif
#   From: 2010.06.25/outbox.cif.g09.slc.cpg/sg52_8_cif.got.tgz:15536.got - 2010.06.26 19:32:48.
