data_PCOD8216474
_publ_section_title
;
Structure prediction by ZEFSAII (Michael W. Deem and Ramdas Pophale) SiO2 
 PCOD8216474
Probable space group: P N N A
;
_chemical_formula_sum "Si O2"
_cell_formula_units_Z 64
_cell_length_a 11.819195
_cell_length_b 19.424666
_cell_length_c 14.314577
_cell_angle_alpha 90.000000
_cell_angle_beta 90.000000
_cell_angle_gamma 90.000000
_cell_volume 3286.396633
_symmetry_space_group_name_H-M "P N N A"
_symmetry_group_IT_number 52
_symmetry_cell_setting 'orthorhombic'
loop_
_space_group_symop_operation_xyz
x,y,z
1/2-x,-y,z
x,1/2-y,1/2-z
1/2-x,1/2+y,1/2-z
-x,-y,-z
1/2+x,y,-z
-x,1/2+y,1/2+z
1/2+x,1/2-y,1/2+z
loop_
_atom_site_type_symbol
_atom_site_label
_atom_site_fract_x
_atom_site_fract_y
_atom_site_fract_z
Si Si1 0.059444 0.409182 0.718516
Si Si2 0.023349 0.569459 0.700426
Si Si3 0.834005 0.867241 0.906728
Si Si4 0.166772 0.197694 0.667495
Si Si5 0.624128 0.695554 0.668534
Si Si6 0.566406 0.691715 0.175285
Si Si7 0.259643 0.079969 0.911832
Si Si8 0.025401 0.255664 0.506276
O O1 0.046489 0.490992 0.729715
O O2 0.106524 0.376211 0.814523
O O3 0.152890 0.386388 0.641215
O O4 0.940589 0.375714 0.690211
O O5 0.021032 0.617349 0.791721
O O6 0.121196 0.602181 0.633468
O O7 0.901844 0.573269 0.648877
O O8 0.757755 0.821081 0.837624
O O9 0.930313 0.824262 0.957780
O O10 0.745267 0.900074 0.979823
O O11 0.127789 0.250000 0.750000
O O12 0.299859 0.189751 0.664043
O O13 0.126806 0.223784 0.566919
O O14 0.603576 0.750000 0.750000
O O15 0.582330 0.727977 0.571100
O O16 0.529183 0.750000 0.250000
O O17 0.511452 0.703194 0.074450
O O18 0.250000 0.000000 0.899286
#
# Coordination Sequence:
#
# PCOD8216474 Si02
#       8
#     8   8   8   8   8   8   8   8
#     4  11  21  42  67  90 123 166 212 254 313 375
#     4  11  25  41  63  92 129 170 206 260 314 378
#     4  12  25  37  60  93 133 164 199 261 319 379
#     4  11  20  40  70  92 122 168 215 262 307 367
#     4  12  25  41  64  93 127 166 208 257 315 378
#     4  11  24  40  62  93 129 165 215 262 309 366
#     4  10  22  38  63  94 125 162 210 253 315 380
#     4  12  22  41  64  96 121 164 213 265 312 364
#
# _framework density 19.474215000000001
#
# number of rings (size 3 to 8) (size 9 to 14) (size 15 to 20)
#    0.000    0.750    6.250    1.500    5.250    1.000 
#    0.000    0.625    0.000    0.000    0.000    0.000 
#    0.000    0.000    0.000    0.000    0.000    0.000 
#
# Total GULP energy -793748.346927 kJ/mol
# GULP energy per Si atom -12402.317921 kJ/mol
# Density = 1.942989 g / cm^3
# Si number density = 19.474215 Si / 1000 Ang^3
#
#
#
# Elastic Constant Matrix: (Units=GPa)
#
#
# Indices 1 2 3 4 5 6 
#
# 1 74.1809 27.3823 31.5588 0.0000 0.0000 0.0000
# 2 27.3823 92.4399 41.1181 0.0000 0.0000 0.0000
# 3 31.5588 41.1181 92.5875 0.0000 0.0000 0.0000
# 4 0.0000 0.0000 0.0000 29.0753 0.0000 0.0000
# 5 0.0000 0.0000 0.0000 0.0000 27.1795 0.0000
# 6 0.0000 0.0000 0.0000 0.0000 0.0000 29.7431
#
#
#
# Elastic Compliance Matrix: (Units=1/GPa)
#
#
# Indices 1 2 3 4 5 6 
#
# 1 0.016389 -0.002953 -0.004275 0.000000 0.000000 0.000000
# 2 -0.002953 0.014013 -0.005217 0.000000 0.000000 0.000000
# 3 -0.004275 -0.005217 0.014574 0.000000 0.000000 0.000000
# 4 0.000000 0.000000 0.000000 0.034393 0.000000 0.000000
# 5 0.000000 0.000000 0.000000 0.000000 0.036792 0.000000
# 6 0.000000 0.000000 0.000000 0.000000 0.000000 0.033621
#
#
# Mechanical properties :
#
#
# Convention : Reuss Voigt Hill
#
# Bulk Modulus (GPa) = 49.78246 51.03628 50.40937
# Shear Modulus (GPa) = 27.56811 27.80952 27.68881
#
# Velocity S-wave (km/s) = 3.76656 3.78301 3.77479
# Velocity P-wave (km/s) = 6.67343 6.73391 6.70374
#
# Compressibility (1/GPa) = 0.02008739
#
# Stress axis : x y z
#
# Youngs Moduli (GPa) = 61.01522 71.36226 68.61382
#
# Poissons Ratio (x) = 0.21076 0.29331
# Poissons Ratio (y) = 0.18020 0.35792
# Poissons Ratio (z) = 0.26083 0.37226
#
# Static dielectric constant tensor:
#      x y z
#    x 3.733750 0.000000 0.000000 
#    y 0.000000 3.452590 0.000000 
#    z 0.000000 0.000000 3.636360 
# 
# 
# High freq. dielectric constant tensor:
#      x y z
#    x 1.770180 0.000000 0.000000 
#    y 0.000000 1.750160 0.000000 
#    z 0.000000 0.000000 1.743680 
# 
# From -- ./inp_files/26337.got.cif
#   From: 2010.06.25/outbox.cif.g09.slc.cpg/sg52_14_cif.got.tgz:26337.got - 2010.06.26 19:32:48.
