data_PCOD8216958
_publ_section_title
;
Structure prediction by ZEFSAII (Michael W. Deem and Ramdas Pophale) SiO2 
 PCOD8216958
Probable space group: P N N A
;
_chemical_formula_sum "Si O2"
_cell_formula_units_Z 40
_cell_length_a 7.966052
_cell_length_b 19.515636
_cell_length_c 11.527312
_cell_angle_alpha 90.000000
_cell_angle_beta 90.000000
_cell_angle_gamma 90.000000
_cell_volume 1792.065562
_symmetry_space_group_name_H-M "P N N A"
_symmetry_group_IT_number 52
_symmetry_cell_setting 'orthorhombic'
loop_
_space_group_symop_operation_xyz
x,y,z
1/2-x,-y,z
x,1/2-y,1/2-z
1/2-x,1/2+y,1/2-z
-x,-y,-z
1/2+x,y,-z
-x,1/2+y,1/2+z
1/2+x,1/2-y,1/2+z
loop_
_atom_site_type_symbol
_atom_site_label
_atom_site_fract_x
_atom_site_fract_y
_atom_site_fract_z
Si Si1 0.939360 0.523491 0.623676
Si Si2 0.250000 0.000000 0.712135
Si Si3 0.776484 0.242178 0.958393
Si Si4 0.228713 0.651077 0.858104
Si Si5 0.484804 0.750000 0.750000
Si Si6 0.471719 0.175301 0.857543
O O1 0.750000 0.500000 0.655918
O O2 0.935702 0.604915 0.616686
O O3 0.000000 0.500000 0.500000
O O4 0.078904 0.496258 0.713779
O O5 0.256146 0.068663 0.633721
O O6 0.595113 0.235500 0.899616
O O7 0.909528 0.225478 0.859762
O O8 0.789570 0.319341 0.011659
O O9 0.802673 0.188265 0.065539
O O10 0.386822 0.683003 0.791808
O O11 0.071042 0.676545 0.779293
#
# Coordination Sequence:
#
# PCOD8216958 Si02
#       6
#     8   4   8   8   4   8
#     4  11  22  36  62  99 139 184 229 285 356 413
#     4  10  26  44  68  94 146 190 230 288 346 428
#     4  12  24  42  69 102 133 177 227 292 344 413
#     4  11  24  48  67 102 142 183 231 289 349 415
#     4  12  26  38  74 100 132 178 236 282 350 410
#     4  11  23  40  65  99 138 173 230 285 350 405
#
# _framework density 22.320611
#
# number of rings (size 3 to 8) (size 9 to 14) (size 15 to 20)
#    0.000    0.800    5.000    1.200   11.200    0.000 
#    0.000    1.000    0.000    0.000    0.000    0.000 
#    0.000    0.000    0.000    0.000    0.000    0.000 
#
# Total GULP energy -495758.342290 kJ/mol
# GULP energy per Si atom -12393.958557 kJ/mol
# Density = 2.226981 g / cm^3
# Si number density = 22.320611 Si / 1000 Ang^3
#
#
#
# Elastic Constant Matrix: (Units=GPa)
#
#
# Indices 1 2 3 4 5 6 
#
# 1 119.4515 34.8445 28.8269 0.0000 0.0000 0.0000
# 2 34.8445 114.8428 39.7421 0.0000 0.0000 0.0000
# 3 28.8269 39.7421 81.0944 0.0000 0.0000 0.0000
# 4 0.0000 0.0000 0.0000 30.2209 0.0000 0.0000
# 5 0.0000 0.0000 0.0000 0.0000 20.1106 0.0000
# 6 0.0000 0.0000 0.0000 0.0000 0.0000 34.0093
#
#
#
# Elastic Compliance Matrix: (Units=1/GPa)
#
#
# Indices 1 2 3 4 5 6 
#
# 1 0.009551 -0.002075 -0.002378 0.000000 0.000000 0.000000
# 2 -0.002075 0.010937 -0.004622 0.000000 0.000000 0.000000
# 3 -0.002378 -0.004622 0.015442 0.000000 0.000000 0.000000
# 4 0.000000 0.000000 0.000000 0.033090 0.000000 0.000000
# 5 0.000000 0.000000 0.000000 0.000000 0.049725 0.000000
# 6 0.000000 0.000000 0.000000 0.000000 0.000000 0.029404
#
#
# Mechanical properties :
#
#
# Convention : Reuss Voigt Hill
#
# Bulk Modulus (GPa) = 56.24665 58.02395 57.13530
# Shear Modulus (GPa) = 29.03189 30.99986 30.01587
#
# Velocity S-wave (km/s) = 3.61040 3.73076 3.67108
# Velocity P-wave (km/s) = 6.52948 6.67909 6.60471
#
# Compressibility (1/GPa) = 0.01777884
#
# Stress axis : x y z
#
# Youngs Moduli (GPa) = 104.70373 91.43606 64.75877
#
# Poissons Ratio (x) = 0.18971 0.15401
# Poissons Ratio (y) = 0.21724 0.29933
# Poissons Ratio (z) = 0.24901 0.42263
#
# Static dielectric constant tensor:
#      x y z
#    x 4.374720 0.000000 0.000000 
#    y 0.000000 4.032910 0.000000 
#    z 0.000000 0.000000 3.999990 
# 
# 
# High freq. dielectric constant tensor:
#      x y z
#    x 1.890840 0.000000 0.000000 
#    y 0.000000 1.874100 0.000000 
#    z 0.000000 0.000000 1.872660 
# 
# From -- ./inp_files/16826.got.cif
#   From: 2010.06.25/outbox.cif.g09.slc.cpg/sg52_9_cif.got.tgz:16826.got - 2010.06.26 19:32:48.
