data_PCOD8216824
_publ_section_title
;
Structure prediction by ZEFSAII (Michael W. Deem and Ramdas Pophale) SiO2 
 PCOD8216824
Probable space group: P N N A
;
_chemical_formula_sum "Si O2"
_cell_formula_units_Z 40
_cell_length_a 13.697981
_cell_length_b 5.088384
_cell_length_c 28.303002
_cell_angle_alpha 90.000000
_cell_angle_beta 90.000000
_cell_angle_gamma 90.000000
_cell_volume 1972.735863
_symmetry_space_group_name_H-M "P N N A"
_symmetry_group_IT_number 52
_symmetry_cell_setting 'orthorhombic'
loop_
_space_group_symop_operation_xyz
x,y,z
1/2-x,-y,z
x,1/2-y,1/2-z
1/2-x,1/2+y,1/2-z
-x,-y,-z
1/2+x,y,-z
-x,1/2+y,1/2+z
1/2+x,1/2-y,1/2+z
loop_
_atom_site_type_symbol
_atom_site_label
_atom_site_fract_x
_atom_site_fract_y
_atom_site_fract_z
Si Si1 0.139724 0.000991 0.717643
Si Si2 0.482896 0.011232 0.364886
Si Si3 0.866683 0.966506 0.889183
Si Si4 0.147812 0.400755 0.493799
Si Si5 0.919825 0.417131 0.037479
O O1 0.121548 0.750000 0.750000
O O2 0.056697 0.021148 0.678427
O O3 0.250000 0.000000 0.695630
O O4 0.126588 0.250000 0.750000
O O5 0.404803 0.776126 0.357532
O O6 0.420342 0.274109 0.371047
O O7 0.553245 0.964504 0.409025
O O8 0.750000 0.000000 0.883724
O O9 0.905966 0.890067 0.942557
O O10 0.250000 0.500000 0.475645
O O11 0.163817 0.126547 0.521734
O O12 0.102747 0.611721 0.529848
O O13 0.000000 0.500000 0.000000
#
# Coordination Sequence:
#
# PCOD8216824 Si02
#       5
#     8   8   8   8   8
#     4  10  23  45  69  93 122 155 201 261 323 378
#     4  12  23  38  67  90 120 165 206 255 311 369
#     4  11  22  38  59  90 125 167 207 239 290 366
#     4  11  22  36  53  79 122 170 204 243 296 357
#     4  12  21  36  55  85 125 157 204 255 299 348
#
# _framework density 20.276411
#
# number of rings (size 3 to 8) (size 9 to 14) (size 15 to 20)
#    0.000    0.800    4.000    4.200    0.000    4.800 
#    0.000    2.000    0.000   12.000    0.000    0.000 
#    0.000    0.000    0.000    0.000    0.000    0.000 
#
# Total GULP energy -495663.286850 kJ/mol
# GULP energy per Si atom -12391.582171 kJ/mol
# Density = 2.023026 g / cm^3
# Si number density = 20.276411 Si / 1000 Ang^3
#
#
#
# Elastic Constant Matrix: (Units=GPa)
#
#
# Indices 1 2 3 4 5 6 
#
# 1 107.4066 44.5677 66.6906 0.0000 0.0000 0.0000
# 2 44.5677 135.3614 41.6633 0.0000 0.0000 0.0000
# 3 66.6906 41.6633 101.8145 0.0000 0.0000 0.0000
# 4 0.0000 0.0000 0.0000 11.0513 0.0000 0.0000
# 5 0.0000 0.0000 0.0000 0.0000 33.3611 0.0000
# 6 0.0000 0.0000 0.0000 0.0000 0.0000 42.6747
#
#
#
# Elastic Compliance Matrix: (Units=1/GPa)
#
#
# Indices 1 2 3 4 5 6 
#
# 1 0.016340 -0.002386 -0.009727 0.000000 0.000000 0.000000
# 2 -0.002386 0.008801 -0.002038 0.000000 0.000000 0.000000
# 3 -0.009727 -0.002038 0.017027 0.000000 0.000000 0.000000
# 4 0.000000 0.000000 0.000000 0.090487 0.000000 0.000000
# 5 0.000000 0.000000 0.000000 0.000000 0.029975 0.000000
# 6 0.000000 0.000000 0.000000 0.000000 0.000000 0.023433
#
#
# Mechanical properties :
#
#
# Convention : Reuss Voigt Hill
#
# Bulk Modulus (GPa) = 72.12147 72.26954 72.19550
# Shear Modulus (GPa) = 22.83248 30.19483 26.51365
#
# Velocity S-wave (km/s) = 3.35932 3.86315 3.62001
# Velocity P-wave (km/s) = 7.11991 7.45776 7.29079
#
# Compressibility (1/GPa) = 0.01386550
#
# Stress axis : x y z
#
# Youngs Moduli (GPa) = 61.19990 113.62802 58.73039
#
# Poissons Ratio (x) = 0.27113 0.57124
# Poissons Ratio (y) = 0.14603 0.11971
# Poissons Ratio (z) = 0.59526 0.23161
#
# Static dielectric constant tensor:
#      x y z
#    x 4.167660 0.000000 0.000000 
#    y 0.000000 4.336300 0.000000 
#    z 0.000000 0.000000 3.422980 
# 
# 
# High freq. dielectric constant tensor:
#      x y z
#    x 1.806370 0.000000 0.000000 
#    y 0.000000 1.820340 0.000000 
#    z 0.000000 0.000000 1.759920 
# 
# From -- ./inp_files/40489.got.cif
#   From: 2010.06.25/outbox.cif.g09.slc.cpg/sg52_21_cif.got.tgz:40489.got - 2010.06.26 19:32:48.
