data_PCOD8216115
_publ_section_title
;
Structure prediction by ZEFSAII (Michael W. Deem and Ramdas Pophale) SiO2 
 PCOD8216115
Probable space group: P N N A
;
_chemical_formula_sum "Si O2"
_cell_formula_units_Z 32
_cell_length_a 12.559479
_cell_length_b 5.012566
_cell_length_c 25.534245
_cell_angle_alpha 90.000000
_cell_angle_beta 90.000000
_cell_angle_gamma 90.000000
_cell_volume 1607.513945
_symmetry_space_group_name_H-M "P N N A"
_symmetry_group_IT_number 52
_symmetry_cell_setting 'orthorhombic'
loop_
_space_group_symop_operation_xyz
x,y,z
1/2-x,-y,z
x,1/2-y,1/2-z
1/2-x,1/2+y,1/2-z
-x,-y,-z
1/2+x,y,-z
-x,1/2+y,1/2+z
1/2+x,1/2-y,1/2+z
loop_
_atom_site_type_symbol
_atom_site_label
_atom_site_fract_x
_atom_site_fract_y
_atom_site_fract_z
Si Si1 0.183214 0.253545 0.441211
Si Si2 0.869203 0.567080 0.447011
Si Si3 0.371744 0.002609 0.714225
Si Si4 0.976019 0.427950 0.104967
O O1 0.250000 0.500000 0.414542
O O2 0.125441 0.397278 0.490397
O O3 0.103450 0.108900 0.400313
O O4 0.250000 0.000000 0.462997
O O5 0.750000 0.500000 0.427683
O O6 0.937030 0.327056 0.425877
O O7 0.921345 0.825395 0.422507
O O8 0.393313 0.250000 0.750000
O O9 0.450518 0.040955 0.665872
O O10 0.250000 0.000000 0.693640
O O11 0.399755 0.750000 0.750000
#
# Coordination Sequence:
#
# PCOD8216115 Si02
#       4
#     8   8   8   8
#     4  11  23  39  56  83 121 158 198 243 284 339
#     4  11  21  35  56  88 120 150 191 238 290 354
#     4  10  21  37  57  85 116 143 181 238 298 352
#     4  12  22  37  61  84 114 159 198 235 295 357
#
# _framework density 19.906516
#
# number of rings (size 3 to 8) (size 9 to 14) (size 15 to 20)
#    0.000    1.000    0.000    9.750    0.000    2.000 
#    0.000    0.000    0.000    3.000    0.000    0.000 
#    0.000    0.000    0.000    0.000    0.000    0.000 
#
# Total GULP energy -396529.430832 kJ/mol
# GULP energy per Si atom -12391.544713 kJ/mol
# Density = 1.986121 g / cm^3
# Si number density = 19.906516 Si / 1000 Ang^3
#
#
#
# Elastic Constant Matrix: (Units=GPa)
#
#
# Indices 1 2 3 4 5 6 
#
# 1 93.9947 52.6075 62.7401 0.0000 0.0000 0.0000
# 2 52.6075 176.9585 52.1703 0.0000 0.0000 0.0000
# 3 62.7401 52.1703 123.8646 0.0000 0.0000 0.0000
# 4 0.0000 0.0000 0.0000 -261.0916 0.0000 0.0000
# 5 0.0000 0.0000 0.0000 0.0000 31.6833 0.0000
# 6 0.0000 0.0000 0.0000 0.0000 0.0000 39.7918
#
#
#
# Elastic Compliance Matrix: (Units=1/GPa)
#
#
# Indices 1 2 3 4 5 6 
#
# 1 0.017303 -0.002923 -0.007533 0.000000 0.000000 0.000000
# 2 -0.002923 0.006946 -0.001445 0.000000 0.000000 0.000000
# 3 -0.007533 -0.001445 0.012498 0.000000 0.000000 0.000000
# 4 0.000000 0.000000 0.000000 -0.003830 0.000000 0.000000
# 5 0.000000 0.000000 0.000000 0.000000 0.031562 0.000000
# 6 0.000000 0.000000 0.000000 0.000000 0.000000 0.025131
#
#
# Mechanical properties :
#
#
# Convention : Reuss Voigt Hill
#
# Bulk Modulus (GPa) = 77.25427 81.09488 79.17457
# Shear Modulus (GPa) = 42.47086 -22.76999 9.85043
#
# Velocity S-wave (km/s) = 4.62401 -3.38575 2.22690
# Velocity P-wave (km/s) = 8.20984 5.05390 6.81701
#
# Compressibility (1/GPa) = 0.01294427
#
# Stress axis : x y z
#
# Youngs Moduli (GPa) = 57.79243 143.96678 80.01445
#
# Poissons Ratio (x) = 0.42083 0.60278
# Poissons Ratio (y) = 0.16893 0.11562
# Poissons Ratio (z) = 0.43537 0.20803
#
# Static dielectric constant tensor:
#      x y z
#    x 6.229610 0.000000 0.000000 
#    y 0.000000 4.261030 0.000000 
#    z 0.000000 0.000000 3.393580 
# 
# 
# High freq. dielectric constant tensor:
#      x y z
#    x 1.771780 0.000000 0.000000 
#    y 0.000000 1.810540 0.000000 
#    z 0.000000 0.000000 1.748890 
# 
# From -- ./inp_files/36432.got.cif
#   From: 2010.06.25/outbox.cif.g09.slc.cpg/sg52_19_cif.got.tgz:36432.got - 2010.06.26 19:32:48.
