data_PCOD8216061
_publ_section_title
;
Structure prediction by ZEFSAII (Michael W. Deem and Ramdas Pophale) SiO2 
 PCOD8216061
Probable space group: P N N A
;
_chemical_formula_sum "Si O2"
_cell_formula_units_Z 48
_cell_length_a 8.723804
_cell_length_b 8.799745
_cell_length_c 27.506350
_cell_angle_alpha 90.000000
_cell_angle_beta 90.000000
_cell_angle_gamma 90.000000
_cell_volume 2111.586864
_symmetry_space_group_name_H-M "P N N A"
_symmetry_group_IT_number 52
_symmetry_cell_setting 'orthorhombic'
loop_
_space_group_symop_operation_xyz
x,y,z
1/2-x,-y,z
x,1/2-y,1/2-z
1/2-x,1/2+y,1/2-z
-x,-y,-z
1/2+x,y,-z
-x,1/2+y,1/2+z
1/2+x,1/2-y,1/2+z
loop_
_atom_site_type_symbol
_atom_site_label
_atom_site_fract_x
_atom_site_fract_y
_atom_site_fract_z
Si Si1 0.710074 0.678366 0.200600
Si Si2 0.366520 0.181435 0.965377
Si Si3 0.250000 0.000000 0.344479
Si Si4 0.750000 0.000000 0.843584
Si Si5 0.964154 0.248175 0.830896
Si Si6 0.540074 0.348569 0.439166
Si Si7 0.042735 0.253072 0.119033
O O1 0.750000 0.500000 0.202709
O O2 0.641296 0.750000 0.250000
O O3 0.588924 0.720298 0.159228
O O4 0.869585 0.768289 0.192342
O O5 0.192345 0.237986 0.958348
O O6 0.474090 0.291961 0.933908
O O7 0.404848 0.022708 0.937752
O O8 0.402952 0.175602 0.022303
O O9 0.112196 0.912046 0.315894
O O10 0.321187 0.871288 0.377541
O O11 0.652803 0.881411 0.810410
O O12 0.876853 0.912989 0.876555
O O13 0.980388 0.222391 0.889004
#
# Coordination Sequence:
#
# PCOD8216061 Si02
#       7
#     8   8   4   4   8   8   8
#     4  12  28  48  74 100 133 179 232 284 341 413
#     4  10  21  34  61  98 133 171 226 275 324 393
#     4  10  24  40  69  88 138 174 210 268 345 408
#     4  10  24  36  73 100 126 182 218 268 337 410
#     4  11  22  45  67  98 136 180 222 278 343 399
#     4  10  21  34  61  98 133 171 226 275 324 393
#     4  11  22  45  67  98 136 180 222 278 343 399
#
# _framework density 22.731719999999999
#
# number of rings (size 3 to 8) (size 9 to 14) (size 15 to 20)
#    0.000    1.333    5.000    0.000    7.000    0.000 
#    0.000    5.833    3.667    0.000    0.000    0.000 
#    0.000    0.000    0.000    0.000    0.000    0.000 
#
# Total GULP energy -594647.998296 kJ/mol
# GULP energy per Si atom -12388.499964 kJ/mol
# Density = 2.267998 g / cm^3
# Si number density = 22.731720 Si / 1000 Ang^3
#
#
#
# Elastic Constant Matrix: (Units=GPa)
#
#
# Indices 1 2 3 4 5 6 
#
# 1 113.6673 20.9212 11.7571 0.0000 0.0000 0.0000
# 2 20.9212 73.2997 7.9791 0.0000 0.0000 0.0000
# 3 11.7571 7.9791 77.1993 0.0000 0.0000 0.0000
# 4 0.0000 0.0000 0.0000 10.3948 0.0000 0.0000
# 5 0.0000 0.0000 0.0000 0.0000 10.3765 0.0000
# 6 0.0000 0.0000 0.0000 0.0000 0.0000 31.5364
#
#
#
# Elastic Compliance Matrix: (Units=1/GPa)
#
#
# Indices 1 2 3 4 5 6 
#
# 1 0.009388 -0.002553 -0.001166 0.000000 0.000000 0.000000
# 2 -0.002553 0.014492 -0.001109 0.000000 0.000000 0.000000
# 3 -0.001166 -0.001109 0.013246 0.000000 0.000000 0.000000
# 4 0.000000 0.000000 0.000000 0.096202 0.000000 0.000000
# 5 0.000000 0.000000 0.000000 0.000000 0.096372 0.000000
# 6 0.000000 0.000000 0.000000 0.000000 0.000000 0.031709
#
#
# Mechanical properties :
#
#
# Convention : Reuss Voigt Hill
#
# Bulk Modulus (GPa) = 36.40287 38.38680 37.39483
# Shear Modulus (GPa) = 17.84309 25.36213 21.60261
#
# Velocity S-wave (km/s) = 2.80472 3.34386 3.08608
# Velocity P-wave (km/s) = 5.15146 5.64199 5.40229
#
# Compressibility (1/GPa) = 0.02747036
#
# Stress axis : x y z
#
# Youngs Moduli (GPa) = 106.51869 69.00401 75.49628
#
# Poissons Ratio (x) = 0.17614 0.08802
# Poissons Ratio (y) = 0.27190 0.08373
# Poissons Ratio (z) = 0.12419 0.07653
#
# Static dielectric constant tensor:
#      x y z
#    x 4.683610 0.000000 0.000000 
#    y 0.000000 4.264530 0.000000 
#    z 0.000000 0.000000 3.636780 
# 
# 
# High freq. dielectric constant tensor:
#      x y z
#    x 1.932290 0.000000 0.000000 
#    y 0.000000 1.880690 0.000000 
#    z 0.000000 0.000000 1.862950 
# 
# From -- ./inp_files/44420.got.cif
#   From: 2010.06.25/outbox.cif.g09.slc.cpg/sg52_23_cif.got.tgz:44420.got - 2010.06.26 19:32:48.
