data_PCOD8216066
_publ_section_title
;
Structure prediction by ZEFSAII (Michael W. Deem and Ramdas Pophale) SiO2 
 PCOD8216066
Probable space group: P N N A
;
_chemical_formula_sum "Si O2"
_cell_formula_units_Z 40
_cell_length_a 8.754534
_cell_length_b 8.242586
_cell_length_c 25.961054
_cell_angle_alpha 90.000000
_cell_angle_beta 90.000000
_cell_angle_gamma 90.000000
_cell_volume 1873.349641
_symmetry_space_group_name_H-M "P N N A"
_symmetry_group_IT_number 52
_symmetry_cell_setting 'orthorhombic'
loop_
_space_group_symop_operation_xyz
x,y,z
1/2-x,-y,z
x,1/2-y,1/2-z
1/2-x,1/2+y,1/2-z
-x,-y,-z
1/2+x,y,-z
-x,1/2+y,1/2+z
1/2+x,1/2-y,1/2+z
loop_
_atom_site_type_symbol
_atom_site_label
_atom_site_fract_x
_atom_site_fract_y
_atom_site_fract_z
Si Si1 0.603367 0.406312 0.717858
Si Si2 0.421831 0.941513 0.693622
Si Si3 0.645840 0.146547 0.134213
Si Si4 0.954781 0.273810 0.125150
Si Si5 0.570935 0.028198 0.944661
O O1 0.750000 0.500000 0.695510
O O2 0.655488 0.250000 0.750000
O O3 0.513468 0.530321 0.754374
O O4 0.496392 0.359453 0.669912
O O5 0.434575 0.750192 0.679843
O O6 0.250000 0.000000 0.703839
O O7 0.495957 0.047446 0.646217
O O8 0.774259 0.268495 0.110443
O O9 0.519300 0.094816 0.092909
O O10 0.750000 0.000000 0.155628
O O11 0.046392 0.215357 0.074339
O O12 0.750000 0.000000 0.945567
O O13 0.500000 0.000000 0.000000
#
# Coordination Sequence:
#
# PCOD8216066 Si02
#       5
#     8   8   8   8   8
#     4  10  21  35  53  82 117 153 192 233 281 338
#     4   9  19  36  58  83 116 152 188 236 284 339
#     4   9  19  36  58  83 109 144 187 232 284 336
#     4   9  19  37  56  81 114 149 191 232 281 340
#     4  11  22  38  59  83 111 146 188 235 286 345
#
# _framework density 21.352126999999999
#
# number of rings (size 3 to 8) (size 9 to 14) (size 15 to 20)
#    0.000    2.400    0.000    2.400    0.000    8.800 
#    0.000    8.000    0.000    2.400    0.000    0.000 
#    0.000    0.000    0.000    0.000    0.000    0.000 
#
# Total GULP energy -495528.504618 kJ/mol
# GULP energy per Si atom -12388.212615 kJ/mol
# Density = 2.130353 g / cm^3
# Si number density = 21.352127 Si / 1000 Ang^3
#
#
#
# Elastic Constant Matrix: (Units=GPa)
#
#
# Indices 1 2 3 4 5 6 
#
# 1 130.7261 35.5698 42.0401 0.0000 0.0000 0.0000
# 2 35.5698 98.0233 55.0671 0.0000 0.0000 0.0000
# 3 42.0401 55.0671 83.1303 0.0000 0.0000 0.0000
# 4 0.0000 0.0000 0.0000 28.6618 0.0000 0.0000
# 5 0.0000 0.0000 0.0000 0.0000 34.3374 0.0000
# 6 0.0000 0.0000 0.0000 0.0000 0.0000 30.4342
#
#
#
# Elastic Compliance Matrix: (Units=1/GPa)
#
#
# Indices 1 2 3 4 5 6 
#
# 1 0.009217 -0.001156 -0.003895 0.000000 0.000000 0.000000
# 2 -0.001156 0.016393 -0.010274 0.000000 0.000000 0.000000
# 3 -0.003895 -0.010274 0.020805 0.000000 0.000000 0.000000
# 4 0.000000 0.000000 0.000000 0.034890 0.000000 0.000000
# 5 0.000000 0.000000 0.000000 0.000000 0.029123 0.000000
# 6 0.000000 0.000000 0.000000 0.000000 0.000000 0.032858
#
#
# Mechanical properties :
#
#
# Convention : Reuss Voigt Hill
#
# Bulk Modulus (GPa) = 63.43797 64.13708 63.78753
# Shear Modulus (GPa) = 27.90317 30.63354 29.26835
#
# Velocity S-wave (km/s) = 3.61890 3.79183 3.70638
# Velocity P-wave (km/s) = 6.87291 7.01952 6.94660
#
# Compressibility (1/GPa) = 0.01576343
#
# Stress axis : x y z
#
# Youngs Moduli (GPa) = 108.49711 61.00114 48.06535
#
# Poissons Ratio (x) = 0.07054 0.18722
# Poissons Ratio (y) = 0.12546 0.49384
# Poissons Ratio (z) = 0.42261 0.62675
#
# Static dielectric constant tensor:
#      x y z
#    x 4.005550 0.000000 0.000000 
#    y 0.000000 4.317060 0.000000 
#    z 0.000000 0.000000 3.720290 
# 
# 
# High freq. dielectric constant tensor:
#      x y z
#    x 1.846810 0.000000 0.000000 
#    y 0.000000 1.836550 0.000000 
#    z 0.000000 0.000000 1.809520 
# 
# From -- ./inp_files/42097.got.cif
#   From: 2010.06.25/outbox.cif.g09.slc.cpg/sg52_22_cif.got.tgz:42097.got - 2010.06.26 19:32:48.
