data_PCOD8216487
_publ_section_title
;
Structure prediction by ZEFSAII (Michael W. Deem and Ramdas Pophale) SiO2 
 PCOD8216487
Probable space group: P N N A
;
_chemical_formula_sum "Si O2"
_cell_formula_units_Z 48
_cell_length_a 27.374988
_cell_length_b 14.285579
_cell_length_c 6.201188
_cell_angle_alpha 90.000000
_cell_angle_beta 90.000000
_cell_angle_gamma 90.000000
_cell_volume 2425.083421
_symmetry_space_group_name_H-M "P N N A"
_symmetry_group_IT_number 52
_symmetry_cell_setting 'orthorhombic'
loop_
_space_group_symop_operation_xyz
x,y,z
1/2-x,-y,z
x,1/2-y,1/2-z
1/2-x,1/2+y,1/2-z
-x,-y,-z
1/2+x,y,-z
-x,1/2+y,1/2+z
1/2+x,1/2-y,1/2+z
loop_
_atom_site_type_symbol
_atom_site_label
_atom_site_fract_x
_atom_site_fract_y
_atom_site_fract_z
Si Si1 0.813227 0.343358 0.133645
Si Si2 0.784548 0.842475 0.132055
Si Si3 0.100737 0.339731 0.133985
Si Si4 0.765452 0.250000 0.750000
Si Si5 0.958934 0.923894 0.022387
Si Si6 0.458796 0.750000 0.750000
Si Si7 0.135104 0.468560 0.795100
O O1 0.833449 0.250000 0.250000
O O2 0.763364 0.379031 0.244083
O O3 0.853618 0.423624 0.152726
O O4 0.800876 0.317447 0.887548
O O5 0.805818 0.750000 0.250000
O O6 0.825540 0.922804 0.131699
O O7 0.769561 0.817174 0.889268
O O8 0.127053 0.250000 0.250000
O O9 0.063676 0.393904 0.293204
O O10 0.073656 0.295702 0.933004
O O11 0.137669 0.414734 0.027137
O O12 0.987336 0.835061 0.133893
O O13 0.917212 0.963816 0.180267
O O14 0.000000 0.000000 0.000000
#
# Coordination Sequence:
#
# PCOD8216487 Si02
#       7
#     8   8   8   4   8   4   8
#     4   9  20  40  56  82 121 159 201 244 283 353
#     4   9  20  35  57  87 119 151 193 244 295 352
#     4   9  20  37  58  85 114 149 190 243 301 356
#     4   8  18  40  62  79 122 160 198 243 290 352
#     4  10  22  39  59  86 116 152 198 245 304 357
#     4   8  18  38  58  79 114 148 182 245 294 352
#     4  11  22  36  61  88 121 156 198 248 303 361
#
# _framework density 19.793133000000001
#
# number of rings (size 3 to 8) (size 9 to 14) (size 15 to 20)
#    0.000    3.000    0.000    0.500    7.000    8.000 
#    1.500   10.833    0.000    1.000    0.000    0.000 
#    0.000    0.000    0.000    0.000    0.000    0.000 
#
# Total GULP energy -594701.470445 kJ/mol
# GULP energy per Si atom -12389.613968 kJ/mol
# Density = 1.974808 g / cm^3
# Si number density = 19.793133 Si / 1000 Ang^3
#
#
#
# Elastic Constant Matrix: (Units=GPa)
#
#
# Indices 1 2 3 4 5 6 
#
# 1 75.4794 68.9901 40.0183 0.0000 0.0000 0.0000
# 2 68.9901 164.6904 64.0166 0.0000 0.0000 0.0000
# 3 40.0183 64.0166 134.2319 0.0000 0.0000 0.0000
# 4 0.0000 0.0000 0.0000 26.4911 0.0000 0.0000
# 5 0.0000 0.0000 0.0000 0.0000 14.1792 0.0000
# 6 0.0000 0.0000 0.0000 0.0000 0.0000 38.0611
#
#
#
# Elastic Compliance Matrix: (Units=1/GPa)
#
#
# Indices 1 2 3 4 5 6 
#
# 1 0.022230 -0.008269 -0.002684 0.000000 0.000000 0.000000
# 2 -0.008269 0.010530 -0.002556 0.000000 0.000000 0.000000
# 3 -0.002684 -0.002556 0.009469 0.000000 0.000000 0.000000
# 4 0.000000 0.000000 0.000000 0.037749 0.000000 0.000000
# 5 0.000000 0.000000 0.000000 0.000000 0.070526 0.000000
# 6 0.000000 0.000000 0.000000 0.000000 0.000000 0.026274
#
#
# Mechanical properties :
#
#
# Convention : Reuss Voigt Hill
#
# Bulk Modulus (GPa) = 65.74619 80.05020 72.89819
# Shear Modulus (GPa) = 23.93894 29.17138 26.55516
#
# Velocity S-wave (km/s) = 3.48150 3.84319 3.66681
# Velocity P-wave (km/s) = 7.03206 7.76046 7.40522
#
# Compressibility (1/GPa) = 0.01521001
#
# Stress axis : x y z
#
# Youngs Moduli (GPa) = 44.98515 94.96984 105.60662
#
# Poissons Ratio (x) = 0.78530 0.28342
# Poissons Ratio (y) = 0.37198 0.26998
# Poissons Ratio (z) = 0.12073 0.24279
#
# Static dielectric constant tensor:
#      x y z
#    x 3.110220 0.000000 0.000000 
#    y 0.000000 3.915800 0.000000 
#    z 0.000000 0.000000 4.115200 
# 
# 
# High freq. dielectric constant tensor:
#      x y z
#    x 1.724540 0.000000 0.000000 
#    y 0.000000 1.777200 0.000000 
#    z 0.000000 0.000000 1.790020 
# 
# From -- ./inp_files/5833.got.cif
#   From: 2010.06.25/outbox.cif.g09.slc.cpg/sg52_3_cif.got.tgz:5833.got - 2010.06.26 19:32:48.
