data_PCOD8216959
_publ_section_title
;
Structure prediction by ZEFSAII (Michael W. Deem and Ramdas Pophale) SiO2 
 PCOD8216959
Probable space group: P N N A
;
_chemical_formula_sum "Si O2"
_cell_formula_units_Z 64
_cell_length_a 23.587225
_cell_length_b 14.551890
_cell_length_c 8.587461
_cell_angle_alpha 90.000000
_cell_angle_beta 90.000000
_cell_angle_gamma 90.000000
_cell_volume 2947.548981
_symmetry_space_group_name_H-M "P N N A"
_symmetry_group_IT_number 52
_symmetry_cell_setting 'orthorhombic'
loop_
_space_group_symop_operation_xyz
x,y,z
1/2-x,-y,z
x,1/2-y,1/2-z
1/2-x,1/2+y,1/2-z
-x,-y,-z
1/2+x,y,-z
-x,1/2+y,1/2+z
1/2+x,1/2-y,1/2+z
loop_
_atom_site_type_symbol
_atom_site_label
_atom_site_fract_x
_atom_site_fract_y
_atom_site_fract_z
Si Si1 0.835455 0.809419 0.906756
Si Si2 0.953364 0.277376 0.073002
Si Si3 0.138916 0.603336 0.034393
Si Si4 0.930688 0.713476 0.086810
Si Si5 0.257922 0.207471 0.591315
Si Si6 0.374228 0.335721 0.352110
Si Si7 0.815899 0.001209 0.011304
Si Si8 0.161048 0.434122 0.844707
O O1 0.838821 0.750000 0.750000
O O2 0.832616 0.920648 0.885479
O O3 0.891115 0.790277 0.008302
O O4 0.779171 0.781943 0.999959
O O5 0.958576 0.250000 0.250000
O O6 0.913338 0.366440 0.073615
O O7 0.927298 0.198317 0.957161
O O8 0.015557 0.307214 0.019697
O O9 0.112911 0.593912 0.209379
O O10 0.188995 0.680199 0.016636
O O11 0.165935 0.509306 0.979231
O O12 0.953962 0.750000 0.250000
O O13 0.894934 0.622201 0.114845
O O14 0.283015 0.250000 0.750000
O O15 0.218538 0.122951 0.642664
O O16 0.348879 0.250000 0.250000
O O17 0.331783 0.394762 0.459920
O O18 0.750000 0.000000 0.040058
O O19 0.846208 0.979002 0.175071
#
# Coordination Sequence:
#
# PCOD8216959 Si02
#       8
#     8   8   8   8   8   8   8   8
#     4  11  25  40  65 102 139 189 228 280 349 409
#     4  11  24  46  73  95 125 184 230 289 354 415
#     4  11  24  39  68  96 138 177 230 285 350 414
#     4  11  22  47  71  92 141 175 231 290 348 410
#     4  11  22  41  66  97 143 186 227 280 352 419
#     4  10  26  45  64 100 138 180 231 286 349 408
#     4  12  25  39  68 101 144 182 233 282 341 422
#     4  11  23  42  64 103 136 183 227 282 344 421
#
# _framework density 21.712954
#
# number of rings (size 3 to 8) (size 9 to 14) (size 15 to 20)
#    0.000    1.000    2.500    4.500    8.750    0.500 
#    0.000    0.625    0.000    0.000    0.000    0.000 
#    0.000    0.000    0.000    0.000    0.000    0.000 
#
# Total GULP energy -793081.745635 kJ/mol
# GULP energy per Si atom -12391.902276 kJ/mol
# Density = 2.166353 g / cm^3
# Si number density = 21.712954 Si / 1000 Ang^3
#
#
#
# Elastic Constant Matrix: (Units=GPa)
#
#
# Indices 1 2 3 4 5 6 
#
# 1 128.3818 28.8144 40.3834 0.0000 0.0000 0.0000
# 2 28.8144 95.4320 31.6252 0.0000 0.0000 0.0000
# 3 40.3834 31.6252 143.5135 0.0000 0.0000 0.0000
# 4 0.0000 0.0000 0.0000 35.7492 0.0000 0.0000
# 5 0.0000 0.0000 0.0000 0.0000 34.3030 0.0000
# 6 0.0000 0.0000 0.0000 0.0000 0.0000 3.3993
#
#
#
# Elastic Compliance Matrix: (Units=1/GPa)
#
#
# Indices 1 2 3 4 5 6 
#
# 1 0.008886 -0.002001 -0.002060 0.000000 0.000000 0.000000
# 2 -0.002001 0.011755 -0.002027 0.000000 0.000000 0.000000
# 3 -0.002060 -0.002027 0.007994 0.000000 0.000000 0.000000
# 4 0.000000 0.000000 0.000000 0.027973 0.000000 0.000000
# 5 0.000000 0.000000 0.000000 0.000000 0.029152 0.000000
# 6 0.000000 0.000000 0.000000 0.000000 0.000000 0.294175
#
#
# Mechanical properties :
#
#
# Convention : Reuss Voigt Hill
#
# Bulk Modulus (GPa) = 60.75339 63.21925 61.98632
# Shear Modulus (GPa) = 12.57558 32.45726 22.51642
#
# Velocity S-wave (km/s) = 2.40921 3.87050 3.22375
# Velocity P-wave (km/s) = 5.98164 7.01096 6.51665
#
# Compressibility (1/GPa) = 0.01645999
#
# Stress axis : x y z
#
# Youngs Moduli (GPa) = 112.53484 85.07353 125.08908
#
# Poissons Ratio (x) = 0.17019 0.25764
# Poissons Ratio (y) = 0.22513 0.25360
# Poissons Ratio (z) = 0.23178 0.17247
#
# Static dielectric constant tensor:
#      x y z
#    x 3.740770 0.000000 0.000000 
#    y 0.000000 4.608150 0.000000 
#    z 0.000000 0.000000 3.696760 
# 
# 
# High freq. dielectric constant tensor:
#      x y z
#    x 1.838290 0.000000 0.000000 
#    y 0.000000 1.854190 0.000000 
#    z 0.000000 0.000000 1.871070 
# 
# From -- ./inp_files/14518.got.cif
#   From: 2010.06.25/outbox.cif.g09.slc.cpg/sg52_8_cif.got.tgz:14518.got - 2010.06.26 19:32:48.
