data_PCOD8216723
_publ_section_title
;
Structure prediction by ZEFSAII (Michael W. Deem and Ramdas Pophale) SiO2 
 PCOD8216723
Probable space group: P N N A
;
_chemical_formula_sum "Si O2"
_cell_formula_units_Z 40
_cell_length_a 7.905908
_cell_length_b 8.753404
_cell_length_c 22.400043
_cell_angle_alpha 90.000000
_cell_angle_beta 90.000000
_cell_angle_gamma 90.000000
_cell_volume 1550.163766
_symmetry_space_group_name_H-M "P N N A"
_symmetry_group_IT_number 52
_symmetry_cell_setting 'orthorhombic'
loop_
_space_group_symop_operation_xyz
x,y,z
1/2-x,-y,z
x,1/2-y,1/2-z
1/2-x,1/2+y,1/2-z
-x,-y,-z
1/2+x,y,-z
-x,1/2+y,1/2+z
1/2+x,1/2-y,1/2+z
loop_
_atom_site_type_symbol
_atom_site_label
_atom_site_fract_x
_atom_site_fract_y
_atom_site_fract_z
Si Si1 0.250000 0.500000 0.145474
Si Si2 0.556523 0.174705 0.331717
Si Si3 0.227691 0.167087 0.545045
Si Si4 0.593632 0.269860 0.572861
Si Si5 0.053144 0.513874 0.658308
Si Si6 0.157000 0.750000 0.750000
O O1 0.411935 0.449509 0.185518
O O2 0.288831 0.650388 0.107005
O O3 0.590361 0.157777 0.402414
O O4 0.493089 0.348322 0.318545
O O5 0.724138 0.144414 0.292618
O O6 0.402050 0.213422 0.574244
O O7 0.163329 0.286151 0.494654
O O8 0.250000 0.000000 0.514963
O O9 0.577110 0.434129 0.605926
O O10 0.250000 0.500000 0.636014
O O11 0.039573 0.638301 0.711284
#
# Coordination Sequence:
#
# PCOD8216723 Si02
#       6
#     4   8   8   8   8   4
#     4  12  26  44  68 108 152 196 244 300 370 436
#     4  11  25  45  75 110 143 194 246 303 369 434
#     4  12  22  41  72 108 150 199 249 297 365 440
#     4  12  24  43  71 106 150 200 245 303 361 444
#     4  10  23  46  75 111 139 187 253 306 361 438
#     4  10  22  48  80 102 138 190 252 304 372 444
#
# _framework density 25.803723000000002
#
# number of rings (size 3 to 8) (size 9 to 14) (size 15 to 20)
#    0.000    0.800    7.000    1.800    0.000    8.800 
#    0.000    5.000    0.000    0.000    0.000    0.000 
#    0.000    0.000    0.000    0.000    0.000    0.000 
#
# Total GULP energy -495946.730408 kJ/mol
# GULP energy per Si atom -12398.668260 kJ/mol
# Density = 2.574499 g / cm^3
# Si number density = 25.803723 Si / 1000 Ang^3
#
#
#
# Elastic Constant Matrix: (Units=GPa)
#
#
# Indices 1 2 3 4 5 6 
#
# 1 64.1728 -1.3708 6.6404 0.0000 0.0000 0.0000
# 2 -1.3708 60.8583 7.7231 0.0000 0.0000 0.0000
# 3 6.6404 7.7231 101.4320 0.0000 0.0000 0.0000
# 4 0.0000 0.0000 0.0000 29.9753 0.0000 0.0000
# 5 0.0000 0.0000 0.0000 0.0000 21.2916 0.0000
# 6 0.0000 0.0000 0.0000 0.0000 0.0000 44.9900
#
#
#
# Elastic Compliance Matrix: (Units=1/GPa)
#
#
# Indices 1 2 3 4 5 6 
#
# 1 0.015704 0.000489 -0.001065 0.000000 0.000000 0.000000
# 2 0.000489 0.016607 -0.001296 0.000000 0.000000 0.000000
# 3 -0.001065 -0.001296 0.010027 0.000000 0.000000 0.000000
# 4 0.000000 0.000000 0.000000 0.033361 0.000000 0.000000
# 5 0.000000 0.000000 0.000000 0.000000 0.046967 0.000000
# 6 0.000000 0.000000 0.000000 0.000000 0.000000 0.022227
#
#
# Mechanical properties :
#
#
# Convention : Reuss Voigt Hill
#
# Bulk Modulus (GPa) = 25.91191 28.04983 26.98087
# Shear Modulus (GPa) = 30.95922 33.48273 32.22098
#
# Velocity S-wave (km/s) = 3.46757 3.60612 3.53752
# Velocity P-wave (km/s) = 5.10840 5.31346 5.21194
#
# Compressibility (1/GPa) = 0.03859229
#
# Stress axis : x y z
#
# Youngs Moduli (GPa) = 63.67970 60.21501 99.72796
#
# Poissons Ratio (x) = -0.02944 0.10624
# Poissons Ratio (y) = -0.03113 0.12930
# Poissons Ratio (z) = 0.06784 0.07807
#
# Static dielectric constant tensor:
#      x y z
#    x 4.540230 0.000000 0.000000 
#    y 0.000000 5.121730 0.000000 
#    z 0.000000 0.000000 4.565700 
# 
# 
# High freq. dielectric constant tensor:
#      x y z
#    x 2.015940 0.000000 0.000000 
#    y 0.000000 2.031400 0.000000 
#    z 0.000000 0.000000 2.023280 
# 
# From -- ./inp_files/39262.got.cif
#   From: 2010.06.25/outbox.cif.g09.slc.cpg/sg52_20_cif.got.tgz:39262.got - 2010.06.26 19:32:48.
