data_PCOD8216982
_publ_section_title
;
Structure prediction by ZEFSAII (Michael W. Deem and Ramdas Pophale) SiO2 
 PCOD8216982
Probable space group: P N N A
;
_chemical_formula_sum "Si O2"
_cell_formula_units_Z 64
_cell_length_a 14.370135
_cell_length_b 15.700392
_cell_length_c 17.100880
_cell_angle_alpha 90.000000
_cell_angle_beta 90.000000
_cell_angle_gamma 90.000000
_cell_volume 3858.245012
_symmetry_space_group_name_H-M "P N N A"
_symmetry_group_IT_number 52
_symmetry_cell_setting 'orthorhombic'
loop_
_space_group_symop_operation_xyz
x,y,z
1/2-x,-y,z
x,1/2-y,1/2-z
1/2-x,1/2+y,1/2-z
-x,-y,-z
1/2+x,y,-z
-x,1/2+y,1/2+z
1/2+x,1/2-y,1/2+z
loop_
_atom_site_type_symbol
_atom_site_label
_atom_site_fract_x
_atom_site_fract_y
_atom_site_fract_z
Si Si1 0.894026 0.896920 0.450604
Si Si2 0.292394 0.198481 0.577672
Si Si3 0.929983 0.202401 0.556100
Si Si4 0.499059 0.177772 0.186549
Si Si5 0.180761 0.568799 0.792814
Si Si6 0.795088 0.677950 0.315359
Si Si7 0.142812 0.980648 0.410866
Si Si8 0.492354 0.968887 0.701614
O O1 0.791910 0.856919 0.457727
O O2 0.926143 0.919503 0.362205
O O3 0.968921 0.825665 0.477207
O O4 0.892565 0.980263 0.506570
O O5 0.367001 0.230346 0.515557
O O6 0.341306 0.142991 0.645260
O O7 0.256087 0.287766 0.608782
O O8 0.937010 0.283574 0.615588
O O9 0.877914 0.120365 0.593670
O O10 0.506799 0.250000 0.250000
O O11 0.601835 0.151939 0.157238
O O12 0.462957 0.092738 0.231539
O O13 0.250000 0.500000 0.834536
O O14 0.238072 0.598153 0.716865
O O15 0.080740 0.535530 0.761911
O O16 0.800901 0.750000 0.250000
O O17 0.077805 0.017893 0.341082
O O18 0.250000 0.000000 0.393414
#
# Coordination Sequence:
#
# PCOD8216982 Si02
#       8
#     8   8   8   8   8   8   8   8
#     4  11  18  29  45  73 109 134 163 207 263 315
#     4  11  19  31  48  73 111 137 165 208 263 330
#     4  11  21  30  48  70 104 146 169 211 257 312
#     4  11  17  32  48  73 102 135 179 211 253 303
#     4  11  18  29  52  82 103 133 161 213 280 319
#     4   9  18  31  49  73 107 133 166 214 264 320
#     4  11  21  30  44  74 110 142 172 203 258 323
#     4  11  20  31  50  75 105 136 176 219 254 312
#
# _framework density 16.587852999999999
#
# number of rings (size 3 to 8) (size 9 to 14) (size 15 to 20)
#    0.000    1.250    7.500    3.750    0.000    0.000 
#    0.000    0.000    0.000    2.250    3.250    0.000 
#    0.000    0.000    0.000    0.000    0.000    0.000 
#
# Total GULP energy -792896.940655 kJ/mol
# GULP energy per Si atom -12389.014698 kJ/mol
# Density = 1.655010 g / cm^3
# Si number density = 16.587853 Si / 1000 Ang^3
#
#
#
# Elastic Constant Matrix: (Units=GPa)
#
#
# Indices 1 2 3 4 5 6 
#
# 1 80.1668 28.9422 30.7377 0.0000 0.0000 0.0000
# 2 28.9422 46.8988 41.6631 0.0000 0.0000 0.0000
# 3 30.7377 41.6631 67.3379 0.0000 0.0000 0.0000
# 4 0.0000 0.0000 0.0000 32.9476 0.0000 0.0000
# 5 0.0000 0.0000 0.0000 0.0000 16.5313 0.0000
# 6 0.0000 0.0000 0.0000 0.0000 0.0000 21.1110
#
#
#
# Elastic Compliance Matrix: (Units=1/GPa)
#
#
# Indices 1 2 3 4 5 6 
#
# 1 0.016267 -0.007644 -0.002696 0.000000 0.000000 0.000000
# 2 -0.007644 0.050938 -0.028027 0.000000 0.000000 0.000000
# 3 -0.002696 -0.028027 0.033422 0.000000 0.000000 0.000000
# 4 0.000000 0.000000 0.000000 0.030351 0.000000 0.000000
# 5 0.000000 0.000000 0.000000 0.000000 0.060491 0.000000
# 6 0.000000 0.000000 0.000000 0.000000 0.000000 0.047369
#
#
# Mechanical properties :
#
#
# Convention : Reuss Voigt Hill
#
# Bulk Modulus (GPa) = 41.85276 44.12106 42.98691
# Shear Modulus (GPa) = 15.45423 20.32202 17.88813
#
# Velocity S-wave (km/s) = 3.05562 3.50396 3.28744
# Velocity P-wave (km/s) = 6.14287 6.55946 6.35458
#
# Compressibility (1/GPa) = 0.02389329
#
# Stress axis : x y z
#
# Youngs Moduli (GPa) = 61.47286 19.63187 29.92046
#
# Poissons Ratio (x) = 0.15006 0.08067
# Poissons Ratio (y) = 0.46988 0.83858
# Poissons Ratio (z) = 0.16575 0.55022
#
# Static dielectric constant tensor:
#      x y z
#    x 3.353040 0.000000 0.000000 
#    y 0.000000 3.115810 0.000000 
#    z 0.000000 0.000000 3.053230 
# 
# 
# High freq. dielectric constant tensor:
#      x y z
#    x 1.640890 0.000000 0.000000 
#    y 0.000000 1.611100 0.000000 
#    z 0.000000 0.000000 1.605250 
# 
# From -- ./inp_files/33352.got.cif
#   From: 2010.06.25/outbox.cif.g09.slc.cpg/sg52_17_cif.got.tgz:33352.got - 2010.06.26 19:32:48.
