data_PCOD8216562
_publ_section_title
;
Structure prediction by ZEFSAII (Michael W. Deem and Ramdas Pophale) SiO2 
 PCOD8216562
Probable space group: P N N A
;
_chemical_formula_sum "Si O2"
_cell_formula_units_Z 32
_cell_length_a 15.342884
_cell_length_b 15.979532
_cell_length_c 5.328233
_cell_angle_alpha 90.000000
_cell_angle_beta 90.000000
_cell_angle_gamma 90.000000
_cell_volume 1306.334105
_symmetry_space_group_name_H-M "P N N A"
_symmetry_group_IT_number 52
_symmetry_cell_setting 'orthorhombic'
loop_
_space_group_symop_operation_xyz
x,y,z
1/2-x,-y,z
x,1/2-y,1/2-z
1/2-x,1/2+y,1/2-z
-x,-y,-z
1/2+x,y,-z
-x,1/2+y,1/2+z
1/2+x,1/2-y,1/2+z
loop_
_atom_site_type_symbol
_atom_site_label
_atom_site_fract_x
_atom_site_fract_y
_atom_site_fract_z
Si Si1 0.577462 0.887748 0.480448
Si Si2 0.692710 0.750000 0.250000
Si Si3 0.656439 0.162909 0.027707
Si Si4 0.990600 0.750000 0.250000
Si Si5 0.884333 0.931212 0.551442
O O1 0.632610 0.830243 0.295306
O O2 0.553195 0.829686 0.717420
O O3 0.485281 0.918110 0.367356
O O4 0.634821 0.969134 0.547886
O O5 0.756975 0.779891 0.027437
O O6 0.573747 0.227612 0.014175
O O7 0.643368 0.108484 0.284418
O O8 0.669436 0.106229 0.783379
#
# Coordination Sequence:
#
# PCOD8216562 Si02
#       5
#     8   4   8   4   8
#     4  10  22  40  69  99 126 168 226 272 314 383
#     4  11  24  40  64  99 134 174 222 271 324 394
#     4  10  23  43  65  92 134 175 209 264 336 389
#     4   9  20  38  66  95 126 168 218 267 320 382
#     4  10  23  45  69  94 130 173 215 268 328 384
#
# _framework density 24.496032
#
# number of rings (size 3 to 8) (size 9 to 14) (size 15 to 20)
#    0.000    2.000    0.000    1.500    0.000   22.000 
#    0.000    2.500    0.000    3.000    0.000    0.000 
#    0.000    0.000    0.000    0.000    0.000    0.000 
#
# Total GULP energy -396418.464011 kJ/mol
# GULP energy per Si atom -12388.077000 kJ/mol
# Density = 2.444028 g / cm^3
# Si number density = 24.496032 Si / 1000 Ang^3
#
#
#
# Elastic Constant Matrix: (Units=GPa)
#
#
# Indices 1 2 3 4 5 6 
#
# 1 66.5609 29.3943 16.5776 0.0000 0.0000 0.0000
# 2 29.3943 186.7717 54.0935 0.0000 0.0000 0.0000
# 3 16.5776 54.0935 117.5472 0.0000 0.0000 0.0000
# 4 0.0000 0.0000 0.0000 44.7161 0.0000 0.0000
# 5 0.0000 0.0000 0.0000 0.0000 17.6584 0.0000
# 6 0.0000 0.0000 0.0000 0.0000 0.0000 24.4652
#
#
#
# Elastic Compliance Matrix: (Units=1/GPa)
#
#
# Indices 1 2 3 4 5 6 
#
# 1 0.016314 -0.002194 -0.001291 0.000000 0.000000 0.000000
# 2 -0.002194 0.006472 -0.002669 0.000000 0.000000 0.000000
# 3 -0.001291 -0.002669 0.009918 0.000000 0.000000 0.000000
# 4 0.000000 0.000000 0.000000 0.022363 0.000000 0.000000
# 5 0.000000 0.000000 0.000000 0.000000 0.056630 0.000000
# 6 0.000000 0.000000 0.000000 0.000000 0.000000 0.040874
#
#
# Mechanical properties :
#
#
# Convention : Reuss Voigt Hill
#
# Bulk Modulus (GPa) = 49.02887 63.44561 56.23724
# Shear Modulus (GPa) = 29.12415 35.42224 32.27319
#
# Velocity S-wave (km/s) = 3.45183 3.80681 3.63366
# Velocity P-wave (km/s) = 5.99544 6.72897 6.37277
#
# Compressibility (1/GPa) = 0.02039615
#
# Stress axis : x y z
#
# Youngs Moduli (GPa) = 61.29651 154.50222 100.83043
#
# Poissons Ratio (x) = 0.33891 0.13021
# Poissons Ratio (y) = 0.13446 0.26913
# Poissons Ratio (z) = 0.07915 0.41239
#
# Static dielectric constant tensor:
#      x y z
#    x 4.622190 0.000000 0.000000 
#    y 0.000000 4.894010 0.000000 
#    z 0.000000 0.000000 3.810470 
# 
# 
# High freq. dielectric constant tensor:
#      x y z
#    x 1.972960 0.000000 0.000000 
#    y 0.000000 1.998680 0.000000 
#    z 0.000000 0.000000 1.934780 
# 
# From -- ./inp_files/1979.got.cif
#   From: 2010.06.25/outbox.cif.g09.slc.cpg/sg52_1_cif.got.tgz:1979.got - 2010.06.26 19:32:48.
