data_PCOD8216014
_publ_section_title
;
Structure prediction by ZEFSAII (Michael W. Deem and Ramdas Pophale) SiO2 
 PCOD8216014
Probable space group: P N N A
;
_chemical_formula_sum "Si O2"
_cell_formula_units_Z 40
_cell_length_a 10.097025
_cell_length_b 14.085503
_cell_length_c 13.744206
_cell_angle_alpha 90.000000
_cell_angle_beta 90.000000
_cell_angle_gamma 90.000000
_cell_volume 1954.724012
_symmetry_space_group_name_H-M "P N N A"
_symmetry_group_IT_number 52
_symmetry_cell_setting 'orthorhombic'
loop_
_space_group_symop_operation_xyz
x,y,z
1/2-x,-y,z
x,1/2-y,1/2-z
1/2-x,1/2+y,1/2-z
-x,-y,-z
1/2+x,y,-z
-x,1/2+y,1/2+z
1/2+x,1/2-y,1/2+z
loop_
_atom_site_type_symbol
_atom_site_label
_atom_site_fract_x
_atom_site_fract_y
_atom_site_fract_z
Si Si1 0.750000 0.500000 0.535468
Si Si2 0.223371 0.803365 0.946006
Si Si3 0.095847 0.750000 0.750000
Si Si4 0.883259 0.910141 0.781982
Si Si5 0.093151 0.886328 0.260738
Si Si6 0.988956 0.236940 0.907900
O O1 0.804019 0.416682 0.463433
O O2 0.858490 0.551788 0.606595
O O3 0.194130 0.759430 0.840401
O O4 0.375529 0.776157 0.967746
O O5 0.130055 0.745605 0.017985
O O6 0.004160 0.841261 0.763726
O O7 0.749997 0.860503 0.741320
O O8 0.923127 0.002449 0.719219
O O9 0.034034 0.857909 0.155519
O O10 0.011365 0.830454 0.341589
#
# Coordination Sequence:
#
# PCOD8216014 Si02
#       6
#     4   8   4   8   8   8
#     4  10  22  44  70 102 126 178 230 290 322 394
#     4  12  26  40  66  99 136 170 227 272 349 384
#     4  12  26  38  62 100 138 172 222 288 330 406
#     4  10  20  41  69 100 126 178 226 275 336 400
#     4   9  20  40  67  95 134 177 215 272 345 396
#     4  11  22  41  66  97 134 172 219 282 332 408
#
# _framework density 20.463249000000001
#
# number of rings (size 3 to 8) (size 9 to 14) (size 15 to 20)
#    0.000    1.600    4.000    3.600    5.600    1.600 
#    0.000    1.000    0.000    0.000    0.000    0.000 
#    0.000    0.000    0.000    0.000    0.000    0.000 
#
# Total GULP energy -495578.121829 kJ/mol
# GULP energy per Si atom -12389.453046 kJ/mol
# Density = 2.041667 g / cm^3
# Si number density = 20.463249 Si / 1000 Ang^3
#
#
#
# Elastic Constant Matrix: (Units=GPa)
#
#
# Indices 1 2 3 4 5 6 
#
# 1 123.1374 39.6040 34.3921 0.0000 0.0000 0.0000
# 2 39.6040 86.0073 43.4093 0.0000 0.0000 0.0000
# 3 34.3921 43.4093 100.7541 0.0000 0.0000 0.0000
# 4 0.0000 0.0000 0.0000 29.8946 0.0000 0.0000
# 5 0.0000 0.0000 0.0000 0.0000 28.8375 0.0000
# 6 0.0000 0.0000 0.0000 0.0000 0.0000 24.6191
#
#
#
# Elastic Compliance Matrix: (Units=1/GPa)
#
#
# Indices 1 2 3 4 5 6 
#
# 1 0.009778 -0.003601 -0.001786 0.000000 0.000000 0.000000
# 2 -0.003601 0.016184 -0.005744 0.000000 0.000000 0.000000
# 3 -0.001786 -0.005744 0.013009 0.000000 0.000000 0.000000
# 4 0.000000 0.000000 0.000000 0.033451 0.000000 0.000000
# 5 0.000000 0.000000 0.000000 0.000000 0.034677 0.000000
# 6 0.000000 0.000000 0.000000 0.000000 0.000000 0.040619
#
#
# Mechanical properties :
#
#
# Convention : Reuss Voigt Hill
#
# Bulk Modulus (GPa) = 59.84485 60.52328 60.18407
# Shear Modulus (GPa) = 28.48193 29.50313 28.99253
#
# Velocity S-wave (km/s) = 3.73481 3.80117 3.76814
# Velocity P-wave (km/s) = 6.92148 6.99328 6.95748
#
# Compressibility (1/GPa) = 0.01670988
#
# Stress axis : x y z
#
# Youngs Moduli (GPa) = 102.26966 61.78960 76.86710
#
# Poissons Ratio (x) = 0.22250 0.13730
# Poissons Ratio (y) = 0.36827 0.44149
# Poissons Ratio (z) = 0.18268 0.35489
#
# Static dielectric constant tensor:
#      x y z
#    x 3.692370 0.000000 0.000000 
#    y 0.000000 3.879680 0.000000 
#    z 0.000000 0.000000 3.905510 
# 
# 
# High freq. dielectric constant tensor:
#      x y z
#    x 1.799370 0.000000 0.000000 
#    y 0.000000 1.796990 0.000000 
#    z 0.000000 0.000000 1.782310 
# 
# From -- ./inp_files/24481.got.cif
#   From: 2010.06.25/outbox.cif.g09.slc.cpg/sg52_13_cif.got.tgz:24481.got - 2010.06.26 19:32:48.
