data_PCOD8216253
_publ_section_title
;
Structure prediction by ZEFSAII (Michael W. Deem and Ramdas Pophale) SiO2 
 PCOD8216253
Probable space group: P N N A
;
_chemical_formula_sum "Si O2"
_cell_formula_units_Z 40
_cell_length_a 25.281046
_cell_length_b 7.657989
_cell_length_c 9.561349
_cell_angle_alpha 90.000000
_cell_angle_beta 90.000000
_cell_angle_gamma 90.000000
_cell_volume 1851.096023
_symmetry_space_group_name_H-M "P N N A"
_symmetry_group_IT_number 52
_symmetry_cell_setting 'orthorhombic'
loop_
_space_group_symop_operation_xyz
x,y,z
1/2-x,-y,z
x,1/2-y,1/2-z
1/2-x,1/2+y,1/2-z
-x,-y,-z
1/2+x,y,-z
-x,1/2+y,1/2+z
1/2+x,1/2-y,1/2+z
loop_
_atom_site_type_symbol
_atom_site_label
_atom_site_fract_x
_atom_site_fract_y
_atom_site_fract_z
Si Si1 0.553239 0.920308 0.331802
Si Si2 0.250000 0.000000 0.054810
Si Si3 0.835474 0.947377 0.725072
Si Si4 0.445305 0.089384 0.341065
Si Si5 0.785905 0.852502 0.445469
Si Si6 0.120803 0.250000 0.750000
O O1 0.571578 0.750000 0.250000
O O2 0.566864 0.886906 0.494298
O O3 0.489894 0.941769 0.321875
O O4 0.583359 0.080069 0.254205
O O5 0.301606 0.026163 0.149298
O O6 0.251576 0.822849 0.964927
O O7 0.850758 0.750000 0.750000
O O8 0.801715 0.960106 0.583617
O O9 0.890072 0.047797 0.730085
O O10 0.467802 0.250000 0.250000
O O11 0.840051 0.779923 0.379779
O O12 0.750000 0.000000 0.362156
#
# Coordination Sequence:
#
# PCOD8216253 Si02
#       6
#     8   4   8   8   8   4
#     4  11  26  48  70 102 146 184 225 287 350 415
#     4  10  24  42  68 100 134 178 230 286 354 400
#     4  10  21  39  66 100 135 172 224 289 341 400
#     4  11  24  43  73 108 138 179 238 286 343 416
#     4  11  25  42  65  94 135 177 226 283 339 416
#     4  12  26  48  66  98 142 182 236 274 350 432
#
# _framework density 21.608820999999999
#
# number of rings (size 3 to 8) (size 9 to 14) (size 15 to 20)
#    0.000    1.200    4.000    0.600    4.200    5.600 
#    0.000    0.000    0.000    0.000    0.000    0.000 
#    0.000    0.000    0.000    0.000    0.000    0.000 
#
# Total GULP energy -495591.017989 kJ/mol
# GULP energy per Si atom -12389.775450 kJ/mol
# Density = 2.155964 g / cm^3
# Si number density = 21.608821 Si / 1000 Ang^3
#
#
#
# Elastic Constant Matrix: (Units=GPa)
#
#
# Indices 1 2 3 4 5 6 
#
# 1 129.0791 71.2289 34.1508 0.0000 0.0000 0.0000
# 2 71.2289 134.4082 53.9519 0.0000 0.0000 0.0000
# 3 34.1508 53.9519 62.7496 0.0000 0.0000 0.0000
# 4 0.0000 0.0000 0.0000 27.4572 0.0000 0.0000
# 5 0.0000 0.0000 0.0000 0.0000 23.8133 0.0000
# 6 0.0000 0.0000 0.0000 0.0000 0.0000 33.2933
#
#
#
# Elastic Compliance Matrix: (Units=1/GPa)
#
#
# Indices 1 2 3 4 5 6 
#
# 1 0.011040 -0.005251 -0.001494 0.000000 0.000000 0.000000
# 2 -0.005251 0.013859 -0.009058 0.000000 0.000000 0.000000
# 3 -0.001494 -0.009058 0.024537 0.000000 0.000000 0.000000
# 4 0.000000 0.000000 0.000000 0.036420 0.000000 0.000000
# 5 0.000000 0.000000 0.000000 0.000000 0.041993 0.000000
# 6 0.000000 0.000000 0.000000 0.000000 0.000000 0.030036
#
#
# Mechanical properties :
#
#
# Convention : Reuss Voigt Hill
#
# Bulk Modulus (GPa) = 56.08244 71.65557 63.86900
# Shear Modulus (GPa) = 25.58413 28.03979 26.81196
#
# Velocity S-wave (km/s) = 3.44462 3.60614 3.52630
# Velocity P-wave (km/s) = 6.46764 7.11135 6.79712
#
# Compressibility (1/GPa) = 0.01783089
#
# Stress axis : x y z
#
# Youngs Moduli (GPa) = 90.57955 72.15732 40.75477
#
# Poissons Ratio (x) = 0.37890 0.06087
# Poissons Ratio (y) = 0.47564 0.36915
# Poissons Ratio (z) = 0.13529 0.65358
#
# Static dielectric constant tensor:
#      x y z
#    x 4.119860 0.000000 0.000000 
#    y 0.000000 3.811930 0.000000 
#    z 0.000000 0.000000 3.896130 
# 
# 
# High freq. dielectric constant tensor:
#      x y z
#    x 1.867340 0.000000 0.000000 
#    y 0.000000 1.851760 0.000000 
#    z 0.000000 0.000000 1.836600 
# 
# From -- ./inp_files/14025.got.cif
#   From: 2010.06.25/outbox.cif.g09.slc.cpg/sg52_8_cif.got.tgz:14025.got - 2010.06.26 19:32:48.
