data_PCOD8216195
_publ_section_title
;
Structure prediction by ZEFSAII (Michael W. Deem and Ramdas Pophale) SiO2 
 PCOD8216195
Probable space group: P N N A
;
_chemical_formula_sum "Si O2"
_cell_formula_units_Z 40
_cell_length_a 14.707384
_cell_length_b 14.139923
_cell_length_c 8.971001
_cell_angle_alpha 90.000000
_cell_angle_beta 90.000000
_cell_angle_gamma 90.000000
_cell_volume 1865.620827
_symmetry_space_group_name_H-M "P N N A"
_symmetry_group_IT_number 52
_symmetry_cell_setting 'orthorhombic'
loop_
_space_group_symop_operation_xyz
x,y,z
1/2-x,-y,z
x,1/2-y,1/2-z
1/2-x,1/2+y,1/2-z
-x,-y,-z
1/2+x,y,-z
-x,1/2+y,1/2+z
1/2+x,1/2-y,1/2+z
loop_
_atom_site_type_symbol
_atom_site_label
_atom_site_fract_x
_atom_site_fract_y
_atom_site_fract_z
Si Si1 0.995183 0.586130 0.890831
Si Si2 0.400481 0.336772 0.650044
Si Si3 0.477967 0.767522 0.919773
Si Si4 0.208660 0.397468 0.188720
Si Si5 0.775501 0.711232 0.512999
O O1 0.899451 0.594144 0.806992
O O2 0.074176 0.576255 0.762045
O O3 0.008801 0.673799 0.998176
O O4 0.000000 0.500000 0.000000
O O5 0.438635 0.250000 0.750000
O O6 0.456908 0.347089 0.494975
O O7 0.294225 0.322383 0.615190
O O8 0.503664 0.750000 0.750000
O O9 0.373900 0.797904 0.938777
O O10 0.250000 0.500000 0.150911
O O11 0.238056 0.360886 0.350709
O O12 0.241151 0.320043 0.065349
#
# Coordination Sequence:
#
# PCOD8216195 Si02
#       5
#     8   8   8   8   8
#     4  10  22  42  64  94 130 167 218 278 325 397
#     4  10  21  38  66  91 123 170 221 260 331 398
#     4  10  21  39  62  90 124 166 212 263 328 387
#     4  10  22  39  63  94 131 172 216 267 338 396
#     4  10  21  41  62  91 133 171 215 277 324 393
#
# _framework density 21.440584999999999
#
# number of rings (size 3 to 8) (size 9 to 14) (size 15 to 20)
#    0.000    2.000    2.000    0.600    8.400    0.000 
#    3.600    2.000    0.000    0.000    0.000    0.000 
#    0.000    0.000    0.000    0.000    0.000    0.000 
#
# Total GULP energy -495697.291964 kJ/mol
# GULP energy per Si atom -12392.432299 kJ/mol
# Density = 2.139179 g / cm^3
# Si number density = 21.440585 Si / 1000 Ang^3
#
#
#
# Elastic Constant Matrix: (Units=GPa)
#
#
# Indices 1 2 3 4 5 6 
#
# 1 110.7744 27.8996 60.5779 0.0000 0.0000 0.0000
# 2 27.8996 72.8074 23.9935 0.0000 0.0000 0.0000
# 3 60.5779 23.9935 129.9169 0.0000 0.0000 0.0000
# 4 0.0000 0.0000 0.0000 31.0350 0.0000 0.0000
# 5 0.0000 0.0000 0.0000 0.0000 -254.1292 0.0000
# 6 0.0000 0.0000 0.0000 0.0000 0.0000 19.1159
#
#
#
# Elastic Compliance Matrix: (Units=1/GPa)
#
#
# Indices 1 2 3 4 5 6 
#
# 1 0.012748 -0.003116 -0.005369 0.000000 0.000000 0.000000
# 2 -0.003116 0.015387 -0.001389 0.000000 0.000000 0.000000
# 3 -0.005369 -0.001389 0.010457 0.000000 0.000000 0.000000
# 4 0.000000 0.000000 0.000000 0.032222 0.000000 0.000000
# 5 0.000000 0.000000 0.000000 0.000000 -0.003935 0.000000
# 6 0.000000 0.000000 0.000000 0.000000 0.000000 0.052312
#
#
# Mechanical properties :
#
#
# Convention : Reuss Voigt Hill
#
# Bulk Modulus (GPa) = 53.06456 59.82676 56.44566
# Shear Modulus (GPa) = 34.43074 -27.39382 3.51846
#
# Velocity S-wave (km/s) = 4.01168 -3.57832 1.28242
# Velocity P-wave (km/s) = 6.80157 3.30024 5.34570
#
# Compressibility (1/GPa) = 0.01884497
#
# Stress axis : x y z
#
# Youngs Moduli (GPa) = 78.44349 64.99202 95.62911
#
# Poissons Ratio (x) = 0.20250 0.51341
# Poissons Ratio (y) = 0.24441 0.13281
# Poissons Ratio (z) = 0.42114 0.09026
#
# Static dielectric constant tensor:
#      x y z
#    x 3.684110 0.000000 0.000000 
#    y 0.000000 3.871120 0.000000 
#    z 0.000000 0.000000 4.160570 
# 
# 
# High freq. dielectric constant tensor:
#      x y z
#    x 1.843730 0.000000 0.000000 
#    y 0.000000 1.810980 0.000000 
#    z 0.000000 0.000000 1.855130 
# 
# From -- ./inp_files/10039.got.cif
#   From: 2010.06.25/outbox.cif.g09.slc.cpg/sg52_6_cif.got.tgz:10039.got - 2010.06.26 19:32:48.
