data_PCOD8216130
_publ_section_title
;
Structure prediction by ZEFSAII (Michael W. Deem and Ramdas Pophale) SiO2 
 PCOD8216130
Probable space group: P N N A
;
_chemical_formula_sum "Si O2"
_cell_formula_units_Z 32
_cell_length_a 4.987812
_cell_length_b 8.201547
_cell_length_c 37.338494
_cell_angle_alpha 90.000000
_cell_angle_beta 90.000000
_cell_angle_gamma 90.000000
_cell_volume 1527.434694
_symmetry_space_group_name_H-M "P N N A"
_symmetry_group_IT_number 52
_symmetry_cell_setting 'orthorhombic'
loop_
_space_group_symop_operation_xyz
x,y,z
1/2-x,-y,z
x,1/2-y,1/2-z
1/2-x,1/2+y,1/2-z
-x,-y,-z
1/2+x,y,-z
-x,1/2+y,1/2+z
1/2+x,1/2-y,1/2+z
loop_
_atom_site_type_symbol
_atom_site_label
_atom_site_fract_x
_atom_site_fract_y
_atom_site_fract_z
Si Si1 0.490831 0.892026 0.222537
Si Si2 0.744071 0.312683 0.522974
Si Si3 0.007826 0.109783 0.142676
Si Si4 0.487772 0.607607 0.088067
O O1 0.549797 0.750000 0.250000
O O2 0.418514 0.825691 0.182653
O O3 0.250000 0.000000 0.238010
O O4 0.750000 0.000000 0.219880
O O5 0.750000 0.500000 0.536387
O O6 0.549304 0.278988 0.489040
O O7 0.644628 0.192684 0.553622
O O8 0.933736 0.260321 0.117511
O O9 0.750000 0.000000 0.144123
O O10 0.250000 0.000000 0.127074
O O11 0.250000 0.500000 0.104986
O O12 0.750000 0.500000 0.078277
#
# Coordination Sequence:
#
# PCOD8216130 Si02
#       4
#     8   8   8   8
#     4  10  21  37  60  88 117 153 193 238 288 338
#     4  10  22  40  61  83 111 152 194 230 282 353
#     4  10  22  41  61  82 116 160 198 230 279 350
#     4  12  25  38  59  90 119 149 189 244 297 332
#
# _framework density 20.950158999999999
#
# number of rings (size 3 to 8) (size 9 to 14) (size 15 to 20)
#    0.000    1.500    0.000    4.500    0.000    8.000 
#    0.000    0.000    0.000    0.000    0.000    0.000 
#    0.000    0.000    0.000    0.000    0.000    0.000 
#
# Total GULP energy -396771.527704 kJ/mol
# GULP energy per Si atom -12399.110241 kJ/mol
# Density = 2.090248 g / cm^3
# Si number density = 20.950159 Si / 1000 Ang^3
#
#
#
# Elastic Constant Matrix: (Units=GPa)
#
#
# Indices 1 2 3 4 5 6 
#
# 1 117.1655 29.5826 7.8577 0.0000 0.0000 0.0000
# 2 29.5826 101.9329 55.8818 0.0000 0.0000 0.0000
# 3 7.8577 55.8818 84.4764 0.0000 0.0000 0.0000
# 4 0.0000 0.0000 0.0000 34.9261 0.0000 0.0000
# 5 0.0000 0.0000 0.0000 0.0000 28.4649 0.0000
# 6 0.0000 0.0000 0.0000 0.0000 0.0000 40.1488
#
#
#
# Elastic Compliance Matrix: (Units=1/GPa)
#
#
# Indices 1 2 3 4 5 6 
#
# 1 0.009321 -0.003499 0.001447 0.000000 0.000000 0.000000
# 2 -0.003499 0.016706 -0.010726 0.000000 0.000000 0.000000
# 3 0.001447 -0.010726 0.018798 0.000000 0.000000 0.000000
# 4 0.000000 0.000000 0.000000 0.028632 0.000000 0.000000
# 5 0.000000 0.000000 0.000000 0.000000 0.035131 0.000000
# 6 0.000000 0.000000 0.000000 0.000000 0.000000 0.024907
#
#
# Mechanical properties :
#
#
# Convention : Reuss Voigt Hill
#
# Bulk Modulus (GPa) = 51.89057 54.46877 53.17967
# Shear Modulus (GPa) = 30.21650 34.72481 32.47066
#
# Velocity S-wave (km/s) = 3.80189 4.07565 3.94115
# Velocity P-wave (km/s) = 6.64039 6.94288 6.79332
#
# Compressibility (1/GPa) = 0.01927133
#
# Stress axis : x y z
#
# Youngs Moduli (GPa) = 107.28201 59.85988 53.19712
#
# Poissons Ratio (x) = 0.20943 -0.07699
# Poissons Ratio (y) = 0.37534 0.57057
# Poissons Ratio (z) = -0.15527 0.64203
#
# Static dielectric constant tensor:
#      x y z
#    x 3.983480 0.000000 0.000000 
#    y 0.000000 3.749070 0.000000 
#    z 0.000000 0.000000 3.775290 
# 
# 
# High freq. dielectric constant tensor:
#      x y z
#    x 1.843730 0.000000 0.000000 
#    y 0.000000 1.817570 0.000000 
#    z 0.000000 0.000000 1.814550 
# 
# From -- ./inp_files/43557.got.cif
#   From: 2010.06.25/outbox.cif.g09.slc.cpg/sg52_22_cif.got.tgz:43557.got - 2010.06.26 19:32:48.
