data_PCOD8216707
_publ_section_title
;
Structure prediction by ZEFSAII (Michael W. Deem and Ramdas Pophale) SiO2 
 PCOD8216707
Probable space group: P N N A
;
_chemical_formula_sum "Si O2"
_cell_formula_units_Z 52
_cell_length_a 13.674739
_cell_length_b 21.813777
_cell_length_c 8.162532
_cell_angle_alpha 90.000000
_cell_angle_beta 90.000000
_cell_angle_gamma 90.000000
_cell_volume 2434.864580
_symmetry_space_group_name_H-M "P N N A"
_symmetry_group_IT_number 52
_symmetry_cell_setting 'orthorhombic'
loop_
_space_group_symop_operation_xyz
x,y,z
1/2-x,-y,z
x,1/2-y,1/2-z
1/2-x,1/2+y,1/2-z
-x,-y,-z
1/2+x,y,-z
-x,1/2+y,1/2+z
1/2+x,1/2-y,1/2+z
loop_
_atom_site_type_symbol
_atom_site_label
_atom_site_fract_x
_atom_site_fract_y
_atom_site_fract_z
Si Si1 0.510630 0.429787 0.047845
Si Si2 0.152442 0.881763 0.679272
Si Si3 0.026049 0.671218 0.539488
Si Si4 0.015131 0.250000 0.750000
Si Si5 0.614065 0.250000 0.750000
Si Si6 0.443963 0.553798 0.587140
Si Si7 0.159120 0.331246 0.968866
Si Si8 0.750000 0.500000 0.303579
O O1 0.501961 0.430254 0.243216
O O2 0.615502 0.399814 0.999315
O O3 0.500000 0.500000 0.000000
O O4 0.431704 0.385858 0.958458
O O5 0.118158 0.851789 0.852274
O O6 0.236353 0.836669 0.617168
O O7 0.188896 0.951632 0.697178
O O8 0.053237 0.707264 0.369289
O O9 0.959229 0.717945 0.630363
O O10 0.954032 0.613980 0.519564
O O11 0.084535 0.295962 0.850688
O O12 0.678715 0.203468 0.641212
O O13 0.500000 0.500000 0.500000
O O14 0.328752 0.538197 0.591977
#
# Coordination Sequence:
#
# PCOD8216707 Si02
#       8
#     8   8   8   4   4   8   8   4
#     4  12  22  42  71 101 139 180 227 295 360 424
#     4  12  23  42  72 105 136 188 236 284 364 428
#     4  11  22  43  73 101 139 186 229 286 360 415
#     4  10  22  45  69  96 144 186 226 293 341 416
#     4  10  24  45  71  96 142 188 236 293 345 418
#     4  12  24  44  68 103 142 179 231 295 358 425
#     4  11  23  45  68 100 141 186 233 296 354 416
#     4  12  22  42  72 100 138 182 228 290 366 426
#
# _framework density 21.356424000000001
#
# number of rings (size 3 to 8) (size 9 to 14) (size 15 to 20)
#    0.000    0.615    7.692    0.000    0.000    0.615 
#    2.769    3.846    0.000    0.000    0.000    0.000 
#    0.000    0.000    0.000    0.000    0.000    0.000 
#
# Total GULP energy -644419.070668 kJ/mol
# GULP energy per Si atom -12392.674436 kJ/mol
# Density = 2.130782 g / cm^3
# Si number density = 21.356424 Si / 1000 Ang^3
#
#
#
# Elastic Constant Matrix: (Units=GPa)
#
#
# Indices 1 2 3 4 5 6 
#
# 1 107.9278 34.2819 57.7154 0.0000 0.0000 0.0000
# 2 34.2819 112.8207 51.9658 0.0000 0.0000 0.0000
# 3 57.7154 51.9658 126.5023 0.0000 0.0000 0.0000
# 4 0.0000 0.0000 0.0000 42.1954 0.0000 0.0000
# 5 0.0000 0.0000 0.0000 0.0000 35.1819 0.0000
# 6 0.0000 0.0000 0.0000 0.0000 0.0000 37.9350
#
#
#
# Elastic Compliance Matrix: (Units=1/GPa)
#
#
# Indices 1 2 3 4 5 6 
#
# 1 0.012442 -0.001438 -0.005086 0.000000 0.000000 0.000000
# 2 -0.001438 0.011098 -0.003903 0.000000 0.000000 0.000000
# 3 -0.005086 -0.003903 0.011829 0.000000 0.000000 0.000000
# 4 0.000000 0.000000 0.000000 0.023699 0.000000 0.000000
# 5 0.000000 0.000000 0.000000 0.000000 0.028424 0.000000
# 6 0.000000 0.000000 0.000000 0.000000 0.000000 0.026361
#
#
# Mechanical properties :
#
#
# Convention : Reuss Voigt Hill
#
# Bulk Modulus (GPa) = 68.89310 70.57523 69.73416
# Shear Modulus (GPa) = 35.83086 36.61501 36.22293
#
# Velocity S-wave (km/s) = 4.10049 4.14511 4.12286
# Velocity P-wave (km/s) = 7.39915 7.48514 7.44227
#
# Compressibility (1/GPa) = 0.01451524
#
# Stress axis : x y z
#
# Youngs Moduli (GPa) = 80.37368 90.10372 84.54094
#
# Poissons Ratio (x) = 0.12958 0.42995
# Poissons Ratio (y) = 0.11559 0.32996
# Poissons Ratio (z) = 0.40876 0.35167
#
# Static dielectric constant tensor:
#      x y z
#    x 3.715650 0.000000 0.000000 
#    y 0.000000 4.381930 0.000000 
#    z 0.000000 0.000000 4.139630 
# 
# 
# High freq. dielectric constant tensor:
#      x y z
#    x 1.813660 0.000000 0.000000 
#    y 0.000000 1.867210 0.000000 
#    z 0.000000 0.000000 1.843120 
# 
# From -- ./inp_files/10760.got.cif
#   From: 2010.06.25/outbox.cif.g09.slc.cpg/sg52_6_cif.got.tgz:10760.got - 2010.06.26 19:32:48.
