data_PCOD8216347
_publ_section_title
;
Structure prediction by ZEFSAII (Michael W. Deem and Ramdas Pophale) SiO2 
 PCOD8216347
Probable space group: P N N A
;
_chemical_formula_sum "Si O2"
_cell_formula_units_Z 36
_cell_length_a 21.500581
_cell_length_b 12.925388
_cell_length_c 5.096577
_cell_angle_alpha 90.000000
_cell_angle_beta 90.000000
_cell_angle_gamma 90.000000
_cell_volume 1416.355830
_symmetry_space_group_name_H-M "P N N A"
_symmetry_group_IT_number 52
_symmetry_cell_setting 'orthorhombic'
loop_
_space_group_symop_operation_xyz
x,y,z
1/2-x,-y,z
x,1/2-y,1/2-z
1/2-x,1/2+y,1/2-z
-x,-y,-z
1/2+x,y,-z
-x,1/2+y,1/2+z
1/2+x,1/2-y,1/2+z
loop_
_atom_site_type_symbol
_atom_site_label
_atom_site_fract_x
_atom_site_fract_y
_atom_site_fract_z
Si Si1 0.000000 0.750000 0.750000
Si Si2 0.287697 0.371216 0.728236
Si Si3 0.923899 0.063980 0.112683
Si Si4 0.076101 0.063980 0.387317
Si Si5 0.212303 0.371216 0.228236
O O1 0.955778 0.823645 0.573493
O O2 0.044222 0.823645 0.926507
O O3 0.299789 0.250000 0.750000
O O4 0.349851 0.425421 0.626887
O O5 0.234390 0.404597 0.519257
O O6 0.265610 0.404597 0.019256
O O7 0.946080 0.012847 0.384463
O O8 0.946080 0.987153 0.884463
O O9 0.150149 0.074579 0.373113
O O10 0.200211 0.250000 0.250000
#
# Coordination Sequence:
#
# PCOD8216347 Si02
#       5
#     4   8   8   8   8
#     4  12  28  54  68 100 144 186 228 308 320 416
#     4  10  21  41  69 102 140 179 219 279 351 409
#     4  12  27  46  74 105 135 185 235 281 349 410
#     4  12  27  46  74 105 135 185 235 281 349 410
#     4  10  21  41  69 102 140 179 219 279 351 409
#
# _framework density 25.417339999999999
#
# number of rings (size 3 to 8) (size 9 to 14) (size 15 to 20)
#    0.000    0.889    2.222    4.000    0.000    8.889 
#    0.000    0.000    0.000    0.000    0.000    0.000 
#    0.000    0.000    0.000    0.000    0.000    0.000 
#
# Total GULP energy -446405.991809 kJ/mol
# GULP energy per Si atom -12400.166439 kJ/mol
# Density = 2.535949 g / cm^3
# Si number density = 25.417340 Si / 1000 Ang^3
#
#
#
# Elastic Constant Matrix: (Units=GPa)
#
#
# Indices 1 2 3 4 5 6 
#
# 1 100.9749 44.1684 34.7809 0.0000 0.0000 0.0000
# 2 44.1684 152.9993 32.3319 0.0000 0.0000 0.0000
# 3 34.7809 32.3319 163.1067 0.0000 0.0000 0.0000
# 4 0.0000 0.0000 0.0000 1.9991 0.0000 0.0000
# 5 0.0000 0.0000 0.0000 0.0000 -1.0800 0.0000
# 6 0.0000 0.0000 0.0000 0.0000 0.0000 54.7417
#
#
#
# Elastic Compliance Matrix: (Units=1/GPa)
#
#
# Indices 1 2 3 4 5 6 
#
# 1 0.011893 -0.003024 -0.001937 0.000000 0.000000 0.000000
# 2 -0.003024 0.007591 -0.000860 0.000000 0.000000 0.000000
# 3 -0.001937 -0.000860 0.006714 0.000000 0.000000 0.000000
# 4 0.000000 0.000000 0.000000 0.500229 0.000000 0.000000
# 5 0.000000 0.000000 0.000000 0.000000 -0.925926 0.000000
# 6 0.000000 0.000000 0.000000 0.000000 0.000000 0.018268
#
#
# Mechanical properties :
#
#
# Convention : Reuss Voigt Hill
#
# Bulk Modulus (GPa) = 68.69471 71.07147 69.88309
# Shear Modulus (GPa) = -13.70852 31.51880 8.90514
#
# Velocity S-wave (km/s) = -2.32488 3.52526 1.87381
# Velocity P-wave (km/s) = 4.45854 6.67776 5.67763
#
# Compressibility (1/GPa) = 0.01455716
#
# Stress axis : x y z
#
# Youngs Moduli (GPa) = 84.08042 131.74017 148.93442
#
# Poissons Ratio (x) = 0.39840 0.28844
# Poissons Ratio (y) = 0.25427 0.12805
# Poissons Ratio (z) = 0.16284 0.11327
#
# Static dielectric constant tensor:
#      x y z
#    x 4.632710 0.000000 0.000000 
#    y 0.000000 4.702370 0.000000 
#    z 0.000000 0.000000 4.422750 
# 
# 
# High freq. dielectric constant tensor:
#      x y z
#    x 2.042620 0.000000 0.000000 
#    y 0.000000 2.040040 0.000000 
#    z 0.000000 0.000000 1.997550 
# 
# From -- ./inp_files/4092.got.cif
#   From: 2010.06.25/outbox.cif.g09.slc.cpg/sg52_3_cif.got.tgz:4092.got - 2010.06.26 19:32:48.
