data_PCOD8216082
_publ_section_title
;
Structure prediction by ZEFSAII (Michael W. Deem and Ramdas Pophale) SiO2 
 PCOD8216082
Probable space group: P N N A
;
_chemical_formula_sum "Si O2"
_cell_formula_units_Z 32
_cell_length_a 5.038968
_cell_length_b 7.967509
_cell_length_c 35.336144
_cell_angle_alpha 90.000000
_cell_angle_beta 90.000000
_cell_angle_gamma 90.000000
_cell_volume 1418.676318
_symmetry_space_group_name_H-M "P N N A"
_symmetry_group_IT_number 52
_symmetry_cell_setting 'orthorhombic'
loop_
_space_group_symop_operation_xyz
x,y,z
1/2-x,-y,z
x,1/2-y,1/2-z
1/2-x,1/2+y,1/2-z
-x,-y,-z
1/2+x,y,-z
-x,1/2+y,1/2+z
1/2+x,1/2-y,1/2+z
loop_
_atom_site_type_symbol
_atom_site_label
_atom_site_fract_x
_atom_site_fract_y
_atom_site_fract_z
Si Si1 0.751979 0.805524 0.602705
Si Si2 0.252275 0.304208 0.849598
Si Si3 0.768265 0.306575 0.519825
Si Si4 0.512412 0.891963 0.220973
O O1 0.540744 0.755700 0.635487
O O2 0.688587 0.706767 0.564628
O O3 0.045473 0.761756 0.616728
O O4 0.750000 0.000000 0.592787
O O5 0.250000 0.500000 0.837654
O O6 0.342168 0.190074 0.814941
O O7 0.750000 0.500000 0.508549
O O8 0.503555 0.218250 0.503961
O O9 0.414161 0.750000 0.250000
O O10 0.250000 0.000000 0.210365
O O11 0.750000 0.000000 0.240245
#
# Coordination Sequence:
#
# PCOD8216082 Si02
#       4
#     8   8   8   8
#     4  10  21  37  60  88 118 158 204 254 309 365
#     4  10  22  41  63  90 126 162 204 257 311 368
#     4  10  21  36  54  80 116 157 200 250 306 363
#     4  12  26  44  68  98 130 168 212 256 312 374
#
# _framework density 22.556236999999999
#
# number of rings (size 3 to 8) (size 9 to 14) (size 15 to 20)
#    0.000    1.500    0.000    4.500    0.000    7.000 
#    0.000    0.000    0.000    0.000    0.000    0.000 
#    0.000    0.000    0.000    0.000    0.000    0.000 
#
# Total GULP energy -396722.506708 kJ/mol
# GULP energy per Si atom -12397.578335 kJ/mol
# Density = 2.250490 g / cm^3
# Si number density = 22.556237 Si / 1000 Ang^3
#
#
#
# Elastic Constant Matrix: (Units=GPa)
#
#
# Indices 1 2 3 4 5 6 
#
# 1 161.6721 47.3252 34.9810 0.0000 0.0000 0.0000
# 2 47.3252 60.0714 36.8566 0.0000 0.0000 0.0000
# 3 34.9810 36.8566 99.5610 0.0000 0.0000 0.0000
# 4 0.0000 0.0000 0.0000 28.0055 0.0000 0.0000
# 5 0.0000 0.0000 0.0000 0.0000 27.3037 0.0000
# 6 0.0000 0.0000 0.0000 0.0000 0.0000 29.4885
#
#
#
# Elastic Compliance Matrix: (Units=1/GPa)
#
#
# Indices 1 2 3 4 5 6 
#
# 1 0.008069 -0.005974 -0.000623 0.000000 0.000000 0.000000
# 2 -0.005974 0.025963 -0.007512 0.000000 0.000000 0.000000
# 3 -0.000623 -0.007512 0.013044 0.000000 0.000000 0.000000
# 4 0.000000 0.000000 0.000000 0.035707 0.000000 0.000000
# 5 0.000000 0.000000 0.000000 0.000000 0.036625 0.000000
# 6 0.000000 0.000000 0.000000 0.000000 0.000000 0.033911
#
#
# Mechanical properties :
#
#
# Convention : Reuss Voigt Hill
#
# Bulk Modulus (GPa) = 53.03360 62.18114 57.60737
# Shear Modulus (GPa) = 26.62057 30.43565 28.52811
#
# Velocity S-wave (km/s) = 3.43911 3.67730 3.56020
# Velocity P-wave (km/s) = 6.27158 6.75700 6.51881
#
# Compressibility (1/GPa) = 0.01885597
#
# Stress axis : x y z
#
# Youngs Moduli (GPa) = 123.92930 38.51695 76.66363
#
# Poissons Ratio (x) = 0.23012 0.04779
# Poissons Ratio (y) = 0.74041 0.57590
# Poissons Ratio (z) = 0.07726 0.28934
#
# Static dielectric constant tensor:
#      x y z
#    x 4.637200 0.000000 0.000000 
#    y 0.000000 4.045960 0.000000 
#    z 0.000000 0.000000 3.725210 
# 
# 
# High freq. dielectric constant tensor:
#      x y z
#    x 1.912520 0.000000 0.000000 
#    y 0.000000 1.878550 0.000000 
#    z 0.000000 0.000000 1.883110 
# 
# From -- ./inp_files/43459.got.cif
#   From: 2010.06.25/outbox.cif.g09.slc.cpg/sg52_22_cif.got.tgz:43459.got - 2010.06.26 19:32:48.
