data_PCOD8216512
_publ_section_title
;
Structure prediction by ZEFSAII (Michael W. Deem and Ramdas Pophale) SiO2 
 PCOD8216512
Probable space group: P N N A
;
_chemical_formula_sum "Si O2"
_cell_formula_units_Z 60
_cell_length_a 8.967980
_cell_length_b 29.433733
_cell_length_c 10.401157
_cell_angle_alpha 90.000000
_cell_angle_beta 90.000000
_cell_angle_gamma 90.000000
_cell_volume 2745.501143
_symmetry_space_group_name_H-M "P N N A"
_symmetry_group_IT_number 52
_symmetry_cell_setting 'orthorhombic'
loop_
_space_group_symop_operation_xyz
x,y,z
1/2-x,-y,z
x,1/2-y,1/2-z
1/2-x,1/2+y,1/2-z
-x,-y,-z
1/2+x,y,-z
-x,1/2+y,1/2+z
1/2+x,1/2-y,1/2+z
loop_
_atom_site_type_symbol
_atom_site_label
_atom_site_fract_x
_atom_site_fract_y
_atom_site_fract_z
Si Si1 0.596982 0.472503 0.900326
Si Si2 0.358097 0.630998 0.071184
Si Si3 0.969145 0.599193 0.348445
Si Si4 0.086967 0.327577 0.345513
Si Si5 0.184485 0.631372 0.546126
Si Si6 0.076747 0.995296 0.138038
Si Si7 0.226288 0.750000 0.250000
Si Si8 0.559930 0.833310 0.635317
O O1 0.750000 0.500000 0.887563
O O2 0.608087 0.421615 0.955515
O O3 0.532808 0.469211 0.752575
O O4 0.500000 0.500000 0.000000
O O5 0.412586 0.646952 0.210017
O O6 0.181740 0.636886 0.060932
O O7 0.420843 0.664763 0.960809
O O8 0.057159 0.599477 0.485249
O O9 0.023428 0.551481 0.291098
O O10 0.023391 0.643195 0.270679
O O11 0.787942 0.601982 0.356298
O O12 0.912113 0.327485 0.389039
O O13 0.193950 0.352469 0.444952
O O14 0.158260 0.277620 0.338999
O O15 0.250000 0.000000 0.106347
O O16 0.000000 0.000000 0.000000
O O17 0.119165 0.782451 0.335168
#
# Coordination Sequence:
#
# PCOD8216512 Si02
#       8
#     8   8   8   8   8   8   4   8
#     4  11  24  42  63  92 131 182 230 276 323 395
#     4  11  23  43  65  95 134 176 224 273 342 390
#     4  11  21  42  62  94 130 177 222 269 345 388
#     4  10  23  41  67  96 126 171 213 279 333 408
#     4  10  22  39  69  89 127 175 216 267 334 408
#     4  11  24  38  62  96 133 175 226 287 327 386
#     4  10  22  46  68 100 128 162 222 274 344 400
#     4  11  24  43  68  94 133 176 216 277 330 415
#
# _framework density 21.853933000000001
#
# number of rings (size 3 to 8) (size 9 to 14) (size 15 to 20)
#    0.000    1.333    2.667    4.000    5.600    2.667 
#    2.400    0.667    0.000    0.000    0.000    0.000 
#    0.000    0.000    0.000    0.000    0.000    0.000 
#
# Total GULP energy -743292.353962 kJ/mol
# GULP energy per Si atom -12388.205899 kJ/mol
# Density = 2.180419 g / cm^3
# Si number density = 21.853933 Si / 1000 Ang^3
#
#
#
# Elastic Constant Matrix: (Units=GPa)
#
#
# Indices 1 2 3 4 5 6 
#
# 1 116.5926 18.6902 37.4454 0.0000 0.0000 0.0000
# 2 18.6902 103.6233 13.3299 0.0000 0.0000 0.0000
# 3 37.4454 13.3299 82.9947 0.0000 0.0000 0.0000
# 4 0.0000 0.0000 0.0000 22.8586 0.0000 0.0000
# 5 0.0000 0.0000 0.0000 0.0000 36.9668 0.0000
# 6 0.0000 0.0000 0.0000 0.0000 0.0000 36.5286
#
#
#
# Elastic Compliance Matrix: (Units=1/GPa)
#
#
# Indices 1 2 3 4 5 6 
#
# 1 0.010192 -0.001273 -0.004394 0.000000 0.000000 0.000000
# 2 -0.001273 0.010013 -0.001034 0.000000 0.000000 0.000000
# 3 -0.004394 -0.001034 0.014197 0.000000 0.000000 0.000000
# 4 0.000000 0.000000 0.000000 0.043747 0.000000 0.000000
# 5 0.000000 0.000000 0.000000 0.000000 0.027051 0.000000
# 6 0.000000 0.000000 0.000000 0.000000 0.000000 0.027376
#
#
# Mechanical properties :
#
#
# Convention : Reuss Voigt Hill
#
# Bulk Modulus (GPa) = 47.61727 49.12685 48.37206
# Shear Modulus (GPa) = 32.68421 34.85379 33.76900
#
# Velocity S-wave (km/s) = 3.87146 3.99789 3.93519
# Velocity P-wave (km/s) = 6.46688 6.62113 6.54445
#
# Compressibility (1/GPa) = 0.02100079
#
# Stress axis : x y z
#
# Youngs Moduli (GPa) = 98.11470 99.87062 70.43502
#
# Poissons Ratio (x) = 0.12714 0.30949
# Poissons Ratio (y) = 0.12491 0.07282
# Poissons Ratio (z) = 0.43112 0.10325
#
# Static dielectric constant tensor:
#      x y z
#    x 3.010720 0.000000 0.000000 
#    y 0.000000 3.824990 0.000000 
#    z 0.000000 0.000000 4.120450 
# 
# 
# High freq. dielectric constant tensor:
#      x y z
#    x 1.867260 0.000000 0.000000 
#    y 0.000000 1.848180 0.000000 
#    z 0.000000 0.000000 1.861420 
# 
# From -- ./inp_files/17146.got.cif
#   From: 2010.06.25/outbox.cif.g09.slc.cpg/sg52_9_cif.got.tgz:17146.got - 2010.06.26 19:32:48.
