data_PCOD8216518
_publ_section_title
;
Structure prediction by ZEFSAII (Michael W. Deem and Ramdas Pophale) SiO2 
 PCOD8216518
Probable space group: P N N A
;
_chemical_formula_sum "Si O2"
_cell_formula_units_Z 48
_cell_length_a 8.730672
_cell_length_b 12.157684
_cell_length_c 22.443907
_cell_angle_alpha 90.000000
_cell_angle_beta 90.000000
_cell_angle_gamma 90.000000
_cell_volume 2382.302926
_symmetry_space_group_name_H-M "P N N A"
_symmetry_group_IT_number 52
_symmetry_cell_setting 'orthorhombic'
loop_
_space_group_symop_operation_xyz
x,y,z
1/2-x,-y,z
x,1/2-y,1/2-z
1/2-x,1/2+y,1/2-z
-x,-y,-z
1/2+x,y,-z
-x,1/2+y,1/2+z
1/2+x,1/2-y,1/2+z
loop_
_atom_site_type_symbol
_atom_site_label
_atom_site_fract_x
_atom_site_fract_y
_atom_site_fract_z
Si Si1 0.114327 0.583811 0.190312
Si Si2 0.918300 0.538827 0.694761
Si Si3 0.305764 0.750000 0.250000
Si Si4 0.250000 0.000000 0.010346
Si Si5 0.956281 0.592027 0.070440
Si Si6 0.386943 0.348935 0.957859
Si Si7 0.513799 0.885253 0.074290
O O1 0.250000 0.500000 0.171541
O O2 0.028296 0.542148 0.251377
O O3 0.195166 0.700001 0.199941
O O4 0.990331 0.608565 0.139887
O O5 0.750000 0.500000 0.673788
O O6 0.915012 0.661231 0.720348
O O7 0.030638 0.549865 0.637713
O O8 0.142252 0.926714 0.969878
O O9 0.345221 0.913376 0.049694
O O10 0.792939 0.644826 0.054961
O O11 0.968695 0.460875 0.062667
O O12 0.080442 0.656127 0.029263
O O13 0.463383 0.246917 0.922164
#
# Coordination Sequence:
#
# PCOD8216518 Si02
#       7
#     8   8   4   4   8   8   8
#     4   9  20  36  60  88 116 157 200 255 293 360
#     4   9  19  37  60  89 116 156 202 257 288 361
#     4   8  18  34  58  90 106 154 202 228 306 346
#     4  10  24  38  60  90 120 152 204 250 304 348
#     4  10  22  40  57  91 125 150 200 251 298 379
#     4  10  23  37  61  88 121 158 193 240 321 349
#     4  11  21  41  61  90 119 161 199 252 301 368
#
# _framework density 20.148572000000001
#
# number of rings (size 3 to 8) (size 9 to 14) (size 15 to 20)
#    0.000    2.667    0.833    1.000    9.333    1.333 
#    9.000    1.667    0.000    0.000    0.000    0.000 
#    0.000    0.000    0.000    0.000    0.000    0.000 
#
# Total GULP energy -594787.682023 kJ/mol
# GULP energy per Si atom -12391.410042 kJ/mol
# Density = 2.010271 g / cm^3
# Si number density = 20.148572 Si / 1000 Ang^3
#
#
#
# Elastic Constant Matrix: (Units=GPa)
#
#
# Indices 1 2 3 4 5 6 
#
# 1 87.3240 16.7158 47.7266 0.0000 0.0000 0.0000
# 2 16.7158 39.4457 -0.1070 0.0000 0.0000 0.0000
# 3 47.7266 -0.1070 134.0321 0.0000 0.0000 0.0000
# 4 0.0000 0.0000 0.0000 22.3716 0.0000 0.0000
# 5 0.0000 0.0000 0.0000 0.0000 4.1401 0.0000
# 6 0.0000 0.0000 0.0000 0.0000 0.0000 22.1185
#
#
#
# Elastic Compliance Matrix: (Units=1/GPa)
#
#
# Indices 1 2 3 4 5 6 
#
# 1 0.015819 -0.006719 -0.005638 0.000000 0.000000 0.000000
# 2 -0.006719 0.028205 0.002415 0.000000 0.000000 0.000000
# 3 -0.005638 0.002415 0.009471 0.000000 0.000000 0.000000
# 4 0.000000 0.000000 0.000000 0.044700 0.000000 0.000000
# 5 0.000000 0.000000 0.000000 0.000000 0.241539 0.000000
# 6 0.000000 0.000000 0.000000 0.000000 0.000000 0.045211
#
#
# Mechanical properties :
#
#
# Convention : Reuss Voigt Hill
#
# Bulk Modulus (GPa) = 29.75271 43.27473 36.51372
# Shear Modulus (GPa) = 12.01828 22.82378 17.42103
#
# Velocity S-wave (km/s) = 2.44495 3.36932 2.94365
# Velocity P-wave (km/s) = 4.77170 6.05482 5.45115
#
# Compressibility (1/GPa) = 0.03361038
#
# Stress axis : x y z
#
# Youngs Moduli (GPa) = 63.21333 35.45446 105.59025
#
# Poissons Ratio (x) = 0.23822 0.59536
# Poissons Ratio (y) = 0.42474 -0.25501
# Poissons Ratio (z) = 0.35642 -0.08563
#
# Static dielectric constant tensor:
#      x y z
#    x 3.316400 0.000000 0.000000 
#    y 0.000000 3.832920 0.000000 
#    z 0.000000 0.000000 3.756800 
# 
# 
# High freq. dielectric constant tensor:
#      x y z
#    x 1.754520 0.000000 0.000000 
#    y 0.000000 1.792430 0.000000 
#    z 0.000000 0.000000 1.789870 
# 
# From -- ./inp_files/39480.got.cif
#   From: 2010.06.25/outbox.cif.g09.slc.cpg/sg52_20_cif.got.tgz:39480.got - 2010.06.26 19:32:48.
