data_PCOD8216292
_publ_section_title
;
Structure prediction by ZEFSAII (Michael W. Deem and Ramdas Pophale) SiO2 
 PCOD8216292
Probable space group: P N N A
;
_chemical_formula_sum "Si O2"
_cell_formula_units_Z 60
_cell_length_a 12.128879
_cell_length_b 9.210211
_cell_length_c 25.992195
_cell_angle_alpha 90.000000
_cell_angle_beta 90.000000
_cell_angle_gamma 90.000000
_cell_volume 2903.576011
_symmetry_space_group_name_H-M "P N N A"
_symmetry_group_IT_number 52
_symmetry_cell_setting 'orthorhombic'
loop_
_space_group_symop_operation_xyz
x,y,z
1/2-x,-y,z
x,1/2-y,1/2-z
1/2-x,1/2+y,1/2-z
-x,-y,-z
1/2+x,y,-z
-x,1/2+y,1/2+z
1/2+x,1/2-y,1/2+z
loop_
_atom_site_type_symbol
_atom_site_label
_atom_site_fract_x
_atom_site_fract_y
_atom_site_fract_z
Si Si1 0.052221 0.744792 0.140927
Si Si2 0.424768 0.517601 0.922131
Si Si3 0.992133 0.951940 0.269728
Si Si4 0.197005 0.250000 0.750000
Si Si5 0.649500 0.405046 0.969027
Si Si6 0.775378 0.661400 0.595947
Si Si7 0.125351 0.684902 0.835002
Si Si8 0.036515 0.436486 0.334380
O O1 0.055060 0.676711 0.198958
O O2 0.173019 0.741161 0.115616
O O3 0.958588 0.657128 0.110802
O O4 0.013801 0.911043 0.137735
O O5 0.535621 0.442940 0.941898
O O6 0.352170 0.399956 0.889080
O O7 0.353452 0.574807 0.969711
O O8 0.881000 0.890354 0.242121
O O9 0.065627 0.023944 0.224940
O O10 0.963623 0.085312 0.306494
O O11 0.265615 0.287234 0.801380
O O12 0.750000 0.500000 0.946663
O O13 0.672848 0.238522 0.953951
O O14 0.750000 0.500000 0.576491
O O15 0.859599 0.650952 0.643524
O O16 0.072612 0.842169 0.843169
#
# Coordination Sequence:
#
# PCOD8216292 Si02
#       8
#     8   8   8   4   8   8   8   8
#     4  10  21  40  64  89 130 167 208 259 325 378
#     4  10  23  40  65  99 120 163 213 267 318 389
#     4  11  22  39  60  91 129 172 210 261 309 383
#     4  12  22  38  66  86 130 176 212 256 324 374
#     4  11  21  42  69  90 125 162 212 268 329 381
#     4  10  22  40  67  93 126 173 210 268 331 385
#     4  11  23  37  62  94 125 168 216 255 316 382
#     4  11  20  40  60  91 128 164 211 261 312 383
#
# _framework density 20.664173000000002
#
# number of rings (size 3 to 8) (size 9 to 14) (size 15 to 20)
#    0.000    1.333    5.333    0.400    0.000    2.133 
#    0.000   12.000    0.000    0.000    0.000    0.000 
#    0.000    0.000    0.000    0.000    0.000    0.000 
#
# Total GULP energy -743710.868906 kJ/mol
# GULP energy per Si atom -12395.181148 kJ/mol
# Density = 2.061714 g / cm^3
# Si number density = 20.664173 Si / 1000 Ang^3
#
#
#
# Elastic Constant Matrix: (Units=GPa)
#
#
# Indices 1 2 3 4 5 6 
#
# 1 64.4527 37.9552 40.6037 0.0000 0.0000 0.0000
# 2 37.9552 109.2532 61.4218 0.0000 0.0000 0.0000
# 3 40.6037 61.4218 131.7342 0.0000 0.0000 0.0000
# 4 0.0000 0.0000 0.0000 37.4984 0.0000 0.0000
# 5 0.0000 0.0000 0.0000 0.0000 17.9268 0.0000
# 6 0.0000 0.0000 0.0000 0.0000 0.0000 30.5751
#
#
#
# Elastic Compliance Matrix: (Units=1/GPa)
#
#
# Indices 1 2 3 4 5 6 
#
# 1 0.021075 -0.004973 -0.004177 0.000000 0.000000 0.000000
# 2 -0.004973 0.013578 -0.004798 0.000000 0.000000 0.000000
# 3 -0.004177 -0.004798 0.011116 0.000000 0.000000 0.000000
# 4 0.000000 0.000000 0.000000 0.026668 0.000000 0.000000
# 5 0.000000 0.000000 0.000000 0.000000 0.055782 0.000000
# 6 0.000000 0.000000 0.000000 0.000000 0.000000 0.032706
#
#
# Mechanical properties :
#
#
# Convention : Reuss Voigt Hill
#
# Bulk Modulus (GPa) = 55.95239 65.04463 60.49851
# Shear Modulus (GPa) = 25.66993 28.23069 26.95031
#
# Velocity S-wave (km/s) = 3.52837 3.70018 3.61530
# Velocity P-wave (km/s) = 6.61324 7.05694 6.83869
#
# Compressibility (1/GPa) = 0.01787234
#
# Stress axis : x y z
#
# Youngs Moduli (GPa) = 47.44848 73.64712 89.96338
#
# Poissons Ratio (x) = 0.36628 0.37579
# Poissons Ratio (y) = 0.23598 0.43165
# Poissons Ratio (z) = 0.19820 0.35336
#
# Static dielectric constant tensor:
#      x y z
#    x 3.670030 0.000000 0.000000 
#    y 0.000000 3.926290 0.000000 
#    z 0.000000 0.000000 3.831910 
# 
# 
# High freq. dielectric constant tensor:
#      x y z
#    x 1.797110 0.000000 0.000000 
#    y 0.000000 1.821630 0.000000 
#    z 0.000000 0.000000 1.801110 
# 
# From -- ./inp_files/42775.got.cif
#   From: 2010.06.25/outbox.cif.g09.slc.cpg/sg52_22_cif.got.tgz:42775.got - 2010.06.26 19:32:48.
