data_PCOD8216933
_publ_section_title
;
Structure prediction by ZEFSAII (Michael W. Deem and Ramdas Pophale) SiO2 
 PCOD8216933
Probable space group: P N N A
;
_chemical_formula_sum "Si O2"
_cell_formula_units_Z 40
_cell_length_a 24.900456
_cell_length_b 5.465060
_cell_length_c 12.400668
_cell_angle_alpha 90.000000
_cell_angle_beta 90.000000
_cell_angle_gamma 90.000000
_cell_volume 1687.513730
_symmetry_space_group_name_H-M "P N N A"
_symmetry_group_IT_number 52
_symmetry_cell_setting 'orthorhombic'
loop_
_space_group_symop_operation_xyz
x,y,z
1/2-x,-y,z
x,1/2-y,1/2-z
1/2-x,1/2+y,1/2-z
-x,-y,-z
1/2+x,y,-z
-x,1/2+y,1/2+z
1/2+x,1/2-y,1/2+z
loop_
_atom_site_type_symbol
_atom_site_label
_atom_site_fract_x
_atom_site_fract_y
_atom_site_fract_z
Si Si1 0.147921 0.155572 0.561142
Si Si2 0.282771 0.753080 0.129210
Si Si3 0.577580 0.956710 0.173729
Si Si4 0.484232 0.250000 0.250000
Si Si5 0.948488 0.162888 0.519910
Si Si6 0.250000 0.500000 0.816298
O O1 0.169145 0.294204 0.455271
O O2 0.121859 0.333588 0.651600
O O3 0.105051 0.967979 0.516956
O O4 0.196779 0.003496 0.611351
O O5 0.250000 0.500000 0.107439
O O6 0.306762 0.750000 0.250000
O O7 0.250000 0.000000 0.113157
O O8 0.605884 0.750000 0.250000
O O9 0.525904 0.024633 0.246504
O O10 0.551325 0.898875 0.057208
O O11 0.445916 0.236780 0.354393
O O12 0.000000 0.000000 0.500000
O O13 0.247388 0.750000 0.750000
#
# Coordination Sequence:
#
# PCOD8216933 Si02
#       6
#     8   8   8   4   8   4
#     4  12  29  49  77 118 155 208 268 336 398 490
#     4  10  24  50  79 108 153 203 257 326 399 474
#     4  12  26  46  80 110 162 206 266 331 401 481
#     4  12  26  50  74 114 156 202 264 324 400 484
#     4  12  27  48  76 113 155 209 264 333 407 478
#     4  12  34  52  82 116 164 218 274 328 408 482
#
# _framework density 23.703510000000001
#
# number of rings (size 3 to 8) (size 9 to 14) (size 15 to 20)
#    0.000    0.400    5.000    0.600   11.200    1.600 
#    1.800    0.000    0.000    0.000    0.000    0.000 
#    0.000    0.000    0.000    0.000    0.000    0.000 
#
# Total GULP energy -495773.694764 kJ/mol
# GULP energy per Si atom -12394.342369 kJ/mol
# Density = 2.364956 g / cm^3
# Si number density = 23.703510 Si / 1000 Ang^3
#
#
#
# Elastic Constant Matrix: (Units=GPa)
#
#
# Indices 1 2 3 4 5 6 
#
# 1 136.7368 32.4365 60.9996 0.0000 0.0000 0.0000
# 2 32.4365 107.4282 29.8021 0.0000 0.0000 0.0000
# 3 60.9996 29.8021 171.2925 0.0000 0.0000 0.0000
# 4 0.0000 0.0000 0.0000 41.0718 0.0000 0.0000
# 5 0.0000 0.0000 0.0000 0.0000 50.1646 0.0000
# 6 0.0000 0.0000 0.0000 0.0000 0.0000 12.3629
#
#
#
# Elastic Compliance Matrix: (Units=1/GPa)
#
#
# Indices 1 2 3 4 5 6 
#
# 1 0.009062 -0.001934 -0.002890 0.000000 0.000000 0.000000
# 2 -0.001934 0.010193 -0.001085 0.000000 0.000000 0.000000
# 3 -0.002890 -0.001085 0.007056 0.000000 0.000000 0.000000
# 4 0.000000 0.000000 0.000000 0.024348 0.000000 0.000000
# 5 0.000000 0.000000 0.000000 0.000000 0.019934 0.000000
# 6 0.000000 0.000000 0.000000 0.000000 0.000000 0.080887
#
#
# Mechanical properties :
#
#
# Convention : Reuss Voigt Hill
#
# Bulk Modulus (GPa) = 69.00163 73.54821 71.27492
# Shear Modulus (GPa) = 29.73896 40.20113 34.97005
#
# Velocity S-wave (km/s) = 3.54591 4.12272 3.84514
# Velocity P-wave (km/s) = 6.77777 7.33200 7.06032
#
# Compressibility (1/GPa) = 0.01449241
#
# Stress axis : x y z
#
# Youngs Moduli (GPa) = 110.35577 98.10212 141.72306
#
# Poissons Ratio (x) = 0.18975 0.40964
# Poissons Ratio (y) = 0.21345 0.15373
# Poissons Ratio (z) = 0.31898 0.10641
#
# Static dielectric constant tensor:
#      x y z
#    x 4.233780 0.000000 0.000000 
#    y 0.000000 4.219800 0.000000 
#    z 0.000000 0.000000 5.516910 
# 
# 
# High freq. dielectric constant tensor:
#      x y z
#    x 1.930920 0.000000 0.000000 
#    y 0.000000 1.942920 0.000000 
#    z 0.000000 0.000000 1.971250 
# 
# From -- ./inp_files/22658.got.cif
#   From: 2010.06.25/outbox.cif.g09.slc.cpg/sg52_12_cif.got.tgz:22658.got - 2010.06.26 19:32:48.
