data_PCOD8216293
_publ_section_title
;
Structure prediction by ZEFSAII (Michael W. Deem and Ramdas Pophale) SiO2 
 PCOD8216293
Probable space group: P N N A
;
_chemical_formula_sum "Si O2"
_cell_formula_units_Z 32
_cell_length_a 10.323898
_cell_length_b 8.805204
_cell_length_c 17.327262
_cell_angle_alpha 90.000000
_cell_angle_beta 90.000000
_cell_angle_gamma 90.000000
_cell_volume 1575.117909
_symmetry_space_group_name_H-M "P N N A"
_symmetry_group_IT_number 52
_symmetry_cell_setting 'orthorhombic'
loop_
_space_group_symop_operation_xyz
x,y,z
1/2-x,-y,z
x,1/2-y,1/2-z
1/2-x,1/2+y,1/2-z
-x,-y,-z
1/2+x,y,-z
-x,1/2+y,1/2+z
1/2+x,1/2-y,1/2+z
loop_
_atom_site_type_symbol
_atom_site_label
_atom_site_fract_x
_atom_site_fract_y
_atom_site_fract_z
Si Si1 0.110269 0.072871 0.232644
Si Si2 0.001112 0.745357 0.497076
Si Si3 0.606100 0.506104 0.395083
Si Si4 0.896025 0.512363 0.895334
O O1 0.132742 0.250000 0.250000
O O2 0.007336 0.038729 0.165544
O O3 0.250000 0.000000 0.209931
O O4 0.039479 0.005100 0.310066
O O5 0.912723 0.655210 0.436827
O O6 0.104119 0.635142 0.538526
O O7 0.073920 0.874132 0.450401
O O8 0.916907 0.826403 0.563115
O O9 0.750000 0.500000 0.357177
O O10 0.750000 0.500000 0.870349
#
# Coordination Sequence:
#
# PCOD8216293 Si02
#       4
#     8   8   8   8
#     4  11  25  44  67  93 127 171 216 262 315 386
#     4  10  22  40  64  93 126 167 211 261 319 378
#     4  11  24  42  65  96 130 167 211 266 320 375
#     4  10  21  40  64  90 123 166 216 260 311 380
#
# _framework density 20.315939
#
# number of rings (size 3 to 8) (size 9 to 14) (size 15 to 20)
#    0.000    1.500    2.500    1.500    7.000    4.000 
#    4.500    1.250    0.000    0.000    0.000    0.000 
#    0.000    0.000    0.000    0.000    0.000    0.000 
#
# Total GULP energy -396525.668025 kJ/mol
# GULP energy per Si atom -12391.427126 kJ/mol
# Density = 2.026970 g / cm^3
# Si number density = 20.315939 Si / 1000 Ang^3
#
#
#
# Elastic Constant Matrix: (Units=GPa)
#
#
# Indices 1 2 3 4 5 6 
#
# 1 122.6361 38.3404 53.0305 0.0000 0.0000 0.0000
# 2 38.3404 98.1409 30.7994 0.0000 0.0000 0.0000
# 3 53.0305 30.7994 117.7381 0.0000 0.0000 0.0000
# 4 0.0000 0.0000 0.0000 22.8979 0.0000 0.0000
# 5 0.0000 0.0000 0.0000 0.0000 31.6282 0.0000
# 6 0.0000 0.0000 0.0000 0.0000 0.0000 14.2588
#
#
#
# Elastic Compliance Matrix: (Units=1/GPa)
#
#
# Indices 1 2 3 4 5 6 
#
# 1 0.010857 -0.002949 -0.004119 0.000000 0.000000 0.000000
# 2 -0.002949 0.011902 -0.001785 0.000000 0.000000 0.000000
# 3 -0.004119 -0.001785 0.010816 0.000000 0.000000 0.000000
# 4 0.000000 0.000000 0.000000 0.043672 0.000000 0.000000
# 5 0.000000 0.000000 0.000000 0.000000 0.031617 0.000000
# 6 0.000000 0.000000 0.000000 0.000000 0.000000 0.070132
#
#
# Mechanical properties :
#
#
# Convention : Reuss Voigt Hill
#
# Bulk Modulus (GPa) = 63.01717 64.76175 63.88946
# Shear Modulus (GPa) = 24.75354 28.17998 26.46676
#
# Velocity S-wave (km/s) = 3.49439 3.72840 3.61329
# Velocity P-wave (km/s) = 6.88236 7.10501 6.99457
#
# Compressibility (1/GPa) = 0.01586869
#
# Stress axis : x y z
#
# Youngs Moduli (GPa) = 92.10475 84.02138 92.45947
#
# Poissons Ratio (x) = 0.24778 0.38082
# Poissons Ratio (y) = 0.27161 0.16505
# Poissons Ratio (z) = 0.37936 0.14999
#
# Static dielectric constant tensor:
#      x y z
#    x 3.451060 0.000000 0.000000 
#    y 0.000000 4.171750 0.000000 
#    z 0.000000 0.000000 4.015510 
# 
# 
# High freq. dielectric constant tensor:
#      x y z
#    x 1.770550 0.000000 0.000000 
#    y 0.000000 1.810460 0.000000 
#    z 0.000000 0.000000 1.812350 
# 
# From -- ./inp_files/25461.got.cif
#   From: 2010.06.25/outbox.cif.g09.slc.cpg/sg52_13_cif.got.tgz:25461.got - 2010.06.26 19:32:48.
