data_PCOD8216516
_publ_section_title
;
Structure prediction by ZEFSAII (Michael W. Deem and Ramdas Pophale) SiO2 
 PCOD8216516
Probable space group: P N N A
;
_chemical_formula_sum "Si O2"
_cell_formula_units_Z 40
_cell_length_a 18.589401
_cell_length_b 10.700896
_cell_length_c 8.635294
_cell_angle_alpha 90.000000
_cell_angle_beta 90.000000
_cell_angle_gamma 90.000000
_cell_volume 1717.760720
_symmetry_space_group_name_H-M "P N N A"
_symmetry_group_IT_number 52
_symmetry_cell_setting 'orthorhombic'
loop_
_space_group_symop_operation_xyz
x,y,z
1/2-x,-y,z
x,1/2-y,1/2-z
1/2-x,1/2+y,1/2-z
-x,-y,-z
1/2+x,y,-z
-x,1/2+y,1/2+z
1/2+x,1/2-y,1/2+z
loop_
_atom_site_type_symbol
_atom_site_label
_atom_site_fract_x
_atom_site_fract_y
_atom_site_fract_z
Si Si1 0.495050 0.300808 0.592064
Si Si2 0.940415 0.459041 0.677860
Si Si3 0.567091 0.364121 0.137256
Si Si4 0.772846 0.875325 0.347190
Si Si5 0.794346 0.118030 0.675817
O O1 0.457387 0.250000 0.750000
O O2 0.562379 0.397038 0.621837
O O3 0.439525 0.366051 0.471981
O O4 0.528656 0.175711 0.520599
O O5 0.877845 0.413209 0.791179
O O6 0.016361 0.460000 0.770597
O O7 0.578946 0.250000 0.250000
O O8 0.646698 0.410292 0.095223
O O9 0.764906 0.750000 0.250000
O O10 0.719901 0.866975 0.493875
O O11 0.750000 0.000000 0.249533
O O12 0.770959 0.250000 0.750000
O O13 0.750000 0.000000 0.745993
#
# Coordination Sequence:
#
# PCOD8216516 Si02
#       5
#     8   8   8   8   8
#     4  10  22  39  74 102 128 178 229 290 363 398
#     4  10  23  47  66 105 137 176 236 296 339 419
#     4   9  20  43  69  93 141 176 227 293 339 404
#     4  10  24  47  68 103 141 189 233 284 353 421
#     4  11  26  46  71 100 145 189 234 286 356 422
#
# _framework density 23.286128999999999
#
# number of rings (size 3 to 8) (size 9 to 14) (size 15 to 20)
#    0.000    2.000    0.000    1.800    8.400    1.600 
#   21.600    0.000    0.000    0.000    0.000    0.000 
#    0.000    0.000    0.000    0.000    0.000    0.000 
#
# Total GULP energy -495598.596986 kJ/mol
# GULP energy per Si atom -12389.964925 kJ/mol
# Density = 2.323313 g / cm^3
# Si number density = 23.286129 Si / 1000 Ang^3
#
#
#
# Elastic Constant Matrix: (Units=GPa)
#
#
# Indices 1 2 3 4 5 6 
#
# 1 99.8014 23.8734 54.3137 0.0000 0.0000 0.0000
# 2 23.8734 130.5691 32.2772 0.0000 0.0000 0.0000
# 3 54.3137 32.2772 128.2822 0.0000 0.0000 0.0000
# 4 0.0000 0.0000 0.0000 33.1102 0.0000 0.0000
# 5 0.0000 0.0000 0.0000 0.0000 22.5128 0.0000
# 6 0.0000 0.0000 0.0000 0.0000 0.0000 25.7080
#
#
#
# Elastic Compliance Matrix: (Units=1/GPa)
#
#
# Indices 1 2 3 4 5 6 
#
# 1 0.013166 -0.001098 -0.005298 0.000000 0.000000 0.000000
# 2 -0.001098 0.008258 -0.001613 0.000000 0.000000 0.000000
# 3 -0.005298 -0.001613 0.010444 0.000000 0.000000 0.000000
# 4 0.000000 0.000000 0.000000 0.030202 0.000000 0.000000
# 5 0.000000 0.000000 0.000000 0.000000 0.044419 0.000000
# 6 0.000000 0.000000 0.000000 0.000000 0.000000 0.038898
#
#
# Mechanical properties :
#
#
# Convention : Reuss Voigt Hill
#
# Bulk Modulus (GPa) = 63.08856 64.39790 63.74323
# Shear Modulus (GPa) = 29.99591 32.81209 31.40400
#
# Velocity S-wave (km/s) = 3.59297 3.75785 3.67633
# Velocity P-wave (km/s) = 6.66064 6.82229 6.74195
#
# Compressibility (1/GPa) = 0.01585073
#
# Stress axis : x y z
#
# Youngs Moduli (GPa) = 75.95449 121.09119 95.74512
#
# Poissons Ratio (x) = 0.13290 0.50727
# Poissons Ratio (y) = 0.08336 0.15445
# Poissons Ratio (z) = 0.40242 0.19534
#
# Static dielectric constant tensor:
#      x y z
#    x 4.199060 0.000000 0.000000 
#    y 0.000000 4.706150 0.000000 
#    z 0.000000 0.000000 4.224540 
# 
# 
# High freq. dielectric constant tensor:
#      x y z
#    x 1.894700 0.000000 0.000000 
#    y 0.000000 1.942960 0.000000 
#    z 0.000000 0.000000 1.919710 
# 
# From -- ./inp_files/11597.got.cif
#   From: 2010.06.25/outbox.cif.g09.slc.cpg/sg52_6_cif.got.tgz:11597.got - 2010.06.26 19:32:48.
