data_PCOD8216808
_publ_section_title
;
Structure prediction by ZEFSAII (Michael W. Deem and Ramdas Pophale) SiO2 
 PCOD8216808
Probable space group: P N N A
;
_chemical_formula_sum "Si O2"
_cell_formula_units_Z 44
_cell_length_a 10.153652
_cell_length_b 23.474168
_cell_length_c 9.096548
_cell_angle_alpha 90.000000
_cell_angle_beta 90.000000
_cell_angle_gamma 90.000000
_cell_volume 2168.148870
_symmetry_space_group_name_H-M "P N N A"
_symmetry_group_IT_number 52
_symmetry_cell_setting 'orthorhombic'
loop_
_space_group_symop_operation_xyz
x,y,z
1/2-x,-y,z
x,1/2-y,1/2-z
1/2-x,1/2+y,1/2-z
-x,-y,-z
1/2+x,y,-z
-x,1/2+y,1/2+z
1/2+x,1/2-y,1/2+z
loop_
_atom_site_type_symbol
_atom_site_label
_atom_site_fract_x
_atom_site_fract_y
_atom_site_fract_z
Si Si1 0.250000 0.000000 0.073142
Si Si2 0.369571 0.464328 0.967381
Si Si3 0.773287 0.706332 0.381382
Si Si4 0.225683 0.419909 0.692405
Si Si5 0.431006 0.205040 0.121134
Si Si6 0.571865 0.916486 0.747824
O O1 0.366737 0.027481 0.171575
O O2 0.203717 0.050793 0.965732
O O3 0.250000 0.500000 0.030959
O O4 0.339351 0.448350 0.796172
O O5 0.500000 0.500000 0.000000
O O6 0.375887 0.410523 0.079461
O O7 0.764627 0.750000 0.250000
O O8 0.727786 0.644582 0.326369
O O9 0.672737 0.727788 0.503786
O O10 0.921628 0.703438 0.445863
O O11 0.085037 0.424157 0.771237
O O12 0.425822 0.250000 0.250000
O O13 0.389943 0.141495 0.170042
#
# Coordination Sequence:
#
# PCOD8216808 Si02
#       6
#     4   8   8   8   8   8
#     4  12  20  38  64  94 124 164 200 264 314 386
#     4  12  23  41  59  89 126 167 207 251 309 380
#     4  10  23  44  66  93 126 168 213 263 319 371
#     4  11  23  41  62  92 129 165 208 266 311 377
#     4  10  23  44  65  92 127 163 213 265 313 376
#     4  11  23  39  62  92 127 166 209 256 320 378
#
# _framework density 20.293809
#
# number of rings (size 3 to 8) (size 9 to 14) (size 15 to 20)
#    0.000    1.091    5.455    0.545    2.545    0.727 
#    3.273    0.000    0.000    0.000    0.000    0.000 
#    0.000    0.000    0.000    0.000    0.000    0.000 
#
# Total GULP energy -545258.897024 kJ/mol
# GULP energy per Si atom -12392.247660 kJ/mol
# Density = 2.024762 g / cm^3
# Si number density = 20.293809 Si / 1000 Ang^3
#
#
#
# Elastic Constant Matrix: (Units=GPa)
#
#
# Indices 1 2 3 4 5 6 
#
# 1 109.3117 31.4732 47.6507 0.0000 0.0000 0.0000
# 2 31.4732 102.6012 22.8236 0.0000 0.0000 0.0000
# 3 47.6507 22.8236 92.2232 0.0000 0.0000 0.0000
# 4 0.0000 0.0000 0.0000 21.5910 0.0000 0.0000
# 5 0.0000 0.0000 0.0000 0.0000 33.5815 0.0000
# 6 0.0000 0.0000 0.0000 0.0000 0.0000 27.8807
#
#
#
# Elastic Compliance Matrix: (Units=1/GPa)
#
#
# Indices 1 2 3 4 5 6 
#
# 1 0.012392 -0.002515 -0.005780 0.000000 0.000000 0.000000
# 2 -0.002515 0.010825 -0.001379 0.000000 0.000000 0.000000
# 3 -0.005780 -0.001379 0.014171 0.000000 0.000000 0.000000
# 4 0.000000 0.000000 0.000000 0.046316 0.000000 0.000000
# 5 0.000000 0.000000 0.000000 0.000000 0.029778 0.000000
# 6 0.000000 0.000000 0.000000 0.000000 0.000000 0.035867
#
#
# Mechanical properties :
#
#
# Convention : Reuss Voigt Hill
#
# Bulk Modulus (GPa) = 55.43808 56.44788 55.94298
# Shear Modulus (GPa) = 28.61847 30.08987 29.35417
#
# Velocity S-wave (km/s) = 3.75935 3.85478 3.80736
# Velocity P-wave (km/s) = 6.79857 6.90566 6.85233
#
# Compressibility (1/GPa) = 0.01803814
#
# Stress axis : x y z
#
# Youngs Moduli (GPa) = 80.69618 92.37938 70.56544
#
# Poissons Ratio (x) = 0.23238 0.40789
# Poissons Ratio (y) = 0.20299 0.09733
# Poissons Ratio (z) = 0.46645 0.12742
#
# Static dielectric constant tensor:
#      x y z
#    x 3.762640 0.000000 0.000000 
#    y 0.000000 3.788050 0.000000 
#    z 0.000000 0.000000 3.807150 
# 
# 
# High freq. dielectric constant tensor:
#      x y z
#    x 1.794920 0.000000 0.000000 
#    y 0.000000 1.795840 0.000000 
#    z 0.000000 0.000000 1.794000 
# 
# From -- ./inp_files/8795.got.cif
#   From: 2010.06.25/outbox.cif.g09.slc.cpg/sg52_5_cif.got.tgz:8795.got - 2010.06.26 19:32:48.
