data_PCOD8216415
_publ_section_title
;
Structure prediction by ZEFSAII (Michael W. Deem and Ramdas Pophale) SiO2 
 PCOD8216415
Probable space group: P N N A
;
_chemical_formula_sum "Si O2"
_cell_formula_units_Z 40
_cell_length_a 11.724121
_cell_length_b 11.092030
_cell_length_c 14.532561
_cell_angle_alpha 90.000000
_cell_angle_beta 90.000000
_cell_angle_gamma 90.000000
_cell_volume 1889.876749
_symmetry_space_group_name_H-M "P N N A"
_symmetry_group_IT_number 52
_symmetry_cell_setting 'orthorhombic'
loop_
_space_group_symop_operation_xyz
x,y,z
1/2-x,-y,z
x,1/2-y,1/2-z
1/2-x,1/2+y,1/2-z
-x,-y,-z
1/2+x,y,-z
-x,1/2+y,1/2+z
1/2+x,1/2-y,1/2+z
loop_
_atom_site_type_symbol
_atom_site_label
_atom_site_fract_x
_atom_site_fract_y
_atom_site_fract_z
Si Si1 0.509805 0.447854 0.627475
Si Si2 0.328711 0.880117 0.285665
Si Si3 0.315496 0.261241 0.643484
Si Si4 0.085283 0.331815 0.549081
Si Si5 0.499050 0.622085 0.053806
O O1 0.565044 0.411567 0.722509
O O2 0.391870 0.376428 0.621147
O O3 0.476680 0.589063 0.627891
O O4 0.595275 0.416237 0.542672
O O5 0.274576 0.750000 0.250000
O O6 0.382955 0.862063 0.386525
O O7 0.250000 0.000000 0.284024
O O8 0.280780 0.250000 0.750000
O O9 0.204244 0.277393 0.581774
O O10 0.385967 0.140779 0.613918
O O11 0.001987 0.221729 0.526214
O O12 0.500000 0.500000 0.000000
#
# Coordination Sequence:
#
# PCOD8216415 Si02
#       5
#     8   8   8   8   8
#     4  10  21  45  66  98 135 170 232 287 332 415
#     4  12  25  46  72 100 139 189 234 289 357 423
#     4  11  21  43  70  93 141 175 229 285 357 405
#     4  10  23  38  69 100 127 178 227 275 347 409
#     4  11  25  44  65  99 144 177 228 292 356 419
#
# _framework density 21.165400000000002
#
# number of rings (size 3 to 8) (size 9 to 14) (size 15 to 20)
#    0.000    1.200    6.000    0.600    2.800    8.000 
#    3.600    0.000    0.000    0.000    0.000    0.000 
#    0.000    0.000    0.000    0.000    0.000    0.000 
#
# Total GULP energy -495703.110436 kJ/mol
# GULP energy per Si atom -12392.577761 kJ/mol
# Density = 2.111723 g / cm^3
# Si number density = 21.165400 Si / 1000 Ang^3
#
#
#
# Elastic Constant Matrix: (Units=GPa)
#
#
# Indices 1 2 3 4 5 6 
#
# 1 73.9480 30.8596 27.5333 0.0000 0.0000 0.0000
# 2 30.8596 159.2643 38.2057 0.0000 0.0000 0.0000
# 3 27.5333 38.2057 79.0152 0.0000 0.0000 0.0000
# 4 0.0000 0.0000 0.0000 36.1707 0.0000 0.0000
# 5 0.0000 0.0000 0.0000 0.0000 29.4003 0.0000
# 6 0.0000 0.0000 0.0000 0.0000 0.0000 32.6003
#
#
#
# Elastic Compliance Matrix: (Units=1/GPa)
#
#
# Indices 1 2 3 4 5 6 
#
# 1 0.016086 -0.002005 -0.004636 0.000000 0.000000 0.000000
# 2 -0.002005 0.007353 -0.002857 0.000000 0.000000 0.000000
# 3 -0.004636 -0.002857 0.015652 0.000000 0.000000 0.000000
# 4 0.000000 0.000000 0.000000 0.027647 0.000000 0.000000
# 5 0.000000 0.000000 0.000000 0.000000 0.034013 0.000000
# 6 0.000000 0.000000 0.000000 0.000000 0.000000 0.030675
#
#
# Mechanical properties :
#
#
# Convention : Reuss Voigt Hill
#
# Bulk Modulus (GPa) = 49.76018 56.15830 52.95924
# Shear Modulus (GPa) = 31.82319 34.00954 32.91636
#
# Velocity S-wave (km/s) = 3.88177 4.01290 3.94788
# Velocity P-wave (km/s) = 6.60697 6.93266 6.77177
#
# Compressibility (1/GPa) = 0.02009639
#
# Stress axis : x y z
#
# Youngs Moduli (GPa) = 62.16708 136.00672 63.88799
#
# Poissons Ratio (x) = 0.27266 0.29617
# Poissons Ratio (y) = 0.12463 0.18250
# Poissons Ratio (z) = 0.28819 0.38851
#
# Static dielectric constant tensor:
#      x y z
#    x 3.579130 0.000000 0.000000 
#    y 0.000000 4.042630 0.000000 
#    z 0.000000 0.000000 3.925750 
# 
# 
# High freq. dielectric constant tensor:
#      x y z
#    x 1.807140 0.000000 0.000000 
#    y 0.000000 1.841530 0.000000 
#    z 0.000000 0.000000 1.833270 
# 
# From -- ./inp_files/25820.got.cif
#   From: 2010.06.25/outbox.cif.g09.slc.cpg/sg52_13_cif.got.tgz:25820.got - 2010.06.26 19:32:48.
