data_PCOD8216855
_publ_section_title
;
Structure prediction by ZEFSAII (Michael W. Deem and Ramdas Pophale) SiO2 
 PCOD8216855
Probable space group: P N N A
;
_chemical_formula_sum "Si O2"
_cell_formula_units_Z 56
_cell_length_a 14.656617
_cell_length_b 14.757394
_cell_length_c 11.641847
_cell_angle_alpha 90.000000
_cell_angle_beta 90.000000
_cell_angle_gamma 90.000000
_cell_volume 2518.055506
_symmetry_space_group_name_H-M "P N N A"
_symmetry_group_IT_number 52
_symmetry_cell_setting 'orthorhombic'
loop_
_space_group_symop_operation_xyz
x,y,z
1/2-x,-y,z
x,1/2-y,1/2-z
1/2-x,1/2+y,1/2-z
-x,-y,-z
1/2+x,y,-z
-x,1/2+y,1/2+z
1/2+x,1/2-y,1/2+z
loop_
_atom_site_type_symbol
_atom_site_label
_atom_site_fract_x
_atom_site_fract_y
_atom_site_fract_z
Si Si1 0.351814 0.093459 0.607537
Si Si2 0.624875 0.350761 0.794437
Si Si3 0.540413 0.622506 0.568498
Si Si4 0.818860 0.143859 0.759360
Si Si5 0.845365 0.603974 0.047444
Si Si6 0.967934 0.329577 0.918573
Si Si7 0.963117 0.050386 0.178201
O O1 0.250294 0.139774 0.603602
O O2 0.431345 0.155579 0.550398
O O3 0.375422 0.066461 0.739494
O O4 0.342770 0.003641 0.530238
O O5 0.603396 0.250000 0.750000
O O6 0.719068 0.399067 0.754249
O O7 0.550590 0.422304 0.752392
O O8 0.632363 0.342542 0.931098
O O9 0.642244 0.608414 0.619143
O O10 0.513665 0.723949 0.605429
O O11 0.544528 0.615791 0.431657
O O12 0.470068 0.551919 0.628186
O O13 0.798868 0.250000 0.750000
O O14 0.891540 0.121968 0.659539
O O15 0.937222 0.623611 0.120357
#
# Coordination Sequence:
#
# PCOD8216855 Si02
#       7
#     8   8   8   8   8   8   8
#     4  11  24  39  67 100 133 166 222 288 330 393
#     4  11  22  38  67  99 128 165 224 277 335 396
#     4  10  24  42  63  91 133 182 221 265 340 404
#     4   9  20  38  63  95 127 162 215 272 322 392
#     4  11  23  39  66 103 129 169 224 278 341 391
#     4  11  20  41  71  94 131 171 223 284 334 395
#     4  11  24  43  65  95 136 177 222 274 335 406
#
# _framework density 22.239381999999999
#
# number of rings (size 3 to 8) (size 9 to 14) (size 15 to 20)
#    0.000    1.429    2.857    2.143    2.000    0.571 
#    0.000    7.143   12.571    0.000    0.000    0.000 
#    0.000    0.000    0.000    0.000    0.000    0.000 
#
# Total GULP energy -694003.488592 kJ/mol
# GULP energy per Si atom -12392.919439 kJ/mol
# Density = 2.218876 g / cm^3
# Si number density = 22.239382 Si / 1000 Ang^3
#
#
#
# Elastic Constant Matrix: (Units=GPa)
#
#
# Indices 1 2 3 4 5 6 
#
# 1 148.2962 24.5842 40.9770 0.0000 0.0000 0.0000
# 2 24.5842 62.2175 13.5073 0.0000 0.0000 0.0000
# 3 40.9770 13.5073 114.0725 0.0000 0.0000 0.0000
# 4 0.0000 0.0000 0.0000 27.1427 0.0000 0.0000
# 5 0.0000 0.0000 0.0000 0.0000 31.2385 0.0000
# 6 0.0000 0.0000 0.0000 0.0000 0.0000 21.1407
#
#
#
# Elastic Compliance Matrix: (Units=1/GPa)
#
#
# Indices 1 2 3 4 5 6 
#
# 1 0.007865 -0.002560 -0.002522 0.000000 0.000000 0.000000
# 2 -0.002560 0.017330 -0.001132 0.000000 0.000000 0.000000
# 3 -0.002522 -0.001132 0.009806 0.000000 0.000000 0.000000
# 4 0.000000 0.000000 0.000000 0.036842 0.000000 0.000000
# 5 0.000000 0.000000 0.000000 0.000000 0.032012 0.000000
# 6 0.000000 0.000000 0.000000 0.000000 0.000000 0.047302
#
#
# Mechanical properties :
#
#
# Convention : Reuss Voigt Hill
#
# Bulk Modulus (GPa) = 44.30243 53.63591 48.96917
# Shear Modulus (GPa) = 29.22098 32.27224 30.74661
#
# Velocity S-wave (km/s) = 3.62875 3.81350 3.72227
# Velocity P-wave (km/s) = 6.12544 6.60002 6.36716
#
# Compressibility (1/GPa) = 0.02257213
#
# Stress axis : x y z
#
# Youngs Moduli (GPa) = 127.15343 57.70321 101.97444
#
# Poissons Ratio (x) = 0.14772 0.25717
# Poissons Ratio (y) = 0.32552 0.11548
# Poissons Ratio (z) = 0.32067 0.06535
#
# Static dielectric constant tensor:
#      x y z
#    x 4.347250 0.000000 0.000000 
#    y 0.000000 3.777460 0.000000 
#    z 0.000000 0.000000 4.059010 
# 
# 
# High freq. dielectric constant tensor:
#      x y z
#    x 1.880540 0.000000 0.000000 
#    y 0.000000 1.864830 0.000000 
#    z 0.000000 0.000000 1.868170 
# 
# From -- ./inp_files/19621.got.cif
#   From: 2010.06.25/outbox.cif.g09.slc.cpg/sg52_10_cif.got.tgz:19621.got - 2010.06.26 19:32:48.
