data_PCOD8216107
_publ_section_title
;
Structure prediction by ZEFSAII (Michael W. Deem and Ramdas Pophale) SiO2 
 PCOD8216107
Probable space group: P N N A
;
_chemical_formula_sum "Si O2"
_cell_formula_units_Z 64
_cell_length_a 19.108935
_cell_length_b 17.142764
_cell_length_c 9.658748
_cell_angle_alpha 90.000000
_cell_angle_beta 90.000000
_cell_angle_gamma 90.000000
_cell_volume 3164.012312
_symmetry_space_group_name_H-M "P N N A"
_symmetry_group_IT_number 52
_symmetry_cell_setting 'orthorhombic'
loop_
_space_group_symop_operation_xyz
x,y,z
1/2-x,-y,z
x,1/2-y,1/2-z
1/2-x,1/2+y,1/2-z
-x,-y,-z
1/2+x,y,-z
-x,1/2+y,1/2+z
1/2+x,1/2-y,1/2+z
loop_
_atom_site_type_symbol
_atom_site_label
_atom_site_fract_x
_atom_site_fract_y
_atom_site_fract_z
Si Si1 0.489518 0.906393 0.665850
Si Si2 0.947433 0.431667 0.541824
Si Si3 0.678552 0.455228 0.902336
Si Si4 0.341502 0.665362 0.881583
Si Si5 0.077782 0.940770 0.580809
Si Si6 0.323418 0.538433 0.399042
Si Si7 0.721411 0.165114 0.110599
Si Si8 0.380878 0.168386 0.818928
O O1 0.531441 0.893088 0.810338
O O2 0.423078 0.849048 0.654561
O O3 0.535605 0.886573 0.528762
O O4 0.471922 0.998881 0.663184
O O5 0.872273 0.472932 0.535354
O O6 0.939486 0.360942 0.430123
O O7 0.000000 0.500000 0.500000
O O8 0.750000 0.500000 0.886849
O O9 0.646046 0.437559 0.751007
O O10 0.685052 0.372130 0.976129
O O11 0.628847 0.508267 0.990640
O O12 0.322648 0.755522 0.895504
O O13 0.296503 0.625668 0.758051
O O14 0.121786 0.891360 0.690724
O O15 0.250000 0.500000 0.377084
O O16 0.313197 0.614391 0.491188
O O17 0.805381 0.176355 0.104227
O O18 0.403925 0.250000 0.750000
#
# Coordination Sequence:
#
# PCOD8216107 Si02
#       8
#     8   8   8   8   8   8   8   8
#     4  10  21  42  68  96 130 178 220 286 339 408
#     4  12  23  43  71 101 135 176 231 287 342 414
#     4  10  21  36  65  96 125 170 226 273 339 395
#     4  10  22  41  64  92 131 177 222 282 336 407
#     4  10  21  41  67  96 132 170 231 278 335 408
#     4  11  23  40  66 101 130 174 227 282 336 413
#     4  11  23  42  64  94 137 172 234 277 343 408
#     4  12  25  44  67  98 137 182 227 285 343 415
#
# _framework density 20.227481000000001
#
# number of rings (size 3 to 8) (size 9 to 14) (size 15 to 20)
#    0.000    1.250    5.000    1.500    1.750    1.000 
#    6.750    0.000    2.750    0.000    0.000    0.000 
#    0.000    0.000    0.000    0.000    0.000    0.000 
#
# Total GULP energy -793207.180998 kJ/mol
# GULP energy per Si atom -12393.862203 kJ/mol
# Density = 2.018144 g / cm^3
# Si number density = 20.227481 Si / 1000 Ang^3
#
#
#
# Elastic Constant Matrix: (Units=GPa)
#
#
# Indices 1 2 3 4 5 6 
#
# 1 71.3565 30.4550 23.5516 0.0000 0.0000 0.0000
# 2 30.4550 97.9224 64.6018 0.0000 0.0000 0.0000
# 3 23.5516 64.6018 136.0771 0.0000 0.0000 0.0000
# 4 0.0000 0.0000 0.0000 27.0168 0.0000 0.0000
# 5 0.0000 0.0000 0.0000 0.0000 32.8020 0.0000
# 6 0.0000 0.0000 0.0000 0.0000 0.0000 30.6422
#
#
#
# Elastic Compliance Matrix: (Units=1/GPa)
#
#
# Indices 1 2 3 4 5 6 
#
# 1 0.016193 -0.004641 -0.000599 0.000000 0.000000 0.000000
# 2 -0.004641 0.016199 -0.006887 0.000000 0.000000 0.000000
# 3 -0.000599 -0.006887 0.010722 0.000000 0.000000 0.000000
# 4 0.000000 0.000000 0.000000 0.037014 0.000000 0.000000
# 5 0.000000 0.000000 0.000000 0.000000 0.030486 0.000000
# 6 0.000000 0.000000 0.000000 0.000000 0.000000 0.032635
#
#
# Mechanical properties :
#
#
# Convention : Reuss Voigt Hill
#
# Bulk Modulus (GPa) = 53.02418 60.28586 56.65502
# Shear Modulus (GPa) = 28.77040 30.54205 29.65623
#
# Velocity S-wave (km/s) = 3.77549 3.89000 3.83317
# Velocity P-wave (km/s) = 6.72879 7.07423 6.90367
#
# Compressibility (1/GPa) = 0.01885932
#
# Stress axis : x y z
#
# Youngs Moduli (GPa) = 61.75655 61.73164 93.26436
#
# Poissons Ratio (x) = 0.28647 0.05591
# Poissons Ratio (y) = 0.28659 0.64234
# Poissons Ratio (z) = 0.03702 0.42516
#
# Static dielectric constant tensor:
#      x y z
#    x 3.626980 0.000000 0.000000 
#    y 0.000000 3.477720 0.000000 
#    z 0.000000 0.000000 4.967290 
# 
# 
# High freq. dielectric constant tensor:
#      x y z
#    x 1.793500 0.000000 0.000000 
#    y 0.000000 1.768950 0.000000 
#    z 0.000000 0.000000 1.809140 
# 
# From -- ./inp_files/13594.got.cif
#   From: 2010.06.25/outbox.cif.g09.slc.cpg/sg52_7_cif.got.tgz:13594.got - 2010.06.26 19:32:48.
