data_PCOD8216980
_publ_section_title
;
Structure prediction by ZEFSAII (Michael W. Deem and Ramdas Pophale) SiO2 
 PCOD8216980
Probable space group: P N N A
;
_chemical_formula_sum "Si O2"
_cell_formula_units_Z 48
_cell_length_a 15.794300
_cell_length_b 18.944440
_cell_length_c 9.216978
_cell_angle_alpha 90.000000
_cell_angle_beta 90.000000
_cell_angle_gamma 90.000000
_cell_volume 2757.850410
_symmetry_space_group_name_H-M "P N N A"
_symmetry_group_IT_number 52
_symmetry_cell_setting 'orthorhombic'
loop_
_space_group_symop_operation_xyz
x,y,z
1/2-x,-y,z
x,1/2-y,1/2-z
1/2-x,1/2+y,1/2-z
-x,-y,-z
1/2+x,y,-z
-x,1/2+y,1/2+z
1/2+x,1/2-y,1/2+z
loop_
_atom_site_type_symbol
_atom_site_label
_atom_site_fract_x
_atom_site_fract_y
_atom_site_fract_z
Si Si1 0.386277 0.451955 0.920597
Si Si2 0.483263 0.420013 0.661288
Si Si3 0.219302 0.922626 0.321307
Si Si4 0.953529 0.078254 0.834405
Si Si5 0.120613 0.172470 0.310943
Si Si6 0.445154 0.899122 0.574205
O O1 0.395474 0.423448 0.755080
O O2 0.376210 0.537315 0.925187
O O3 0.307068 0.419325 0.007640
O O4 0.472242 0.429624 0.997947
O O5 0.530624 0.494611 0.676887
O O6 0.459672 0.397267 0.499571
O O7 0.546438 0.360967 0.716988
O O8 0.139415 0.902799 0.221692
O O9 0.290958 0.866400 0.286545
O O10 0.250000 0.000000 0.276572
O O11 0.025373 0.119885 0.738723
O O12 0.133469 0.250000 0.250000
O O13 0.093904 0.166504 0.482511
#
# Coordination Sequence:
#
# PCOD8216980 Si02
#       6
#     8   8   8   8   8   8
#     4   8  14  27  52  73  95 124 173 213 247 299
#     4   9  17  33  52  80 101 129 172 222 264 313
#     4  11  17  31  51  76 104 136 172 219 260 312
#     4   9  17  31  57  79 102 127 174 224 262 307
#     4  11  21  33  50  74 106 139 175 218 271 319
#     4   8  14  29  49  74  94 128 171 210 248 307
#
# _framework density 17.404861
#
# number of rings (size 3 to 8) (size 9 to 14) (size 15 to 20)
#    0.000    2.667    3.333    2.000    0.000    0.000 
#    0.000    8.333    0.000    0.000    0.000    0.000 
#    0.000    0.000    0.000    0.000    0.000    0.000 
#
# Total GULP energy -594707.359280 kJ/mol
# GULP energy per Si atom -12389.736652 kJ/mol
# Density = 1.736525 g / cm^3
# Si number density = 17.404861 Si / 1000 Ang^3
#
#
#
# Elastic Constant Matrix: (Units=GPa)
#
#
# Indices 1 2 3 4 5 6 
#
# 1 70.6853 40.9698 39.7106 0.0000 0.0000 0.0000
# 2 40.9698 87.8659 42.1218 0.0000 0.0000 0.0000
# 3 39.7106 42.1218 147.1706 0.0000 0.0000 0.0000
# 4 0.0000 0.0000 0.0000 17.7831 0.0000 0.0000
# 5 0.0000 0.0000 0.0000 0.0000 18.3177 0.0000
# 6 0.0000 0.0000 0.0000 0.0000 0.0000 18.7914
#
#
#
# Elastic Compliance Matrix: (Units=1/GPa)
#
#
# Indices 1 2 3 4 5 6 
#
# 1 0.020657 -0.008067 -0.003265 0.000000 0.000000 0.000000
# 2 -0.008067 0.016341 -0.002500 0.000000 0.000000 0.000000
# 3 -0.003265 -0.002500 0.008391 0.000000 0.000000 0.000000
# 4 0.000000 0.000000 0.000000 0.056233 0.000000 0.000000
# 5 0.000000 0.000000 0.000000 0.000000 0.054592 0.000000
# 6 0.000000 0.000000 0.000000 0.000000 0.000000 0.053216
#
#
# Mechanical properties :
#
#
# Convention : Reuss Voigt Hill
#
# Bulk Modulus (GPa) = 56.41661 61.25845 58.83753
# Shear Modulus (GPa) = 20.57591 23.17310 21.87450
#
# Velocity S-wave (km/s) = 3.44203 3.65281 3.54899
# Velocity P-wave (km/s) = 6.94849 7.28446 7.11845
#
# Compressibility (1/GPa) = 0.01772528
#
# Stress axis : x y z
#
# Youngs Moduli (GPa) = 48.40979 61.19614 119.16880
#
# Poissons Ratio (x) = 0.49365 0.38909
# Poissons Ratio (y) = 0.39050 0.29796
# Poissons Ratio (z) = 0.15806 0.15301
#
# Static dielectric constant tensor:
#      x y z
#    x 3.228790 0.000000 0.000000 
#    y 0.000000 2.806180 0.000000 
#    z 0.000000 0.000000 3.786830 
# 
# 
# High freq. dielectric constant tensor:
#      x y z
#    x 1.664440 0.000000 0.000000 
#    y 0.000000 1.622500 0.000000 
#    z 0.000000 0.000000 1.678390 
# 
# From -- ./inp_files/10626.got.cif
#   From: 2010.06.25/outbox.cif.g09.slc.cpg/sg52_6_cif.got.tgz:10626.got - 2010.06.26 19:32:48.
