data_PCOD8216566
_publ_section_title
;
Structure prediction by ZEFSAII (Michael W. Deem and Ramdas Pophale) SiO2 
 PCOD8216566
Probable space group: P N N A
;
_chemical_formula_sum "Si O2"
_cell_formula_units_Z 48
_cell_length_a 8.599909
_cell_length_b 8.543271
_cell_length_c 28.975409
_cell_angle_alpha 90.000000
_cell_angle_beta 90.000000
_cell_angle_gamma 90.000000
_cell_volume 2128.862508
_symmetry_space_group_name_H-M "P N N A"
_symmetry_group_IT_number 52
_symmetry_cell_setting 'orthorhombic'
loop_
_space_group_symop_operation_xyz
x,y,z
1/2-x,-y,z
x,1/2-y,1/2-z
1/2-x,1/2+y,1/2-z
-x,-y,-z
1/2+x,y,-z
-x,1/2+y,1/2+z
1/2+x,1/2-y,1/2+z
loop_
_atom_site_type_symbol
_atom_site_label
_atom_site_fract_x
_atom_site_fract_y
_atom_site_fract_z
Si Si1 0.861979 0.124664 0.627257
Si Si2 0.117253 0.897482 0.623408
Si Si3 0.330091 0.335696 0.547631
Si Si4 0.456438 0.673309 0.701403
Si Si5 0.088238 0.679582 0.701325
Si Si6 0.301344 0.830765 0.051385
O O1 0.758189 0.207754 0.588529
O O2 0.941113 0.244853 0.662341
O O3 0.750000 0.000000 0.653647
O O4 0.994365 0.019921 0.601871
O O5 0.209795 0.797638 0.584809
O O6 0.024204 0.787199 0.659751
O O7 0.250000 0.000000 0.649638
O O8 0.250000 0.500000 0.562762
O O9 0.268753 0.283523 0.497984
O O10 0.514878 0.344400 0.546814
O O11 0.503591 0.750000 0.750000
O O12 0.272981 0.685325 0.693340
O O13 0.493524 0.488873 0.699212
O O14 0.039625 0.750000 0.750000
O O15 0.250000 0.000000 0.068157
#
# Coordination Sequence:
#
# PCOD8216566 Si02
#       6
#     8   8   8   8   8   8
#     4  12  26  46  66 103 149 178 231 286 354 412
#     4  12  26  41  69 105 139 184 230 293 343 413
#     4  11  26  46  71 101 137 182 234 285 348 419
#     4  10  22  42  72 103 142 187 230 291 346 412
#     4  10  22  40  71 108 139 179 241 291 343 406
#     4  11  26  46  71  99 138 185 229 287 346 420
#
# _framework density 22.547253999999999
#
# number of rings (size 3 to 8) (size 9 to 14) (size 15 to 20)
#    0.000    1.000    3.333    3.000   11.667    1.333 
#    0.000    3.333    0.000    0.000    0.000    0.000 
#    0.000    0.000    0.000    0.000    0.000    0.000 
#
# Total GULP energy -594943.895028 kJ/mol
# GULP energy per Si atom -12394.664480 kJ/mol
# Density = 2.249594 g / cm^3
# Si number density = 22.547254 Si / 1000 Ang^3
#
#
#
# Elastic Constant Matrix: (Units=GPa)
#
#
# Indices 1 2 3 4 5 6 
#
# 1 109.8773 68.2338 54.1268 0.0000 0.0000 0.0000
# 2 68.2338 182.8359 92.8701 0.0000 0.0000 0.0000
# 3 54.1268 92.8701 126.8365 0.0000 0.0000 0.0000
# 4 0.0000 0.0000 0.0000 36.9946 0.0000 0.0000
# 5 0.0000 0.0000 0.0000 0.0000 10.6227 0.0000
# 6 0.0000 0.0000 0.0000 0.0000 0.0000 38.0569
#
#
#
# Elastic Compliance Matrix: (Units=1/GPa)
#
#
# Indices 1 2 3 4 5 6 
#
# 1 0.012554 -0.003127 -0.003068 0.000000 0.000000 0.000000
# 2 -0.003127 0.009487 -0.005612 0.000000 0.000000 0.000000
# 3 -0.003068 -0.005612 0.013302 0.000000 0.000000 0.000000
# 4 0.000000 0.000000 0.000000 0.027031 0.000000 0.000000
# 5 0.000000 0.000000 0.000000 0.000000 0.094138 0.000000
# 6 0.000000 0.000000 0.000000 0.000000 0.000000 0.026276
#
#
# Mechanical properties :
#
#
# Convention : Reuss Voigt Hill
#
# Bulk Modulus (GPa) = 85.25121 94.44567 89.84844
# Shear Modulus (GPa) = 23.77418 30.75612 27.26515
#
# Velocity S-wave (km/s) = 3.25070 3.69734 3.48119
# Velocity P-wave (km/s) = 7.20982 7.75925 7.48957
#
# Compressibility (1/GPa) = 0.01173004
#
# Stress axis : x y z
#
# Youngs Moduli (GPa) = 79.65513 105.40898 75.17399
#
# Poissons Ratio (x) = 0.32960 0.23063
# Poissons Ratio (y) = 0.24907 0.42187
# Poissons Ratio (z) = 0.24438 0.59155
#
# Static dielectric constant tensor:
#      x y z
#    x 4.076600 0.000000 0.000000 
#    y 0.000000 3.338220 0.000000 
#    z 0.000000 0.000000 4.035120 
# 
# 
# High freq. dielectric constant tensor:
#      x y z
#    x 1.890740 0.000000 0.000000 
#    y 0.000000 1.912360 0.000000 
#    z 0.000000 0.000000 1.877390 
# 
# From -- ./inp_files/44391.got.cif
#   From: 2010.06.25/outbox.cif.g09.slc.cpg/sg52_23_cif.got.tgz:44391.got - 2010.06.26 19:32:48.
