data_PCOD8216112
_publ_section_title
;
Structure prediction by ZEFSAII (Michael W. Deem and Ramdas Pophale) SiO2 
 PCOD8216112
Probable space group: P N N A
;
_chemical_formula_sum "Si O2"
_cell_formula_units_Z 44
_cell_length_a 20.582741
_cell_length_b 13.576145
_cell_length_c 7.674253
_cell_angle_alpha 90.000000
_cell_angle_beta 90.000000
_cell_angle_gamma 90.000000
_cell_volume 2144.449333
_symmetry_space_group_name_H-M "P N N A"
_symmetry_group_IT_number 52
_symmetry_cell_setting 'orthorhombic'
loop_
_space_group_symop_operation_xyz
x,y,z
1/2-x,-y,z
x,1/2-y,1/2-z
1/2-x,1/2+y,1/2-z
-x,-y,-z
1/2+x,y,-z
-x,1/2+y,1/2+z
1/2+x,1/2-y,1/2+z
loop_
_atom_site_type_symbol
_atom_site_label
_atom_site_fract_x
_atom_site_fract_y
_atom_site_fract_z
Si Si1 0.025623 0.250000 0.750000
Si Si2 0.679463 0.523683 0.646385
Si Si3 0.460666 0.076469 0.778490
Si Si4 0.848952 0.297325 0.420968
Si Si5 0.578246 0.105793 0.996651
Si Si6 0.084590 0.875447 0.405730
O O1 0.072062 0.212161 0.907897
O O2 0.978884 0.159869 0.696828
O O3 0.750000 0.500000 0.727967
O O4 0.690897 0.613795 0.509506
O O5 0.652212 0.424896 0.550932
O O6 0.625794 0.548478 0.790838
O O7 0.419072 0.162948 0.864830
O O8 0.442717 0.069221 0.575479
O O9 0.447151 0.972126 0.863277
O O10 0.535241 0.105489 0.819336
O O11 0.812969 0.250000 0.250000
O O12 0.864324 0.212199 0.559084
#
# Coordination Sequence:
#
# PCOD8216112 Si02
#       6
#     4   8   8   8   8   8
#     4  12  20  34  64  92 120 150 202 260 318 352
#     4  11  23  40  58  83 128 173 206 248 302 376
#     4   9  18  35  62  92 117 145 198 258 318 361
#     4   9  17  35  63  87 110 156 208 253 308 369
#     4  10  21  37  56  91 124 153 196 261 308 360
#     4  11  19  35  66  89 117 158 199 251 318 373
#
# _framework density 20.518087000000001
#
# number of rings (size 3 to 8) (size 9 to 14) (size 15 to 20)
#    0.000    1.818    3.636    2.182    0.000    2.909 
#    1.636    8.182   12.000    0.000    0.000    0.000 
#    0.000    0.000    0.000    0.000    0.000    0.000 
#
# Total GULP energy -545247.971830 kJ/mol
# GULP energy per Si atom -12391.999360 kJ/mol
# Density = 2.047139 g / cm^3
# Si number density = 20.518087 Si / 1000 Ang^3
#
#
#
# Elastic Constant Matrix: (Units=GPa)
#
#
# Indices 1 2 3 4 5 6 
#
# 1 87.7067 47.0410 45.5608 0.0000 0.0000 0.0000
# 2 47.0410 60.6797 34.9243 0.0000 0.0000 0.0000
# 3 45.5608 34.9243 110.7453 0.0000 0.0000 0.0000
# 4 0.0000 0.0000 0.0000 35.4424 0.0000 0.0000
# 5 0.0000 0.0000 0.0000 0.0000 15.7198 0.0000
# 6 0.0000 0.0000 0.0000 0.0000 0.0000 16.6126
#
#
#
# Elastic Compliance Matrix: (Units=1/GPa)
#
#
# Indices 1 2 3 4 5 6 
#
# 1 0.021067 -0.013859 -0.004296 0.000000 0.000000 0.000000
# 2 -0.013859 0.029251 -0.003523 0.000000 0.000000 0.000000
# 3 -0.004296 -0.003523 0.011908 0.000000 0.000000 0.000000
# 4 0.000000 0.000000 0.000000 0.028215 0.000000 0.000000
# 5 0.000000 0.000000 0.000000 0.000000 0.063614 0.000000
# 6 0.000000 0.000000 0.000000 0.000000 0.000000 0.060195
#
#
# Mechanical properties :
#
#
# Convention : Reuss Voigt Hill
#
# Bulk Modulus (GPa) = 52.99462 57.13156 55.06309
# Shear Modulus (GPa) = 18.94681 22.32867 20.63774
#
# Velocity S-wave (km/s) = 3.04208 3.30243 3.17493
# Velocity P-wave (km/s) = 6.18250 6.51509 6.35097
#
# Compressibility (1/GPa) = 0.01886984
#
# Stress axis : x y z
#
# Youngs Moduli (GPa) = 47.46872 34.18630 83.97493
#
# Poissons Ratio (x) = 0.47378 0.36079
# Poissons Ratio (y) = 0.65786 0.29586
# Poissons Ratio (z) = 0.20394 0.12044
#
# Static dielectric constant tensor:
#      x y z
#    x 3.255150 0.000000 0.000000 
#    y 0.000000 4.245090 0.000000 
#    z 0.000000 0.000000 4.546840 
# 
# 
# High freq. dielectric constant tensor:
#      x y z
#    x 1.754270 0.000000 0.000000 
#    y 0.000000 1.802770 0.000000 
#    z 0.000000 0.000000 1.807070 
# 
# From -- ./inp_files/11983.got.cif
#   From: 2010.06.25/outbox.cif.g09.slc.cpg/sg52_6_cif.got.tgz:11983.got - 2010.06.26 19:32:48.
