data_PCOD8216514
_publ_section_title
;
Structure prediction by ZEFSAII (Michael W. Deem and Ramdas Pophale) SiO2 
 PCOD8216514
Probable space group: P N N A
;
_chemical_formula_sum "Si O2"
_cell_formula_units_Z 48
_cell_length_a 14.276556
_cell_length_b 25.318877
_cell_length_c 6.360914
_cell_angle_alpha 90.000000
_cell_angle_beta 90.000000
_cell_angle_gamma 90.000000
_cell_volume 2299.256464
_symmetry_space_group_name_H-M "P N N A"
_symmetry_group_IT_number 52
_symmetry_cell_setting 'orthorhombic'
loop_
_space_group_symop_operation_xyz
x,y,z
1/2-x,-y,z
x,1/2-y,1/2-z
1/2-x,1/2+y,1/2-z
-x,-y,-z
1/2+x,y,-z
-x,1/2+y,1/2+z
1/2+x,1/2-y,1/2+z
loop_
_atom_site_type_symbol
_atom_site_label
_atom_site_fract_x
_atom_site_fract_y
_atom_site_fract_z
Si Si1 0.750000 0.000000 0.194838
Si Si2 0.893338 0.008724 0.551774
Si Si3 0.976589 0.750000 0.250000
Si Si4 0.326574 0.579498 0.374022
Si Si5 0.517486 0.156504 0.003627
Si Si6 0.849409 0.376613 0.800743
Si Si7 0.409549 0.201974 0.625700
O O1 0.840515 0.012406 0.332052
O O2 0.730735 0.051120 0.056209
O O3 0.880170 0.063022 0.673343
O O4 0.853514 0.960988 0.690358
O O5 0.000000 0.000000 0.500000
O O6 0.041085 0.770116 0.434774
O O7 0.922158 0.799485 0.140047
O O8 0.419190 0.604979 0.475205
O O9 0.257556 0.624757 0.283025
O O10 0.421737 0.146526 0.131647
O O11 0.488939 0.176128 0.772786
O O12 0.846006 0.344185 0.022234
O O13 0.354956 0.250000 0.750000
#
# Coordination Sequence:
#
# PCOD8216514 Si02
#       7
#     4   8   4   8   8   8   8
#     4  12  24  44  62  90 144 172 210 280 316 390
#     4  12  25  42  65  95 133 175 221 264 324 398
#     4   8  18  42  64  94 120 154 226 270 322 404
#     4  12  25  41  62 100 136 172 222 265 330 407
#     4  10  22  39  71  89 123 175 210 274 336 388
#     4  11  22  40  61  98 131 162 222 268 318 404
#     4   9  19  39  70  88 122 168 215 272 334 378
#
# _framework density 20.876313
#
# number of rings (size 3 to 8) (size 9 to 14) (size 15 to 20)
#    0.000    1.333    3.333    2.000    4.667    2.667 
#    0.000    0.000   44.000    0.000    0.000    0.000 
#    0.000    0.000    0.000    0.000    0.000    0.000 
#
# Total GULP energy -594810.447700 kJ/mol
# GULP energy per Si atom -12391.884327 kJ/mol
# Density = 2.082880 g / cm^3
# Si number density = 20.876313 Si / 1000 Ang^3
#
#
#
# Elastic Constant Matrix: (Units=GPa)
#
#
# Indices 1 2 3 4 5 6 
#
# 1 99.3606 33.1182 48.7254 0.0000 0.0000 0.0000
# 2 33.1182 117.1677 57.5212 0.0000 0.0000 0.0000
# 3 48.7254 57.5212 138.1145 0.0000 0.0000 0.0000
# 4 0.0000 0.0000 0.0000 51.3024 0.0000 0.0000
# 5 0.0000 0.0000 0.0000 0.0000 25.9729 0.0000
# 6 0.0000 0.0000 0.0000 0.0000 0.0000 14.5153
#
#
#
# Elastic Compliance Matrix: (Units=1/GPa)
#
#
# Indices 1 2 3 4 5 6 
#
# 1 0.012437 -0.001711 -0.003675 0.000000 0.000000 0.000000
# 2 -0.001711 0.010964 -0.003962 0.000000 0.000000 0.000000
# 3 -0.003675 -0.003962 0.010187 0.000000 0.000000 0.000000
# 4 0.000000 0.000000 0.000000 0.019492 0.000000 0.000000
# 5 0.000000 0.000000 0.000000 0.000000 0.038502 0.000000
# 6 0.000000 0.000000 0.000000 0.000000 0.000000 0.068893
#
#
# Mechanical properties :
#
#
# Convention : Reuss Voigt Hill
#
# Bulk Modulus (GPa) = 67.15660 70.37469 68.76564
# Shear Modulus (GPa) = 27.15394 32.70997 29.93196
#
# Velocity S-wave (km/s) = 3.61044 3.96264 3.79063
# Velocity P-wave (km/s) = 7.04408 7.39731 7.22285
#
# Compressibility (1/GPa) = 0.01489057
#
# Stress axis : x y z
#
# Youngs Moduli (GPa) = 80.40610 91.20977 98.16356
#
# Poissons Ratio (x) = 0.15608 0.36074
# Poissons Ratio (y) = 0.13759 0.38896
# Poissons Ratio (z) = 0.29549 0.36141
#
# Static dielectric constant tensor:
#      x y z
#    x 3.503260 0.000000 0.000000 
#    y 0.000000 4.401280 0.000000 
#    z 0.000000 0.000000 4.205100 
# 
# 
# High freq. dielectric constant tensor:
#      x y z
#    x 1.782350 0.000000 0.000000 
#    y 0.000000 1.837390 0.000000 
#    z 0.000000 0.000000 1.842920 
# 
# From -- ./inp_files/2507.got.cif
#   From: 2010.06.25/outbox.cif.g09.slc.cpg/sg52_2_cif.got.tgz:2507.got - 2010.06.26 19:32:48.
