data_PCOD8216035
_publ_section_title
;
Structure prediction by ZEFSAII (Michael W. Deem and Ramdas Pophale) SiO2 
 PCOD8216035
Probable space group: P N N A
;
_chemical_formula_sum "Si O2"
_cell_formula_units_Z 48
_cell_length_a 29.554640
_cell_length_b 10.085885
_cell_length_c 7.996942
_cell_angle_alpha 90.000000
_cell_angle_beta 90.000000
_cell_angle_gamma 90.000000
_cell_volume 2383.766059
_symmetry_space_group_name_H-M "P N N A"
_symmetry_group_IT_number 52
_symmetry_cell_setting 'orthorhombic'
loop_
_space_group_symop_operation_xyz
x,y,z
1/2-x,-y,z
x,1/2-y,1/2-z
1/2-x,1/2+y,1/2-z
-x,-y,-z
1/2+x,y,-z
-x,1/2+y,1/2+z
1/2+x,1/2-y,1/2+z
loop_
_atom_site_type_symbol
_atom_site_label
_atom_site_fract_x
_atom_site_fract_y
_atom_site_fract_z
Si Si1 0.750000 0.500000 0.625882
Si Si2 0.048172 0.827830 0.423018
Si Si3 0.884898 0.750000 0.750000
Si Si4 0.800849 0.250000 0.750000
Si Si5 0.863989 0.214248 0.064061
Si Si6 0.948438 0.627221 0.000645
Si Si7 0.842442 0.575412 0.507648
Si Si8 0.609497 0.250000 0.250000
O O1 0.769842 0.381185 0.739762
O O2 0.788689 0.553441 0.501833
O O3 0.054783 0.750000 0.250000
O O4 0.085984 0.776674 0.550614
O O5 0.998070 0.806708 0.495559
O O6 0.052897 0.986753 0.406200
O O7 0.917561 0.729596 0.904497
O O8 0.854532 0.622628 0.697948
O O9 0.831309 0.230853 0.583034
O O10 0.845124 0.250000 0.250000
O O11 0.869038 0.057229 0.041315
O O12 0.923892 0.631494 0.182630
O O13 0.855600 0.691833 0.383295
#
# Coordination Sequence:
#
# PCOD8216035 Si02
#       8
#     4   8   4   4   8   8   8   4
#     4  10  22  44  66 100 120 164 214 264 328 400
#     4  11  21  38  59  88 128 167 210 263 305 368
#     4  10  21  38  62  86 122 172 204 256 319 378
#     4  10  23  45  68  94 136 164 216 269 331 392
#     4  11  23  41  65  97 128 172 213 262 322 386
#     4  10  22  36  58  89 122 166 215 251 308 379
#     4  10  22  42  66  90 127 161 215 264 326 394
#     4  10  20  43  60  90 126 164 202 269 316 380
#
# _framework density 20.136205
#
# number of rings (size 3 to 8) (size 9 to 14) (size 15 to 20)
#    0.000    1.667    1.667    2.500    3.500    0.000 
#    9.000    3.333    0.000    0.000    0.000    0.000 
#    0.000    0.000    0.000    0.000    0.000    0.000 
#
# Total GULP energy -594872.017982 kJ/mol
# GULP energy per Si atom -12393.167041 kJ/mol
# Density = 2.009037 g / cm^3
# Si number density = 20.136205 Si / 1000 Ang^3
#
#
#
# Elastic Constant Matrix: (Units=GPa)
#
#
# Indices 1 2 3 4 5 6 
#
# 1 146.2891 52.0552 48.9304 0.0000 0.0000 0.0000
# 2 52.0552 108.0143 44.9646 0.0000 0.0000 0.0000
# 3 48.9304 44.9646 107.3635 0.0000 0.0000 0.0000
# 4 0.0000 0.0000 0.0000 35.5463 0.0000 0.0000
# 5 0.0000 0.0000 0.0000 0.0000 22.2695 0.0000
# 6 0.0000 0.0000 0.0000 0.0000 0.0000 34.8625
#
#
#
# Elastic Compliance Matrix: (Units=1/GPa)
#
#
# Indices 1 2 3 4 5 6 
#
# 1 0.008864 -0.003137 -0.002726 0.000000 0.000000 0.000000
# 2 -0.003137 0.012323 -0.003731 0.000000 0.000000 0.000000
# 3 -0.002726 -0.003731 0.012119 0.000000 0.000000 0.000000
# 4 0.000000 0.000000 0.000000 0.028132 0.000000 0.000000
# 5 0.000000 0.000000 0.000000 0.000000 0.044904 0.000000
# 6 0.000000 0.000000 0.000000 0.000000 0.000000 0.028684
#
#
# Mechanical properties :
#
#
# Convention : Reuss Voigt Hill
#
# Bulk Modulus (GPa) = 70.83294 72.61859 71.72576
# Shear Modulus (GPa) = 31.46216 32.91680 32.18948
#
# Velocity S-wave (km/s) = 3.95709 4.04754 4.00257
# Velocity P-wave (km/s) = 7.49209 7.61481 7.55370
#
# Compressibility (1/GPa) = 0.01411773
#
# Stress axis : x y z
#
# Youngs Moduli (GPa) = 112.81893 81.14818 82.51411
#
# Poissons Ratio (x) = 0.25456 0.22492
# Poissons Ratio (y) = 0.35391 0.30789
# Poissons Ratio (z) = 0.30752 0.30279
#
# Static dielectric constant tensor:
#      x y z
#    x 3.843920 0.000000 0.000000 
#    y 0.000000 3.745220 0.000000 
#    z 0.000000 0.000000 3.859580 
# 
# 
# High freq. dielectric constant tensor:
#      x y z
#    x 1.796900 0.000000 0.000000 
#    y 0.000000 1.788000 0.000000 
#    z 0.000000 0.000000 1.778540 
# 
# From -- ./inp_files/15621.got.cif
#   From: 2010.06.25/outbox.cif.g09.slc.cpg/sg52_8_cif.got.tgz:15621.got - 2010.06.26 19:32:48.
