data_PCOD8216278
_publ_section_title
;
Structure prediction by ZEFSAII (Michael W. Deem and Ramdas Pophale) SiO2 
 PCOD8216278
Probable space group: P N N A
;
_chemical_formula_sum "Si O2"
_cell_formula_units_Z 48
_cell_length_a 15.983889
_cell_length_b 9.056390
_cell_length_c 15.810485
_cell_angle_alpha 90.000000
_cell_angle_beta 90.000000
_cell_angle_gamma 90.000000
_cell_volume 2288.667824
_symmetry_space_group_name_H-M "P N N A"
_symmetry_group_IT_number 52
_symmetry_cell_setting 'orthorhombic'
loop_
_space_group_symop_operation_xyz
x,y,z
1/2-x,-y,z
x,1/2-y,1/2-z
1/2-x,1/2+y,1/2-z
-x,-y,-z
1/2+x,y,-z
-x,1/2+y,1/2+z
1/2+x,1/2-y,1/2+z
loop_
_atom_site_type_symbol
_atom_site_label
_atom_site_fract_x
_atom_site_fract_y
_atom_site_fract_z
Si Si1 0.236671 0.325943 0.667334
Si Si2 0.453886 0.668566 0.668542
Si Si3 0.767579 0.172072 0.497410
Si Si4 0.004544 0.150742 0.168614
Si Si5 0.834322 0.584020 0.581660
Si Si6 0.428335 0.315882 0.488420
O O1 0.250000 0.500000 0.666983
O O2 0.275390 0.250000 0.750000
O O3 0.140693 0.277697 0.656595
O O4 0.286695 0.249494 0.592076
O O5 0.494459 0.750000 0.750000
O O6 0.453589 0.495946 0.689115
O O7 0.501877 0.704454 0.582584
O O8 0.691123 0.258648 0.541585
O O9 0.857796 0.197418 0.540645
O O10 0.750000 0.000000 0.491666
O O11 0.988785 0.250000 0.250000
O O12 0.104264 0.116912 0.160223
O O13 0.969742 0.216958 0.079831
O O14 0.750000 0.500000 0.612206
O O15 0.886868 0.481894 0.514775
#
# Coordination Sequence:
#
# PCOD8216278 Si02
#       6
#     8   8   8   8   8   8
#     4  11  22  37  57  84 119 154 193 240 294 356
#     4  10  22  40  62  86 115 155 198 243 295 351
#     4  11  22  36  58  86 114 151 196 244 295 346
#     4  11  22  37  61  90 117 152 196 243 296 353
#     4   9  19  40  61  79 110 157 200 235 288 356
#     4  10  21  40  63  83 117 159 196 239 294 358
#
# _framework density 20.972899000000002
#
# number of rings (size 3 to 8) (size 9 to 14) (size 15 to 20)
#    0.000    1.667    0.000    7.000    0.000    6.667 
#    0.000   10.833    0.000    0.000    0.000    0.000 
#    0.000    0.000    0.000    0.000    0.000    0.000 
#
# Total GULP energy -595013.647242 kJ/mol
# GULP energy per Si atom -12396.117651 kJ/mol
# Density = 2.092516 g / cm^3
# Si number density = 20.972899 Si / 1000 Ang^3
#
#
#
# Elastic Constant Matrix: (Units=GPa)
#
#
# Indices 1 2 3 4 5 6 
#
# 1 82.1092 4.9393 26.4794 0.0000 0.0000 0.0000
# 2 4.9393 116.1076 38.3980 0.0000 0.0000 0.0000
# 3 26.4794 38.3980 108.6554 0.0000 0.0000 0.0000
# 4 0.0000 0.0000 0.0000 36.1448 0.0000 0.0000
# 5 0.0000 0.0000 0.0000 0.0000 12.5069 0.0000
# 6 0.0000 0.0000 0.0000 0.0000 0.0000 20.6988
#
#
#
# Elastic Compliance Matrix: (Units=1/GPa)
#
#
# Indices 1 2 3 4 5 6 
#
# 1 0.013251 0.000571 -0.003431 0.000000 0.000000 0.000000
# 2 0.000571 0.009777 -0.003594 0.000000 0.000000 0.000000
# 3 -0.003431 -0.003594 0.011310 0.000000 0.000000 0.000000
# 4 0.000000 0.000000 0.000000 0.027666 0.000000 0.000000
# 5 0.000000 0.000000 0.000000 0.000000 0.079956 0.000000
# 6 0.000000 0.000000 0.000000 0.000000 0.000000 0.048312
#
#
# Mechanical properties :
#
#
# Convention : Reuss Voigt Hill
#
# Bulk Modulus (GPa) = 46.66546 49.61172 48.13859
# Shear Modulus (GPa) = 23.77287 29.67381 26.72334
#
# Velocity S-wave (km/s) = 3.37041 3.76555 3.57344
# Velocity P-wave (km/s) = 6.11922 6.52781 6.32682
#
# Compressibility (1/GPa) = 0.02142913
#
# Stress axis : x y z
#
# Youngs Moduli (GPa) = 75.46572 102.28000 88.41917
#
# Poissons Ratio (x) = -0.05840 0.30337
# Poissons Ratio (y) = -0.04309 0.31780
# Poissons Ratio (z) = 0.25893 0.36762
#
# Static dielectric constant tensor:
#      x y z
#    x 4.056620 0.000000 0.000000 
#    y 0.000000 3.692020 0.000000 
#    z 0.000000 0.000000 3.733120 
# 
# 
# High freq. dielectric constant tensor:
#      x y z
#    x 1.843070 0.000000 0.000000 
#    y 0.000000 1.805690 0.000000 
#    z 0.000000 0.000000 1.807460 
# 
# From -- ./inp_files/28029.got.cif
#   From: 2010.06.25/outbox.cif.g09.slc.cpg/sg52_15_cif.got.tgz:28029.got - 2010.06.26 19:32:48.
