data_PCOD8216775
_publ_section_title
;
Structure prediction by ZEFSAII (Michael W. Deem and Ramdas Pophale) SiO2 
 PCOD8216775
Probable space group: P N N A
;
_chemical_formula_sum "Si O2"
_cell_formula_units_Z 32
_cell_length_a 14.387492
_cell_length_b 5.243298
_cell_length_c 16.611316
_cell_angle_alpha 90.000000
_cell_angle_beta 90.000000
_cell_angle_gamma 90.000000
_cell_volume 1253.122929
_symmetry_space_group_name_H-M "P N N A"
_symmetry_group_IT_number 52
_symmetry_cell_setting 'orthorhombic'
loop_
_space_group_symop_operation_xyz
x,y,z
1/2-x,-y,z
x,1/2-y,1/2-z
1/2-x,1/2+y,1/2-z
-x,-y,-z
1/2+x,y,-z
-x,1/2+y,1/2+z
1/2+x,1/2-y,1/2+z
loop_
_atom_site_type_symbol
_atom_site_label
_atom_site_fract_x
_atom_site_fract_y
_atom_site_fract_z
Si Si1 0.250000 0.000000 0.507271
Si Si2 0.421221 0.774830 0.952109
Si Si3 0.308198 0.250000 0.250000
Si Si4 0.616252 0.836062 0.918227
Si Si5 0.859557 0.000419 0.202204
O O1 0.162633 0.075262 0.563909
O O2 0.286187 0.230079 0.451671
O O3 0.526046 0.658899 0.942167
O O4 0.410108 0.997260 0.884801
O O5 0.406120 0.889235 0.041865
O O6 0.250000 0.500000 0.222516
O O7 0.373543 0.149617 0.177679
O O8 0.891998 0.750000 0.250000
O O9 0.750000 0.000000 0.187255
O O10 0.893121 0.250000 0.250000
#
# Coordination Sequence:
#
# PCOD8216775 Si02
#       5
#     4   8   4   8   8
#     4  12  22  46  78 104 150 198 252 320 384 464
#     4  11  26  45  73 110 148 202 257 320 389 458
#     4  12  26  52  80 112 156 208 256 320 392 462
#     4  11  26  47  73 112 149 202 260 318 383 469
#     4  10  23  42  67 102 145 198 248 304 377 454
#
# _framework density 25.536199
#
# number of rings (size 3 to 8) (size 9 to 14) (size 15 to 20)
#    0.000    1.000    1.250    4.500   10.500    0.000 
#    2.250    0.000    0.000    0.000    0.000    0.000 
#    0.000    0.000    0.000    0.000    0.000    0.000 
#
# Total GULP energy -396718.637666 kJ/mol
# GULP energy per Si atom -12397.457427 kJ/mol
# Density = 2.547808 g / cm^3
# Si number density = 25.536199 Si / 1000 Ang^3
#
#
#
# Elastic Constant Matrix: (Units=GPa)
#
#
# Indices 1 2 3 4 5 6 
#
# 1 150.8546 10.8585 25.4619 0.0000 0.0000 0.0000
# 2 10.8585 80.8334 16.0088 0.0000 0.0000 0.0000
# 3 25.4619 16.0088 137.7569 0.0000 0.0000 0.0000
# 4 0.0000 0.0000 0.0000 3.4136 0.0000 0.0000
# 5 0.0000 0.0000 0.0000 0.0000 36.6596 0.0000
# 6 0.0000 0.0000 0.0000 0.0000 0.0000 32.6701
#
#
#
# Elastic Compliance Matrix: (Units=1/GPa)
#
#
# Indices 1 2 3 4 5 6 
#
# 1 0.006880 -0.000688 -0.001192 0.000000 0.000000 0.000000
# 2 -0.000688 0.012731 -0.001352 0.000000 0.000000 0.000000
# 3 -0.001192 -0.001352 0.007637 0.000000 0.000000 0.000000
# 4 0.000000 0.000000 0.000000 0.292942 0.000000 0.000000
# 5 0.000000 0.000000 0.000000 0.000000 0.027278 0.000000
# 6 0.000000 0.000000 0.000000 0.000000 0.000000 0.030609
#
#
# Mechanical properties :
#
#
# Convention : Reuss Voigt Hill
#
# Bulk Modulus (GPa) = 48.11542 52.67814 50.39678
# Shear Modulus (GPa) = 12.77241 35.68972 24.23106
#
# Velocity S-wave (km/s) = 2.23887 3.74252 3.08375
# Velocity P-wave (km/s) = 5.05632 6.27287 5.69716
#
# Compressibility (1/GPa) = 0.02078336
#
# Stress axis : x y z
#
# Youngs Moduli (GPa) = 145.35825 78.54606 130.94895
#
# Poissons Ratio (x) = 0.05405 0.15604
# Poissons Ratio (y) = 0.10003 0.17709
# Poissons Ratio (z) = 0.17321 0.10622
#
# Static dielectric constant tensor:
#      x y z
#    x 4.866530 0.000000 0.000000 
#    y 0.000000 4.329060 0.000000 
#    z 0.000000 0.000000 4.553530 
# 
# 
# High freq. dielectric constant tensor:
#      x y z
#    x 2.032240 0.000000 0.000000 
#    y 0.000000 1.999450 0.000000 
#    z 0.000000 0.000000 2.021010 
# 
# From -- ./inp_files/32634.got.cif
#   From: 2010.06.25/outbox.cif.g09.slc.cpg/sg52_17_cif.got.tgz:32634.got - 2010.06.26 19:32:48.
