data_PCOD8216063
_publ_section_title
;
Structure prediction by ZEFSAII (Michael W. Deem and Ramdas Pophale) SiO2 
 PCOD8216063
Probable space group: P N N A
;
_chemical_formula_sum "Si O2"
_cell_formula_units_Z 48
_cell_length_a 9.581725
_cell_length_b 8.823294
_cell_length_c 27.916447
_cell_angle_alpha 90.000000
_cell_angle_beta 90.000000
_cell_angle_gamma 90.000000
_cell_volume 2360.122778
_symmetry_space_group_name_H-M "P N N A"
_symmetry_group_IT_number 52
_symmetry_cell_setting 'orthorhombic'
loop_
_space_group_symop_operation_xyz
x,y,z
1/2-x,-y,z
x,1/2-y,1/2-z
1/2-x,1/2+y,1/2-z
-x,-y,-z
1/2+x,y,-z
-x,1/2+y,1/2+z
1/2+x,1/2-y,1/2+z
loop_
_atom_site_type_symbol
_atom_site_label
_atom_site_fract_x
_atom_site_fract_y
_atom_site_fract_z
Si Si1 0.125706 0.612024 0.988679
Si Si2 0.299055 0.330401 0.703286
Si Si3 0.618841 0.247690 0.802291
Si Si4 0.919050 0.251196 0.582388
Si Si5 0.234054 0.171076 0.605933
Si Si6 0.250000 0.500000 0.369203
Si Si7 0.750000 0.000000 0.640615
O O1 0.250000 0.500000 0.997722
O O2 0.145145 0.687878 0.935541
O O3 0.123515 0.749002 0.026503
O O4 0.000000 0.500000 0.000000
O O5 0.250000 0.500000 0.707921
O O6 0.230403 0.250000 0.750000
O O7 0.462763 0.306589 0.705290
O O8 0.250007 0.274280 0.651901
O O9 0.692385 0.250000 0.750000
O O10 0.688934 0.128012 0.836303
O O11 0.636535 0.412970 0.826265
O O12 0.872814 0.418877 0.599942
O O13 0.083483 0.217407 0.585319
O O14 0.836790 0.117508 0.609152
O O15 0.250000 0.000000 0.624443
#
# Coordination Sequence:
#
# PCOD8216063 Si02
#       7
#     8   8   8   8   8   4   4
#     4  11  21  37  63  93 122 164 216 267 319 392
#     4  11  24  42  64  93 129 170 214 268 331 399
#     4  10  21  39  60  89 121 163 214 264 325 390
#     4  11  21  39  58  92 123 169 209 268 320 395
#     4  11  22  39  65  91 127 162 222 267 328 383
#     4  10  23  38  60  88 132 158 207 266 332 390
#     4  10  21  34  64  84 122 166 211 262 322 378
#
# _framework density 20.337926
#
# number of rings (size 3 to 8) (size 9 to 14) (size 15 to 20)
#    0.000    1.333    4.167    3.000    0.000    1.333 
#    1.500    5.000    0.000    0.000    0.000    0.000 
#    0.000    0.000    0.000    0.000    0.000    0.000 
#
# Total GULP energy -594642.276717 kJ/mol
# GULP energy per Si atom -12388.380765 kJ/mol
# Density = 2.029164 g / cm^3
# Si number density = 20.337926 Si / 1000 Ang^3
#
#
#
# Elastic Constant Matrix: (Units=GPa)
#
#
# Indices 1 2 3 4 5 6 
#
# 1 79.0396 29.1292 35.9114 0.0000 0.0000 0.0000
# 2 29.1292 121.6096 63.0687 0.0000 0.0000 0.0000
# 3 35.9114 63.0687 171.3300 0.0000 0.0000 0.0000
# 4 0.0000 0.0000 0.0000 33.6193 0.0000 0.0000
# 5 0.0000 0.0000 0.0000 0.0000 32.8558 0.0000
# 6 0.0000 0.0000 0.0000 0.0000 0.0000 33.2357
#
#
#
# Elastic Compliance Matrix: (Units=1/GPa)
#
#
# Indices 1 2 3 4 5 6 
#
# 1 0.014505 -0.002345 -0.002177 0.000000 0.000000 0.000000
# 2 -0.002345 0.010543 -0.003389 0.000000 0.000000 0.000000
# 3 -0.002177 -0.003389 0.007541 0.000000 0.000000 0.000000
# 4 0.000000 0.000000 0.000000 0.029745 0.000000 0.000000
# 5 0.000000 0.000000 0.000000 0.000000 0.030436 0.000000
# 6 0.000000 0.000000 0.000000 0.000000 0.000000 0.030088
#
#
# Mechanical properties :
#
#
# Convention : Reuss Voigt Hill
#
# Bulk Modulus (GPa) = 59.64734 69.79974 64.72354
# Shear Modulus (GPa) = 34.65742 36.20016 35.42879
#
# Velocity S-wave (km/s) = 4.13253 4.22350 4.17826
# Velocity P-wave (km/s) = 7.22234 7.62748 7.42767
#
# Compressibility (1/GPa) = 0.01676521
#
# Stress axis : x y z
#
# Youngs Moduli (GPa) = 68.93986 94.85375 132.61528
#
# Poissons Ratio (x) = 0.22248 0.28870
# Poissons Ratio (y) = 0.16170 0.44946
# Poissons Ratio (z) = 0.15008 0.32148
#
# Static dielectric constant tensor:
#      x y z
#    x 3.686870 0.000000 0.000000 
#    y 0.000000 3.330170 0.000000 
#    z 0.000000 0.000000 4.725450 
# 
# 
# High freq. dielectric constant tensor:
#      x y z
#    x 1.792510 0.000000 0.000000 
#    y 0.000000 1.786950 0.000000 
#    z 0.000000 0.000000 1.818830 
# 
# From -- ./inp_files/44437.got.cif
#   From: 2010.06.25/outbox.cif.g09.slc.cpg/sg52_23_cif.got.tgz:44437.got - 2010.06.26 19:32:48.
