data_PCOD8216446
_publ_section_title
;
Structure prediction by ZEFSAII (Michael W. Deem and Ramdas Pophale) SiO2 
 PCOD8216446
Probable space group: P N N A
;
_chemical_formula_sum "Si O2"
_cell_formula_units_Z 44
_cell_length_a 18.847807
_cell_length_b 9.780905
_cell_length_c 11.810809
_cell_angle_alpha 90.000000
_cell_angle_beta 90.000000
_cell_angle_gamma 90.000000
_cell_volume 2177.306219
_symmetry_space_group_name_H-M "P N N A"
_symmetry_group_IT_number 52
_symmetry_cell_setting 'orthorhombic'
loop_
_space_group_symop_operation_xyz
x,y,z
1/2-x,-y,z
x,1/2-y,1/2-z
1/2-x,1/2+y,1/2-z
-x,-y,-z
1/2+x,y,-z
-x,1/2+y,1/2+z
1/2+x,1/2-y,1/2+z
loop_
_atom_site_type_symbol
_atom_site_label
_atom_site_fract_x
_atom_site_fract_y
_atom_site_fract_z
Si Si1 0.378875 0.837212 0.855579
Si Si2 0.664243 0.394118 0.693336
Si Si3 0.616946 0.842207 0.144556
Si Si4 0.250000 0.500000 0.121144
Si Si5 0.970620 0.868235 0.941204
Si Si6 0.249708 0.714997 0.503647
O O1 0.405873 0.750000 0.750000
O O2 0.297811 0.797347 0.883781
O O3 0.386445 0.997388 0.824312
O O4 0.426393 0.786830 0.963120
O O5 0.674734 0.250000 0.750000
O O6 0.683072 0.505044 0.790805
O O7 0.582891 0.415519 0.657783
O O8 0.719060 0.393563 0.587139
O O9 0.642745 0.750000 0.250000
O O10 0.538323 0.786939 0.108785
O O11 0.669855 0.825602 0.038143
O O12 0.248982 0.630665 0.041163
O O13 0.000000 0.000000 0.000000
#
# Coordination Sequence:
#
# PCOD8216446 Si02
#       6
#     8   8   8   4   8   8
#     4  10  22  41  63  84 122 167 195 243 312 364
#     4   9  19  37  58  81 116 160 190 245 305 351
#     4  11  23  39  62  92 120 159 204 253 300 363
#     4  10  22  36  62  94 116 156 214 254 300 364
#     4   9  20  38  59  83 122 158 199 241 304 361
#     4  10  22  37  61  90 123 153 205 254 303 358
#
# _framework density 20.208456999999999
#
# number of rings (size 3 to 8) (size 9 to 14) (size 15 to 20)
#    0.000    2.182    0.000    1.636   10.182    0.000 
#    6.545    0.909    0.000    0.000    0.000    0.000 
#    0.000    0.000    0.000    0.000    0.000    0.000 
#
# Total GULP energy -545317.139135 kJ/mol
# GULP energy per Si atom -12393.571344 kJ/mol
# Density = 2.016246 g / cm^3
# Si number density = 20.208457 Si / 1000 Ang^3
#
#
#
# Elastic Constant Matrix: (Units=GPa)
#
#
# Indices 1 2 3 4 5 6 
#
# 1 145.4318 27.9375 47.9587 0.0000 0.0000 0.0000
# 2 27.9375 60.8391 30.7166 0.0000 0.0000 0.0000
# 3 47.9587 30.7166 89.0943 0.0000 0.0000 0.0000
# 4 0.0000 0.0000 0.0000 21.6475 0.0000 0.0000
# 5 0.0000 0.0000 0.0000 0.0000 28.8791 0.0000
# 6 0.0000 0.0000 0.0000 0.0000 0.0000 18.5391
#
#
#
# Elastic Compliance Matrix: (Units=1/GPa)
#
#
# Indices 1 2 3 4 5 6 
#
# 1 0.008545 -0.001939 -0.003931 0.000000 0.000000 0.000000
# 2 -0.001939 0.020341 -0.005969 0.000000 0.000000 0.000000
# 3 -0.003931 -0.005969 0.015398 0.000000 0.000000 0.000000
# 4 0.000000 0.000000 0.000000 0.046195 0.000000 0.000000
# 5 0.000000 0.000000 0.000000 0.000000 0.034627 0.000000
# 6 0.000000 0.000000 0.000000 0.000000 0.000000 0.053940
#
#
# Mechanical properties :
#
#
# Convention : Reuss Voigt Hill
#
# Bulk Modulus (GPa) = 48.53101 56.51008 52.52055
# Shear Modulus (GPa) = 23.85578 26.39663 25.12620
#
# Velocity S-wave (km/s) = 3.43955 3.61808 3.52994
# Velocity P-wave (km/s) = 6.31200 6.74376 6.53145
#
# Compressibility (1/GPa) = 0.02060538
#
# Stress axis : x y z
#
# Youngs Moduli (GPa) = 117.02831 49.16203 64.94316
#
# Poissons Ratio (x) = 0.09533 0.25530
# Poissons Ratio (y) = 0.22693 0.38765
# Poissons Ratio (z) = 0.46005 0.29345
#
# Static dielectric constant tensor:
#      x y z
#    x 4.378860 0.000000 0.000000 
#    y 0.000000 3.400400 0.000000 
#    z 0.000000 0.000000 4.004940 
# 
# 
# High freq. dielectric constant tensor:
#      x y z
#    x 1.794800 0.000000 0.000000 
#    y 0.000000 1.765690 0.000000 
#    z 0.000000 0.000000 1.796770 
# 
# From -- ./inp_files/20546.got.cif
#   From: 2010.06.25/outbox.cif.g09.slc.cpg/sg52_11_cif.got.tgz:20546.got - 2010.06.26 19:32:48.
