data_PCOD8216219
_publ_section_title
;
Structure prediction by ZEFSAII (Michael W. Deem and Ramdas Pophale) SiO2 
 PCOD8216219
Probable space group: P N N A
;
_chemical_formula_sum "Si O2"
_cell_formula_units_Z 64
_cell_length_a 18.737847
_cell_length_b 8.653455
_cell_length_c 17.825493
_cell_angle_alpha 90.000000
_cell_angle_beta 90.000000
_cell_angle_gamma 90.000000
_cell_volume 2890.352278
_symmetry_space_group_name_H-M "P N N A"
_symmetry_group_IT_number 52
_symmetry_cell_setting 'orthorhombic'
loop_
_space_group_symop_operation_xyz
x,y,z
1/2-x,-y,z
x,1/2-y,1/2-z
1/2-x,1/2+y,1/2-z
-x,-y,-z
1/2+x,y,-z
-x,1/2+y,1/2+z
1/2+x,1/2-y,1/2+z
loop_
_atom_site_type_symbol
_atom_site_label
_atom_site_fract_x
_atom_site_fract_y
_atom_site_fract_z
Si Si1 0.467455 0.929799 0.226371
Si Si2 0.823047 0.566791 0.250787
Si Si3 0.325568 0.063896 0.259497
Si Si4 0.579398 0.269230 0.475530
Si Si5 0.053553 0.059190 0.648187
Si Si6 0.667581 0.484771 0.933341
Si Si7 0.596362 0.543826 0.385560
Si Si8 0.569316 0.678732 0.028755
O O1 0.472625 0.750000 0.250000
O O2 0.485823 0.043198 0.297359
O O3 0.386598 0.983176 0.207647
O O4 0.519117 0.965089 0.156637
O O5 0.750000 0.500000 0.220175
O O6 0.826003 0.750000 0.250000
O O7 0.880411 0.492276 0.194697
O O8 0.838028 0.502406 0.333171
O O9 0.327842 0.250000 0.250000
O O10 0.336848 0.995140 0.343576
O O11 0.250000 0.000000 0.229176
O O12 0.602440 0.446378 0.463753
O O13 0.499046 0.275164 0.504532
O O14 0.574360 0.225764 0.385265
O O15 0.633503 0.172344 0.529553
O O16 0.038885 0.973149 0.569604
O O17 0.750000 0.500000 0.959677
O O18 0.622509 0.631501 0.962319
O O19 0.611476 0.719200 0.410485
#
# Coordination Sequence:
#
# PCOD8216219 Si02
#       8
#     8   8   8   8   8   8   8   8
#     4  11  22  38  66  94 133 171 212 275 322 372
#     4  11  25  41  63  91 129 174 215 269 316 380
#     4  11  25  46  70  99 125 167 219 270 334 398
#     4  11  22  42  65  93 129 171 216 267 316 390
#     4  10  21  39  61  90 127 167 218 257 314 384
#     4  10  24  44  68  92 129 172 217 258 326 400
#     4  11  25  40  62 101 133 164 224 266 321 378
#     4  11  22  40  65  93 128 169 212 264 322 383
#
# _framework density 22.14263
#
# number of rings (size 3 to 8) (size 9 to 14) (size 15 to 20)
#    0.000    1.250    2.500    3.750    5.250    3.000 
#    0.000    0.000    0.000    0.000    0.000    0.000 
#    0.000    0.000    0.000    0.000    0.000    0.000 
#
# Total GULP energy -793026.375614 kJ/mol
# GULP energy per Si atom -12391.037119 kJ/mol
# Density = 2.209223 g / cm^3
# Si number density = 22.142630 Si / 1000 Ang^3
#
#
#
# Elastic Constant Matrix: (Units=GPa)
#
#
# Indices 1 2 3 4 5 6 
#
# 1 102.0075 9.7987 10.7269 0.0000 0.0000 0.0000
# 2 9.7987 59.5924 9.0299 0.0000 0.0000 0.0000
# 3 10.7269 9.0299 58.0439 0.0000 0.0000 0.0000
# 4 0.0000 0.0000 0.0000 37.0226 0.0000 0.0000
# 5 0.0000 0.0000 0.0000 0.0000 21.5947 0.0000
# 6 0.0000 0.0000 0.0000 0.0000 0.0000 25.7986
#
#
#
# Elastic Compliance Matrix: (Units=1/GPa)
#
#
# Indices 1 2 3 4 5 6 
#
# 1 0.010112 -0.001413 -0.001649 0.000000 0.000000 0.000000
# 2 -0.001413 0.017383 -0.002443 0.000000 0.000000 0.000000
# 3 -0.001649 -0.002443 0.017913 0.000000 0.000000 0.000000
# 4 0.000000 0.000000 0.000000 0.027011 0.000000 0.000000
# 5 0.000000 0.000000 0.000000 0.000000 0.046308 0.000000
# 6 0.000000 0.000000 0.000000 0.000000 0.000000 0.038762
#
#
# Mechanical properties :
#
#
# Convention : Reuss Voigt Hill
#
# Bulk Modulus (GPa) = 29.07106 30.97277 30.02192
# Shear Modulus (GPa) = 27.78316 29.55572 28.66944
#
# Velocity S-wave (km/s) = 3.54607 3.65744 3.60218
# Velocity P-wave (km/s) = 5.47025 5.64394 5.55777
#
# Compressibility (1/GPa) = 0.03439847
#
# Stress axis : x y z
#
# Youngs Moduli (GPa) = 98.88915 57.52681 55.82485
#
# Poissons Ratio (x) = 0.08128 0.09206
# Poissons Ratio (y) = 0.13972 0.13639
# Poissons Ratio (z) = 0.16307 0.14055
#
# Static dielectric constant tensor:
#      x y z
#    x 4.265230 0.000000 0.000000 
#    y 0.000000 4.021230 0.000000 
#    z 0.000000 0.000000 3.954420 
# 
# 
# High freq. dielectric constant tensor:
#      x y z
#    x 1.868470 0.000000 0.000000 
#    y 0.000000 1.875490 0.000000 
#    z 0.000000 0.000000 1.867730 
# 
# From -- ./inp_files/37678.got.cif
#   From: 2010.06.25/outbox.cif.g09.slc.cpg/sg52_19_cif.got.tgz:37678.got - 2010.06.26 19:32:48.
