data_PCOD8216737
_publ_section_title
;
Structure prediction by ZEFSAII (Michael W. Deem and Ramdas Pophale) SiO2 
 PCOD8216737
Probable space group: P N N A
;
_chemical_formula_sum "Si O2"
_cell_formula_units_Z 36
_cell_length_a 9.105794
_cell_length_b 9.725880
_cell_length_c 18.609206
_cell_angle_alpha 90.000000
_cell_angle_beta 90.000000
_cell_angle_gamma 90.000000
_cell_volume 1648.065892
_symmetry_space_group_name_H-M "P N N A"
_symmetry_group_IT_number 52
_symmetry_cell_setting 'orthorhombic'
loop_
_space_group_symop_operation_xyz
x,y,z
1/2-x,-y,z
x,1/2-y,1/2-z
1/2-x,1/2+y,1/2-z
-x,-y,-z
1/2+x,y,-z
-x,1/2+y,1/2+z
1/2+x,1/2-y,1/2+z
loop_
_atom_site_type_symbol
_atom_site_label
_atom_site_fract_x
_atom_site_fract_y
_atom_site_fract_z
Si Si1 0.750000 0.500000 0.864965
Si Si2 0.110271 0.754511 0.451684
Si Si3 0.750000 0.500000 0.212374
Si Si4 0.039541 0.094390 0.243157
Si Si5 0.220475 0.151176 0.574600
Si Si6 0.750000 0.000000 0.876533
O O1 0.792349 0.368204 0.911575
O O2 0.613067 0.460317 0.815719
O O3 0.156308 0.753806 0.536240
O O4 0.151634 0.603721 0.422943
O O5 0.938950 0.786974 0.443667
O O6 0.890722 0.494574 0.264227
O O7 0.756560 0.637180 0.160892
O O8 0.992862 0.250000 0.250000
O O9 0.139553 0.083745 0.173514
O O10 0.250000 0.000000 0.540157
#
# Coordination Sequence:
#
# PCOD8216737 Si02
#       6
#     4   8   4   8   8   4
#     4  11  19  40  66  88 122 171 217 274 308 421
#     4  12  23  42  67  96 140 170 238 278 351 413
#     4  10  23  40  65 105 124 173 230 284 344 408
#     4  11  23  41  65  95 134 173 224 277 343 408
#     4  10  23  39  68 100 125 180 231 287 338 407
#     4  11  28  42  65 103 134 194 217 286 358 409
#
# _framework density 21.843786000000001
#
# number of rings (size 3 to 8) (size 9 to 14) (size 15 to 20)
#    0.667    0.444    5.556    0.667    3.111    2.667 
#    0.000    0.000    0.000    0.000    0.000    0.000 
#    0.000    0.000    0.000    0.000    0.000    0.000 
#
# Total GULP energy -446187.725433 kJ/mol
# GULP energy per Si atom -12394.103484 kJ/mol
# Density = 2.179407 g / cm^3
# Si number density = 21.843786 Si / 1000 Ang^3
#
#
#
# Elastic Constant Matrix: (Units=GPa)
#
#
# Indices 1 2 3 4 5 6 
#
# 1 131.0626 18.1941 13.9507 0.0000 0.0000 0.0000
# 2 18.1941 83.2698 15.9046 0.0000 0.0000 0.0000
# 3 13.9507 15.9046 42.5705 0.0000 0.0000 0.0000
# 4 0.0000 0.0000 0.0000 6.4167 0.0000 0.0000
# 5 0.0000 0.0000 0.0000 0.0000 -8.5811 0.0000
# 6 0.0000 0.0000 0.0000 0.0000 0.0000 36.9225
#
#
#
# Elastic Compliance Matrix: (Units=1/GPa)
#
#
# Indices 1 2 3 4 5 6 
#
# 1 0.008044 -0.001351 -0.002132 0.000000 0.000000 0.000000
# 2 -0.001351 0.013159 -0.004474 0.000000 0.000000 0.000000
# 3 -0.002132 -0.004474 0.025860 0.000000 0.000000 0.000000
# 4 0.000000 0.000000 0.000000 0.155844 0.000000 0.000000
# 5 0.000000 0.000000 0.000000 0.000000 -0.116536 0.000000
# 6 0.000000 0.000000 0.000000 0.000000 0.000000 0.027084
#
#
# Mechanical properties :
#
#
# Convention : Reuss Voigt Hill
#
# Bulk Modulus (GPa) = 32.10075 39.22241 35.66158
# Shear Modulus (GPa) = 35.77806 20.87519 28.32663
#
# Velocity S-wave (km/s) = 4.05150 3.09473 3.60499
# Velocity P-wave (km/s) = 6.05092 5.54659 5.80423
#
# Compressibility (1/GPa) = 0.03115192
#
# Stress axis : x y z
#
# Youngs Moduli (GPa) = 124.31131 75.99543 38.66921
#
# Poissons Ratio (x) = 0.10263 0.08243
# Poissons Ratio (y) = 0.16788 0.17299
# Poissons Ratio (z) = 0.26499 0.33997
#
# Static dielectric constant tensor:
#      x y z
#    x 3.901590 0.000000 0.000000 
#    y 0.000000 3.421310 0.000000 
#    z 0.000000 0.000000 3.885210 
# 
# 
# High freq. dielectric constant tensor:
#      x y z
#    x 1.869820 0.000000 0.000000 
#    y 0.000000 1.840490 0.000000 
#    z 0.000000 0.000000 1.851640 
# 
# From -- ./inp_files/35634.got.cif
#   From: 2010.06.25/outbox.cif.g09.slc.cpg/sg52_18_cif.got.tgz:35634.got - 2010.06.26 19:32:48.
