data_PCOD8216173
_publ_section_title
;
Structure prediction by ZEFSAII (Michael W. Deem and Ramdas Pophale) SiO2 
 PCOD8216173
Probable space group: P N N A
;
_chemical_formula_sum "Si O2"
_cell_formula_units_Z 32
_cell_length_a 4.926715
_cell_length_b 8.768891
_cell_length_c 34.285888
_cell_angle_alpha 90.000000
_cell_angle_beta 90.000000
_cell_angle_gamma 90.000000
_cell_volume 1481.212996
_symmetry_space_group_name_H-M "P N N A"
_symmetry_group_IT_number 52
_symmetry_cell_setting 'orthorhombic'
loop_
_space_group_symop_operation_xyz
x,y,z
1/2-x,-y,z
x,1/2-y,1/2-z
1/2-x,1/2+y,1/2-z
-x,-y,-z
1/2+x,y,-z
-x,1/2+y,1/2+z
1/2+x,1/2-y,1/2+z
loop_
_atom_site_type_symbol
_atom_site_label
_atom_site_fract_x
_atom_site_fract_y
_atom_site_fract_z
Si Si1 0.256196 0.170158 0.359820
Si Si2 0.758425 0.675809 0.025432
Si Si3 0.014504 0.895954 0.275766
Si Si4 0.745188 0.822106 0.105803
O O1 0.360251 0.169030 0.315601
O O2 0.451539 0.266069 0.387137
O O3 0.958009 0.244524 0.362965
O O4 0.250000 0.000000 0.376933
O O5 0.750000 0.500000 0.038825
O O6 0.668848 0.780614 0.061577
O O7 0.558854 0.713195 0.989594
O O8 0.934735 0.750000 0.250000
O O9 0.750000 0.000000 0.283410
O O10 0.250000 0.000000 0.255624
O O11 0.750000 0.000000 0.112834
#
# Coordination Sequence:
#
# PCOD8216173 Si02
#       4
#     8   8   8   8
#     4  11  23  43  65  89 126 172 215 253 307 385
#     4  10  21  38  61  88 120 164 212 255 310 382
#     4  11  24  43  67  97 129 167 211 259 315 373
#     4  12  25  40  63  96 129 164 209 269 325 365
#
# _framework density 21.603914
#
# number of rings (size 3 to 8) (size 9 to 14) (size 15 to 20)
#    0.000    1.000    0.000    8.250    0.000    6.000 
#    0.000    0.000    0.000    0.000    0.000    0.000 
#    0.000    0.000    0.000    0.000    0.000    0.000 
#
# Total GULP energy -396936.150886 kJ/mol
# GULP energy per Si atom -12404.254715 kJ/mol
# Density = 2.155474 g / cm^3
# Si number density = 21.603914 Si / 1000 Ang^3
#
#
#
# Elastic Constant Matrix: (Units=GPa)
#
#
# Indices 1 2 3 4 5 6 
#
# 1 89.3965 33.6426 10.3810 0.0000 0.0000 0.0000
# 2 33.6426 150.5393 41.9676 0.0000 0.0000 0.0000
# 3 10.3810 41.9676 76.6239 0.0000 0.0000 0.0000
# 4 0.0000 0.0000 0.0000 34.1051 0.0000 0.0000
# 5 0.0000 0.0000 0.0000 0.0000 29.4027 0.0000
# 6 0.0000 0.0000 0.0000 0.0000 0.0000 38.6315
#
#
#
# Elastic Compliance Matrix: (Units=1/GPa)
#
#
# Indices 1 2 3 4 5 6 
#
# 1 0.012216 -0.002677 -0.000189 0.000000 0.000000 0.000000
# 2 -0.002677 0.008427 -0.004253 0.000000 0.000000 0.000000
# 3 -0.000189 -0.004253 0.015406 0.000000 0.000000 0.000000
# 4 0.000000 0.000000 0.000000 0.029321 0.000000 0.000000
# 5 0.000000 0.000000 0.000000 0.000000 0.034010 0.000000
# 6 0.000000 0.000000 0.000000 0.000000 0.000000 0.025886
#
#
# Mechanical properties :
#
#
# Convention : Reuss Voigt Hill
#
# Bulk Modulus (GPa) = 45.84911 54.28244 50.06578
# Shear Modulus (GPa) = 34.06638 35.79911 34.93274
#
# Velocity S-wave (km/s) = 3.97528 4.07512 4.02551
# Velocity P-wave (km/s) = 6.50685 6.87917 6.69560
#
# Compressibility (1/GPa) = 0.02181067
#
# Stress axis : x y z
#
# Youngs Moduli (GPa) = 81.86254 118.67056 64.91183
#
# Poissons Ratio (x) = 0.31773 0.01224
# Poissons Ratio (y) = 0.21918 0.27605
# Poissons Ratio (z) = 0.01543 0.50466
#
# Static dielectric constant tensor:
#      x y z
#    x 4.070500 0.000000 0.000000 
#    y 0.000000 3.898390 0.000000 
#    z 0.000000 0.000000 3.636270 
# 
# 
# High freq. dielectric constant tensor:
#      x y z
#    x 1.868310 0.000000 0.000000 
#    y 0.000000 1.846740 0.000000 
#    z 0.000000 0.000000 1.839880 
# 
# From -- ./inp_files/43465.got.cif
#   From: 2010.06.25/outbox.cif.g09.slc.cpg/sg52_22_cif.got.tgz:43465.got - 2010.06.26 19:32:48.
