data_PCOD8216078
_publ_section_title
;
Structure prediction by ZEFSAII (Michael W. Deem and Ramdas Pophale) SiO2 
 PCOD8216078
Probable space group: P N N A
;
_chemical_formula_sum "Si O2"
_cell_formula_units_Z 64
_cell_length_a 17.246965
_cell_length_b 19.980634
_cell_length_c 9.127634
_cell_angle_alpha 90.000000
_cell_angle_beta 90.000000
_cell_angle_gamma 90.000000
_cell_volume 3145.431010
_symmetry_space_group_name_H-M "P N N A"
_symmetry_group_IT_number 52
_symmetry_cell_setting 'orthorhombic'
loop_
_space_group_symop_operation_xyz
x,y,z
1/2-x,-y,z
x,1/2-y,1/2-z
1/2-x,1/2+y,1/2-z
-x,-y,-z
1/2+x,y,-z
-x,1/2+y,1/2+z
1/2+x,1/2-y,1/2+z
loop_
_atom_site_type_symbol
_atom_site_label
_atom_site_fract_x
_atom_site_fract_y
_atom_site_fract_z
Si Si1 0.830223 0.028226 0.697828
Si Si2 0.850061 0.235201 0.005754
Si Si3 0.999239 0.198170 0.499492
Si Si4 0.420821 0.835776 0.991367
Si Si5 0.246416 0.636354 0.011843
Si Si6 0.063693 0.859282 0.195589
Si Si7 0.396123 0.612211 0.182842
Si Si8 0.277818 0.822352 0.800560
O O1 0.803581 0.070683 0.554945
O O2 0.883353 0.074686 0.798958
O O3 0.750000 0.000000 0.773777
O O4 0.886852 0.967144 0.658277
O O5 0.798138 0.296077 0.951229
O O6 0.877964 0.196891 0.862019
O O7 0.926185 0.267482 0.083026
O O8 0.804635 0.186275 0.116642
O O9 0.065549 0.255398 0.512474
O O10 0.028029 0.136126 0.403753
O O11 0.974151 0.167585 0.655250
O O12 0.494281 0.873259 0.919005
O O13 0.343023 0.854386 0.903009
O O14 0.406140 0.865435 0.150813
O O15 0.321288 0.646339 0.112265
O O16 0.265996 0.629607 0.839546
O O17 0.307941 0.750000 0.750000
#
# Coordination Sequence:
#
# PCOD8216078 Si02
#       8
#     8   8   8   8   8   8   8   8
#     4  10  24  44  66  87 129 179 233 261 316 400
#     4  10  21  35  68  97 126 161 219 279 342 379
#     4  11  22  39  64  98 132 167 215 268 340 400
#     4  11  23  38  66 101 132 163 213 278 344 385
#     4  10  21  42  64  92 127 172 225 267 335 399
#     4  11  23  42  67  92 132 172 215 274 334 394
#     4  11  25  41  65  90 137 177 219 269 319 405
#     4  10  21  37  63  99 133 160 208 281 339 401
#
# _framework density 20.346975
#
# number of rings (size 3 to 8) (size 9 to 14) (size 15 to 20)
#    0.000    1.500    1.250    4.875    3.500    7.000 
#    0.000    0.000   11.000    0.000    0.000    0.000 
#    0.000    0.000    0.000    0.000    0.000    0.000 
#
# Total GULP energy -793249.836595 kJ/mol
# GULP energy per Si atom -12394.528697 kJ/mol
# Density = 2.030066 g / cm^3
# Si number density = 20.346975 Si / 1000 Ang^3
#
#
#
# Elastic Constant Matrix: (Units=GPa)
#
#
# Indices 1 2 3 4 5 6 
#
# 1 138.8923 71.7413 85.5530 0.0000 0.0000 0.0000
# 2 71.7413 109.3164 62.3203 0.0000 0.0000 0.0000
# 3 85.5530 62.3203 158.4368 0.0000 0.0000 0.0000
# 4 0.0000 0.0000 0.0000 12.1712 0.0000 0.0000
# 5 0.0000 0.0000 0.0000 0.0000 43.9651 0.0000
# 6 0.0000 0.0000 0.0000 0.0000 0.0000 38.6458
#
#
#
# Elastic Compliance Matrix: (Units=1/GPa)
#
#
# Indices 1 2 3 4 5 6 
#
# 1 0.013230 -0.005942 -0.004807 0.000000 0.000000 0.000000
# 2 -0.005942 0.014461 -0.002479 0.000000 0.000000 0.000000
# 3 -0.004807 -0.002479 0.009882 0.000000 0.000000 0.000000
# 4 0.000000 0.000000 0.000000 0.082161 0.000000 0.000000
# 5 0.000000 0.000000 0.000000 0.000000 0.022745 0.000000
# 6 0.000000 0.000000 0.000000 0.000000 0.000000 0.025876
#
#
# Mechanical properties :
#
#
# Convention : Reuss Voigt Hill
#
# Bulk Modulus (GPa) = 89.95403 93.98606 91.97005
# Shear Modulus (GPa) = 25.18668 31.42514 28.30591
#
# Velocity S-wave (km/s) = 3.52214 3.93423 3.73387
# Velocity P-wave (km/s) = 7.80042 8.18104 7.99300
#
# Compressibility (1/GPa) = 0.01111679
#
# Stress axis : x y z
#
# Youngs Moduli (GPa) = 75.58720 69.15167 101.19015
#
# Poissons Ratio (x) = 0.41091 0.48637
# Poissons Ratio (y) = 0.44915 0.25090
# Poissons Ratio (z) = 0.36331 0.17146
#
# Static dielectric constant tensor:
#      x y z
#    x 4.084270 0.000000 0.000000 
#    y 0.000000 3.616320 0.000000 
#    z 0.000000 0.000000 3.650500 
# 
# 
# High freq. dielectric constant tensor:
#      x y z
#    x 1.815300 0.000000 0.000000 
#    y 0.000000 1.773970 0.000000 
#    z 0.000000 0.000000 1.787450 
# 
# From -- ./inp_files/12608.got.cif
#   From: 2010.06.25/outbox.cif.g09.slc.cpg/sg52_7_cif.got.tgz:12608.got - 2010.06.26 19:32:48.
