data_PCOD8216263
_publ_section_title
;
Structure prediction by ZEFSAII (Michael W. Deem and Ramdas Pophale) SiO2 
 PCOD8216263
Probable space group: P N N A
;
_chemical_formula_sum "Si O2"
_cell_formula_units_Z 56
_cell_length_a 21.904024
_cell_length_b 14.054470
_cell_length_c 9.294742
_cell_angle_alpha 90.000000
_cell_angle_beta 90.000000
_cell_angle_gamma 90.000000
_cell_volume 2861.381196
_symmetry_space_group_name_H-M "P N N A"
_symmetry_group_IT_number 52
_symmetry_cell_setting 'orthorhombic'
loop_
_space_group_symop_operation_xyz
x,y,z
1/2-x,-y,z
x,1/2-y,1/2-z
1/2-x,1/2+y,1/2-z
-x,-y,-z
1/2+x,y,-z
-x,1/2+y,1/2+z
1/2+x,1/2-y,1/2+z
loop_
_atom_site_type_symbol
_atom_site_label
_atom_site_fract_x
_atom_site_fract_y
_atom_site_fract_z
Si Si1 0.068272 0.503254 0.455387
Si Si2 0.877931 0.636455 0.750799
Si Si3 0.350033 0.001412 0.774155
Si Si4 0.882021 0.137377 0.734273
Si Si5 0.248553 0.350692 0.673030
Si Si6 0.926749 0.500111 0.989159
Si Si7 0.246359 0.650899 0.329398
O O1 0.083293 0.402101 0.382663
O O2 0.111969 0.526235 0.586048
O O3 0.071452 0.590080 0.344484
O O4 0.000000 0.500000 0.500000
O O5 0.883250 0.750000 0.750000
O O6 0.903544 0.591075 0.897620
O O7 0.808270 0.600170 0.723632
O O8 0.315479 0.901439 0.793713
O O9 0.302394 0.087498 0.755450
O O10 0.397289 0.991801 0.644868
O O11 0.887175 0.250000 0.750000
O O12 0.902043 0.099485 0.577486
O O13 0.814302 0.096971 0.774038
O O14 0.248697 0.250000 0.750000
O O15 0.256271 0.339044 0.501756
O O16 0.000000 0.500000 0.000000
O O17 0.244431 0.750000 0.250000
#
# Coordination Sequence:
#
# PCOD8216263 Si02
#       7
#     8   8   8   8   8   8   8
#     4  11  22  41  64  90 124 171 212 258 306 373
#     4  10  23  42  68  92 123 165 215 259 312 379
#     4  11  24  39  64  95 131 165 202 266 330 362
#     4  10  23  42  68  92 123 165 215 259 312 379
#     4  11  25  41  64 100 134 159 205 265 326 382
#     4  11  26  44  62  93 133 165 221 261 304 376
#     4  10  21  39  69  97 123 160 216 252 316 386
#
# _framework density 19.570965999999999
#
# number of rings (size 3 to 8) (size 9 to 14) (size 15 to 20)
#    0.000    1.429    2.857    1.714    8.000    4.571 
#    0.000    2.857    0.000    0.000    0.000    0.000 
#    0.000    0.000    0.000    0.000    0.000    0.000 
#
# Total GULP energy -694192.341873 kJ/mol
# GULP energy per Si atom -12396.291819 kJ/mol
# Density = 1.952642 g / cm^3
# Si number density = 19.570966 Si / 1000 Ang^3
#
#
#
# Elastic Constant Matrix: (Units=GPa)
#
#
# Indices 1 2 3 4 5 6 
#
# 1 135.7460 34.8159 38.0270 0.0000 0.0000 0.0000
# 2 34.8159 124.2263 26.6513 0.0000 0.0000 0.0000
# 3 38.0270 26.6513 109.0746 0.0000 0.0000 0.0000
# 4 0.0000 0.0000 0.0000 36.3891 0.0000 0.0000
# 5 0.0000 0.0000 0.0000 0.0000 44.0163 0.0000
# 6 0.0000 0.0000 0.0000 0.0000 0.0000 23.6778
#
#
#
# Elastic Compliance Matrix: (Units=1/GPa)
#
#
# Indices 1 2 3 4 5 6 
#
# 1 0.008550 -0.001854 -0.002528 0.000000 0.000000 0.000000
# 2 -0.001854 0.008897 -0.001528 0.000000 0.000000 0.000000
# 3 -0.002528 -0.001528 0.010423 0.000000 0.000000 0.000000
# 4 0.000000 0.000000 0.000000 0.027481 0.000000 0.000000
# 5 0.000000 0.000000 0.000000 0.000000 0.022719 0.000000
# 6 0.000000 0.000000 0.000000 0.000000 0.000000 0.042234
#
#
# Mechanical properties :
#
#
# Convention : Reuss Voigt Hill
#
# Bulk Modulus (GPa) = 62.30093 63.11502 62.70798
# Shear Modulus (GPa) = 36.37087 38.78684 37.57885
#
# Velocity S-wave (km/s) = 4.31560 4.45663 4.38669
# Velocity P-wave (km/s) = 7.53227 7.66821 7.60054
#
# Compressibility (1/GPa) = 0.01605112
#
# Stress axis : x y z
#
# Youngs Moduli (GPa) = 116.95398 112.39551 95.94535
#
# Poissons Ratio (x) = 0.20838 0.24254
# Poissons Ratio (y) = 0.21683 0.14656
# Poissons Ratio (z) = 0.29565 0.17169
#
# Static dielectric constant tensor:
#      x y z
#    x 4.090950 0.000000 0.000000 
#    y 0.000000 3.541200 0.000000 
#    z 0.000000 0.000000 3.817850 
# 
# 
# High freq. dielectric constant tensor:
#      x y z
#    x 1.776910 0.000000 0.000000 
#    y 0.000000 1.761550 0.000000 
#    z 0.000000 0.000000 1.771900 
# 
# From -- ./inp_files/13446.got.cif
#   From: 2010.06.25/outbox.cif.g09.slc.cpg/sg52_7_cif.got.tgz:13446.got - 2010.06.26 19:32:48.
