data_PCOD8216908
_publ_section_title
;
Structure prediction by ZEFSAII (Michael W. Deem and Ramdas Pophale) SiO2 
 PCOD8216908
Probable space group: P N N A
;
_chemical_formula_sum "Si O2"
_cell_formula_units_Z 20
_cell_length_a 5.066482
_cell_length_b 5.170065
_cell_length_c 32.295449
_cell_angle_alpha 90.000000
_cell_angle_beta 90.000000
_cell_angle_gamma 90.000000
_cell_volume 845.948324
_symmetry_space_group_name_H-M "P N N A"
_symmetry_group_IT_number 52
_symmetry_cell_setting 'orthorhombic'
loop_
_space_group_symop_operation_xyz
x,y,z
1/2-x,-y,z
x,1/2-y,1/2-z
1/2-x,1/2+y,1/2-z
-x,-y,-z
1/2+x,y,-z
-x,1/2+y,1/2+z
1/2+x,1/2-y,1/2+z
loop_
_atom_site_type_symbol
_atom_site_label
_atom_site_fract_x
_atom_site_fract_y
_atom_site_fract_z
Si Si1 0.075698 0.247948 0.296870
Si Si2 0.250000 0.500000 0.415192
Si Si3 0.250000 0.000000 0.470965
Si Si4 0.750000 0.000000 0.140936
O O1 0.250000 0.500000 0.305230
O O2 0.964806 0.250000 0.250000
O O3 0.828093 0.259703 0.328552
O O4 0.250000 0.000000 0.306795
O O5 0.291547 0.749188 0.443111
O O6 0.502689 0.430247 0.387534
O O7 0.500000 0.000000 0.500000
#
# Coordination Sequence:
#
# PCOD8216908 Si02
#       4
#     8   4   4   4
#     4  10  24  45  71 102 147 206 258 304 363 430
#     4  12  28  45  78 113 144 188 236 303 376 431
#     4  12  26  52  78 108 144 186 234 290 366 470
#     4  12  26  49  70 113 154 190 248 315 364 425
#
# _framework density 23.642108
#
# number of rings (size 3 to 8) (size 9 to 14) (size 15 to 20)
#    0.000    0.800    2.000    3.600    2.800    9.600 
#    0.000    0.000    0.000    0.000    0.000    0.000 
#    0.000    0.000    0.000    0.000    0.000    0.000 
#
# Total GULP energy -247991.023382 kJ/mol
# GULP energy per Si atom -12399.551169 kJ/mol
# Density = 2.358830 g / cm^3
# Si number density = 23.642108 Si / 1000 Ang^3
#
#
#
# Elastic Constant Matrix: (Units=GPa)
#
#
# Indices 1 2 3 4 5 6 
#
# 1 189.5828 62.6215 110.2026 0.0000 0.0000 0.0000
# 2 62.6215 188.3672 85.0099 0.0000 0.0000 0.0000
# 3 110.2026 85.0099 201.1454 0.0000 0.0000 0.0000
# 4 0.0000 0.0000 0.0000 56.2262 0.0000 0.0000
# 5 0.0000 0.0000 0.0000 0.0000 80.4961 0.0000
# 6 0.0000 0.0000 0.0000 0.0000 0.0000 30.1236
#
#
#
# Elastic Compliance Matrix: (Units=1/GPa)
#
#
# Indices 1 2 3 4 5 6 
#
# 1 0.007842 -0.000826 -0.003948 0.000000 0.000000 0.000000
# 2 -0.000826 0.006647 -0.002357 0.000000 0.000000 0.000000
# 3 -0.003948 -0.002357 0.008130 0.000000 0.000000 0.000000
# 4 0.000000 0.000000 0.000000 0.017785 0.000000 0.000000
# 5 0.000000 0.000000 0.000000 0.000000 0.012423 0.000000
# 6 0.000000 0.000000 0.000000 0.000000 0.000000 0.033197
#
#
# Mechanical properties :
#
#
# Convention : Reuss Voigt Hill
#
# Bulk Modulus (GPa) = 119.62600 121.64039 120.63319
# Shear Modulus (GPa) = 48.51036 54.78660 51.64848
#
# Velocity S-wave (km/s) = 4.53466 4.81909 4.67904
# Velocity P-wave (km/s) = 8.83890 9.08445 8.96252
#
# Compressibility (1/GPa) = 0.00835939
#
# Stress axis : x y z
#
# Youngs Moduli (GPa) = 127.51633 150.44660 122.99477
#
# Poissons Ratio (x) = 0.12419 0.48554
# Poissons Ratio (y) = 0.10527 0.28989
# Poissons Ratio (z) = 0.50339 0.35459
#
# Static dielectric constant tensor:
#      x y z
#    x 4.364930 0.000000 0.000000 
#    y 0.000000 4.424150 0.000000 
#    z 0.000000 0.000000 4.860190 
# 
# 
# High freq. dielectric constant tensor:
#      x y z
#    x 1.949800 0.000000 0.000000 
#    y 0.000000 1.940010 0.000000 
#    z 0.000000 0.000000 1.961930 
# 
# From -- ./inp_files/41313.got.cif
#   From: 2010.06.25/outbox.cif.g09.slc.cpg/sg52_21_cif.got.tgz:41313.got - 2010.06.26 19:32:48.
