data_PCOD8216945
_publ_section_title
;
Structure prediction by ZEFSAII (Michael W. Deem and Ramdas Pophale) SiO2 
 PCOD8216945
Probable space group: P N N A
;
_chemical_formula_sum "Si O2"
_cell_formula_units_Z 40
_cell_length_a 5.382074
_cell_length_b 14.745943
_cell_length_c 21.177914
_cell_angle_alpha 90.000000
_cell_angle_beta 90.000000
_cell_angle_gamma 90.000000
_cell_volume 1680.758808
_symmetry_space_group_name_H-M "P N N A"
_symmetry_group_IT_number 52
_symmetry_cell_setting 'orthorhombic'
loop_
_space_group_symop_operation_xyz
x,y,z
1/2-x,-y,z
x,1/2-y,1/2-z
1/2-x,1/2+y,1/2-z
-x,-y,-z
1/2+x,y,-z
-x,1/2+y,1/2+z
1/2+x,1/2-y,1/2+z
loop_
_atom_site_type_symbol
_atom_site_label
_atom_site_fract_x
_atom_site_fract_y
_atom_site_fract_z
Si Si1 0.300526 0.694247 0.342609
Si Si2 0.745467 0.606511 0.529472
Si Si3 0.901582 0.750000 0.250000
Si Si4 0.402157 0.133573 0.649898
Si Si5 0.250000 0.500000 0.956684
Si Si6 0.500295 0.547420 0.268617
O O1 0.215359 0.629281 0.398099
O O2 0.073415 0.690100 0.294831
O O3 0.388290 0.792362 0.369383
O O4 0.523074 0.647299 0.302192
O O5 0.750000 0.500000 0.517430
O O6 0.504573 0.649807 0.495048
O O7 0.774386 0.820152 0.298188
O O8 0.523028 0.053015 0.691855
O O9 0.268239 0.090248 0.588008
O O10 0.500000 0.500000 0.000000
O O11 0.750000 0.500000 0.291603
O O12 0.250000 0.500000 0.294496
#
# Coordination Sequence:
#
# PCOD8216945 Si02
#       6
#     8   8   4   8   4   8
#     4  12  26  43  76 114 151 196 251 319 398 463
#     4  10  25  47  69 101 144 193 244 299 364 464
#     4  12  24  48  74 120 156 190 254 336 402 456
#     4  12  27  47  77 109 157 203 263 328 388 466
#     4  12  34  56  80 112 162 228 280 318 384 484
#     4  12  25  43  74 112 153 195 242 323 402 465
#
# _framework density 23.798776
#
# number of rings (size 3 to 8) (size 9 to 14) (size 15 to 20)
#    0.000    0.400    5.000    1.800    7.000    4.000 
#    0.000    0.000    0.000    0.000    0.000    0.000 
#    0.000    0.000    0.000    0.000    0.000    0.000 
#
# Total GULP energy -495620.495788 kJ/mol
# GULP energy per Si atom -12390.512395 kJ/mol
# Density = 2.374461 g / cm^3
# Si number density = 23.798776 Si / 1000 Ang^3
#
#
#
# Elastic Constant Matrix: (Units=GPa)
#
#
# Indices 1 2 3 4 5 6 
#
# 1 163.6439 42.5556 62.8451 0.0000 0.0000 0.0000
# 2 42.5556 64.1175 27.9816 0.0000 0.0000 0.0000
# 3 62.8451 27.9816 150.0491 0.0000 0.0000 0.0000
# 4 0.0000 0.0000 0.0000 49.7651 0.0000 0.0000
# 5 0.0000 0.0000 0.0000 0.0000-1191.5592 0.0000
# 6 0.0000 0.0000 0.0000 0.0000 0.0000 37.0086
#
#
#
# Elastic Compliance Matrix: (Units=1/GPa)
#
#
# Indices 1 2 3 4 5 6 
#
# 1 0.008252 -0.004320 -0.002651 0.000000 0.000000 0.000000
# 2 -0.004320 0.019240 -0.001778 0.000000 0.000000 0.000000
# 3 -0.002651 -0.001778 0.008106 0.000000 0.000000 0.000000
# 4 0.000000 0.000000 0.000000 0.020094 0.000000 0.000000
# 5 0.000000 0.000000 0.000000 0.000000 -0.000839 0.000000
# 6 0.000000 0.000000 0.000000 0.000000 0.000000 0.027021
#
#
# Mechanical properties :
#
#
# Convention : Reuss Voigt Hill
#
# Bulk Modulus (GPa) = 55.24956 71.61945 63.43451
# Shear Modulus (GPa) = 47.43540 -204.66188 -78.61324
#
# Velocity S-wave (km/s) = 4.46935 -9.28351 -5.75362
# Velocity P-wave (km/s) = 7.06394 9.20610 4.17451
#
# Compressibility (1/GPa) = 0.01809969
#
# Stress axis : x y z
#
# Youngs Moduli (GPa) = 121.17857 51.97513 123.36095
#
# Poissons Ratio (x) = 0.22455 0.32698
# Poissons Ratio (y) = 0.52354 0.21939
# Poissons Ratio (z) = 0.32120 0.09243
#
# Static dielectric constant tensor:
#      x y z
#    x 4.634670 0.000000 0.000000 
#    y 0.000000 4.375430 0.000000 
#    z 0.000000 0.000000 4.251160 
# 
# 
# High freq. dielectric constant tensor:
#      x y z
#    x 1.951390 0.000000 0.000000 
#    y 0.000000 1.945040 0.000000 
#    z 0.000000 0.000000 1.940060 
# 
# From -- ./inp_files/30163.got.cif
#   From: 2010.06.25/outbox.cif.g09.slc.cpg/sg52_16_cif.got.tgz:30163.got - 2010.06.26 19:32:48.
