data_PCOD8216949
_publ_section_title
;
Structure prediction by ZEFSAII (Michael W. Deem and Ramdas Pophale) SiO2 
 PCOD8216949
Probable space group: P N N A
;
_chemical_formula_sum "Si O2"
_cell_formula_units_Z 40
_cell_length_a 15.271758
_cell_length_b 7.855772
_cell_length_c 13.000864
_cell_angle_alpha 90.000000
_cell_angle_beta 90.000000
_cell_angle_gamma 90.000000
_cell_volume 1559.732491
_symmetry_space_group_name_H-M "P N N A"
_symmetry_group_IT_number 52
_symmetry_cell_setting 'orthorhombic'
loop_
_space_group_symop_operation_xyz
x,y,z
1/2-x,-y,z
x,1/2-y,1/2-z
1/2-x,1/2+y,1/2-z
-x,-y,-z
1/2+x,y,-z
-x,1/2+y,1/2+z
1/2+x,1/2-y,1/2+z
loop_
_atom_site_type_symbol
_atom_site_label
_atom_site_fract_x
_atom_site_fract_y
_atom_site_fract_z
Si Si1 0.250000 0.000000 0.687212
Si Si2 0.333592 0.883729 0.338353
Si Si3 0.081763 0.893897 0.959109
Si Si4 0.850280 0.743434 0.444485
Si Si5 0.039550 0.824536 0.363913
Si Si6 0.613489 0.750000 0.250000
O O1 0.223836 0.170301 0.625022
O O2 0.332392 0.072240 0.749104
O O3 0.349264 0.750000 0.250000
O O4 0.319091 0.780848 0.441553
O O5 0.250000 0.000000 0.312118
O O6 0.423624 0.987646 0.349837
O O7 0.059473 0.778707 0.857027
O O8 0.153822 0.038146 0.932137
O O9 0.106029 0.773496 0.056731
O O10 0.000000 0.000000 0.000000
O O11 0.943711 0.826817 0.415008
O O12 0.035148 0.750000 0.250000
#
# Coordination Sequence:
#
# PCOD8216949 Si02
#       6
#     4   8   8   8   8   4
#     4  12  26  46  76 114 150 204 250 330 400 460
#     4  12  26  49  77 112 154 207 259 318 395 479
#     4  10  25  48  75 112 150 205 255 327 398 466
#     4  11  25  48  74 111 156 194 264 322 391 471
#     4  11  25  49  76 112 154 200 264 327 392 475
#     4  12  26  46  78 110 162 194 264 322 404 478
#
# _framework density 25.645423000000001
#
# number of rings (size 3 to 8) (size 9 to 14) (size 15 to 20)
#    0.000    0.800    1.000    4.800    7.000    1.600 
#    9.000    0.000    0.000    0.000    0.000    0.000 
#    0.000    0.000    0.000    0.000    0.000    0.000 
#
# Total GULP energy -495708.599987 kJ/mol
# GULP energy per Si atom -12392.715000 kJ/mol
# Density = 2.558705 g / cm^3
# Si number density = 25.645423 Si / 1000 Ang^3
#
#
#
# Elastic Constant Matrix: (Units=GPa)
#
#
# Indices 1 2 3 4 5 6 
#
# 1 61.5926 23.2907 33.6479 0.0000 0.0000 0.0000
# 2 23.2907 130.4240 65.1769 0.0000 0.0000 0.0000
# 3 33.6479 65.1769 169.2314 0.0000 0.0000 0.0000
# 4 0.0000 0.0000 0.0000 55.4412 0.0000 0.0000
# 5 0.0000 0.0000 0.0000 0.0000 28.2382 0.0000
# 6 0.0000 0.0000 0.0000 0.0000 0.0000 48.5201
#
#
#
# Elastic Compliance Matrix: (Units=1/GPa)
#
#
# Indices 1 2 3 4 5 6 
#
# 1 0.018557 -0.001820 -0.002989 0.000000 0.000000 0.000000
# 2 -0.001820 0.009673 -0.003364 0.000000 0.000000 0.000000
# 3 -0.002989 -0.003364 0.007799 0.000000 0.000000 0.000000
# 4 0.000000 0.000000 0.000000 0.018037 0.000000 0.000000
# 5 0.000000 0.000000 0.000000 0.000000 0.035413 0.000000
# 6 0.000000 0.000000 0.000000 0.000000 0.000000 0.020610
#
#
# Mechanical properties :
#
#
# Convention : Reuss Voigt Hill
#
# Bulk Modulus (GPa) = 50.80324 67.27545 59.03934
# Shear Modulus (GPa) = 37.59544 42.38208 39.98876
#
# Velocity S-wave (km/s) = 3.83295 4.06965 3.95307
# Velocity P-wave (km/s) = 6.28025 6.95504 6.62624
#
# Compressibility (1/GPa) = 0.01968378
#
# Stress axis : x y z
#
# Youngs Moduli (GPa) = 53.88897 103.37789 128.22659
#
# Poissons Ratio (x) = 0.18818 0.38321
# Poissons Ratio (y) = 0.09810 0.43130
# Poissons Ratio (z) = 0.16105 0.34772
#
# Static dielectric constant tensor:
#      x y z
#    x 4.854410 0.000000 0.000000 
#    y 0.000000 5.350520 0.000000 
#    z 0.000000 0.000000 5.026520 
# 
# 
# High freq. dielectric constant tensor:
#      x y z
#    x 2.007340 0.000000 0.000000 
#    y 0.000000 2.042060 0.000000 
#    z 0.000000 0.000000 2.047890 
# 
# From -- ./inp_files/20346.got.cif
#   From: 2010.06.25/outbox.cif.g09.slc.cpg/sg52_11_cif.got.tgz:20346.got - 2010.06.26 19:32:48.
