data_PCOD8216893
_publ_section_title
;
Structure prediction by ZEFSAII (Michael W. Deem and Ramdas Pophale) SiO2 
 PCOD8216893
Probable space group: P N N A
;
_chemical_formula_sum "Si O2"
_cell_formula_units_Z 24
_cell_length_a 15.485250
_cell_length_b 9.031439
_cell_length_c 7.554780
_cell_angle_alpha 90.000000
_cell_angle_beta 90.000000
_cell_angle_gamma 90.000000
_cell_volume 1056.566888
_symmetry_space_group_name_H-M "P N N A"
_symmetry_group_IT_number 52
_symmetry_cell_setting 'orthorhombic'
loop_
_space_group_symop_operation_xyz
x,y,z
1/2-x,-y,z
x,1/2-y,1/2-z
1/2-x,1/2+y,1/2-z
-x,-y,-z
1/2+x,y,-z
-x,1/2+y,1/2+z
1/2+x,1/2-y,1/2+z
loop_
_atom_site_type_symbol
_atom_site_label
_atom_site_fract_x
_atom_site_fract_y
_atom_site_fract_z
Si Si1 0.615111 0.096472 0.903443
Si Si2 0.919725 0.409839 0.278575
Si Si3 0.838337 0.930768 0.528791
O O1 0.515450 0.118538 0.851696
O O2 0.655769 0.015302 0.732440
O O3 0.656641 0.253003 0.960168
O O4 0.633514 0.991577 0.068610
O O5 0.875926 0.250000 0.250000
O O6 0.914962 0.506804 0.097784
O O7 0.750000 0.000000 0.449802
#
# Coordination Sequence:
#
# PCOD8216893 Si02
#       3
#     8   8   8
#     4  10  24  44  67  99 138 176 232 275 339 414
#     4  11  23  41  70 100 134 179 227 280 336 408
#     4  11  24  43  68  98 140 180 226 288 342 399
#
# _framework density 22.71508
#
# number of rings (size 3 to 8) (size 9 to 14) (size 15 to 20)
#    0.000    1.333    3.333    2.000    0.000   10.667 
#    0.000    0.000    0.000    0.000    0.000    0.000 
#    0.000    0.000    0.000    0.000    0.000    0.000 
#
# Total GULP energy -297409.028896 kJ/mol
# GULP energy per Si atom -12392.042871 kJ/mol
# Density = 2.266338 g / cm^3
# Si number density = 22.715080 Si / 1000 Ang^3
#
#
#
# Elastic Constant Matrix: (Units=GPa)
#
#
# Indices 1 2 3 4 5 6 
#
# 1 64.3439 38.5750 26.4739 0.0000 0.0000 0.0000
# 2 38.5750 141.1451 104.9485 0.0000 0.0000 0.0000
# 3 26.4739 104.9485 168.0987 0.0000 0.0000 0.0000
# 4 0.0000 0.0000 0.0000 33.8825 0.0000 0.0000
# 5 0.0000 0.0000 0.0000 0.0000 22.7021 0.0000
# 6 0.0000 0.0000 0.0000 0.0000 0.0000 34.8414
#
#
#
# Elastic Compliance Matrix: (Units=1/GPa)
#
#
# Indices 1 2 3 4 5 6 
#
# 1 0.018606 -0.005424 0.000456 0.000000 0.000000 0.000000
# 2 -0.005424 0.014805 -0.008389 0.000000 0.000000 0.000000
# 3 0.000456 -0.008389 0.011114 0.000000 0.000000 0.000000
# 4 0.000000 0.000000 0.000000 0.029514 0.000000 0.000000
# 5 0.000000 0.000000 0.000000 0.000000 0.044049 0.000000
# 6 0.000000 0.000000 0.000000 0.000000 0.000000 0.028702
#
#
# Mechanical properties :
#
#
# Convention : Reuss Voigt Hill
#
# Bulk Modulus (GPa) = 56.14380 79.28695 67.71537
# Shear Modulus (GPa) = 27.86454 31.85786 29.86120
#
# Velocity S-wave (km/s) = 3.50622 3.74906 3.62967
# Velocity P-wave (km/s) = 6.41574 7.32948 6.88778
#
# Compressibility (1/GPa) = 0.01781141
#
# Stress axis : x y z
#
# Youngs Moduli (GPa) = 53.74716 67.54551 89.97349
#
# Poissons Ratio (x) = 0.36638 -0.04105
# Poissons Ratio (y) = 0.29153 0.75477
# Poissons Ratio (z) = -0.02452 0.56663
#
# Static dielectric constant tensor:
#      x y z
#    x 3.781370 0.000000 0.000000 
#    y 0.000000 4.083170 0.000000 
#    z 0.000000 0.000000 4.575280 
# 
# 
# High freq. dielectric constant tensor:
#      x y z
#    x 1.875380 0.000000 0.000000 
#    y 0.000000 1.895590 0.000000 
#    z 0.000000 0.000000 1.917160 
# 
# From -- ./inp_files/11263.got.cif
#   From: 2010.06.25/outbox.cif.g09.slc.cpg/sg52_6_cif.got.tgz:11263.got - 2010.06.26 19:32:48.
