data_PCOD8216748
_publ_section_title
;
Structure prediction by ZEFSAII (Michael W. Deem and Ramdas Pophale) SiO2 
 PCOD8216748
Probable space group: P N N A
;
_chemical_formula_sum "Si O2"
_cell_formula_units_Z 56
_cell_length_a 15.021543
_cell_length_b 15.084676
_cell_length_c 11.309764
_cell_angle_alpha 90.000000
_cell_angle_beta 90.000000
_cell_angle_gamma 90.000000
_cell_volume 2562.737208
_symmetry_space_group_name_H-M "P N N A"
_symmetry_group_IT_number 52
_symmetry_cell_setting 'orthorhombic'
loop_
_space_group_symop_operation_xyz
x,y,z
1/2-x,-y,z
x,1/2-y,1/2-z
1/2-x,1/2+y,1/2-z
-x,-y,-z
1/2+x,y,-z
-x,1/2+y,1/2+z
1/2+x,1/2-y,1/2+z
loop_
_atom_site_type_symbol
_atom_site_label
_atom_site_fract_x
_atom_site_fract_y
_atom_site_fract_z
Si Si1 0.198537 0.911611 0.061398
Si Si2 0.021779 0.085220 0.574292
Si Si3 0.392104 0.179719 0.590092
Si Si4 0.041523 0.506097 0.313165
Si Si5 0.779692 0.898839 0.500955
Si Si6 0.326481 0.848586 0.244065
Si Si7 0.600200 0.623239 0.346368
O O1 0.098167 0.924185 0.110267
O O2 0.255177 0.840351 0.136045
O O3 0.250000 0.000000 0.086237
O O4 0.192302 0.890043 0.921107
O O5 0.123375 0.116970 0.556588
O O6 0.954421 0.157147 0.520726
O O7 0.000837 0.066668 0.710576
O O8 0.000000 0.000000 0.500000
O O9 0.288406 0.171852 0.555856
O O10 0.427112 0.276980 0.622465
O O11 0.396563 0.114239 0.704177
O O12 0.097027 0.421550 0.266880
O O13 0.964499 0.456871 0.389318
O O14 0.774607 0.877529 0.639110
O O15 0.750000 0.000000 0.478397
O O16 0.369785 0.750000 0.250000
#
# Coordination Sequence:
#
# PCOD8216748 Si02
#       7
#     8   8   8   8   8   8   8
#     4  10  23  41  59  88 122 166 212 248 302 385
#     4  12  21  39  64  97 121 157 210 263 312 372
#     4  11  24  39  62  94 126 157 209 260 317 372
#     4  11  22  39  64  89 121 163 212 255 308 383
#     4  12  21  37  64  91 121 159 201 261 309 362
#     4  11  22  35  61  91 123 157 205 259 314 364
#     4  11  23  41  60  86 127 166 201 258 316 372
#
# _framework density 21.851635999999999
#
# number of rings (size 3 to 8) (size 9 to 14) (size 15 to 20)
#    0.000    0.857    4.286    3.429    4.000    1.714 
#    0.000    0.000    3.143    0.000    0.000    0.000 
#    0.000    0.000    0.000    0.000    0.000    0.000 
#
# Total GULP energy -693849.189306 kJ/mol
# GULP energy per Si atom -12390.164095 kJ/mol
# Density = 2.180190 g / cm^3
# Si number density = 21.851636 Si / 1000 Ang^3
#
#
#
# Elastic Constant Matrix: (Units=GPa)
#
#
# Indices 1 2 3 4 5 6 
#
# 1 129.1720 13.6379 44.0004 0.0000 0.0000 0.0000
# 2 13.6379 45.2817 14.7436 0.0000 0.0000 0.0000
# 3 44.0004 14.7436 90.5950 0.0000 0.0000 0.0000
# 4 0.0000 0.0000 0.0000 23.3903 0.0000 0.0000
# 5 0.0000 0.0000 0.0000 0.0000 38.0353 0.0000
# 6 0.0000 0.0000 0.0000 0.0000 0.0000 17.5893
#
#
#
# Elastic Compliance Matrix: (Units=1/GPa)
#
#
# Indices 1 2 3 4 5 6 
#
# 1 0.009361 -0.001414 -0.004316 0.000000 0.000000 0.000000
# 2 -0.001414 0.023533 -0.003143 0.000000 0.000000 0.000000
# 3 -0.004316 -0.003143 0.013646 0.000000 0.000000 0.000000
# 4 0.000000 0.000000 0.000000 0.042753 0.000000 0.000000
# 5 0.000000 0.000000 0.000000 0.000000 0.026291 0.000000
# 6 0.000000 0.000000 0.000000 0.000000 0.000000 0.056853
#
#
# Mechanical properties :
#
#
# Convention : Reuss Voigt Hill
#
# Bulk Modulus (GPa) = 34.73011 45.53472 40.13242
# Shear Modulus (GPa) = 25.02722 28.64743 26.83732
#
# Velocity S-wave (km/s) = 3.38794 3.62470 3.50831
# Velocity P-wave (km/s) = 5.58858 6.19688 5.90057
#
# Compressibility (1/GPa) = 0.02879346
#
# Stress axis : x y z
#
# Youngs Moduli (GPa) = 106.82341 42.49309 73.28103
#
# Poissons Ratio (x) = 0.06008 0.31632
# Poissons Ratio (y) = 0.15104 0.23033
# Poissons Ratio (z) = 0.46110 0.13356
#
# Static dielectric constant tensor:
#      x y z
#    x 14.578000 0.000000 0.000000 
#    y 0.000000 3.801860 0.000000 
#    z 0.000000 0.000000 4.444610 
# 
# 
# High freq. dielectric constant tensor:
#      x y z
#    x 1.856850 0.000000 0.000000 
#    y 0.000000 1.851140 0.000000 
#    z 0.000000 0.000000 1.862550 
# 
# From -- ./inp_files/19645.got.cif
#   From: 2010.06.25/outbox.cif.g09.slc.cpg/sg52_10_cif.got.tgz:19645.got - 2010.06.26 19:32:48.
