data_PCOD8216342
_publ_section_title
;
Structure prediction by ZEFSAII (Michael W. Deem and Ramdas Pophale) SiO2 
 PCOD8216342
Probable space group: P N N A
;
_chemical_formula_sum "Si O2"
_cell_formula_units_Z 44
_cell_length_a 13.551893
_cell_length_b 10.023770
_cell_length_c 14.956349
_cell_angle_alpha 90.000000
_cell_angle_beta 90.000000
_cell_angle_gamma 90.000000
_cell_volume 2031.686279
_symmetry_space_group_name_H-M "P N N A"
_symmetry_group_IT_number 52
_symmetry_cell_setting 'orthorhombic'
loop_
_space_group_symop_operation_xyz
x,y,z
1/2-x,-y,z
x,1/2-y,1/2-z
1/2-x,1/2+y,1/2-z
-x,-y,-z
1/2+x,y,-z
-x,1/2+y,1/2+z
1/2+x,1/2-y,1/2+z
loop_
_atom_site_type_symbol
_atom_site_label
_atom_site_fract_x
_atom_site_fract_y
_atom_site_fract_z
Si Si1 0.225557 0.750000 0.750000
Si Si2 0.548276 0.240024 0.925409
Si Si3 0.322496 0.750000 0.250000
Si Si4 0.750000 0.500000 0.820973
Si Si5 0.535037 0.992245 0.635166
Si Si6 0.893657 0.758545 0.118522
Si Si7 0.563655 0.951657 0.188302
O O1 0.291622 0.709010 0.837045
O O2 0.161126 0.880036 0.773143
O O3 0.619985 0.249591 0.842487
O O4 0.497347 0.389246 0.932884
O O5 0.468791 0.124420 0.902922
O O6 0.611894 0.205967 0.013605
O O7 0.252829 0.622526 0.247210
O O8 0.652425 0.523560 0.882170
O O9 0.520876 0.054277 0.735660
O O10 0.477886 0.853599 0.627379
O O11 0.918792 0.893079 0.171232
#
# Coordination Sequence:
#
# PCOD8216342 Si02
#       7
#     4   8   4   4   8   8   8
#     4  12  25  47  72 102 154 194 243 295 378 428
#     4  11  22  47  69 100 142 185 232 300 366 424
#     4  10  21  41  66  90 138 176 223 279 362 416
#     4  10  22  38  70  92 124 188 222 280 358 428
#     4  11  22  46  69  96 142 186 234 292 375 430
#     4  12  27  41  73 111 135 183 254 298 348 447
#     4  12  22  47  73  98 144 194 232 301 365 432
#
# _framework density 21.656887000000001
#
# number of rings (size 3 to 8) (size 9 to 14) (size 15 to 20)
#    0.000    0.727    7.273    1.636    2.545    0.000 
#    9.818    3.636    0.000    0.000    0.000    0.000 
#    0.000    0.000    0.000    0.000    0.000    0.000 
#
# Total GULP energy -545197.679579 kJ/mol
# GULP energy per Si atom -12390.856354 kJ/mol
# Density = 2.160760 g / cm^3
# Si number density = 21.656887 Si / 1000 Ang^3
#
#
#
# Elastic Constant Matrix: (Units=GPa)
#
#
# Indices 1 2 3 4 5 6 
#
# 1 109.1434 30.4791 34.8441 0.0000 0.0000 0.0000
# 2 30.4791 124.9505 -1.9445 0.0000 0.0000 0.0000
# 3 34.8441 -1.9445 113.1449 0.0000 0.0000 0.0000
# 4 0.0000 0.0000 0.0000 27.7307 0.0000 0.0000
# 5 0.0000 0.0000 0.0000 0.0000 24.0086 0.0000
# 6 0.0000 0.0000 0.0000 0.0000 0.0000 33.5663
#
#
#
# Elastic Compliance Matrix: (Units=1/GPa)
#
#
# Indices 1 2 3 4 5 6 
#
# 1 0.011028 -0.002744 -0.003443 0.000000 0.000000 0.000000
# 2 -0.002744 0.008688 0.000994 0.000000 0.000000 0.000000
# 3 -0.003443 0.000994 0.009916 0.000000 0.000000 0.000000
# 4 0.000000 0.000000 0.000000 0.036061 0.000000 0.000000
# 5 0.000000 0.000000 0.000000 0.000000 0.041652 0.000000
# 6 0.000000 0.000000 0.000000 0.000000 0.000000 0.029792
#
#
# Mechanical properties :
#
#
# Convention : Reuss Voigt Hill
#
# Bulk Modulus (GPa) = 51.95862 52.66625 52.31243
# Shear Modulus (GPa) = 32.48092 35.98511 34.23302
#
# Velocity S-wave (km/s) = 3.87692 4.08070 3.98011
# Velocity P-wave (km/s) = 6.63962 6.82452 6.73270
#
# Compressibility (1/GPa) = 0.01924609
#
# Stress axis : x y z
#
# Youngs Moduli (GPa) = 90.68102 115.10298 100.85030
#
# Poissons Ratio (x) = 0.31579 0.34725
# Poissons Ratio (y) = 0.24879 -0.10027
# Poissons Ratio (z) = 0.31224 -0.11444
#
# Static dielectric constant tensor:
#      x y z
#    x 3.770890 0.000000 0.000000 
#    y 0.000000 4.836350 0.000000 
#    z 0.000000 0.000000 4.058650 
# 
# 
# High freq. dielectric constant tensor:
#      x y z
#    x 1.831810 0.000000 0.000000 
#    y 0.000000 1.880960 0.000000 
#    z 0.000000 0.000000 1.840910 
# 
# From -- ./inp_files/27131.got.cif
#   From: 2010.06.25/outbox.cif.g09.slc.cpg/sg52_14_cif.got.tgz:27131.got - 2010.06.26 19:32:48.
