data_PCOD8216360
_publ_section_title
;
Structure prediction by ZEFSAII (Michael W. Deem and Ramdas Pophale) SiO2 
 PCOD8216360
Probable space group: P N N A
;
_chemical_formula_sum "Si O2"
_cell_formula_units_Z 48
_cell_length_a 21.274980
_cell_length_b 11.509939
_cell_length_c 10.097538
_cell_angle_alpha 90.000000
_cell_angle_beta 90.000000
_cell_angle_gamma 90.000000
_cell_volume 2472.621713
_symmetry_space_group_name_H-M "P N N A"
_symmetry_group_IT_number 52
_symmetry_cell_setting 'orthorhombic'
loop_
_space_group_symop_operation_xyz
x,y,z
1/2-x,-y,z
x,1/2-y,1/2-z
1/2-x,1/2+y,1/2-z
-x,-y,-z
1/2+x,y,-z
-x,1/2+y,1/2+z
1/2+x,1/2-y,1/2+z
loop_
_atom_site_type_symbol
_atom_site_label
_atom_site_fract_x
_atom_site_fract_y
_atom_site_fract_z
Si Si1 0.600879 0.759338 0.096685
Si Si2 0.511102 0.250000 0.250000
Si Si3 0.626495 0.068098 0.774222
Si Si4 0.944791 0.433877 0.927712
Si Si5 0.027319 0.128604 0.011287
Si Si6 0.299475 0.101080 0.057768
Si Si7 0.226529 0.250000 0.250000
O O1 0.612134 0.750000 0.250000
O O2 0.529629 0.796505 0.067677
O O3 0.604211 0.632757 0.025565
O O4 0.654803 0.851253 0.056078
O O5 0.467434 0.346734 0.185607
O O6 0.549812 0.316185 0.368480
O O7 0.586088 0.134169 0.888097
O O8 0.682878 0.142334 0.714240
O O9 0.587424 0.040976 0.644765
O O10 0.654961 0.950069 0.831308
O O11 0.000000 0.500000 0.000000
O O12 0.000000 0.000000 0.000000
O O13 0.266378 0.213964 0.120918
O O14 0.250000 0.000000 0.008194
#
# Coordination Sequence:
#
# PCOD8216360 Si02
#       7
#     8   4   8   8   8   8   4
#     4  11  23  38  61  89 126 163 207 261 316 394
#     4  10  22  35  54  88 134 165 194 242 308 410
#     4  11  21  38  64  89 125 157 203 269 307 377
#     4  11  22  35  57  91 128 161 199 244 325 391
#     4  11  20  37  63  93 128 163 201 252 340 380
#     4  10  21  42  62  84 113 166 216 252 311 359
#     4  10  24  37  66  88 116 157 226 262 292 360
#
# _framework density 19.412593999999999
#
# number of rings (size 3 to 8) (size 9 to 14) (size 15 to 20)
#    0.000    1.333    3.333    3.000    5.833    0.667 
#    0.000    1.667    7.333    0.000    0.000    0.000 
#    0.000    0.000    0.000    0.000    0.000    0.000 
#
# Total GULP energy -594803.767219 kJ/mol
# GULP energy per Si atom -12391.745150 kJ/mol
# Density = 1.936841 g / cm^3
# Si number density = 19.412594 Si / 1000 Ang^3
#
#
#
# Elastic Constant Matrix: (Units=GPa)
#
#
# Indices 1 2 3 4 5 6 
#
# 1 100.5292 36.6097 57.0419 0.0000 0.0000 0.0000
# 2 36.6097 85.8300 62.2214 0.0000 0.0000 0.0000
# 3 57.0419 62.2214 134.8730 0.0000 0.0000 0.0000
# 4 0.0000 0.0000 0.0000 40.7680 0.0000 0.0000
# 5 0.0000 0.0000 0.0000 0.0000 15.8864 0.0000
# 6 0.0000 0.0000 0.0000 0.0000 0.0000 20.2236
#
#
#
# Elastic Compliance Matrix: (Units=1/GPa)
#
#
# Indices 1 2 3 4 5 6 
#
# 1 0.013414 -0.002417 -0.004558 0.000000 0.000000 0.000000
# 2 -0.002417 0.017941 -0.007254 0.000000 0.000000 0.000000
# 3 -0.004558 -0.007254 0.012689 0.000000 0.000000 0.000000
# 4 0.000000 0.000000 0.000000 0.024529 0.000000 0.000000
# 5 0.000000 0.000000 0.000000 0.000000 0.062947 0.000000
# 6 0.000000 0.000000 0.000000 0.000000 0.000000 0.049447
#
#
# Mechanical properties :
#
#
# Convention : Reuss Voigt Hill
#
# Bulk Modulus (GPa) = 64.16703 70.33092 67.24897
# Shear Modulus (GPa) = 23.29689 26.39956 24.84822
#
# Velocity S-wave (km/s) = 3.46799 3.69171 3.58160
# Velocity P-wave (km/s) = 7.01156 7.38104 7.19868
#
# Compressibility (1/GPa) = 0.01558433
#
# Stress axis : x y z
#
# Youngs Moduli (GPa) = 74.54935 55.73817 78.80966
#
# Poissons Ratio (x) = 0.13474 0.35921
# Poissons Ratio (y) = 0.18021 0.57172
# Poissons Ratio (z) = 0.33979 0.40435
#
# Static dielectric constant tensor:
#      x y z
#    x 3.625160 0.000000 0.000000 
#    y 0.000000 7.975330 0.000000 
#    z 0.000000 0.000000 3.804970 
# 
# 
# High freq. dielectric constant tensor:
#      x y z
#    x 1.744070 0.000000 0.000000 
#    y 0.000000 1.772810 0.000000 
#    z 0.000000 0.000000 1.747510 
# 
# From -- ./inp_files/14345.got.cif
#   From: 2010.06.25/outbox.cif.g09.slc.cpg/sg52_8_cif.got.tgz:14345.got - 2010.06.26 19:32:48.
