data_PCOD8216519
_publ_section_title
;
Structure prediction by ZEFSAII (Michael W. Deem and Ramdas Pophale) SiO2 
 PCOD8216519
Probable space group: P N N A
;
_chemical_formula_sum "Si O2"
_cell_formula_units_Z 64
_cell_length_a 9.357211
_cell_length_b 13.890402
_cell_length_c 24.028101
_cell_angle_alpha 90.000000
_cell_angle_beta 90.000000
_cell_angle_gamma 90.000000
_cell_volume 3123.062577
_symmetry_space_group_name_H-M "P N N A"
_symmetry_group_IT_number 52
_symmetry_cell_setting 'orthorhombic'
loop_
_space_group_symop_operation_xyz
x,y,z
1/2-x,-y,z
x,1/2-y,1/2-z
1/2-x,1/2+y,1/2-z
-x,-y,-z
1/2+x,y,-z
-x,1/2+y,1/2+z
1/2+x,1/2-y,1/2+z
loop_
_atom_site_type_symbol
_atom_site_label
_atom_site_fract_x
_atom_site_fract_y
_atom_site_fract_z
Si Si1 0.383678 0.676341 0.300923
Si Si2 0.251717 0.794345 0.616780
Si Si3 0.684819 0.604676 0.327498
Si Si4 0.661956 0.406388 0.218936
Si Si5 0.754839 0.313487 0.877325
Si Si6 0.499946 0.081987 0.576520
Si Si7 0.005142 0.363148 0.949829
Si Si8 0.160361 0.586703 0.227485
O O1 0.424328 0.750000 0.250000
O O2 0.515634 0.603908 0.312821
O O3 0.347761 0.723839 0.361460
O O4 0.242301 0.616913 0.283909
O O5 0.211771 0.682104 0.623463
O O6 0.344562 0.829419 0.669492
O O7 0.112753 0.862235 0.614854
O O8 0.347283 0.806293 0.561246
O O9 0.750000 0.500000 0.344622
O O10 0.765104 0.641980 0.272453
O O11 0.750000 0.500000 0.200102
O O12 0.503815 0.439637 0.238051
O O13 0.657487 0.400014 0.900283
O O14 0.875929 0.299108 0.924448
O O15 0.834335 0.330878 0.818892
O O16 0.480659 0.123534 0.514724
O O17 0.478367 0.967362 0.579978
O O18 0.250000 0.500000 0.200772
#
# Coordination Sequence:
#
# PCOD8216519 Si02
#       8
#     8   8   8   8   8   8   8   8
#     4  10  22  40  59  86 123 165 204 249 307 366
#     4  12  23  38  64  89 122 163 204 250 306 366
#     4  11  24  41  61  86 121 162 211 257 301 356
#     4  11  23  36  60  94 128 161 202 247 302 369
#     4  11  22  37  60  85 124 163 196 238 302 366
#     4  11  23  40  61  90 127 160 195 246 306 371
#     4  11  23  39  61  95 124 155 200 248 301 376
#     4  11  22  35  58  88 125 162 199 242 295 364
#
# _framework density 20.492705000000001
#
# number of rings (size 3 to 8) (size 9 to 14) (size 15 to 20)
#    0.000    1.000    2.500    5.625    5.250    3.000 
#    0.000    0.000    0.000    0.750    0.000    0.000 
#    0.000    0.000    0.000    0.000    0.000    0.000 
#
# Total GULP energy -793303.723987 kJ/mol
# GULP energy per Si atom -12395.370687 kJ/mol
# Density = 2.044606 g / cm^3
# Si number density = 20.492705 Si / 1000 Ang^3
#
#
#
# Elastic Constant Matrix: (Units=GPa)
#
#
# Indices 1 2 3 4 5 6 
#
# 1 139.6546 38.5437 23.2518 0.0000 0.0000 0.0000
# 2 38.5437 85.5213 24.4522 0.0000 0.0000 0.0000
# 3 23.2518 24.4522 57.4924 0.0000 0.0000 0.0000
# 4 0.0000 0.0000 0.0000 29.0960 0.0000 0.0000
# 5 0.0000 0.0000 0.0000 0.0000 22.2227 0.0000
# 6 0.0000 0.0000 0.0000 0.0000 0.0000 33.1731
#
#
#
# Elastic Compliance Matrix: (Units=1/GPa)
#
#
# Indices 1 2 3 4 5 6 
#
# 1 0.008381 -0.003197 -0.002030 0.000000 0.000000 0.000000
# 2 -0.003197 0.014531 -0.004887 0.000000 0.000000 0.000000
# 3 -0.002030 -0.004887 0.020293 0.000000 0.000000 0.000000
# 4 0.000000 0.000000 0.000000 0.034369 0.000000 0.000000
# 5 0.000000 0.000000 0.000000 0.000000 0.044999 0.000000
# 6 0.000000 0.000000 0.000000 0.000000 0.000000 0.030145
#
#
# Mechanical properties :
#
#
# Convention : Reuss Voigt Hill
#
# Bulk Modulus (GPa) = 43.52153 50.57374 47.04764
# Shear Modulus (GPa) = 27.68469 29.99305 28.83887
#
# Velocity S-wave (km/s) = 3.67952 3.82985 3.75544
# Velocity P-wave (km/s) = 6.27180 6.65503 6.46626
#
# Compressibility (1/GPa) = 0.02297713
#
# Stress axis : x y z
#
# Youngs Moduli (GPa) = 119.32083 68.81765 49.27755
#
# Poissons Ratio (x) = 0.21999 0.10003
# Poissons Ratio (y) = 0.38144 0.24084
# Poissons Ratio (z) = 0.24220 0.33634
#
# Static dielectric constant tensor:
#      x y z
#    x 3.868620 0.000000 0.000000 
#    y 0.000000 3.528280 0.000000 
#    z 0.000000 0.000000 3.513750 
# 
# 
# High freq. dielectric constant tensor:
#      x y z
#    x 1.823660 0.000000 0.000000 
#    y 0.000000 1.772270 0.000000 
#    z 0.000000 0.000000 1.776270 
# 
# From -- ./inp_files/39655.got.cif
#   From: 2010.06.25/outbox.cif.g09.slc.cpg/sg52_20_cif.got.tgz:39655.got - 2010.06.26 19:32:48.
