data_PCOD8216320
_publ_section_title
;
Structure prediction by ZEFSAII (Michael W. Deem and Ramdas Pophale) SiO2 
 PCOD8216320
Probable space group: P N N A
;
_chemical_formula_sum "Si O2"
_cell_formula_units_Z 40
_cell_length_a 8.591322
_cell_length_b 8.480770
_cell_length_c 23.853897
_cell_angle_alpha 90.000000
_cell_angle_beta 90.000000
_cell_angle_gamma 90.000000
_cell_volume 1738.019407
_symmetry_space_group_name_H-M "P N N A"
_symmetry_group_IT_number 52
_symmetry_cell_setting 'orthorhombic'
loop_
_space_group_symop_operation_xyz
x,y,z
1/2-x,-y,z
x,1/2-y,1/2-z
1/2-x,1/2+y,1/2-z
-x,-y,-z
1/2+x,y,-z
-x,1/2+y,1/2+z
1/2+x,1/2-y,1/2+z
loop_
_atom_site_type_symbol
_atom_site_label
_atom_site_fract_x
_atom_site_fract_y
_atom_site_fract_z
Si Si1 0.058595 0.814898 0.308693
Si Si2 0.230750 0.814962 0.508558
Si Si3 0.051778 0.187873 0.072704
Si Si4 0.574352 0.177779 0.690721
Si Si5 0.395756 0.888180 0.902342
O O1 0.000169 0.750000 0.250000
O O2 0.242373 0.795074 0.314724
O O3 0.964708 0.708007 0.351250
O O4 0.017028 0.998591 0.313475
O O5 0.274046 0.739000 0.447121
O O6 0.349819 0.741603 0.552764
O O7 0.056747 0.775818 0.527185
O O8 0.250000 0.000000 0.504385
O O9 0.004348 0.236280 0.136252
O O10 0.028857 0.999604 0.070126
O O11 0.514609 0.250000 0.750000
O O12 0.250000 0.000000 0.885022
#
# Coordination Sequence:
#
# PCOD8216320 Si02
#       5
#     8   8   8   8   8
#     4  10  21  40  68  98 132 173 217 276 333 396
#     4  11  24  41  64  95 133 177 224 272 335 398
#     4  11  24  41  65  97 134 175 219 278 329 401
#     4  10  22  40  68 102 131 168 221 272 337 397
#     4  10  23  43  62  94 136 174 224 269 334 401
#
# _framework density 23.014700999999999
#
# number of rings (size 3 to 8) (size 9 to 14) (size 15 to 20)
#    0.000    1.600    0.000    3.600    5.600    2.400 
#    0.000    9.000    0.000    0.000    0.000    0.000 
#    0.000    0.000    0.000    0.000    0.000    0.000 
#
# Total GULP energy -495863.972463 kJ/mol
# GULP energy per Si atom -12396.599312 kJ/mol
# Density = 2.296232 g / cm^3
# Si number density = 23.014701 Si / 1000 Ang^3
#
#
#
# Elastic Constant Matrix: (Units=GPa)
#
#
# Indices 1 2 3 4 5 6 
#
# 1 35.9427 52.8817 48.1629 0.0000 0.0000 0.0000
# 2 52.8817 140.3762 44.0987 0.0000 0.0000 0.0000
# 3 48.1629 44.0987 130.1569 0.0000 0.0000 0.0000
# 4 0.0000 0.0000 0.0000 41.1325 0.0000 0.0000
# 5 0.0000 0.0000 0.0000 0.0000 39.5753 0.0000
# 6 0.0000 0.0000 0.0000 0.0000 0.0000 39.6979
#
#
#
# Elastic Compliance Matrix: (Units=1/GPa)
#
#
# Indices 1 2 3 4 5 6 
#
# 1 0.134003 -0.039061 -0.036352 0.000000 0.000000 0.000000
# 2 -0.039061 0.019358 0.007895 0.000000 0.000000 0.000000
# 3 -0.036352 0.007895 0.018460 0.000000 0.000000 0.000000
# 4 0.000000 0.000000 0.000000 0.024312 0.000000 0.000000
# 5 0.000000 0.000000 0.000000 0.000000 0.025268 0.000000
# 6 0.000000 0.000000 0.000000 0.000000 0.000000 0.025190
#
#
# Mechanical properties :
#
#
# Convention : Reuss Voigt Hill
#
# Bulk Modulus (GPa) = 27.18453 66.30694 46.74574
# Shear Modulus (GPa) = 12.69397 34.83662 23.76529
#
# Velocity S-wave (km/s) = 2.35108 3.89481 3.21692
# Velocity P-wave (km/s) = 4.38264 7.00709 5.84409
#
# Compressibility (1/GPa) = 0.03678562
#
# Stress axis : x y z
#
# Youngs Moduli (GPa) = 7.46253 51.65738 54.17252
#
# Poissons Ratio (x) = 2.01779 1.96926
# Poissons Ratio (y) = 0.29149 -0.42770
# Poissons Ratio (z) = 0.27128 -0.40785
#
# Static dielectric constant tensor:
#      x y z
#    x 4.078250 0.000000 0.000000 
#    y 0.000000 4.246010 0.000000 
#    z 0.000000 0.000000 4.483350 
# 
# 
# High freq. dielectric constant tensor:
#      x y z
#    x 1.896040 0.000000 0.000000 
#    y 0.000000 1.925200 0.000000 
#    z 0.000000 0.000000 1.920810 
# 
# From -- ./inp_files/39218.got.cif
#   From: 2010.06.25/outbox.cif.g09.slc.cpg/sg52_20_cif.got.tgz:39218.got - 2010.06.26 19:32:48.
