data_PCOD8216784
_publ_section_title
;
Structure prediction by ZEFSAII (Michael W. Deem and Ramdas Pophale) SiO2 
 PCOD8216784
Probable space group: P N N A
;
_chemical_formula_sum "Si O2"
_cell_formula_units_Z 40
_cell_length_a 14.059418
_cell_length_b 22.486368
_cell_length_c 5.914441
_cell_angle_alpha 90.000000
_cell_angle_beta 90.000000
_cell_angle_gamma 90.000000
_cell_volume 1869.822411
_symmetry_space_group_name_H-M "P N N A"
_symmetry_group_IT_number 52
_symmetry_cell_setting 'orthorhombic'
loop_
_space_group_symop_operation_xyz
x,y,z
1/2-x,-y,z
x,1/2-y,1/2-z
1/2-x,1/2+y,1/2-z
-x,-y,-z
1/2+x,y,-z
-x,1/2+y,1/2+z
1/2+x,1/2-y,1/2+z
loop_
_atom_site_type_symbol
_atom_site_label
_atom_site_fract_x
_atom_site_fract_y
_atom_site_fract_z
Si Si1 0.348928 0.402216 0.955414
Si Si2 0.294787 0.594388 0.330068
Si Si3 0.096310 0.008036 0.858541
Si Si4 0.940620 0.612210 0.046295
Si Si5 0.789904 0.680506 0.285155
O O1 0.359975 0.447141 0.743102
O O2 0.283518 0.347377 0.889862
O O3 0.293922 0.429336 0.175873
O O4 0.448827 0.373581 0.022288
O O5 0.321865 0.540894 0.499124
O O6 0.266180 0.654850 0.465704
O O7 0.388616 0.613227 0.193463
O O8 0.070125 0.045589 0.638280
O O9 0.000000 0.000000 0.000000
O O10 0.896849 0.660291 0.218831
O O11 0.780164 0.750000 0.250000
#
# Coordination Sequence:
#
# PCOD8216784 Si02
#       5
#     8   8   8   8   8
#     4  11  24  41  67 103 133 177 232 267 352 407
#     4  10  24  43  67  94 144 174 220 286 332 410
#     4  11  23  41  66  98 143 181 219 277 342 414
#     4  10  23  43  63  98 133 179 222 274 346 405
#     4  10  25  47  66  97 130 176 232 284 343 400
#
# _framework density 21.392403999999999
#
# number of rings (size 3 to 8) (size 9 to 14) (size 15 to 20)
#    0.000    1.600    2.000    0.600    2.800   12.000 
#    7.200    0.000    0.000    0.000    0.000    0.000 
#    0.000    0.000    0.000    0.000    0.000    0.000 
#
# Total GULP energy -495946.155856 kJ/mol
# GULP energy per Si atom -12398.653896 kJ/mol
# Density = 2.134371 g / cm^3
# Si number density = 21.392404 Si / 1000 Ang^3
#
#
#
# Elastic Constant Matrix: (Units=GPa)
#
#
# Indices 1 2 3 4 5 6 
#
# 1 154.9909 41.2486 48.2098 0.0000 0.0000 0.0000
# 2 41.2486 134.0998 40.1160 0.0000 0.0000 0.0000
# 3 48.2098 40.1160 107.1067 0.0000 0.0000 0.0000
# 4 0.0000 0.0000 0.0000 26.0752 0.0000 0.0000
# 5 0.0000 0.0000 0.0000 0.0000 34.4499 0.0000
# 6 0.0000 0.0000 0.0000 0.0000 0.0000 18.2210
#
#
#
# Elastic Compliance Matrix: (Units=1/GPa)
#
#
# Indices 1 2 3 4 5 6 
#
# 1 0.007766 -0.001512 -0.002929 0.000000 0.000000 0.000000
# 2 -0.001512 0.008693 -0.002575 0.000000 0.000000 0.000000
# 3 -0.002929 -0.002575 0.011619 0.000000 0.000000 0.000000
# 4 0.000000 0.000000 0.000000 0.038351 0.000000 0.000000
# 5 0.000000 0.000000 0.000000 0.000000 0.029028 0.000000
# 6 0.000000 0.000000 0.000000 0.000000 0.000000 0.054882
#
#
# Mechanical properties :
#
#
# Convention : Reuss Voigt Hill
#
# Bulk Modulus (GPa) = 71.20080 72.81624 72.00852
# Shear Modulus (GPa) = 29.57675 33.52409 31.55042
#
# Velocity S-wave (km/s) = 3.72234 3.96296 3.84453
# Velocity P-wave (km/s) = 7.19930 7.41972 7.31034
#
# Compressibility (1/GPa) = 0.01404479
#
# Stress axis : x y z
#
# Youngs Moduli (GPa) = 128.77408 115.03945 86.06422
#
# Poissons Ratio (x) = 0.17399 0.25207
# Poissons Ratio (y) = 0.19477 0.22161
# Poissons Ratio (z) = 0.37716 0.29623
#
# Static dielectric constant tensor:
#      x y z
#    x 4.148670 0.000000 0.000000 
#    y 0.000000 3.503240 0.000000 
#    z 0.000000 0.000000 4.159430 
# 
# 
# High freq. dielectric constant tensor:
#      x y z
#    x 1.853110 0.000000 0.000000 
#    y 0.000000 1.805660 0.000000 
#    z 0.000000 0.000000 1.857850 
# 
# From -- ./inp_files/2285.got.cif
#   From: 2010.06.25/outbox.cif.g09.slc.cpg/sg52_2_cif.got.tgz:2285.got - 2010.06.26 19:32:48.
