data_PCOD8216881
_publ_section_title
;
Structure prediction by ZEFSAII (Michael W. Deem and Ramdas Pophale) SiO2 
 PCOD8216881
Probable space group: P N N A
;
_chemical_formula_sum "Si O2"
_cell_formula_units_Z 60
_cell_length_a 12.795828
_cell_length_b 8.934416
_cell_length_c 24.291870
_cell_angle_alpha 90.000000
_cell_angle_beta 90.000000
_cell_angle_gamma 90.000000
_cell_volume 2777.125537
_symmetry_space_group_name_H-M "P N N A"
_symmetry_group_IT_number 52
_symmetry_cell_setting 'orthorhombic'
loop_
_space_group_symop_operation_xyz
x,y,z
1/2-x,-y,z
x,1/2-y,1/2-z
1/2-x,1/2+y,1/2-z
-x,-y,-z
1/2+x,y,-z
-x,1/2+y,1/2+z
1/2+x,1/2-y,1/2+z
loop_
_atom_site_type_symbol
_atom_site_label
_atom_site_fract_x
_atom_site_fract_y
_atom_site_fract_z
Si Si1 0.338101 0.105186 0.848590
Si Si2 0.455920 0.423236 0.341062
Si Si3 0.100608 0.390030 0.935066
Si Si4 0.450053 0.365066 0.466584
Si Si5 0.969665 0.891869 0.312174
Si Si6 0.830124 0.292824 0.051242
Si Si7 0.144480 0.427344 0.246595
Si Si8 0.288712 0.750000 0.750000
O O1 0.381715 0.222016 0.893782
O O2 0.287794 0.183090 0.795654
O O3 0.250000 0.000000 0.876752
O O4 0.433444 0.001502 0.830844
O O5 0.423509 0.414050 0.404795
O O6 0.465300 0.262616 0.311595
O O7 0.366672 0.513717 0.309225
O O8 0.061430 0.428028 0.874269
O O9 0.115600 0.549462 0.964671
O O10 0.209791 0.304444 0.933189
O O11 0.024409 0.280476 0.967918
O O12 0.500000 0.500000 0.500000
O O13 0.345126 0.315120 0.498497
O O14 0.863344 0.878566 0.276268
O O15 0.043678 0.023976 0.289354
O O16 0.250000 0.500000 0.221153
O O17 0.153041 0.250000 0.250000
#
# Coordination Sequence:
#
# PCOD8216881 Si02
#       8
#     8   8   8   8   8   8   8   4
#     4  12  22  37  63 101 140 183 231 273 352 429
#     4  11  23  43  65 101 136 180 236 289 339 420
#     4  10  24  43  68 102 140 178 229 288 352 422
#     4  11  23  42  70  93 133 183 234 290 340 402
#     4  11  21  45  71 100 146 185 216 289 351 424
#     4  11  23  41  67  96 136 183 228 287 348 410
#     4  12  27  47  74  99 136 183 236 292 355 424
#     4  12  22  36  66 104 150 186 218 278 354 444
#
# _framework density 21.605072
#
# number of rings (size 3 to 8) (size 9 to 14) (size 15 to 20)
#    0.000    0.800    5.333    2.000    2.800    1.067 
#    2.400    0.000   23.467    0.000    0.000    0.000 
#    0.000    0.000    0.000    0.000    0.000    0.000 
#
# Total GULP energy -743963.971956 kJ/mol
# GULP energy per Si atom -12399.399533 kJ/mol
# Density = 2.155590 g / cm^3
# Si number density = 21.605072 Si / 1000 Ang^3
#
#
#
# Elastic Constant Matrix: (Units=GPa)
#
#
# Indices 1 2 3 4 5 6 
#
# 1 85.1609 37.4825 39.6467 0.0000 0.0000 0.0000
# 2 37.4825 110.8769 48.8174 0.0000 0.0000 0.0000
# 3 39.6467 48.8174 134.9702 0.0000 0.0000 0.0000
# 4 0.0000 0.0000 0.0000 38.7396 0.0000 0.0000
# 5 0.0000 0.0000 0.0000 0.0000 22.9950 0.0000
# 6 0.0000 0.0000 0.0000 0.0000 0.0000 33.3949
#
#
#
# Elastic Compliance Matrix: (Units=1/GPa)
#
#
# Indices 1 2 3 4 5 6 
#
# 1 0.014756 -0.003663 -0.003009 0.000000 0.000000 0.000000
# 2 -0.003663 0.011637 -0.003133 0.000000 0.000000 0.000000
# 3 -0.003009 -0.003133 0.009426 0.000000 0.000000 0.000000
# 4 0.000000 0.000000 0.000000 0.025813 0.000000 0.000000
# 5 0.000000 0.000000 0.000000 0.000000 0.043488 0.000000
# 6 0.000000 0.000000 0.000000 0.000000 0.000000 0.029945
#
#
# Mechanical properties :
#
#
# Convention : Reuss Voigt Hill
#
# Bulk Modulus (GPa) = 61.69936 64.76681 63.23308
# Shear Modulus (GPa) = 31.23471 32.69666 31.96568
#
# Velocity S-wave (km/s) = 3.80638 3.89444 3.85066
# Velocity P-wave (km/s) = 6.92371 7.08977 7.00723
#
# Compressibility (1/GPa) = 0.01620762
#
# Stress axis : x y z
#
# Youngs Moduli (GPa) = 67.76955 85.93470 106.08763
#
# Poissons Ratio (x) = 0.31480 0.31927
# Poissons Ratio (y) = 0.24826 0.33235
# Poissons Ratio (z) = 0.20395 0.26922
#
# Static dielectric constant tensor:
#      x y z
#    x 3.797870 0.000000 0.000000 
#    y 0.000000 4.302050 0.000000 
#    z 0.000000 0.000000 3.939320 
# 
# 
# High freq. dielectric constant tensor:
#      x y z
#    x 1.833510 0.000000 0.000000 
#    y 0.000000 1.862810 0.000000 
#    z 0.000000 0.000000 1.849300 
# 
# From -- ./inp_files/42794.got.cif
#   From: 2010.06.25/outbox.cif.g09.slc.cpg/sg52_22_cif.got.tgz:42794.got - 2010.06.26 19:32:48.
