data_PCOD8216981
_publ_section_title
;
Structure prediction by ZEFSAII (Michael W. Deem and Ramdas Pophale) SiO2 
 PCOD8216981
Probable space group: P N N A
;
_chemical_formula_sum "Si O2"
_cell_formula_units_Z 48
_cell_length_a 20.335735
_cell_length_b 14.637963
_cell_length_c 9.200981
_cell_angle_alpha 90.000000
_cell_angle_beta 90.000000
_cell_angle_gamma 90.000000
_cell_volume 2738.890394
_symmetry_space_group_name_H-M "P N N A"
_symmetry_group_IT_number 52
_symmetry_cell_setting 'orthorhombic'
loop_
_space_group_symop_operation_xyz
x,y,z
1/2-x,-y,z
x,1/2-y,1/2-z
1/2-x,1/2+y,1/2-z
-x,-y,-z
1/2+x,y,-z
-x,1/2+y,1/2+z
1/2+x,1/2-y,1/2+z
loop_
_atom_site_type_symbol
_atom_site_label
_atom_site_fract_x
_atom_site_fract_y
_atom_site_fract_z
Si Si1 0.238281 0.235846 0.414799
Si Si2 0.062114 0.946835 0.560992
Si Si3 0.893458 0.347882 0.324685
Si Si4 0.190480 0.437324 0.931407
Si Si5 0.106934 0.733471 0.085132
Si Si6 0.747304 0.152650 0.173140
O O1 0.217174 0.250000 0.250000
O O2 0.193337 0.154654 0.474361
O O3 0.315530 0.213441 0.432581
O O4 0.223907 0.329152 0.506881
O O5 0.058723 0.916320 0.733073
O O6 0.068622 0.855743 0.466581
O O7 0.122415 0.014460 0.536228
O O8 0.000000 0.000000 0.500000
O O9 0.891361 0.250000 0.250000
O O10 0.914122 0.324486 0.491633
O O11 0.820293 0.392017 0.320185
O O12 0.250000 0.500000 0.985477
O O13 0.197746 0.413527 0.759208
O O14 0.086171 0.750000 0.250000
O O15 0.750644 0.250000 0.250000
#
# Coordination Sequence:
#
# PCOD8216981 Si02
#       6
#     8   8   8   8   8   8
#     4   9  17  31  52  79 106 134 169 214 266 315
#     4  11  21  33  50  78 103 135 176 220 261 303
#     4   8  14  29  51  72  96 130 173 204 245 314
#     4  11  17  31  52  74 101 129 173 222 262 296
#     4   9  17  33  55  75 100 138 176 206 256 327
#     4   8  14  27  50  74  95 131 170 204 251 310
#
# _framework density 17.525344
#
# number of rings (size 3 to 8) (size 9 to 14) (size 15 to 20)
#    0.000    2.667    3.333    2.000    0.000    0.000 
#    0.000    8.333    0.000    0.000    0.000    0.000 
#    0.000    0.000    0.000    0.000    0.000    0.000 
#
# Total GULP energy -594661.379828 kJ/mol
# GULP energy per Si atom -12388.778746 kJ/mol
# Density = 1.748546 g / cm^3
# Si number density = 17.525344 Si / 1000 Ang^3
#
#
#
# Elastic Constant Matrix: (Units=GPa)
#
#
# Indices 1 2 3 4 5 6 
#
# 1 82.8117 44.2955 39.7453 0.0000 0.0000 0.0000
# 2 44.2955 72.0621 43.8190 0.0000 0.0000 0.0000
# 3 39.7453 43.8190 150.2884 0.0000 0.0000 0.0000
# 4 0.0000 0.0000 0.0000 21.9858 0.0000 0.0000
# 5 0.0000 0.0000 0.0000 0.0000 12.3139 0.0000
# 6 0.0000 0.0000 0.0000 0.0000 0.0000 23.2981
#
#
#
# Elastic Compliance Matrix: (Units=1/GPa)
#
#
# Indices 1 2 3 4 5 6 
#
# 1 0.018431 -0.010168 -0.001910 0.000000 0.000000 0.000000
# 2 -0.010168 0.022477 -0.003864 0.000000 0.000000 0.000000
# 3 -0.001910 -0.003864 0.008286 0.000000 0.000000 0.000000
# 4 0.000000 0.000000 0.000000 0.045484 0.000000 0.000000
# 5 0.000000 0.000000 0.000000 0.000000 0.081209 0.000000
# 6 0.000000 0.000000 0.000000 0.000000 0.000000 0.042922
#
#
# Mechanical properties :
#
#
# Convention : Reuss Voigt Hill
#
# Bulk Modulus (GPa) = 57.77246 62.32021 60.04633
# Shear Modulus (GPa) = 19.49605 23.33971 21.41788
#
# Velocity S-wave (km/s) = 3.33896 3.65330 3.49966
# Velocity P-wave (km/s) = 6.92109 7.30977 7.11808
#
# Compressibility (1/GPa) = 0.01730929
#
# Stress axis : x y z
#
# Youngs Moduli (GPa) = 54.25667 44.49006 120.69078
#
# Poissons Ratio (x) = 0.45238 0.23047
# Poissons Ratio (y) = 0.55168 0.46641
# Poissons Ratio (z) = 0.10361 0.17193
#
# Static dielectric constant tensor:
#      x y z
#    x 3.037190 0.000000 0.000000 
#    y 0.000000 3.509260 0.000000 
#    z 0.000000 0.000000 3.771100 
# 
# 
# High freq. dielectric constant tensor:
#      x y z
#    x 1.625500 0.000000 0.000000 
#    y 0.000000 1.670840 0.000000 
#    z 0.000000 0.000000 1.683030 
# 
# From -- ./inp_files/13306.got.cif
#   From: 2010.06.25/outbox.cif.g09.slc.cpg/sg52_7_cif.got.tgz:13306.got - 2010.06.26 19:32:48.
