data_PCOD8216418
_publ_section_title
;
Structure prediction by ZEFSAII (Michael W. Deem and Ramdas Pophale) SiO2 
 PCOD8216418
Probable space group: P N N A
;
_chemical_formula_sum "Si O2"
_cell_formula_units_Z 40
_cell_length_a 11.720563
_cell_length_b 12.201346
_cell_length_c 12.088943
_cell_angle_alpha 90.000000
_cell_angle_beta 90.000000
_cell_angle_gamma 90.000000
_cell_volume 1728.799174
_symmetry_space_group_name_H-M "P N N A"
_symmetry_group_IT_number 52
_symmetry_cell_setting 'orthorhombic'
loop_
_space_group_symop_operation_xyz
x,y,z
1/2-x,-y,z
x,1/2-y,1/2-z
1/2-x,1/2+y,1/2-z
-x,-y,-z
1/2+x,y,-z
-x,1/2+y,1/2+z
1/2+x,1/2-y,1/2+z
loop_
_atom_site_type_symbol
_atom_site_label
_atom_site_fract_x
_atom_site_fract_y
_atom_site_fract_z
Si Si1 0.946453 0.128648 0.301110
Si Si2 0.688409 0.377298 0.226050
Si Si3 0.508222 0.159382 0.451488
Si Si4 0.487827 0.595719 0.588230
Si Si5 0.626033 0.954230 0.727501
O O1 0.950018 0.250000 0.250000
O O2 0.818258 0.074781 0.287779
O O3 0.987233 0.112901 0.427373
O O4 0.039406 0.054411 0.241365
O O5 0.704558 0.250000 0.250000
O O6 0.618458 0.391884 0.110971
O O7 0.619906 0.427424 0.330577
O O8 0.524872 0.288353 0.472021
O O9 0.400458 0.123693 0.376507
O O10 0.500000 0.500000 0.500000
O O11 0.605664 0.613239 0.659254
O O12 0.750000 0.000000 0.711095
#
# Coordination Sequence:
#
# PCOD8216418 Si02
#       5
#     8   8   8   8   8
#     4  11  23  41  67 101 131 176 236 282 336 418
#     4   8  19  40  66  96 130 171 224 286 339 408
#     4  10  22  42  68  92 136 176 224 283 350 405
#     4  10  21  45  69  98 131 177 227 285 353 410
#     4  11  25  43  62  99 139 180 225 277 347 418
#
# _framework density 23.137449
#
# number of rings (size 3 to 8) (size 9 to 14) (size 15 to 20)
#    0.000    2.000    0.000    3.600    2.800    4.800 
#   14.400    2.000    0.000    0.000    0.000    0.000 
#    0.000    0.000    0.000    0.000    0.000    0.000 
#
# Total GULP energy -495674.380568 kJ/mol
# GULP energy per Si atom -12391.859514 kJ/mol
# Density = 2.308479 g / cm^3
# Si number density = 23.137449 Si / 1000 Ang^3
#
#
#
# Elastic Constant Matrix: (Units=GPa)
#
#
# Indices 1 2 3 4 5 6 
#
# 1 172.5197 54.6608 35.6213 0.0000 0.0000 0.0000
# 2 54.6608 89.3777 17.7540 0.0000 0.0000 0.0000
# 3 35.6213 17.7540 105.4193 0.0000 0.0000 0.0000
# 4 0.0000 0.0000 0.0000 48.0666 0.0000 0.0000
# 5 0.0000 0.0000 0.0000 0.0000 17.8189 0.0000
# 6 0.0000 0.0000 0.0000 0.0000 0.0000 41.5542
#
#
#
# Elastic Compliance Matrix: (Units=1/GPa)
#
#
# Indices 1 2 3 4 5 6 
#
# 1 0.007515 -0.004233 -0.001826 0.000000 0.000000 0.000000
# 2 -0.004233 0.013960 -0.000921 0.000000 0.000000 0.000000
# 3 -0.001826 -0.000921 0.010258 0.000000 0.000000 0.000000
# 4 0.000000 0.000000 0.000000 0.020804 0.000000 0.000000
# 5 0.000000 0.000000 0.000000 0.000000 0.056120 0.000000
# 6 0.000000 0.000000 0.000000 0.000000 0.000000 0.024065
#
#
# Mechanical properties :
#
#
# Convention : Reuss Voigt Hill
#
# Bulk Modulus (GPa) = 56.26564 64.82097 60.54331
# Shear Modulus (GPa) = 32.76388 38.77331 35.76859
#
# Velocity S-wave (km/s) = 3.76713 4.09807 3.93608
# Velocity P-wave (km/s) = 6.57970 7.10413 6.84694
#
# Compressibility (1/GPa) = 0.01777284
#
# Stress axis : x y z
#
# Youngs Moduli (GPa) = 133.07239 71.63255 97.48377
#
# Poissons Ratio (x) = 0.30322 0.17804
# Poissons Ratio (y) = 0.56329 0.08976
# Poissons Ratio (z) = 0.24304 0.06595
#
# Static dielectric constant tensor:
#      x y z
#    x 4.344390 0.000000 0.000000 
#    y 0.000000 4.572200 0.000000 
#    z 0.000000 0.000000 4.231160 
# 
# 
# High freq. dielectric constant tensor:
#      x y z
#    x 1.899890 0.000000 0.000000 
#    y 0.000000 1.956690 0.000000 
#    z 0.000000 0.000000 1.912910 
# 
# From -- ./inp_files/17977.got.cif
#   From: 2010.06.25/outbox.cif.g09.slc.cpg/sg52_9_cif.got.tgz:17977.got - 2010.06.26 19:32:48.
