data_PCOD8216873
_publ_section_title
;
Structure prediction by ZEFSAII (Michael W. Deem and Ramdas Pophale) SiO2 
 PCOD8216873
Probable space group: P N N A
;
_chemical_formula_sum "Si O2"
_cell_formula_units_Z 20
_cell_length_a 9.381260
_cell_length_b 8.717968
_cell_length_c 10.393087
_cell_angle_alpha 90.000000
_cell_angle_beta 90.000000
_cell_angle_gamma 90.000000
_cell_volume 850.004071
_symmetry_space_group_name_H-M "P N N A"
_symmetry_group_IT_number 52
_symmetry_cell_setting 'orthorhombic'
loop_
_space_group_symop_operation_xyz
x,y,z
1/2-x,-y,z
x,1/2-y,1/2-z
1/2-x,1/2+y,1/2-z
-x,-y,-z
1/2+x,y,-z
-x,1/2+y,1/2+z
1/2+x,1/2-y,1/2+z
loop_
_atom_site_type_symbol
_atom_site_label
_atom_site_fract_x
_atom_site_fract_y
_atom_site_fract_z
Si Si1 0.934262 0.354238 0.567220
Si Si2 0.750000 0.000000 0.717645
Si Si3 0.304256 0.842579 0.528621
O O1 0.863732 0.404927 0.700599
O O2 0.818138 0.286619 0.468096
O O3 0.000000 0.500000 0.500000
O O4 0.053531 0.223559 0.594726
O O5 0.833969 0.881442 0.623130
O O6 0.250000 0.000000 0.599299
#
# Coordination Sequence:
#
# PCOD8216873 Si02
#       3
#     8   4   8
#     4  12  21  41  71 100 134 185 238 283 344 421
#     4  10  24  42  74  98 146 184 232 282 364 406
#     4  10  24  42  70  99 141 187 230 285 358 409
#
# _framework density 23.529301
#
# number of rings (size 3 to 8) (size 9 to 14) (size 15 to 20)
#    1.200    0.000    4.000    2.400    0.000    0.000 
#    0.000    0.000   35.200    0.000    0.000    0.000 
#    0.000    0.000    0.000    0.000    0.000    0.000 
#
# Total GULP energy -247833.155050 kJ/mol
# GULP energy per Si atom -12391.657753 kJ/mol
# Density = 2.347575 g / cm^3
# Si number density = 23.529301 Si / 1000 Ang^3
#
#
#
# Elastic Constant Matrix: (Units=GPa)
#
#
# Indices 1 2 3 4 5 6 
#
# 1 151.6186 72.7005 37.8215 0.0000 0.0000 0.0000
# 2 72.7005 152.7033 49.4236 0.0000 0.0000 0.0000
# 3 37.8215 49.4236 55.4160 0.0000 0.0000 0.0000
# 4 0.0000 0.0000 0.0000 36.8922 0.0000 0.0000
# 5 0.0000 0.0000 0.0000 0.0000 29.3697 0.0000
# 6 0.0000 0.0000 0.0000 0.0000 0.0000 75.9889
#
#
#
# Elastic Compliance Matrix: (Units=1/GPa)
#
#
# Indices 1 2 3 4 5 6 
#
# 1 0.008943 -0.003208 -0.003242 0.000000 0.000000 0.000000
# 2 -0.003208 0.010357 -0.007047 0.000000 0.000000 0.000000
# 3 -0.003242 -0.007047 0.026543 0.000000 0.000000 0.000000
# 4 0.000000 0.000000 0.000000 0.027106 0.000000 0.000000
# 5 0.000000 0.000000 0.000000 0.000000 0.034049 0.000000
# 6 0.000000 0.000000 0.000000 0.000000 0.000000 0.013160
#
#
# Mechanical properties :
#
#
# Convention : Reuss Voigt Hill
#
# Bulk Modulus (GPa) = 53.05717 75.51435 64.28576
# Shear Modulus (GPa) = 32.58704 41.76965 37.17834
#
# Velocity S-wave (km/s) = 3.72554 4.21791 3.97934
# Velocity P-wave (km/s) = 6.41128 7.47559 6.96380
#
# Compressibility (1/GPa) = 0.01884759
#
# Stress axis : x y z
#
# Youngs Moduli (GPa) = 111.82528 96.55330 37.67412
#
# Poissons Ratio (x) = 0.30976 0.12214
# Poissons Ratio (y) = 0.35875 0.26551
# Poissons Ratio (z) = 0.36255 0.68046
#
# Static dielectric constant tensor:
#      x y z
#    x 4.328940 0.000000 0.000000 
#    y 0.000000 6.725030 0.000000 
#    z 0.000000 0.000000 4.151530 
# 
# 
# High freq. dielectric constant tensor:
#      x y z
#    x 1.927310 0.000000 0.000000 
#    y 0.000000 1.965010 0.000000 
#    z 0.000000 0.000000 1.886410 
# 
# From -- ./inp_files/16163.got.cif
#   From: 2010.06.25/outbox.cif.g09.slc.cpg/sg52_9_cif.got.tgz:16163.got - 2010.06.26 19:32:48.
