data_PCOD8216284
_publ_section_title
;
Structure prediction by ZEFSAII (Michael W. Deem and Ramdas Pophale) SiO2 
 PCOD8216284
Probable space group: P N N A
;
_chemical_formula_sum "Si O2"
_cell_formula_units_Z 44
_cell_length_a 7.920824
_cell_length_b 17.565517
_cell_length_c 15.115639
_cell_angle_alpha 90.000000
_cell_angle_beta 90.000000
_cell_angle_gamma 90.000000
_cell_volume 2103.089773
_symmetry_space_group_name_H-M "P N N A"
_symmetry_group_IT_number 52
_symmetry_cell_setting 'orthorhombic'
loop_
_space_group_symop_operation_xyz
x,y,z
1/2-x,-y,z
x,1/2-y,1/2-z
1/2-x,1/2+y,1/2-z
-x,-y,-z
1/2+x,y,-z
-x,1/2+y,1/2+z
1/2+x,1/2-y,1/2+z
loop_
_atom_site_type_symbol
_atom_site_label
_atom_site_fract_x
_atom_site_fract_y
_atom_site_fract_z
Si Si1 0.099743 0.439727 0.704006
Si Si2 0.426469 0.692894 0.823694
Si Si3 0.920481 0.801858 0.882529
Si Si4 0.250000 0.000000 0.266759
Si Si5 0.793804 0.682058 0.430260
Si Si6 0.304934 0.658729 0.190688
O O1 0.250000 0.500000 0.692992
O O2 0.093521 0.380672 0.621663
O O3 0.131752 0.392519 0.796151
O O4 0.913889 0.478313 0.707186
O O5 0.353732 0.750000 0.750000
O O6 0.351444 0.729497 0.913381
O O7 0.627179 0.697924 0.829821
O O8 0.934402 0.709499 0.866895
O O9 0.843170 0.839563 0.795295
O O10 0.104848 0.834043 0.899669
O O11 0.804368 0.827428 0.964423
O O12 0.302900 0.930756 0.332637
#
# Coordination Sequence:
#
# PCOD8216284 Si02
#       6
#     8   8   8   4   8   8
#     4  10  22  39  62  93 129 166 208 251 321 386
#     4   9  18  36  62  81 118 158 208 250 304 353
#     4  11  23  37  64  89 126 161 221 255 315 363
#     4  10  22  38  68  86 130 168 204 252 328 372
#     4  11  24  38  62  94 123 165 208 272 304 369
#     4  10  21  40  63  89 118 167 207 257 307 388
#
# _framework density 20.921599000000001
#
# number of rings (size 3 to 8) (size 9 to 14) (size 15 to 20)
#    0.000    1.818    1.818    2.182   15.273    0.000 
#    1.636    1.818    2.000    3.273    0.000    0.000 
#    0.000    0.000    0.000    0.000    0.000    0.000 
#
# Total GULP energy -545190.726831 kJ/mol
# GULP energy per Si atom -12390.698337 kJ/mol
# Density = 2.087398 g / cm^3
# Si number density = 20.921599 Si / 1000 Ang^3
#
#
#
# Elastic Constant Matrix: (Units=GPa)
#
#
# Indices 1 2 3 4 5 6 
#
# 1 87.1763 20.9728 14.7601 0.0000 0.0000 0.0000
# 2 20.9728 111.6291 0.6547 0.0000 0.0000 0.0000
# 3 14.7601 0.6547 38.3259 0.0000 0.0000 0.0000
# 4 0.0000 0.0000 0.0000 14.6852 0.0000 0.0000
# 5 0.0000 0.0000 0.0000 0.0000 23.9707 0.0000
# 6 0.0000 0.0000 0.0000 0.0000 0.0000 39.7852
#
#
#
# Elastic Compliance Matrix: (Units=1/GPa)
#
#
# Indices 1 2 3 4 5 6 
#
# 1 0.012879 -0.002391 -0.004919 0.000000 0.000000 0.000000
# 2 -0.002391 0.009403 0.000760 0.000000 0.000000 0.000000
# 3 -0.004919 0.000760 0.027974 0.000000 0.000000 0.000000
# 4 0.000000 0.000000 0.000000 0.068096 0.000000 0.000000
# 5 0.000000 0.000000 0.000000 0.000000 0.041718 0.000000
# 6 0.000000 0.000000 0.000000 0.000000 0.000000 0.025135
#
#
# Mechanical properties :
#
#
# Convention : Reuss Voigt Hill
#
# Bulk Modulus (GPa) = 26.91368 34.43404 30.67386
# Shear Modulus (GPa) = 23.73166 29.07114 26.40140
#
# Velocity S-wave (km/s) = 3.37161 3.73168 3.55621
# Velocity P-wave (km/s) = 5.29613 5.92128 5.61741
#
# Compressibility (1/GPa) = 0.03715583
#
# Stress axis : x y z
#
# Youngs Moduli (GPa) = 77.64533 106.34940 35.74808
#
# Poissons Ratio (x) = 0.25427 0.17585
# Poissons Ratio (y) = 0.18564 -0.02717
# Poissons Ratio (z) = 0.38195 -0.08084
#
# Static dielectric constant tensor:
#      x y z
#    x 3.744360 0.000000 0.000000 
#    y 0.000000 4.114360 0.000000 
#    z 0.000000 0.000000 3.572480 
# 
# 
# High freq. dielectric constant tensor:
#      x y z
#    x 1.827610 0.000000 0.000000 
#    y 0.000000 1.822930 0.000000 
#    z 0.000000 0.000000 1.778190 
# 
# From -- ./inp_files/24659.got.cif
#   From: 2010.06.25/outbox.cif.g09.slc.cpg/sg52_13_cif.got.tgz:24659.got - 2010.06.26 19:32:48.
