data_PCOD8216221
_publ_section_title
;
Structure prediction by ZEFSAII (Michael W. Deem and Ramdas Pophale) SiO2 
 PCOD8216221
Probable space group: P N N A
;
_chemical_formula_sum "Si O2"
_cell_formula_units_Z 48
_cell_length_a 8.373110
_cell_length_b 14.056824
_cell_length_c 19.413595
_cell_angle_alpha 90.000000
_cell_angle_beta 90.000000
_cell_angle_gamma 90.000000
_cell_volume 2284.967194
_symmetry_space_group_name_H-M "P N N A"
_symmetry_group_IT_number 52
_symmetry_cell_setting 'orthorhombic'
loop_
_space_group_symop_operation_xyz
x,y,z
1/2-x,-y,z
x,1/2-y,1/2-z
1/2-x,1/2+y,1/2-z
-x,-y,-z
1/2+x,y,-z
-x,1/2+y,1/2+z
1/2+x,1/2-y,1/2+z
loop_
_atom_site_type_symbol
_atom_site_label
_atom_site_fract_x
_atom_site_fract_y
_atom_site_fract_z
Si Si1 0.551673 0.713372 0.910455
Si Si2 0.367426 0.587005 0.819189
Si Si3 0.909289 0.614217 0.332060
Si Si4 0.431744 0.971021 0.072450
Si Si5 0.909737 0.750324 0.941168
Si Si6 0.369353 0.246183 0.823523
O O1 0.498543 0.610564 0.878885
O O2 0.525317 0.800563 0.857613
O O3 0.736429 0.706995 0.929465
O O4 0.452881 0.732739 0.980023
O O5 0.250000 0.500000 0.839250
O O6 0.451179 0.576496 0.744890
O O7 0.275714 0.684426 0.810434
O O8 0.721306 0.645388 0.340411
O O9 0.946795 0.519895 0.374915
O O10 0.430696 0.858853 0.081295
O O11 0.250000 0.000000 0.083486
O O12 0.500000 0.000000 0.000000
O O13 0.030202 0.705351 0.885293
O O14 0.466294 0.250000 0.750000
#
# Coordination Sequence:
#
# PCOD8216221 Si02
#       6
#     8   8   8   8   8   8
#     4  11  22  42  62  93 131 175 211 270 331 391
#     4  10  23  43  67  90 122 170 226 271 324 381
#     4  10  21  39  61  92 132 169 209 266 328 397
#     4  12  24  36  59  97 134 167 211 257 323 395
#     4  12  23  40  64  94 133 171 216 263 329 403
#     4   9  22  40  62  92 124 172 215 264 338 390
#
# _framework density 21.006865999999999
#
# number of rings (size 3 to 8) (size 9 to 14) (size 15 to 20)
#    0.000    1.333    3.333    3.500    7.000    1.333 
#    0.000    4.167    0.000    0.000    0.000    0.000 
#    0.000    0.000    0.000    0.000    0.000    0.000 
#
# Total GULP energy -594672.892923 kJ/mol
# GULP energy per Si atom -12389.018603 kJ/mol
# Density = 2.095905 g / cm^3
# Si number density = 21.006866 Si / 1000 Ang^3
#
#
#
# Elastic Constant Matrix: (Units=GPa)
#
#
# Indices 1 2 3 4 5 6 
#
# 1 107.1175 32.3697 61.8239 0.0000 0.0000 0.0000
# 2 32.3697 73.1812 55.3540 0.0000 0.0000 0.0000
# 3 61.8239 55.3540 137.4911 0.0000 0.0000 0.0000
# 4 0.0000 0.0000 0.0000 19.7720 0.0000 0.0000
# 5 0.0000 0.0000 0.0000 0.0000 -62.6598 0.0000
# 6 0.0000 0.0000 0.0000 0.0000 0.0000 36.0149
#
#
#
# Elastic Compliance Matrix: (Units=1/GPa)
#
#
# Indices 1 2 3 4 5 6 
#
# 1 0.012785 -0.001879 -0.004992 0.000000 0.000000 0.000000
# 2 -0.001879 0.019924 -0.007177 0.000000 0.000000 0.000000
# 3 -0.004992 -0.007177 0.012407 0.000000 0.000000 0.000000
# 4 0.000000 0.000000 0.000000 0.050577 0.000000 0.000000
# 5 0.000000 0.000000 0.000000 0.000000 -0.015959 0.000000
# 6 0.000000 0.000000 0.000000 0.000000 0.000000 0.027766
#
#
# Mechanical properties :
#
#
# Convention : Reuss Voigt Hill
#
# Bulk Modulus (GPa) = 58.75220 68.54279 63.64750
# Shear Modulus (GPa) = 35.39350 9.84157 22.61754
#
# Velocity S-wave (km/s) = 4.10915 2.16682 3.28483
# Velocity P-wave (km/s) = 7.10931 6.24177 6.68962
#
# Compressibility (1/GPa) = 0.01702064
#
# Stress axis : x y z
#
# Youngs Moduli (GPa) = 78.21883 50.19040 80.59733
#
# Poissons Ratio (x) = 0.09430 0.40237
# Poissons Ratio (y) = 0.14695 0.57842
# Poissons Ratio (z) = 0.39049 0.36020
#
# Static dielectric constant tensor:
#      x y z
#    x 4.008540 0.000000 0.000000 
#    y 0.000000 4.167690 0.000000 
#    z 0.000000 0.000000 4.265650 
# 
# 
# High freq. dielectric constant tensor:
#      x y z
#    x 1.811000 0.000000 0.000000 
#    y 0.000000 1.806670 0.000000 
#    z 0.000000 0.000000 1.838780 
# 
# From -- ./inp_files/31239.got.cif
#   From: 2010.06.25/outbox.cif.g09.slc.cpg/sg52_16_cif.got.tgz:31239.got - 2010.06.26 19:32:48.
