data_PCOD8216108
_publ_section_title
;
Structure prediction by ZEFSAII (Michael W. Deem and Ramdas Pophale) SiO2 
 PCOD8216108
Probable space group: P N N A
;
_chemical_formula_sum "Si O2"
_cell_formula_units_Z 56
_cell_length_a 14.328975
_cell_length_b 30.239840
_cell_length_c 5.922036
_cell_angle_alpha 90.000000
_cell_angle_beta 90.000000
_cell_angle_gamma 90.000000
_cell_volume 2566.053206
_symmetry_space_group_name_H-M "P N N A"
_symmetry_group_IT_number 52
_symmetry_cell_setting 'orthorhombic'
loop_
_space_group_symop_operation_xyz
x,y,z
1/2-x,-y,z
x,1/2-y,1/2-z
1/2-x,1/2+y,1/2-z
-x,-y,-z
1/2+x,y,-z
-x,1/2+y,1/2+z
1/2+x,1/2-y,1/2+z
loop_
_atom_site_type_symbol
_atom_site_label
_atom_site_fract_x
_atom_site_fract_y
_atom_site_fract_z
Si Si1 0.750000 0.500000 0.657286
Si Si2 0.169481 0.932018 0.849035
Si Si3 0.721939 0.852630 0.859980
Si Si4 0.558154 0.687737 0.880074
Si Si5 0.083245 0.171698 0.003945
Si Si6 0.189586 0.078661 0.462367
Si Si7 0.501062 0.607513 0.162606
Si Si8 0.002722 0.750000 0.750000
O O1 0.827397 0.475212 0.505612
O O2 0.804453 0.535928 0.803455
O O3 0.263140 0.932218 0.699593
O O4 0.073700 0.932689 0.706465
O O5 0.163518 0.886969 0.991654
O O6 0.649863 0.814490 0.779244
O O7 0.764287 0.877715 0.644226
O O8 0.804290 0.831588 0.014374
O O9 0.462483 0.685307 0.734266
O O10 0.560840 0.645441 0.041866
O O11 0.562558 0.732983 0.031021
O O12 0.043195 0.125380 0.101858
O O13 0.062802 0.209326 0.187440
O O14 0.080159 0.088862 0.500647
#
# Coordination Sequence:
#
# PCOD8216108 Si02
#       8
#     4   8   8   8   8   8   8   4
#     4  10  24  38  58  86 132 162 206 258 320 374
#     4  11  20  40  61  92 120 164 206 263 313 379
#     4  10  21  37  68  91 118 162 216 253 311 365
#     4  11  20  41  66  95 126 164 206 266 311 387
#     4  10  21  41  60  90 126 162 206 260 301 381
#     4  10  21  40  59  91 124 160 205 267 305 383
#     4  10  21  36  67  89 118 163 211 253 320 365
#     4  10  24  40  60  90 136 164 198 254 322 370
#
# _framework density 21.823398999999998
#
# number of rings (size 3 to 8) (size 9 to 14) (size 15 to 20)
#    0.000    1.714    2.857    1.714    0.000    0.571 
#    2.571    2.857    0.000    0.000    0.000    0.000 
#    0.000    0.000    0.000    0.000    0.000    0.000 
#
# Total GULP energy -694417.443286 kJ/mol
# GULP energy per Si atom -12400.311487 kJ/mol
# Density = 2.177373 g / cm^3
# Si number density = 21.823399 Si / 1000 Ang^3
#
#
#
# Elastic Constant Matrix: (Units=GPa)
#
#
# Indices 1 2 3 4 5 6 
#
# 1 125.0862 32.3897 22.3622 0.0000 0.0000 0.0000
# 2 32.3897 82.1178 14.5134 0.0000 0.0000 0.0000
# 3 22.3622 14.5134 72.6048 0.0000 0.0000 0.0000
# 4 0.0000 0.0000 0.0000 34.0386 0.0000 0.0000
# 5 0.0000 0.0000 0.0000 0.0000 28.3785 0.0000
# 6 0.0000 0.0000 0.0000 0.0000 0.0000 19.4907
#
#
#
# Elastic Compliance Matrix: (Units=1/GPa)
#
#
# Indices 1 2 3 4 5 6 
#
# 1 0.009229 -0.003253 -0.002192 0.000000 0.000000 0.000000
# 2 -0.003253 0.013770 -0.001751 0.000000 0.000000 0.000000
# 3 -0.002192 -0.001751 0.014798 0.000000 0.000000 0.000000
# 4 0.000000 0.000000 0.000000 0.029378 0.000000 0.000000
# 5 0.000000 0.000000 0.000000 0.000000 0.035238 0.000000
# 6 0.000000 0.000000 0.000000 0.000000 0.000000 0.051307
#
#
# Mechanical properties :
#
#
# Convention : Reuss Voigt Hill
#
# Bulk Modulus (GPa) = 42.72444 46.48214 44.60329
# Shear Modulus (GPa) = 28.42313 30.41778 29.42045
#
# Velocity S-wave (km/s) = 3.61281 3.73743 3.67565
# Velocity P-wave (km/s) = 6.08466 6.32218 6.20456
#
# Compressibility (1/GPa) = 0.02340581
#
# Stress axis : x y z
#
# Youngs Moduli (GPa) = 108.35857 72.62173 67.57499
#
# Poissons Ratio (x) = 0.23621 0.14814
# Poissons Ratio (y) = 0.35245 0.11831
# Poissons Ratio (z) = 0.23755 0.12714
#
# Static dielectric constant tensor:
#      x y z
#    x 3.850810 0.000000 0.000000 
#    y 0.000000 3.863850 0.000000 
#    z 0.000000 0.000000 3.963640 
# 
# 
# High freq. dielectric constant tensor:
#      x y z
#    x 1.847400 0.000000 0.000000 
#    y 0.000000 1.845580 0.000000 
#    z 0.000000 0.000000 1.857750 
# 
# From -- ./inp_files/2673.got.cif
#   From: 2010.06.25/outbox.cif.g09.slc.cpg/sg52_2_cif.got.tgz:2673.got - 2010.06.26 19:32:48.
