data_PCOD8216198
_publ_section_title
;
Structure prediction by ZEFSAII (Michael W. Deem and Ramdas Pophale) SiO2 
 PCOD8216198
Probable space group: P N N A
;
_chemical_formula_sum "Si O2"
_cell_formula_units_Z 56
_cell_length_a 14.353138
_cell_length_b 14.896521
_cell_length_c 12.124552
_cell_angle_alpha 90.000000
_cell_angle_beta 90.000000
_cell_angle_gamma 90.000000
_cell_volume 2592.372550
_symmetry_space_group_name_H-M "P N N A"
_symmetry_group_IT_number 52
_symmetry_cell_setting 'orthorhombic'
loop_
_space_group_symop_operation_xyz
x,y,z
1/2-x,-y,z
x,1/2-y,1/2-z
1/2-x,1/2+y,1/2-z
-x,-y,-z
1/2+x,y,-z
-x,1/2+y,1/2+z
1/2+x,1/2-y,1/2+z
loop_
_atom_site_type_symbol
_atom_site_label
_atom_site_fract_x
_atom_site_fract_y
_atom_site_fract_z
Si Si1 0.182970 0.425096 0.103322
Si Si2 0.087533 0.977473 0.577373
Si Si3 0.240217 0.228817 0.054111
Si Si4 0.534936 0.480549 0.734927
Si Si5 0.124229 0.726154 0.873623
Si Si6 0.585131 0.667507 0.673483
Si Si7 0.033584 0.156669 0.045984
O O1 0.250000 0.500000 0.157475
O O2 0.230007 0.328895 0.099265
O O3 0.092573 0.415224 0.182709
O O4 0.164523 0.457394 0.976193
O O5 0.122425 0.874709 0.579166
O O6 0.065189 0.998387 0.706008
O O7 0.000000 0.000000 0.500000
O O8 0.307537 0.179608 0.140249
O O9 0.142730 0.178329 0.039965
O O10 0.294589 0.223176 0.939083
O O11 0.587491 0.574917 0.738452
O O12 0.521331 0.436427 0.614458
O O13 0.152337 0.750000 0.750000
O O14 0.020581 0.764818 0.891042
O O15 0.550464 0.750000 0.750000
O O16 0.510787 0.651268 0.575256
#
# Coordination Sequence:
#
# PCOD8216198 Si02
#       7
#     8   8   8   8   8   8   8
#     4  11  22  38  66 100 131 170 225 290 344 399
#     4  10  21  38  66  95 128 172 223 281 337 407
#     4  11  26  42  66 103 137 169 234 284 339 415
#     4  11  24  42  69  93 134 180 228 280 350 415
#     4  11  22  44  67  98 141 179 221 282 348 407
#     4  11  27  45  68  98 139 177 228 290 348 407
#     4  11  25  43  68  98 130 186 226 275 344 427
#
# _framework density 21.601834
#
# number of rings (size 3 to 8) (size 9 to 14) (size 15 to 20)
#    0.000    1.143    2.857    3.000   12.000    0.571 
#    0.000    0.000    0.000    0.000    0.000    0.000 
#    0.000    0.000    0.000    0.000    0.000    0.000 
#
# Total GULP energy -693923.415969 kJ/mol
# GULP energy per Si atom -12391.489571 kJ/mol
# Density = 2.155267 g / cm^3
# Si number density = 21.601834 Si / 1000 Ang^3
#
#
#
# Elastic Constant Matrix: (Units=GPa)
#
#
# Indices 1 2 3 4 5 6 
#
# 1 100.4541 32.1967 39.0046 0.0000 0.0000 0.0000
# 2 32.1967 95.2749 23.3537 0.0000 0.0000 0.0000
# 3 39.0046 23.3537 107.6724 0.0000 0.0000 0.0000
# 4 0.0000 0.0000 0.0000 42.2350 0.0000 0.0000
# 5 0.0000 0.0000 0.0000 0.0000 23.6597 0.0000
# 6 0.0000 0.0000 0.0000 0.0000 0.0000 26.7756
#
#
#
# Elastic Compliance Matrix: (Units=1/GPa)
#
#
# Indices 1 2 3 4 5 6 
#
# 1 0.012488 -0.003286 -0.003811 0.000000 0.000000 0.000000
# 2 -0.003286 0.011950 -0.001402 0.000000 0.000000 0.000000
# 3 -0.003811 -0.001402 0.010972 0.000000 0.000000 0.000000
# 4 0.000000 0.000000 0.000000 0.023677 0.000000 0.000000
# 5 0.000000 0.000000 0.000000 0.000000 0.042266 0.000000
# 6 0.000000 0.000000 0.000000 0.000000 0.000000 0.037347
#
#
# Mechanical properties :
#
#
# Convention : Reuss Voigt Hill
#
# Bulk Modulus (GPa) = 54.31042 54.72350 54.51696
# Shear Modulus (GPa) = 30.89579 32.45718 31.67648
#
# Velocity S-wave (km/s) = 3.78595 3.88044 3.83349
# Velocity P-wave (km/s) = 6.65638 6.74277 6.69971
#
# Compressibility (1/GPa) = 0.01841267
#
# Stress axis : x y z
#
# Youngs Moduli (GPa) = 80.07873 83.68263 91.14134
#
# Poissons Ratio (x) = 0.27497 0.34734
# Poissons Ratio (y) = 0.26313 0.12774
# Poissons Ratio (z) = 0.30518 0.11729
#
# Static dielectric constant tensor:
#      x y z
#    x 4.055130 0.000000 0.000000 
#    y 0.000000 3.824080 0.000000 
#    z 0.000000 0.000000 4.129850 
# 
# 
# High freq. dielectric constant tensor:
#      x y z
#    x 1.850380 0.000000 0.000000 
#    y 0.000000 1.845950 0.000000 
#    z 0.000000 0.000000 1.852370 
# 
# From -- ./inp_files/19654.got.cif
#   From: 2010.06.25/outbox.cif.g09.slc.cpg/sg52_10_cif.got.tgz:19654.got - 2010.06.26 19:32:48.
