data_PCOD8216877
_publ_section_title
;
Structure prediction by ZEFSAII (Michael W. Deem and Ramdas Pophale) SiO2 
 PCOD8216877
Probable space group: P N N A
;
_chemical_formula_sum "Si O2"
_cell_formula_units_Z 64
_cell_length_a 12.984210
_cell_length_b 19.029466
_cell_length_c 13.070179
_cell_angle_alpha 90.000000
_cell_angle_beta 90.000000
_cell_angle_gamma 90.000000
_cell_volume 3229.413584
_symmetry_space_group_name_H-M "P N N A"
_symmetry_group_IT_number 52
_symmetry_cell_setting 'orthorhombic'
loop_
_space_group_symop_operation_xyz
x,y,z
1/2-x,-y,z
x,1/2-y,1/2-z
1/2-x,1/2+y,1/2-z
-x,-y,-z
1/2+x,y,-z
-x,1/2+y,1/2+z
1/2+x,1/2-y,1/2+z
loop_
_atom_site_type_symbol
_atom_site_label
_atom_site_fract_x
_atom_site_fract_y
_atom_site_fract_z
Si Si1 0.349594 0.190447 0.007188
Si Si2 0.594541 0.674643 0.729615
Si Si3 0.502599 0.771106 0.357246
Si Si4 0.746961 0.918485 0.142303
Si Si5 0.776874 0.575961 0.021539
Si Si6 0.571467 0.070437 0.298759
Si Si7 0.903854 0.087245 0.322060
Si Si8 0.723863 0.198621 0.623902
O O1 0.443601 0.222019 0.941303
O O2 0.272779 0.134056 0.952981
O O3 0.398066 0.155190 0.109445
O O4 0.284884 0.257890 0.038894
O O5 0.537831 0.750000 0.750000
O O6 0.533458 0.614216 0.789215
O O7 0.710754 0.684103 0.773223
O O8 0.553476 0.750000 0.250000
O O9 0.514603 0.855512 0.360317
O O10 0.380353 0.757896 0.356177
O O11 0.854053 0.907311 0.204041
O O12 0.651671 0.898763 0.214443
O O13 0.750000 0.000000 0.105589
O O14 0.750000 0.500000 0.976334
O O15 0.877008 0.585480 0.092440
O O16 0.679746 0.592928 0.090371
O O17 0.797656 0.623487 0.924546
O O18 0.542120 0.988167 0.304716
#
# Coordination Sequence:
#
# PCOD8216877 Si02
#       8
#     8   8   8   8   8   8   8   8
#     4  11  23  40  63  87 124 163 215 252 311 374
#     4  10  24  43  55  87 130 166 201 256 314 377
#     4  12  23  39  64  91 121 163 208 258 308 371
#     4   9  19  39  63  92 120 152 204 269 307 362
#     4   9  19  36  62  92 120 155 200 253 318 371
#     4   9  20  37  67  89 123 155 203 262 314 369
#     4   9  18  39  59  94 121 151 200 264 314 366
#     4  11  25  40  58  88 131 163 198 257 313 370
#
# _framework density 19.81784
#
# number of rings (size 3 to 8) (size 9 to 14) (size 15 to 20)
#    0.000    2.000    2.500    2.625    5.250    1.000 
#    0.000    8.125    0.000    0.000    0.000    0.000 
#    0.000    0.000    0.000    0.000    0.000    0.000 
#
# Total GULP energy -792869.587472 kJ/mol
# GULP energy per Si atom -12388.587304 kJ/mol
# Density = 1.977273 g / cm^3
# Si number density = 19.817840 Si / 1000 Ang^3
#
#
#
# Elastic Constant Matrix: (Units=GPa)
#
#
# Indices 1 2 3 4 5 6 
#
# 1 78.8685 30.3545 15.9928 0.0000 0.0000 0.0000
# 2 30.3545 85.4877 33.2977 0.0000 0.0000 0.0000
# 3 15.9928 33.2977 91.6806 0.0000 0.0000 0.0000
# 4 0.0000 0.0000 0.0000 31.0115 0.0000 0.0000
# 5 0.0000 0.0000 0.0000 0.0000 9.5552 0.0000
# 6 0.0000 0.0000 0.0000 0.0000 0.0000 24.9523
#
#
#
# Elastic Compliance Matrix: (Units=1/GPa)
#
#
# Indices 1 2 3 4 5 6 
#
# 1 0.014734 -0.004928 -0.000781 0.000000 0.000000 0.000000
# 2 -0.004928 0.015273 -0.004687 0.000000 0.000000 0.000000
# 3 -0.000781 -0.004687 0.012746 0.000000 0.000000 0.000000
# 4 0.000000 0.000000 0.000000 0.032246 0.000000 0.000000
# 5 0.000000 0.000000 0.000000 0.000000 0.104655 0.000000
# 6 0.000000 0.000000 0.000000 0.000000 0.000000 0.040077
#
#
# Mechanical properties :
#
#
# Convention : Reuss Voigt Hill
#
# Bulk Modulus (GPa) = 45.53346 46.14740 45.84043
# Shear Modulus (GPa) = 20.17411 24.86326 22.51868
#
# Velocity S-wave (km/s) = 3.19404 3.54586 3.37454
# Velocity P-wave (km/s) = 6.05214 6.33250 6.19390
#
# Compressibility (1/GPa) = 0.02196187
#
# Stress axis : x y z
#
# Youngs Moduli (GPa) = 67.86955 65.47469 78.45568
#
# Poissons Ratio (x) = 0.32264 0.06124
# Poissons Ratio (y) = 0.33444 0.36776
# Poissons Ratio (z) = 0.05297 0.30691
#
# Static dielectric constant tensor:
#      x y z
#    x 3.386210 0.000000 0.000000 
#    y 0.000000 3.812620 0.000000 
#    z 0.000000 0.000000 3.697660 
# 
# 
# High freq. dielectric constant tensor:
#      x y z
#    x 1.760150 0.000000 0.000000 
#    y 0.000000 1.775720 0.000000 
#    z 0.000000 0.000000 1.772160 
# 
# From -- ./inp_files/26363.got.cif
#   From: 2010.06.25/outbox.cif.g09.slc.cpg/sg52_14_cif.got.tgz:26363.got - 2010.06.26 19:32:48.
