data_PCOD8216462
_publ_section_title
;
Structure prediction by ZEFSAII (Michael W. Deem and Ramdas Pophale) SiO2 
 PCOD8216462
Probable space group: P N N A
;
_chemical_formula_sum "Si O2"
_cell_formula_units_Z 36
_cell_length_a 15.309687
_cell_length_b 5.222461
_cell_length_c 21.224296
_cell_angle_alpha 90.000000
_cell_angle_beta 90.000000
_cell_angle_gamma 90.000000
_cell_volume 1696.972526
_symmetry_space_group_name_H-M "P N N A"
_symmetry_group_IT_number 52
_symmetry_cell_setting 'orthorhombic'
loop_
_space_group_symop_operation_xyz
x,y,z
1/2-x,-y,z
x,1/2-y,1/2-z
1/2-x,1/2+y,1/2-z
-x,-y,-z
1/2+x,y,-z
-x,1/2+y,1/2+z
1/2+x,1/2-y,1/2+z
loop_
_atom_site_type_symbol
_atom_site_label
_atom_site_fract_x
_atom_site_fract_y
_atom_site_fract_z
Si Si1 0.808382 0.251491 0.967563
Si Si2 0.332589 0.372828 0.810173
Si Si3 0.558632 0.749441 0.419384
Si Si4 0.529597 0.250000 0.250000
Si Si5 0.540735 0.729834 0.616962
O O1 0.750000 0.500000 0.975642
O O2 0.856353 0.257570 0.899343
O O3 0.750000 0.000000 0.976525
O O4 0.887269 0.266139 0.016961
O O5 0.250000 0.500000 0.846233
O O6 0.284695 0.250000 0.750000
O O7 0.375095 0.184690 0.861485
O O8 0.410372 0.531726 0.778760
O O9 0.491921 0.515113 0.423112
O O10 0.512136 0.020153 0.405829
O O11 0.467950 0.334462 0.308487
#
# Coordination Sequence:
#
# PCOD8216462 Si02
#       5
#     8   8   8   4   8
#     4  12  25  43  64  93 123 160 209 266 308 353
#     4  11  20  33  55  88 128 158 198 241 306 366
#     4  11  23  40  64  91 125 167 201 247 309 379
#     4  10  22  38  58  88 122 168 204 248 296 374
#     4  11  23  42  66  90 124 164 209 249 307 371
#
# _framework density 21.214248999999999
#
# number of rings (size 3 to 8) (size 9 to 14) (size 15 to 20)
#    0.000    0.889    3.333    4.667    0.000    2.667 
#    0.000    1.111    0.000    0.000    0.000    0.000 
#    0.000    0.000    0.000    0.000    0.000    0.000 
#
# Total GULP energy -446124.778723 kJ/mol
# GULP energy per Si atom -12392.354965 kJ/mol
# Density = 2.116596 g / cm^3
# Si number density = 21.214249 Si / 1000 Ang^3
#
#
#
# Elastic Constant Matrix: (Units=GPa)
#
#
# Indices 1 2 3 4 5 6 
#
# 1 70.4310 34.5921 42.3829 0.0000 0.0000 0.0000
# 2 34.5921 128.5252 24.8538 0.0000 0.0000 0.0000
# 3 42.3829 24.8538 91.3797 0.0000 0.0000 0.0000
# 4 0.0000 0.0000 0.0000 21.8280 0.0000 0.0000
# 5 0.0000 0.0000 0.0000 0.0000 27.7014 0.0000
# 6 0.0000 0.0000 0.0000 0.0000 0.0000 18.9372
#
#
#
# Elastic Compliance Matrix: (Units=1/GPa)
#
#
# Indices 1 2 3 4 5 6 
#
# 1 0.021550 -0.004082 -0.008885 0.000000 0.000000 0.000000
# 2 -0.004082 0.008986 -0.000551 0.000000 0.000000 0.000000
# 3 -0.008885 -0.000551 0.015214 0.000000 0.000000 0.000000
# 4 0.000000 0.000000 0.000000 0.045813 0.000000 0.000000
# 5 0.000000 0.000000 0.000000 0.000000 0.036099 0.000000
# 6 0.000000 0.000000 0.000000 0.000000 0.000000 0.052806
#
#
# Mechanical properties :
#
#
# Convention : Reuss Voigt Hill
#
# Bulk Modulus (GPa) = 53.43436 54.88818 54.16127
# Shear Modulus (GPa) = 23.39285 26.26045 24.82665
#
# Velocity S-wave (km/s) = 3.32429 3.52215 3.42465
# Velocity P-wave (km/s) = 6.32275 6.51691 6.42057
#
# Compressibility (1/GPa) = 0.01871455
#
# Stress axis : x y z
#
# Youngs Moduli (GPa) = 46.40443 111.28781 65.72900
#
# Poissons Ratio (x) = 0.45427 0.58399
# Poissons Ratio (y) = 0.18942 0.03620
# Poissons Ratio (z) = 0.41229 0.06129
#
# Static dielectric constant tensor:
#      x y z
#    x 3.794410 0.000000 0.000000 
#    y 0.000000 1.073350 0.000000 
#    z 0.000000 0.000000 4.484630 
# 
# 
# High freq. dielectric constant tensor:
#      x y z
#    x 1.824720 0.000000 0.000000 
#    y 0.000000 1.835030 0.000000 
#    z 0.000000 0.000000 1.841090 
# 
# From -- ./inp_files/37043.got.cif
#   From: 2010.06.25/outbox.cif.g09.slc.cpg/sg52_19_cif.got.tgz:37043.got - 2010.06.26 19:32:48.
