data_PCOD8216577
_publ_section_title
;
Structure prediction by ZEFSAII (Michael W. Deem and Ramdas Pophale) SiO2 
 PCOD8216577
Probable space group: P N N A
;
_chemical_formula_sum "Si O2"
_cell_formula_units_Z 64
_cell_length_a 8.915386
_cell_length_b 11.955821
_cell_length_c 29.275276
_cell_angle_alpha 90.000000
_cell_angle_beta 90.000000
_cell_angle_gamma 90.000000
_cell_volume 3120.473894
_symmetry_space_group_name_H-M "P N N A"
_symmetry_group_IT_number 52
_symmetry_cell_setting 'orthorhombic'
loop_
_space_group_symop_operation_xyz
x,y,z
1/2-x,-y,z
x,1/2-y,1/2-z
1/2-x,1/2+y,1/2-z
-x,-y,-z
1/2+x,y,-z
-x,1/2+y,1/2+z
1/2+x,1/2-y,1/2+z
loop_
_atom_site_type_symbol
_atom_site_label
_atom_site_fract_x
_atom_site_fract_y
_atom_site_fract_z
Si Si1 0.976714 0.289480 0.299777
Si Si2 0.208385 0.372525 0.552944
Si Si3 0.409232 0.551964 0.821922
Si Si4 0.772012 0.626713 0.948017
Si Si5 0.161967 0.209080 0.847049
Si Si6 0.149452 0.100699 0.346326
Si Si7 0.468393 0.247077 0.996126
Si Si8 0.924613 0.529396 0.279543
O O1 0.922533 0.250000 0.250000
O O2 0.834620 0.275386 0.332688
O O3 0.020128 0.421366 0.297382
O O4 0.118019 0.212102 0.315704
O O5 0.250000 0.500000 0.548040
O O6 0.153647 0.345188 0.603487
O O7 0.357064 0.302206 0.541736
O O8 0.072557 0.348342 0.518204
O O9 0.250000 0.500000 0.813468
O O10 0.414363 0.669471 0.847843
O O11 0.492052 0.462255 0.854141
O O12 0.481611 0.563005 0.771045
O O13 0.750000 0.500000 0.963112
O O14 0.779160 0.641309 0.893495
O O15 0.926894 0.664169 0.970821
O O16 0.628093 0.696284 0.963936
O O17 0.058732 0.133870 0.813669
O O18 0.250000 0.000000 0.323397
O O19 0.750000 0.500000 0.280059
#
# Coordination Sequence:
#
# PCOD8216577 Si02
#       8
#     8   8   8   8   8   8   8   8
#     4  11  18  37  61  85 124 169 207 257 312 373
#     4  11  23  41  64  93 126 162 210 262 324 385
#     4  11  20  37  61  92 123 166 208 254 314 374
#     4  10  22  41  63  91 126 160 210 263 324 386
#     4  11  21  33  63  98 124 148 215 269 314 367
#     4  11  24  38  60  89 129 172 208 254 318 385
#     4  10  23  42  65  90 121 168 208 263 329 384
#     4   9  18  33  60  92 121 156 206 265 308 348
#
# _framework density 20.509705
#
# number of rings (size 3 to 8) (size 9 to 14) (size 15 to 20)
#    0.000    1.500    2.500    4.500    3.500    0.000 
#    0.000    1.250    0.000    0.000    0.000    0.000 
#    0.000    0.000    0.000    0.000    0.000    0.000 
#
# Total GULP energy -793350.716309 kJ/mol
# GULP energy per Si atom -12396.104942 kJ/mol
# Density = 2.046302 g / cm^3
# Si number density = 20.509705 Si / 1000 Ang^3
#
#
#
# Elastic Constant Matrix: (Units=GPa)
#
#
# Indices 1 2 3 4 5 6 
#
# 1 69.8816 36.3350 22.7543 0.0000 0.0000 0.0000
# 2 36.3350 129.9910 17.4711 0.0000 0.0000 0.0000
# 3 22.7543 17.4711 53.6843 0.0000 0.0000 0.0000
# 4 0.0000 0.0000 0.0000 16.0328 0.0000 0.0000
# 5 0.0000 0.0000 0.0000 0.0000 32.7047 0.0000
# 6 0.0000 0.0000 0.0000 0.0000 0.0000 35.4017
#
#
#
# Elastic Compliance Matrix: (Units=1/GPa)
#
#
# Indices 1 2 3 4 5 6 
#
# 1 0.018690 -0.004350 -0.006506 0.000000 0.000000 0.000000
# 2 -0.004350 0.009057 -0.001104 0.000000 0.000000 0.000000
# 3 -0.006506 -0.001104 0.021744 0.000000 0.000000 0.000000
# 4 0.000000 0.000000 0.000000 0.062372 0.000000 0.000000
# 5 0.000000 0.000000 0.000000 0.000000 0.030577 0.000000
# 6 0.000000 0.000000 0.000000 0.000000 0.000000 0.028247
#
#
# Mechanical properties :
#
#
# Convention : Reuss Voigt Hill
#
# Bulk Modulus (GPa) = 39.10574 45.18640 42.14607
# Shear Modulus (GPa) = 24.61463 28.62761 26.62112
#
# Velocity S-wave (km/s) = 3.46807 3.74010 3.60665
# Velocity P-wave (km/s) = 5.92832 6.38206 6.15937
#
# Compressibility (1/GPa) = 0.02557169
#
# Stress axis : x y z
#
# Youngs Moduli (GPa) = 53.50418 110.41114 45.98888
#
# Poissons Ratio (x) = 0.48027 0.29922
# Poissons Ratio (y) = 0.23273 0.05077
# Poissons Ratio (z) = 0.34811 0.12188
#
# Static dielectric constant tensor:
#      x y z
#    x 4.039530 0.000000 0.000000 
#    y 0.000000 4.007620 0.000000 
#    z 0.000000 0.000000 3.636890 
# 
# 
# High freq. dielectric constant tensor:
#      x y z
#    x 1.781380 0.000000 0.000000 
#    y 0.000000 1.816000 0.000000 
#    z 0.000000 0.000000 1.796820 
# 
# From -- ./inp_files/44623.got.cif
#   From: 2010.06.25/outbox.cif.g09.slc.cpg/sg52_23_cif.got.tgz:44623.got - 2010.06.26 19:32:48.
