data_PCOD8216505
_publ_section_title
;
Structure prediction by ZEFSAII (Michael W. Deem and Ramdas Pophale) SiO2 
 PCOD8216505
Probable space group: P N N A
;
_chemical_formula_sum "Si O2"
_cell_formula_units_Z 40
_cell_length_a 18.660759
_cell_length_b 10.058616
_cell_length_c 10.568388
_cell_angle_alpha 90.000000
_cell_angle_beta 90.000000
_cell_angle_gamma 90.000000
_cell_volume 1983.701319
_symmetry_space_group_name_H-M "P N N A"
_symmetry_group_IT_number 52
_symmetry_cell_setting 'orthorhombic'
loop_
_space_group_symop_operation_xyz
x,y,z
1/2-x,-y,z
x,1/2-y,1/2-z
1/2-x,1/2+y,1/2-z
-x,-y,-z
1/2+x,y,-z
-x,1/2+y,1/2+z
1/2+x,1/2-y,1/2+z
loop_
_atom_site_type_symbol
_atom_site_label
_atom_site_fract_x
_atom_site_fract_y
_atom_site_fract_z
Si Si1 0.315079 0.750000 0.750000
Si Si2 0.442298 0.230241 0.105655
Si Si3 0.091111 0.282976 0.503998
Si Si4 0.371869 0.005110 0.434077
Si Si5 0.250000 0.500000 0.866646
Si Si6 0.167620 0.506010 0.352199
O O1 0.363718 0.709809 0.631909
O O2 0.263679 0.626330 0.778275
O O3 0.465574 0.250000 0.250000
O O4 0.509882 0.168802 0.030595
O O5 0.427962 0.375955 0.050073
O O6 0.372461 0.135856 0.091257
O O7 0.088295 0.134649 0.448567
O O8 0.126237 0.375729 0.398247
O O9 0.316958 0.030267 0.545847
O O10 0.332445 0.012637 0.299149
O O11 0.250000 0.500000 0.399325
#
# Coordination Sequence:
#
# PCOD8216505 Si02
#       6
#     4   8   8   8   4   8
#     4  10  24  38  62  86 124 164 200 242 310 362
#     4  10  22  40  60  89 124 161 201 252 309 363
#     4  11  22  41  62  87 125 161 205 250 302 370
#     4  10  22  39  66  88 123 159 205 252 310 359
#     4  10  22  40  60  92 124 154 204 252 302 366
#     4  11  24  38  65  95 122 158 207 257 308 357
#
# _framework density 20.164325999999999
#
# number of rings (size 3 to 8) (size 9 to 14) (size 15 to 20)
#    0.000    1.600    2.000    1.800    7.000    1.600 
#    0.000    0.000    0.000    0.000    0.000    0.000 
#    0.000    0.000    0.000    0.000    0.000    0.000 
#
# Total GULP energy -496089.567402 kJ/mol
# GULP energy per Si atom -12402.239185 kJ/mol
# Density = 2.011843 g / cm^3
# Si number density = 20.164326 Si / 1000 Ang^3
#
#
#
# Elastic Constant Matrix: (Units=GPa)
#
#
# Indices 1 2 3 4 5 6 
#
# 1 142.2159 68.8069 31.2374 0.0000 0.0000 0.0000
# 2 68.8069 151.1625 52.4531 0.0000 0.0000 0.0000
# 3 31.2374 52.4531 56.6336 0.0000 0.0000 0.0000
# 4 0.0000 0.0000 0.0000 36.8497 0.0000 0.0000
# 5 0.0000 0.0000 0.0000 0.0000 13.4148 0.0000
# 6 0.0000 0.0000 0.0000 0.0000 0.0000 24.7152
#
#
#
# Elastic Compliance Matrix: (Units=1/GPa)
#
#
# Indices 1 2 3 4 5 6 
#
# 1 0.009134 -0.003550 -0.001749 0.000000 0.000000 0.000000
# 2 -0.003550 0.011128 -0.008349 0.000000 0.000000 0.000000
# 3 -0.001749 -0.008349 0.026355 0.000000 0.000000 0.000000
# 4 0.000000 0.000000 0.000000 0.027137 0.000000 0.000000
# 5 0.000000 0.000000 0.000000 0.000000 0.074544 0.000000
# 6 0.000000 0.000000 0.000000 0.000000 0.000000 0.040461
#
#
# Mechanical properties :
#
#
# Convention : Reuss Voigt Hill
#
# Bulk Modulus (GPa) = 51.76082 72.77853 62.26968
# Shear Modulus (GPa) = 22.47225 28.16357 25.31791
#
# Velocity S-wave (km/s) = 3.34197 3.74130 3.54726
# Velocity P-wave (km/s) = 6.37314 7.40501 6.90837
#
# Compressibility (1/GPa) = 0.01931963
#
# Stress axis : x y z
#
# Youngs Moduli (GPa) = 109.48590 89.85949 37.94376
#
# Poissons Ratio (x) = 0.31904 0.06638
# Poissons Ratio (y) = 0.38872 0.31678
# Poissons Ratio (z) = 0.19154 0.75021
#
# Static dielectric constant tensor:
#      x y z
#    x 3.629780 0.000000 0.000000 
#    y 0.000000 3.786490 0.000000 
#    z 0.000000 0.000000 3.639850 
# 
# 
# High freq. dielectric constant tensor:
#      x y z
#    x 1.789490 0.000000 0.000000 
#    y 0.000000 1.796830 0.000000 
#    z 0.000000 0.000000 1.784140 
# 
# From -- ./inp_files/20390.got.cif
#   From: 2010.06.25/outbox.cif.g09.slc.cpg/sg52_11_cif.got.tgz:20390.got - 2010.06.26 19:32:48.
