data_PCOD8216383
_publ_section_title
;
Structure prediction by ZEFSAII (Michael W. Deem and Ramdas Pophale) SiO2 
 PCOD8216383
Probable space group: P N N A
;
_chemical_formula_sum "Si O2"
_cell_formula_units_Z 48
_cell_length_a 8.206194
_cell_length_b 13.941453
_cell_length_c 17.611474
_cell_angle_alpha 90.000000
_cell_angle_beta 90.000000
_cell_angle_gamma 90.000000
_cell_volume 2014.863014
_symmetry_space_group_name_H-M "P N N A"
_symmetry_group_IT_number 52
_symmetry_cell_setting 'orthorhombic'
loop_
_space_group_symop_operation_xyz
x,y,z
1/2-x,-y,z
x,1/2-y,1/2-z
1/2-x,1/2+y,1/2-z
-x,-y,-z
1/2+x,y,-z
-x,1/2+y,1/2+z
1/2+x,1/2-y,1/2+z
loop_
_atom_site_type_symbol
_atom_site_label
_atom_site_fract_x
_atom_site_fract_y
_atom_site_fract_z
Si Si1 0.496032 0.432906 0.401389
Si Si2 0.002773 0.184303 0.445104
Si Si3 0.172193 0.400379 0.917210
Si Si4 0.339614 0.616433 0.455519
Si Si5 0.361005 0.854853 0.288076
Si Si6 0.510313 0.558182 0.764452
O O1 0.419036 0.539205 0.398864
O O2 0.346470 0.362991 0.429890
O O3 0.649107 0.425305 0.458378
O O4 0.560091 0.407361 0.317144
O O5 0.030682 0.125764 0.523190
O O6 0.045409 0.293452 0.454872
O O7 0.117100 0.144648 0.378523
O O8 0.812680 0.180154 0.422189
O O9 0.250000 0.500000 0.943139
O O10 0.107336 0.407038 0.831441
O O11 0.401579 0.750000 0.250000
O O12 0.178236 0.885288 0.271954
O O13 0.477030 0.942169 0.260776
#
# Coordination Sequence:
#
# PCOD8216383 Si02
#       6
#     8   8   8   8   8   8
#     4  10  21  43  70  96 142 173 231 286 355 419
#     4  12  24  42  71  96 143 180 243 284 341 434
#     4  12  26  45  65 102 135 191 233 287 355 419
#     4  10  21  42  69 105 127 187 228 282 351 426
#     4  11  23  42  71 100 134 183 233 288 358 426
#     4  11  24  44  68  98 140 180 230 292 360 422
#
# _framework density 23.822959999999998
#
# number of rings (size 3 to 8) (size 9 to 14) (size 15 to 20)
#    0.000    1.000    1.667    6.500    2.333    1.333 
#    6.000    2.500    0.000    0.000    0.000    0.000 
#    0.000    0.000    0.000    0.000    0.000    0.000 
#
# Total GULP energy -594948.966169 kJ/mol
# GULP energy per Si atom -12394.770129 kJ/mol
# Density = 2.376874 g / cm^3
# Si number density = 23.822960 Si / 1000 Ang^3
#
#
#
# Elastic Constant Matrix: (Units=GPa)
#
#
# Indices 1 2 3 4 5 6 
#
# 1 60.8373 46.6501 65.6945 0.0000 0.0000 0.0000
# 2 46.6501 91.3275 37.1070 0.0000 0.0000 0.0000
# 3 65.6945 37.1070 210.4687 0.0000 0.0000 0.0000
# 4 0.0000 0.0000 0.0000 53.1052 0.0000 0.0000
# 5 0.0000 0.0000 0.0000 0.0000 46.4355 0.0000
# 6 0.0000 0.0000 0.0000 0.0000 0.0000 18.2943
#
#
#
# Elastic Compliance Matrix: (Units=1/GPa)
#
#
# Indices 1 2 3 4 5 6 
#
# 1 0.038718 -0.016014 -0.009262 0.000000 0.000000 0.000000
# 2 -0.016014 0.018418 0.001751 0.000000 0.000000 0.000000
# 3 -0.009262 0.001751 0.007333 0.000000 0.000000 0.000000
# 4 0.000000 0.000000 0.000000 0.018831 0.000000 0.000000
# 5 0.000000 0.000000 0.000000 0.000000 0.021535 0.000000
# 6 0.000000 0.000000 0.000000 0.000000 0.000000 0.054662
#
#
# Mechanical properties :
#
#
# Convention : Reuss Voigt Hill
#
# Bulk Modulus (GPa) = 57.40392 73.50409 65.45401
# Shear Modulus (GPa) = 23.54559 37.77912 30.66236
#
# Velocity S-wave (km/s) = 3.14723 3.98657 3.59150
# Velocity P-wave (km/s) = 6.11188 7.21883 6.68830
#
# Compressibility (1/GPa) = 0.01742041
#
# Stress axis : x y z
#
# Youngs Moduli (GPa) = 25.82750 54.29444 136.36060
#
# Poissons Ratio (x) = 0.86948 1.26296
# Poissons Ratio (y) = 0.41361 -0.23882
# Poissons Ratio (z) = 0.23921 -0.09509
#
# Static dielectric constant tensor:
#      x y z
#    x 4.371550 0.000000 0.000000 
#    y 0.000000 4.558460 0.000000 
#    z 0.000000 0.000000 4.575340 
# 
# 
# High freq. dielectric constant tensor:
#      x y z
#    x 1.928900 0.000000 0.000000 
#    y 0.000000 1.944280 0.000000 
#    z 0.000000 0.000000 1.958820 
# 
# From -- ./inp_files/31240.got.cif
#   From: 2010.06.25/outbox.cif.g09.slc.cpg/sg52_16_cif.got.tgz:31240.got - 2010.06.26 19:32:48.
