data_PCOD8216427
_publ_section_title
;
Structure prediction by ZEFSAII (Michael W. Deem and Ramdas Pophale) SiO2 
 PCOD8216427
Probable space group: P N N A
;
_chemical_formula_sum "Si O2"
_cell_formula_units_Z 44
_cell_length_a 14.604448
_cell_length_b 10.303988
_cell_length_c 17.232298
_cell_angle_alpha 90.000000
_cell_angle_beta 90.000000
_cell_angle_gamma 90.000000
_cell_volume 2593.186113
_symmetry_space_group_name_H-M "P N N A"
_symmetry_group_IT_number 52
_symmetry_cell_setting 'orthorhombic'
loop_
_space_group_symop_operation_xyz
x,y,z
1/2-x,-y,z
x,1/2-y,1/2-z
1/2-x,1/2+y,1/2-z
-x,-y,-z
1/2+x,y,-z
-x,1/2+y,1/2+z
1/2+x,1/2-y,1/2+z
loop_
_atom_site_type_symbol
_atom_site_label
_atom_site_fract_x
_atom_site_fract_y
_atom_site_fract_z
Si Si1 0.649326 0.491818 0.589244
Si Si2 0.128421 0.250000 0.750000
Si Si3 0.463057 0.951689 0.852188
Si Si4 0.220117 0.354421 0.901040
Si Si5 0.887859 0.176884 0.054904
Si Si6 0.575975 0.270266 0.496536
O O1 0.750000 0.500000 0.627471
O O2 0.572850 0.527825 0.653474
O O3 0.642389 0.585554 0.515386
O O4 0.633564 0.344002 0.562424
O O5 0.068006 0.124017 0.774662
O O6 0.191884 0.294703 0.819486
O O7 0.440662 0.866623 0.926174
O O8 0.411727 0.089369 0.868503
O O9 0.250000 0.500000 0.889078
O O10 0.305566 0.272265 0.929434
O O11 0.136461 0.349451 0.963831
O O12 0.976375 0.265694 0.031663
#
# Coordination Sequence:
#
# PCOD8216427 Si02
#       6
#     8   4   8   8   8   8
#     4   9  13  26  54  80  92 117 164 212 253 289
#     4  10  22  34  44  68 106 132 172 196 236 324
#     4   8  17  29  48  73  97 130 157 203 247 280
#     4  11  22  31  47  72  98 141 169 199 254 303
#     4   9  17  30  50  71 103 125 155 214 254 290
#     4   8  16  30  46  75 100 119 160 203 254 293
#
# _framework density 16.967544
#
# number of rings (size 3 to 8) (size 9 to 14) (size 15 to 20)
#    0.000    2.909    1.818    2.182    2.545    0.727 
#    0.000    0.000    0.000    0.000    9.455    2.545 
#    0.000    0.000    0.000    0.000    0.000    0.000 
#
# Total GULP energy -545128.946752 kJ/mol
# GULP energy per Si atom -12389.294244 kJ/mol
# Density = 1.692893 g / cm^3
# Si number density = 16.967544 Si / 1000 Ang^3
#
#
#
# Elastic Constant Matrix: (Units=GPa)
#
#
# Indices 1 2 3 4 5 6 
#
# 1 125.1490 36.6328 31.2838 0.0000 0.0000 0.0000
# 2 36.6328 61.8197 22.7640 0.0000 0.0000 0.0000
# 3 31.2838 22.7640 46.2965 0.0000 0.0000 0.0000
# 4 0.0000 0.0000 0.0000 20.1305 0.0000 0.0000
# 5 0.0000 0.0000 0.0000 0.0000 6.2144 0.0000
# 6 0.0000 0.0000 0.0000 0.0000 0.0000 15.2478
#
#
#
# Elastic Compliance Matrix: (Units=1/GPa)
#
#
# Indices 1 2 3 4 5 6 
#
# 1 0.010516 -0.004414 -0.004936 0.000000 0.000000 0.000000
# 2 -0.004414 0.021605 -0.007640 0.000000 0.000000 0.000000
# 3 -0.004936 -0.007640 0.028692 0.000000 0.000000 0.000000
# 4 0.000000 0.000000 0.000000 0.049676 0.000000 0.000000
# 5 0.000000 0.000000 0.000000 0.000000 0.160916 0.000000
# 6 0.000000 0.000000 0.000000 0.000000 0.000000 0.065583
#
#
# Mechanical properties :
#
#
# Convention : Reuss Voigt Hill
#
# Bulk Modulus (GPa) = 37.26797 46.06960 41.66878
# Shear Modulus (GPa) = 13.16089 17.82418 15.49253
#
# Velocity S-wave (km/s) = 2.78807 3.24464 3.02498
# Velocity P-wave (km/s) = 5.69003 6.42242 6.06728
#
# Compressibility (1/GPa) = 0.02683270
#
# Stress axis : x y z
#
# Youngs Moduli (GPa) = 95.08978 46.28488 34.85302
#
# Poissons Ratio (x) = 0.20431 0.17202
# Poissons Ratio (y) = 0.41975 0.26629
# Poissons Ratio (z) = 0.46934 0.35364
#
# Static dielectric constant tensor:
#      x y z
#    x 3.635360 0.000000 0.000000 
#    y 0.000000 3.229650 0.000000 
#    z 0.000000 0.000000 3.023480 
# 
# 
# High freq. dielectric constant tensor:
#      x y z
#    x 1.673670 0.000000 0.000000 
#    y 0.000000 1.630230 0.000000 
#    z 0.000000 0.000000 1.611950 
# 
# From -- ./inp_files/32972.got.cif
#   From: 2010.06.25/outbox.cif.g09.slc.cpg/sg52_17_cif.got.tgz:32972.got - 2010.06.26 19:32:48.
