data_PCOD8216901
_publ_section_title
;
Structure prediction by ZEFSAII (Michael W. Deem and Ramdas Pophale) SiO2 
 PCOD8216901
Probable space group: P N N A
;
_chemical_formula_sum "Si O2"
_cell_formula_units_Z 48
_cell_length_a 30.068987
_cell_length_b 8.523057
_cell_length_c 9.020035
_cell_angle_alpha 90.000000
_cell_angle_beta 90.000000
_cell_angle_gamma 90.000000
_cell_volume 2311.651775
_symmetry_space_group_name_H-M "P N N A"
_symmetry_group_IT_number 52
_symmetry_cell_setting 'orthorhombic'
loop_
_space_group_symop_operation_xyz
x,y,z
1/2-x,-y,z
x,1/2-y,1/2-z
1/2-x,1/2+y,1/2-z
-x,-y,-z
1/2+x,y,-z
-x,1/2+y,1/2+z
1/2+x,1/2-y,1/2+z
loop_
_atom_site_type_symbol
_atom_site_label
_atom_site_fract_x
_atom_site_fract_y
_atom_site_fract_z
Si Si1 0.588469 0.750000 0.750000
Si Si2 0.636720 0.940520 0.497511
Si Si3 0.726009 0.850602 0.617419
Si Si4 0.410164 0.250000 0.750000
Si Si5 0.050970 0.957202 0.000879
Si Si6 0.720223 0.347519 0.397793
Si Si7 0.621035 0.211653 0.082972
O O1 0.617379 0.857481 0.642000
O O2 0.558124 0.635518 0.653122
O O3 0.689406 0.908605 0.499614
O O4 0.620051 0.869676 0.342728
O O5 0.626231 0.125155 0.505827
O O6 0.704130 0.750000 0.750000
O O7 0.763745 0.750380 0.537724
O O8 0.750000 0.000000 0.690764
O O9 0.441116 0.151670 0.858900
O O10 0.083128 0.108664 0.996015
O O11 0.000000 0.000000 0.000000
O O12 0.750000 0.500000 0.382289
O O13 0.726342 0.250000 0.250000
O O14 0.667643 0.385422 0.419965
O O15 0.606160 0.250000 0.250000
#
# Coordination Sequence:
#
# PCOD8216901 Si02
#       7
#     4   8   8   4   8   8   8
#     4  10  26  44  68 102 134 178 220 280 344 406
#     4  11  23  44  67 101 137 181 228 276 347 403
#     4  12  25  42  62  95 137 180 226 280 337 401
#     4  10  24  44  74  96 136 180 222 284 336 416
#     4  11  26  46  73 103 136 177 228 279 350 406
#     4  11  26  40  64  97 132 176 231 279 329 394
#     4  11  24  44  70 101 135 180 230 283 339 406
#
# _framework density 20.764374
#
# number of rings (size 3 to 8) (size 9 to 14) (size 15 to 20)
#    0.000    1.000    4.167    1.000    9.333    3.333 
#    0.000    3.333    0.000    0.000    0.000    0.000 
#    0.000    0.000    0.000    0.000    0.000    0.000 
#
# Total GULP energy -595323.145805 kJ/mol
# GULP energy per Si atom -12402.565538 kJ/mol
# Density = 2.071711 g / cm^3
# Si number density = 20.764374 Si / 1000 Ang^3
#
#
#
# Elastic Constant Matrix: (Units=GPa)
#
#
# Indices 1 2 3 4 5 6 
#
# 1 148.1984 80.8649 47.0872 0.0000 0.0000 0.0000
# 2 80.8649 139.2509 43.0460 0.0000 0.0000 0.0000
# 3 47.0872 43.0460 104.5194 0.0000 0.0000 0.0000
# 4 0.0000 0.0000 0.0000 27.1319 0.0000 0.0000
# 5 0.0000 0.0000 0.0000 0.0000 21.1217 0.0000
# 6 0.0000 0.0000 0.0000 0.0000 0.0000 36.5181
#
#
#
# Elastic Compliance Matrix: (Units=1/GPa)
#
#
# Indices 1 2 3 4 5 6 
#
# 1 0.010429 -0.005275 -0.002526 0.000000 0.000000 0.000000
# 2 -0.005275 0.010897 -0.002111 0.000000 0.000000 0.000000
# 3 -0.002526 -0.002111 0.011575 0.000000 0.000000 0.000000
# 4 0.000000 0.000000 0.000000 0.036857 0.000000 0.000000
# 5 0.000000 0.000000 0.000000 0.000000 0.047345 0.000000
# 6 0.000000 0.000000 0.000000 0.000000 0.000000 0.027384
#
#
# Mechanical properties :
#
#
# Convention : Reuss Voigt Hill
#
# Bulk Modulus (GPa) = 76.47426 81.55167 79.01296
# Shear Modulus (GPa) = 29.64366 31.68571 30.66468
#
# Velocity S-wave (km/s) = 3.78249 3.91060 3.84708
# Velocity P-wave (km/s) = 7.48236 7.72984 7.60711
#
# Compressibility (1/GPa) = 0.01307630
#
# Stress axis : x y z
#
# Youngs Moduli (GPa) = 95.88928 91.76441 86.39286
#
# Poissons Ratio (x) = 0.48409 0.21819
# Poissons Ratio (y) = 0.50585 0.18242
# Poissons Ratio (z) = 0.24218 0.19376
#
# Static dielectric constant tensor:
#      x y z
#    x 3.656160 0.000000 0.000000 
#    y 0.000000 4.952450 0.000000 
#    z 0.000000 0.000000 3.751790 
# 
# 
# High freq. dielectric constant tensor:
#      x y z
#    x 1.805800 0.000000 0.000000 
#    y 0.000000 1.828630 0.000000 
#    z 0.000000 0.000000 1.820200 
# 
# From -- ./inp_files/15580.got.cif
#   From: 2010.06.25/outbox.cif.g09.slc.cpg/sg52_8_cif.got.tgz:15580.got - 2010.06.26 19:32:48.
