data_PCOD8216735
_publ_section_title
;
Structure prediction by ZEFSAII (Michael W. Deem and Ramdas Pophale) SiO2 
 PCOD8216735
Probable space group: P N N A
;
_chemical_formula_sum "Si O2"
_cell_formula_units_Z 48
_cell_length_a 13.742311
_cell_length_b 24.502976
_cell_length_c 6.983389
_cell_angle_alpha 90.000000
_cell_angle_beta 90.000000
_cell_angle_gamma 90.000000
_cell_volume 2351.499236
_symmetry_space_group_name_H-M "P N N A"
_symmetry_group_IT_number 52
_symmetry_cell_setting 'orthorhombic'
loop_
_space_group_symop_operation_xyz
x,y,z
1/2-x,-y,z
x,1/2-y,1/2-z
1/2-x,1/2+y,1/2-z
-x,-y,-z
1/2+x,y,-z
-x,1/2+y,1/2+z
1/2+x,1/2-y,1/2+z
loop_
_atom_site_type_symbol
_atom_site_label
_atom_site_fract_x
_atom_site_fract_y
_atom_site_fract_z
Si Si1 0.324984 0.698364 0.115363
Si Si2 0.220196 0.625564 0.415309
Si Si3 0.821125 0.307706 0.213948
Si Si4 0.897842 0.947092 0.895325
Si Si5 0.454860 0.059410 0.219035
Si Si6 0.499272 0.375810 0.910225
O O1 0.347571 0.750000 0.250000
O O2 0.258094 0.656177 0.228918
O O3 0.425704 0.672418 0.039648
O O4 0.266288 0.711685 0.923714
O O5 0.224248 0.665513 0.596271
O O6 0.289382 0.573117 0.443616
O O7 0.109784 0.606492 0.379479
O O8 0.876876 0.250000 0.250000
O O9 0.892784 0.350896 0.117940
O O10 0.962209 0.903030 0.782936
O O11 0.892406 0.003310 0.773524
O O12 0.948678 0.954787 0.100078
O O13 0.490963 0.078371 0.426590
#
# Coordination Sequence:
#
# PCOD8216735 Si02
#       6
#     8   8   8   8   8   8
#     4  11  23  42  61  90 123 164 207 255 311 368
#     4  11  22  40  63  89 126 163 205 256 310 370
#     4  12  23  40  64  91 123 164 210 254 312 373
#     4  10  23  39  64  89 126 163 206 255 307 377
#     4  11  21  41  64  91 123 164 205 254 317 366
#     4  11  23  40  63  92 124 160 209 260 307 370
#
# _framework density 20.412510999999999
#
# number of rings (size 3 to 8) (size 9 to 14) (size 15 to 20)
#    0.000    1.000    5.000    2.500    0.000    0.000 
#    0.000    0.833    0.000    0.000    0.000    0.000 
#    0.000    0.000    0.000    0.000    0.000    0.000 
#
# Total GULP energy -595237.596682 kJ/mol
# GULP energy per Si atom -12400.783264 kJ/mol
# Density = 2.036605 g / cm^3
# Si number density = 20.412511 Si / 1000 Ang^3
#
#
#
# Elastic Constant Matrix: (Units=GPa)
#
#
# Indices 1 2 3 4 5 6 
#
# 1 63.4198 13.1420 20.2528 0.0000 0.0000 0.0000
# 2 13.1420 90.8678 13.3282 0.0000 0.0000 0.0000
# 3 20.2528 13.3282 73.3955 0.0000 0.0000 0.0000
# 4 0.0000 0.0000 0.0000 45.1792 0.0000 0.0000
# 5 0.0000 0.0000 0.0000 0.0000 16.3768 0.0000
# 6 0.0000 0.0000 0.0000 0.0000 0.0000 31.3139
#
#
#
# Elastic Compliance Matrix: (Units=1/GPa)
#
#
# Indices 1 2 3 4 5 6 
#
# 1 0.017600 -0.001883 -0.004515 0.000000 0.000000 0.000000
# 2 -0.001883 0.011508 -0.001570 0.000000 0.000000 0.000000
# 3 -0.004515 -0.001570 0.015156 0.000000 0.000000 0.000000
# 4 0.000000 0.000000 0.000000 0.022134 0.000000 0.000000
# 5 0.000000 0.000000 0.000000 0.000000 0.061062 0.000000
# 6 0.000000 0.000000 0.000000 0.000000 0.000000 0.031935
#
#
# Mechanical properties :
#
#
# Convention : Reuss Voigt Hill
#
# Bulk Modulus (GPa) = 35.30136 35.68102 35.49119
# Shear Modulus (GPa) = 27.06031 30.63795 28.84913
#
# Velocity S-wave (km/s) = 3.64493 3.87840 3.76348
# Velocity P-wave (km/s) = 5.91993 6.12976 6.02575
#
# Compressibility (1/GPa) = 0.02832752
#
# Stress axis : x y z
#
# Youngs Moduli (GPa) = 56.81848 86.89864 65.98191
#
# Poissons Ratio (x) = 0.16365 0.29788
# Poissons Ratio (y) = 0.10700 0.10360
# Poissons Ratio (z) = 0.25651 0.13644
#
# Static dielectric constant tensor:
#      x y z
#    x 3.574560 0.000000 0.000000 
#    y 0.000000 3.816050 0.000000 
#    z 0.000000 0.000000 3.550870 
# 
# 
# High freq. dielectric constant tensor:
#      x y z
#    x 1.794050 0.000000 0.000000 
#    y 0.000000 1.809890 0.000000 
#    z 0.000000 0.000000 1.795800 
# 
# From -- ./inp_files/2452.got.cif
#   From: 2010.06.25/outbox.cif.g09.slc.cpg/sg52_2_cif.got.tgz:2452.got - 2010.06.26 19:32:48.
