data_PCOD8216538
_publ_section_title
;
Structure prediction by ZEFSAII (Michael W. Deem and Ramdas Pophale) SiO2 
 PCOD8216538
Probable space group: P N N A
;
_chemical_formula_sum "Si O2"
_cell_formula_units_Z 56
_cell_length_a 15.236121
_cell_length_b 7.827847
_cell_length_c 21.938037
_cell_angle_alpha 90.000000
_cell_angle_beta 90.000000
_cell_angle_gamma 90.000000
_cell_volume 2616.462449
_symmetry_space_group_name_H-M "P N N A"
_symmetry_group_IT_number 52
_symmetry_cell_setting 'orthorhombic'
loop_
_space_group_symop_operation_xyz
x,y,z
1/2-x,-y,z
x,1/2-y,1/2-z
1/2-x,1/2+y,1/2-z
-x,-y,-z
1/2+x,y,-z
-x,1/2+y,1/2+z
1/2+x,1/2-y,1/2+z
loop_
_atom_site_type_symbol
_atom_site_label
_atom_site_fract_x
_atom_site_fract_y
_atom_site_fract_z
Si Si1 0.350729 0.858818 0.631864
Si Si2 0.656759 0.713904 0.583993
Si Si3 0.855671 0.681512 0.582963
Si Si4 0.823968 0.202589 0.317431
Si Si5 0.396395 0.517244 0.997844
Si Si6 0.021402 0.798024 0.180063
Si Si7 0.987250 0.816753 0.817832
O O1 0.257119 0.758946 0.636047
O O2 0.361362 0.970110 0.570877
O O3 0.430078 0.732179 0.645211
O O4 0.348898 0.001688 0.685100
O O5 0.756674 0.706325 0.606781
O O6 0.626629 0.519275 0.565440
O O7 0.598731 0.788920 0.640230
O O8 0.647021 0.849163 0.528561
O O9 0.868329 0.799265 0.524214
O O10 0.921766 0.767096 0.632863
O O11 0.793418 0.250000 0.250000
O O12 0.911357 0.303030 0.338305
O O13 0.500000 0.500000 0.000000
O O14 0.018838 0.750000 0.250000
O O15 0.045449 0.992954 0.179886
O O16 0.972628 0.750000 0.750000
#
# Coordination Sequence:
#
# PCOD8216538 Si02
#       7
#     8   8   8   8   8   8   8
#     4  11  24  41  64  97 129 177 230 276 344 417
#     4  10  24  45  67 100 137 182 225 287 345 405
#     4  10  24  45  67  97 143 178 229 287 340 411
#     4  10  22  40  63  90 134 170 217 282 332 401
#     4  12  24  44  73  97 139 180 233 286 345 416
#     4  11  22  40  67  96 132 175 229 283 347 414
#     4  10  22  40  65  97 133 179 226 284 348 410
#
# _framework density 21.402944000000002
#
# number of rings (size 3 to 8) (size 9 to 14) (size 15 to 20)
#    0.000    1.429    1.429    3.429    6.000    4.000 
#    2.571    0.000    0.000    0.000    0.000    0.000 
#    0.000    0.000    0.000    0.000    0.000    0.000 
#
# Total GULP energy -694005.862130 kJ/mol
# GULP energy per Si atom -12392.961824 kJ/mol
# Density = 2.135423 g / cm^3
# Si number density = 21.402944 Si / 1000 Ang^3
#
#
#
# Elastic Constant Matrix: (Units=GPa)
#
#
# Indices 1 2 3 4 5 6 
#
# 1 146.2892 21.5853 58.5674 0.0000 0.0000 0.0000
# 2 21.5853 82.1478 46.0987 0.0000 0.0000 0.0000
# 3 58.5674 46.0987 117.6343 0.0000 0.0000 0.0000
# 4 0.0000 0.0000 0.0000 29.8037 0.0000 0.0000
# 5 0.0000 0.0000 0.0000 0.0000 37.2766 0.0000
# 6 0.0000 0.0000 0.0000 0.0000 0.0000 32.0612
#
#
#
# Elastic Compliance Matrix: (Units=1/GPa)
#
#
# Indices 1 2 3 4 5 6 
#
# 1 0.008540 0.000182 -0.004323 0.000000 0.000000 0.000000
# 2 0.000182 0.015609 -0.006207 0.000000 0.000000 0.000000
# 3 -0.004323 -0.006207 0.013086 0.000000 0.000000 0.000000
# 4 0.000000 0.000000 0.000000 0.033553 0.000000 0.000000
# 5 0.000000 0.000000 0.000000 0.000000 0.026826 0.000000
# 6 0.000000 0.000000 0.000000 0.000000 0.000000 0.031190
#
#
# Mechanical properties :
#
#
# Convention : Reuss Voigt Hill
#
# Bulk Modulus (GPa) = 60.46887 66.50823 63.48855
# Shear Modulus (GPa) = 32.25531 34.48297 33.36914
#
# Velocity S-wave (km/s) = 3.88629 4.01825 3.95282
# Velocity P-wave (km/s) = 6.96072 7.25742 7.11062
#
# Compressibility (1/GPa) = 0.01653743
#
# Stress axis : x y z
#
# Youngs Moduli (GPa) = 117.10072 64.06657 76.41842
#
# Poissons Ratio (x) = -0.01166 0.33036
# Poissons Ratio (y) = -0.02132 0.47436
# Poissons Ratio (z) = 0.50623 0.39769
#
# Static dielectric constant tensor:
#      x y z
#    x 4.135160 0.000000 0.000000 
#    y 0.000000 4.055730 0.000000 
#    z 0.000000 0.000000 2.175100 
# 
# 
# High freq. dielectric constant tensor:
#      x y z
#    x 1.858180 0.000000 0.000000 
#    y 0.000000 1.839280 0.000000 
#    z 0.000000 0.000000 1.830790 
# 
# From -- ./inp_files/37320.got.cif
#   From: 2010.06.25/outbox.cif.g09.slc.cpg/sg52_19_cif.got.tgz:37320.got - 2010.06.26 19:32:48.
