data_PCOD8216304
_publ_section_title
;
Structure prediction by ZEFSAII (Michael W. Deem and Ramdas Pophale) SiO2 
 PCOD8216304
Probable space group: P N N A
;
_chemical_formula_sum "Si O2"
_cell_formula_units_Z 36
_cell_length_a 13.582060
_cell_length_b 5.058267
_cell_length_c 20.609623
_cell_angle_alpha 90.000000
_cell_angle_beta 90.000000
_cell_angle_gamma 90.000000
_cell_volume 1415.915846
_symmetry_space_group_name_H-M "P N N A"
_symmetry_group_IT_number 52
_symmetry_cell_setting 'orthorhombic'
loop_
_space_group_symop_operation_xyz
x,y,z
1/2-x,-y,z
x,1/2-y,1/2-z
1/2-x,1/2+y,1/2-z
-x,-y,-z
1/2+x,y,-z
-x,1/2+y,1/2+z
1/2+x,1/2-y,1/2+z
loop_
_atom_site_type_symbol
_atom_site_label
_atom_site_fract_x
_atom_site_fract_y
_atom_site_fract_z
Si Si1 0.647573 0.161208 0.391919
Si Si2 0.684362 0.250000 0.250000
Si Si3 0.865360 0.499444 0.785445
Si Si4 0.441743 0.966005 0.427066
Si Si5 0.358926 0.029322 0.007310
O O1 0.622516 0.207747 0.315883
O O2 0.558104 0.987545 0.418171
O O3 0.648675 0.439618 0.431329
O O4 0.750000 0.000000 0.402799
O O5 0.750000 0.500000 0.266188
O O6 0.750000 0.500000 0.772154
O O7 0.914798 0.250000 0.750000
O O8 0.882900 0.490918 0.861507
O O9 0.914941 0.750000 0.750000
O O10 0.400135 0.175071 0.480421
O O11 0.429460 0.670265 0.453786
O O12 0.250000 0.000000 0.037945
#
# Coordination Sequence:
#
# PCOD8216304 Si02
#       5
#     8   4   8   8   8
#     4  11  26  49  73 108 150 196 250 310 370 442
#     4  10  24  46  72 100 140 194 250 302 364 434
#     4  10  21  40  65  97 138 182 234 293 355 423
#     4  12  26  44  74 108 147 190 245 299 375 444
#     4  12  25  46  74 107 146 190 242 307 375 441
#
# _framework density 25.425241
#
# number of rings (size 3 to 8) (size 9 to 14) (size 15 to 20)
#    0.000    0.889    0.000    6.667    1.556    8.889 
#    8.000    0.000    0.000    0.000    0.000    0.000 
#    0.000    0.000    0.000    0.000    0.000    0.000 
#
# Total GULP energy -446345.607302 kJ/mol
# GULP energy per Si atom -12398.489092 kJ/mol
# Density = 2.536737 g / cm^3
# Si number density = 25.425241 Si / 1000 Ang^3
#
#
#
# Elastic Constant Matrix: (Units=GPa)
#
#
# Indices 1 2 3 4 5 6 
#
# 1 108.1684 6.4881 10.1259 0.0000 0.0000 0.0000
# 2 6.4881 131.1347 46.7267 0.0000 0.0000 0.0000
# 3 10.1259 46.7267 190.9272 0.0000 0.0000 0.0000
# 4 0.0000 0.0000 0.0000 330.2702 0.0000 0.0000
# 5 0.0000 0.0000 0.0000 0.0000 60.4743 0.0000
# 6 0.0000 0.0000 0.0000 0.0000 0.0000 22.5971
#
#
#
# Elastic Compliance Matrix: (Units=1/GPa)
#
#
# Indices 1 2 3 4 5 6 
#
# 1 0.009303 -0.000312 -0.000417 0.000000 0.000000 0.000000
# 2 -0.000312 0.008365 -0.002031 0.000000 0.000000 0.000000
# 3 -0.000417 -0.002031 0.005757 0.000000 0.000000 0.000000
# 4 0.000000 0.000000 0.000000 0.003028 0.000000 0.000000
# 5 0.000000 0.000000 0.000000 0.000000 0.016536 0.000000
# 6 0.000000 0.000000 0.000000 0.000000 0.000000 0.044253
#
#
# Mechanical properties :
#
#
# Convention : Reuss Voigt Hill
#
# Bulk Modulus (GPa) = 55.84943 61.87908 58.86425
# Shear Modulus (GPa) = 50.64403 107.12764 78.88583
#
# Velocity S-wave (km/s) = 4.46789 6.49814 5.57619
# Velocity P-wave (km/s) = 6.97351 8.98285 8.04119
#
# Compressibility (1/GPa) = 0.01790529
#
# Stress axis : x y z
#
# Youngs Moduli (GPa) = 107.49700 119.54959 173.71114
#
# Poissons Ratio (x) = 0.03726 0.07245
# Poissons Ratio (y) = 0.03350 0.35274
# Poissons Ratio (z) = 0.04484 0.24276
#
# Static dielectric constant tensor:
#      x y z
#    x 4.607480 0.000000 0.000000 
#    y 0.000000 4.747490 0.000000 
#    z 0.000000 0.000000 4.821230 
# 
# 
# High freq. dielectric constant tensor:
#      x y z
#    x 2.018220 0.000000 0.000000 
#    y 0.000000 2.023850 0.000000 
#    z 0.000000 0.000000 2.032720 
# 
# From -- ./inp_files/37047.got.cif
#   From: 2010.06.25/outbox.cif.g09.slc.cpg/sg52_19_cif.got.tgz:37047.got - 2010.06.26 19:32:48.
