data_PCOD8216591
_publ_section_title
;
Structure prediction by ZEFSAII (Michael W. Deem and Ramdas Pophale) SiO2 
 PCOD8216591
Probable space group: P N N A
;
_chemical_formula_sum "Si O2"
_cell_formula_units_Z 40
_cell_length_a 26.027475
_cell_length_b 10.537209
_cell_length_c 6.632014
_cell_angle_alpha 90.000000
_cell_angle_beta 90.000000
_cell_angle_gamma 90.000000
_cell_volume 1818.875891
_symmetry_space_group_name_H-M "P N N A"
_symmetry_group_IT_number 52
_symmetry_cell_setting 'orthorhombic'
loop_
_space_group_symop_operation_xyz
x,y,z
1/2-x,-y,z
x,1/2-y,1/2-z
1/2-x,1/2+y,1/2-z
-x,-y,-z
1/2+x,y,-z
-x,1/2+y,1/2+z
1/2+x,1/2-y,1/2+z
loop_
_atom_site_type_symbol
_atom_site_label
_atom_site_fract_x
_atom_site_fract_y
_atom_site_fract_z
Si Si1 0.317343 0.750000 0.750000
Si Si2 0.425353 0.079799 0.277022
Si Si3 0.745786 0.646175 0.579497
Si Si4 0.869354 0.289285 0.473560
Si Si5 0.519273 0.250000 0.250000
Si Si6 0.100507 0.316525 0.050373
O O1 0.283853 0.656728 0.611489
O O2 0.352795 0.838096 0.605693
O O3 0.384977 0.168290 0.394254
O O4 0.484075 0.126369 0.278463
O O5 0.425161 0.945824 0.380983
O O6 0.403429 0.088021 0.046119
O O7 0.750000 0.500000 0.661055
O O8 0.760903 0.750000 0.750000
O O9 0.690004 0.678142 0.496138
O O10 0.884087 0.250000 0.250000
O O11 0.555386 0.266600 0.446822
O O12 0.122502 0.250000 0.250000
#
# Coordination Sequence:
#
# PCOD8216591 Si02
#       6
#     4   8   8   8   4   8
#     4  11  28  42  62 102 140 184 226 285 350 414
#     4  10  23  43  68  96 136 172 227 287 334 424
#     4  12  27  45  70 100 140 188 238 289 347 416
#     4  10  22  41  65  96 128 178 227 275 343 406
#     4   9  22  44  66 100 128 178 224 281 352 412
#     4  11  25  42  67  99 136 175 225 283 350 411
#
# _framework density 21.991606999999998
#
# number of rings (size 3 to 8) (size 9 to 14) (size 15 to 20)
#    0.000    1.600    3.000    1.200    8.400    6.400 
#    0.000    0.000    0.000    0.000    0.000    0.000 
#    0.000    0.000    0.000    0.000    0.000    0.000 
#
# Total GULP energy -495756.942826 kJ/mol
# GULP energy per Si atom -12393.923571 kJ/mol
# Density = 2.194155 g / cm^3
# Si number density = 21.991607 Si / 1000 Ang^3
#
#
#
# Elastic Constant Matrix: (Units=GPa)
#
#
# Indices 1 2 3 4 5 6 
#
# 1 120.7559 22.0882 54.3003 0.0000 0.0000 0.0000
# 2 22.0882 114.7229 43.8786 0.0000 0.0000 0.0000
# 3 54.3003 43.8786 147.4425 0.0000 0.0000 0.0000
# 4 0.0000 0.0000 0.0000 29.1552 0.0000 0.0000
# 5 0.0000 0.0000 0.0000 0.0000 -4.5646 0.0000
# 6 0.0000 0.0000 0.0000 0.0000 0.0000 14.4072
#
#
#
# Elastic Compliance Matrix: (Units=1/GPa)
#
#
# Indices 1 2 3 4 5 6 
#
# 1 0.009959 -0.000581 -0.003495 0.000000 0.000000 0.000000
# 2 -0.000581 0.009870 -0.002723 0.000000 0.000000 0.000000
# 3 -0.003495 -0.002723 0.008880 0.000000 0.000000 0.000000
# 4 0.000000 0.000000 0.000000 0.034299 0.000000 0.000000
# 5 0.000000 0.000000 0.000000 0.000000 -0.219077 0.000000
# 6 0.000000 0.000000 0.000000 0.000000 0.000000 0.069410
#
#
# Mechanical properties :
#
#
# Convention : Reuss Voigt Hill
#
# Bulk Modulus (GPa) = 66.17774 69.27285 67.72529
# Shear Modulus (GPa) = -73.50307 25.30984 -24.09661
#
# Velocity S-wave (km/s) = -5.78756 3.39615 -3.31376
# Velocity P-wave (km/s) = 3.80834 6.85175 4.02760
#
# Compressibility (1/GPa) = 0.01511082
#
# Stress axis : x y z
#
# Youngs Moduli (GPa) = 100.41244 101.31583 112.61401
#
# Poissons Ratio (x) = 0.05884 0.39357
# Poissons Ratio (y) = 0.05831 0.30670
# Poissons Ratio (z) = 0.35093 0.27593
#
# Static dielectric constant tensor:
#      x y z
#    x 4.038300 0.000000 0.000000 
#    y 0.000000 4.209470 0.000000 
#    z 0.000000 0.000000 4.714240 
# 
# 
# High freq. dielectric constant tensor:
#      x y z
#    x 1.881250 0.000000 0.000000 
#    y 0.000000 1.842010 0.000000 
#    z 0.000000 0.000000 1.876390 
# 
# From -- ./inp_files/5639.got.cif
#   From: 2010.06.25/outbox.cif.g09.slc.cpg/sg52_3_cif.got.tgz:5639.got - 2010.06.26 19:32:48.
