data_PCOD8216048
_publ_section_title
;
Structure prediction by ZEFSAII (Michael W. Deem and Ramdas Pophale) SiO2 
 PCOD8216048
Probable space group: P N N A
;
_chemical_formula_sum "Si O2"
_cell_formula_units_Z 32
_cell_length_a 9.308953
_cell_length_b 24.773400
_cell_length_c 4.915504
_cell_angle_alpha 90.000000
_cell_angle_beta 90.000000
_cell_angle_gamma 90.000000
_cell_volume 1133.586086
_symmetry_space_group_name_H-M "P N N A"
_symmetry_group_IT_number 52
_symmetry_cell_setting 'orthorhombic'
loop_
_space_group_symop_operation_xyz
x,y,z
1/2-x,-y,z
x,1/2-y,1/2-z
1/2-x,1/2+y,1/2-z
-x,-y,-z
1/2+x,y,-z
-x,1/2+y,1/2+z
1/2+x,1/2-y,1/2+z
loop_
_atom_site_type_symbol
_atom_site_label
_atom_site_fract_x
_atom_site_fract_y
_atom_site_fract_z
Si Si1 0.750000 0.000000 0.085622
Si Si2 0.655163 0.653997 0.029958
Si Si3 0.493229 0.750000 0.750000
Si Si4 0.488848 0.431175 0.288889
Si Si5 0.339222 0.659103 0.465681
O O1 0.869634 0.968674 0.270788
O O2 0.653125 0.961547 0.895764
O O3 0.581019 0.709760 0.943861
O O4 0.558714 0.600315 0.983545
O O5 0.800025 0.653086 0.850114
O O6 0.698081 0.651065 0.346133
O O7 0.398015 0.718101 0.532321
O O8 0.538159 0.385675 0.501523
#
# Coordination Sequence:
#
# PCOD8216048 Si02
#       5
#     4   8   4   8   8
#     4  10  20  46  74 110 138 198 238 314 370 428
#     4  11  24  44  69 103 143 188 236 295 355 431
#     4  10  24  40  70 104 144 190 236 290 356 430
#     4  10  22  42  76 100 148 181 249 295 368 429
#     4  11  24  44  69 103 143 188 236 295 355 431
#
# _framework density 28.229002999999999
#
# number of rings (size 3 to 8) (size 9 to 14) (size 15 to 20)
#    0.000    1.500    2.500    1.500    0.000   10.000 
#    0.000    3.750    0.000    0.000    0.000    0.000 
#    0.000    0.000    0.000    0.000    0.000    0.000 
#
# Total GULP energy -396567.728105 kJ/mol
# GULP energy per Si atom -12392.741503 kJ/mol
# Density = 2.816475 g / cm^3
# Si number density = 28.229003 Si / 1000 Ang^3
#
#
#
# Elastic Constant Matrix: (Units=GPa)
#
#
# Indices 1 2 3 4 5 6 
#
# 1 180.3365 74.8777 32.8870 0.0000 0.0000 0.0000
# 2 74.8777 164.3331 -0.7218 0.0000 0.0000 0.0000
# 3 32.8870 -0.7218 51.6371 0.0000 0.0000 0.0000
# 4 0.0000 0.0000 0.0000 -3.1525 0.0000 0.0000
# 5 0.0000 0.0000 0.0000 0.0000 13.0557 0.0000
# 6 0.0000 0.0000 0.0000 0.0000 0.0000 43.1375
#
#
#
# Elastic Compliance Matrix: (Units=1/GPa)
#
#
# Indices 1 2 3 4 5 6 
#
# 1 0.008010 -0.003672 -0.005152 0.000000 0.000000 0.000000
# 2 -0.003672 0.007769 0.002447 0.000000 0.000000 0.000000
# 3 -0.005152 0.002447 0.022682 0.000000 0.000000 0.000000
# 4 0.000000 0.000000 0.000000 -0.317210 0.000000 0.000000
# 5 0.000000 0.000000 0.000000 0.000000 0.076595 0.000000
# 6 0.000000 0.000000 0.000000 0.000000 0.000000 0.023182
#
#
# Mechanical properties :
#
#
# Convention : Reuss Voigt Hill
#
# Bulk Modulus (GPa) = 38.90178 67.82139 53.36159
# Shear Modulus (GPa) = -31.71583 29.89240 -0.91171
#
# Velocity S-wave (km/s) = -3.35553 3.25764 -0.56892
# Velocity P-wave (km/s) = 1.09639 6.18282 4.30262
#
# Compressibility (1/GPa) = 0.02570576
#
# Stress axis : x y z
#
# Youngs Moduli (GPa) = 124.85115 128.71426 44.08845
#
# Poissons Ratio (x) = 0.47266 0.22717
# Poissons Ratio (y) = 0.45847 -0.10790
# Poissons Ratio (z) = 0.64329 -0.31501
#
# Static dielectric constant tensor:
#      x y z
#    x 5.638340 0.000000 0.000000 
#    y 0.000000 5.703830 0.000000 
#    z 0.000000 0.000000 5.340260 
# 
# 
# High freq. dielectric constant tensor:
#      x y z
#    x 2.176670 0.000000 0.000000 
#    y 0.000000 2.163390 0.000000 
#    z 0.000000 0.000000 2.113440 
# 
# From -- ./inp_files/429.got.cif
#   From: 2010.06.25/outbox.cif.g09.slc.cpg/sg52_1_cif.got.tgz:429.got - 2010.06.26 19:32:48.
