data_PCOD8216766
_publ_section_title
;
Structure prediction by ZEFSAII (Michael W. Deem and Ramdas Pophale) SiO2 
 PCOD8216766
Probable space group: P N N A
;
_chemical_formula_sum "Si O2"
_cell_formula_units_Z 48
_cell_length_a 8.604622
_cell_length_b 15.783286
_cell_length_c 15.687260
_cell_angle_alpha 90.000000
_cell_angle_beta 90.000000
_cell_angle_gamma 90.000000
_cell_volume 2130.474387
_symmetry_space_group_name_H-M "P N N A"
_symmetry_group_IT_number 52
_symmetry_cell_setting 'orthorhombic'
loop_
_space_group_symop_operation_xyz
x,y,z
1/2-x,-y,z
x,1/2-y,1/2-z
1/2-x,1/2+y,1/2-z
-x,-y,-z
1/2+x,y,-z
-x,1/2+y,1/2+z
1/2+x,1/2-y,1/2+z
loop_
_atom_site_type_symbol
_atom_site_label
_atom_site_fract_x
_atom_site_fract_y
_atom_site_fract_z
Si Si1 0.646798 0.653831 0.413550
Si Si2 0.353202 0.346169 0.913549
Si Si3 0.688350 0.094797 0.575864
Si Si4 0.685254 0.594648 0.750000
Si Si5 0.811650 0.594797 0.575864
Si Si6 0.157791 0.150219 0.750000
O O1 0.590007 0.750000 0.399864
O O2 0.753639 0.650312 0.497029
O O3 0.498316 0.593262 0.423341
O O4 0.745734 0.622841 0.332850
O O5 0.501684 0.406738 0.923341
O O6 0.254267 0.377159 0.832849
O O7 0.246361 0.349688 0.997029
O O8 0.750510 0.138168 0.663591
O O9 0.750000 0.000000 0.565440
O O10 0.750000 0.500000 0.750000
O O11 0.749490 0.638168 0.663591
O O12 0.499538 0.596340 0.750000
O O13 0.750000 0.500000 0.565440
O O14 0.117805 0.250000 0.750000
#
# Coordination Sequence:
#
# PCOD8216766 Si02
#       6
#     8   8   8   8   8   8
#     4  11  23  41  65  94 125 164 210 260 312 370
#     4  11  23  41  65  94 125 164 210 260 312 370
#     4  11  23  41  62  92 128 166 208 255 312 372
#     4  10  23  42  62  89 123 163 206 248 307 370
#     4  11  23  41  62  92 128 166 208 255 312 372
#     4  10  23  42  66  93 125 163 206 256 312 368
#
# _framework density 22.530194999999999
#
# number of rings (size 3 to 8) (size 9 to 14) (size 15 to 20)
#    0.000    1.333    0.000    5.000    0.000    8.000 
#    0.000    7.500    0.000    0.000    0.000    0.000 
#    0.000    0.000    0.000    0.000    0.000    0.000 
#
# Total GULP energy -595430.951248 kJ/mol
# GULP energy per Si atom -12404.811484 kJ/mol
# Density = 2.247891 g / cm^3
# Si number density = 22.530195 Si / 1000 Ang^3
#
#
#
# Elastic Constant Matrix: (Units=GPa)
#
#
# Indices 1 2 3 4 5 6 
#
# 1 203.8110 43.1508 83.6978 0.0000 0.0000 0.0000
# 2 43.1508 61.8630 12.8163 0.0000 0.0000 0.0000
# 3 83.6978 12.8163 221.7784 0.0000 0.0000 0.0000
# 4 0.0000 0.0000 0.0000 16.5162 0.0000 0.0000
# 5 0.0000 0.0000 0.0000 0.0000 45.7554 0.0000
# 6 0.0000 0.0000 0.0000 0.0000 0.0000 37.1205
#
#
#
# Elastic Compliance Matrix: (Units=1/GPa)
#
#
# Indices 1 2 3 4 5 6 
#
# 1 0.006747 -0.004229 -0.002302 0.000000 0.000000 0.000000
# 2 -0.004229 0.019012 0.000498 0.000000 0.000000 0.000000
# 3 -0.002302 0.000498 0.005349 0.000000 0.000000 0.000000
# 4 0.000000 0.000000 0.000000 0.060547 0.000000 0.000000
# 5 0.000000 0.000000 0.000000 0.000000 0.021855 0.000000
# 6 0.000000 0.000000 0.000000 0.000000 0.000000 0.026939
#
#
# Mechanical properties :
#
#
# Convention : Reuss Voigt Hill
#
# Bulk Modulus (GPa) = 52.52030 85.19801 68.85915
# Shear Modulus (GPa) = 31.47347 43.06427 37.26887
#
# Velocity S-wave (km/s) = 3.74163 4.37670 4.07157
# Velocity P-wave (km/s) = 6.48291 7.96479 7.26174
#
# Compressibility (1/GPa) = 0.01904026
#
# Stress axis : x y z
#
# Youngs Moduli (GPa) = 148.20721 52.59878 186.95064
#
# Poissons Ratio (x) = 0.22247 0.43036
# Poissons Ratio (y) = 0.62684 -0.09301
# Poissons Ratio (z) = 0.34117 -0.02617
#
# Static dielectric constant tensor:
#      x y z
#    x 3.960930 0.000000 0.000000 
#    y 0.000000 3.629520 0.000000 
#    z 0.000000 0.000000 4.830520 
# 
# 
# High freq. dielectric constant tensor:
#      x y z
#    x 1.896250 0.000000 0.000000 
#    y 0.000000 1.866080 0.000000 
#    z 0.000000 0.000000 1.916770 
# 
# From -- ./inp_files/24692.got.cif
#   From: 2010.06.25/outbox.cif.g09.slc.cpg/sg52_13_cif.got.tgz:24692.got - 2010.06.26 19:32:48.
