data_PCOD8216725
_publ_section_title
;
Structure prediction by ZEFSAII (Michael W. Deem and Ramdas Pophale) SiO2 
 PCOD8216725
Probable space group: P N N A
;
_chemical_formula_sum "Si O2"
_cell_formula_units_Z 28
_cell_length_a 20.817769
_cell_length_b 7.494633
_cell_length_c 7.808181
_cell_angle_alpha 90.000000
_cell_angle_beta 90.000000
_cell_angle_gamma 90.000000
_cell_volume 1218.244413
_symmetry_space_group_name_H-M "P N N A"
_symmetry_group_IT_number 52
_symmetry_cell_setting 'orthorhombic'
loop_
_space_group_symop_operation_xyz
x,y,z
1/2-x,-y,z
x,1/2-y,1/2-z
1/2-x,1/2+y,1/2-z
-x,-y,-z
1/2+x,y,-z
-x,1/2+y,1/2+z
1/2+x,1/2-y,1/2+z
loop_
_atom_site_type_symbol
_atom_site_label
_atom_site_fract_x
_atom_site_fract_y
_atom_site_fract_z
Si Si1 0.621234 0.434631 0.099230
Si Si2 0.571630 0.052082 0.043396
Si Si3 0.168798 0.726639 0.437267
Si Si4 0.238732 0.250000 0.750000
O O1 0.590656 0.259564 0.010519
O O2 0.576696 0.495628 0.256013
O O3 0.692453 0.407607 0.181843
O O4 0.626708 0.594806 0.966470
O O5 0.500000 0.000000 0.000000
O O6 0.619979 0.937852 0.927689
O O7 0.202260 0.750000 0.250000
O O8 0.219606 0.687217 0.587125
#
# Coordination Sequence:
#
# PCOD8216725 Si02
#       4
#     8   8   8   4
#     4  10  24  47  74  98 145 198 226 303 371 414
#     4  10  23  44  72 101 136 189 242 286 355 430
#     4  12  25  44  72 107 140 187 235 296 361 428
#     4  10  22  50  72 100 146 180 236 298 362 420
#
# _framework density 22.983892999999998
#
# number of rings (size 3 to 8) (size 9 to 14) (size 15 to 20)
#    0.000    1.714    2.857    0.857    8.000    2.286 
#   25.714    0.000    0.000    0.000    0.000    0.000 
#    0.000    0.000    0.000    0.000    0.000    0.000 
#
# Total GULP energy -347111.933003 kJ/mol
# GULP energy per Si atom -12396.854750 kJ/mol
# Density = 2.293158 g / cm^3
# Si number density = 22.983893 Si / 1000 Ang^3
#
#
#
# Elastic Constant Matrix: (Units=GPa)
#
#
# Indices 1 2 3 4 5 6 
#
# 1 160.5994 35.1912 49.3878 0.0000 0.0000 0.0000
# 2 35.1912 117.8089 33.1787 0.0000 0.0000 0.0000
# 3 49.3878 33.1787 121.0791 0.0000 0.0000 0.0000
# 4 0.0000 0.0000 0.0000 17.7803 0.0000 0.0000
# 5 0.0000 0.0000 0.0000 0.0000 21.9173 0.0000
# 6 0.0000 0.0000 0.0000 0.0000 0.0000 21.2628
#
#
#
# Elastic Compliance Matrix: (Units=1/GPa)
#
#
# Indices 1 2 3 4 5 6 
#
# 1 0.007345 -0.001463 -0.002595 0.000000 0.000000 0.000000
# 2 -0.001463 0.009490 -0.002004 0.000000 0.000000 0.000000
# 3 -0.002595 -0.002004 0.009867 0.000000 0.000000 0.000000
# 4 0.000000 0.000000 0.000000 0.056242 0.000000 0.000000
# 5 0.000000 0.000000 0.000000 0.000000 0.045626 0.000000
# 6 0.000000 0.000000 0.000000 0.000000 0.000000 0.047030
#
#
# Mechanical properties :
#
#
# Convention : Reuss Voigt Hill
#
# Bulk Modulus (GPa) = 68.59792 70.55587 69.57690
# Shear Modulus (GPa) = 25.96274 30.97406 28.46840
#
# Velocity S-wave (km/s) = 3.36461 3.67501 3.52323
# Velocity P-wave (km/s) = 6.70858 6.98371 6.84752
#
# Compressibility (1/GPa) = 0.01457770
#
# Stress axis : x y z
#
# Youngs Moduli (GPa) = 136.13984 105.37756 101.35152
#
# Poissons Ratio (x) = 0.15420 0.26303
# Poissons Ratio (y) = 0.19921 0.20306
# Poissons Ratio (z) = 0.35331 0.21113
#
# Static dielectric constant tensor:
#      x y z
#    x 3.995950 0.000000 0.000000 
#    y 0.000000 4.393930 0.000000 
#    z 0.000000 0.000000 4.014080 
# 
# 
# High freq. dielectric constant tensor:
#      x y z
#    x 1.897320 0.000000 0.000000 
#    y 0.000000 1.924970 0.000000 
#    z 0.000000 0.000000 1.895840 
# 
# From -- ./inp_files/11330.got.cif
#   From: 2010.06.25/outbox.cif.g09.slc.cpg/sg52_6_cif.got.tgz:11330.got - 2010.06.26 19:32:48.
