data_PCOD8216247
_publ_section_title
;
Structure prediction by ZEFSAII (Michael W. Deem and Ramdas Pophale) SiO2 
 PCOD8216247
Probable space group: P N N A
;
_chemical_formula_sum "Si O2"
_cell_formula_units_Z 48
_cell_length_a 27.481515
_cell_length_b 9.447910
_cell_length_c 8.860628
_cell_angle_alpha 90.000000
_cell_angle_beta 90.000000
_cell_angle_gamma 90.000000
_cell_volume 2300.598976
_symmetry_space_group_name_H-M "P N N A"
_symmetry_group_IT_number 52
_symmetry_cell_setting 'orthorhombic'
loop_
_space_group_symop_operation_xyz
x,y,z
1/2-x,-y,z
x,1/2-y,1/2-z
1/2-x,1/2+y,1/2-z
-x,-y,-z
1/2+x,y,-z
-x,1/2+y,1/2+z
1/2+x,1/2-y,1/2+z
loop_
_atom_site_type_symbol
_atom_site_label
_atom_site_fract_x
_atom_site_fract_y
_atom_site_fract_z
Si Si1 0.963134 0.398020 0.674326
Si Si2 0.380457 0.602690 0.301145
Si Si3 0.164353 0.169392 0.895138
Si Si4 0.658874 0.589686 0.222772
Si Si5 0.302560 0.562761 0.054828
Si Si6 0.548680 0.606459 0.323733
O O1 0.968324 0.250000 0.750000
O O2 0.917451 0.480553 0.744637
O O3 0.951398 0.371570 0.501241
O O4 0.012696 0.478722 0.713939
O O5 0.404119 0.750000 0.250000
O O6 0.374700 0.615861 0.482237
O O7 0.329452 0.576009 0.215354
O O8 0.139959 0.250000 0.750000
O O9 0.188468 0.023618 0.829084
O O10 0.201264 0.281018 0.975530
O O11 0.677402 0.750000 0.250000
O O12 0.601936 0.572194 0.258484
O O13 0.668003 0.547923 0.049275
O O14 0.250000 0.500000 0.088425
O O15 0.528534 0.750000 0.250000
#
# Coordination Sequence:
#
# PCOD8216247 Si02
#       6
#     8   8   8   8   8   8
#     4  11  24  40  65  96 132 168 220 263 329 393
#     4  10  21  41  63  91 131 172 212 270 329 388
#     4   9  19  40  65  89 126 165 213 264 318 389
#     4  10  21  39  65  94 130 171 215 273 324 383
#     4  10  23  41  64  93 126 170 223 268 331 389
#     4  10  23  43  61  95 134 169 221 261 324 394
#
# _framework density 20.864132000000001
#
# number of rings (size 3 to 8) (size 9 to 14) (size 15 to 20)
#    0.000    2.000    1.667    0.500    4.667    4.667 
#    3.000   10.833    0.000    0.000    0.000    0.000 
#    0.000    0.000    0.000    0.000    0.000    0.000 
#
# Total GULP energy -594823.203235 kJ/mol
# GULP energy per Si atom -12392.150067 kJ/mol
# Density = 2.081664 g / cm^3
# Si number density = 20.864132 Si / 1000 Ang^3
#
#
#
# Elastic Constant Matrix: (Units=GPa)
#
#
# Indices 1 2 3 4 5 6 
#
# 1 99.2140 56.0214 44.3288 0.0000 0.0000 0.0000
# 2 56.0214 175.6164 64.1362 0.0000 0.0000 0.0000
# 3 44.3288 64.1362 97.4895 0.0000 0.0000 0.0000
# 4 0.0000 0.0000 0.0000 31.8694 0.0000 0.0000
# 5 0.0000 0.0000 0.0000 0.0000 20.9579 0.0000
# 6 0.0000 0.0000 0.0000 0.0000 0.0000 37.8062
#
#
#
# Elastic Compliance Matrix: (Units=1/GPa)
#
#
# Indices 1 2 3 4 5 6 
#
# 1 0.013578 -0.002733 -0.004376 0.000000 0.000000 0.000000
# 2 -0.002733 0.008045 -0.004050 0.000000 0.000000 0.000000
# 3 -0.004376 -0.004050 0.014912 0.000000 0.000000 0.000000
# 4 0.000000 0.000000 0.000000 0.031378 0.000000 0.000000
# 5 0.000000 0.000000 0.000000 0.000000 0.047715 0.000000
# 6 0.000000 0.000000 0.000000 0.000000 0.000000 0.026451
#
#
# Mechanical properties :
#
#
# Convention : Reuss Voigt Hill
#
# Bulk Modulus (GPa) = 70.34007 77.92141 74.13074
# Shear Modulus (GPa) = 29.56232 31.98227 30.77230
#
# Velocity S-wave (km/s) = 3.76825 3.91945 3.84460
# Velocity P-wave (km/s) = 7.26082 7.60992 7.43742
#
# Compressibility (1/GPa) = 0.01421665
#
# Stress axis : x y z
#
# Youngs Moduli (GPa) = 73.65085 124.29797 67.06228
#
# Poissons Ratio (x) = 0.33973 0.29344
# Poissons Ratio (y) = 0.20130 0.27160
# Poissons Ratio (z) = 0.32227 0.50340
#
# Static dielectric constant tensor:
#      x y z
#    x 3.364930 0.000000 0.000000 
#    y 0.000000 4.180030 0.000000 
#    z 0.000000 0.000000 4.048450 
# 
# 
# High freq. dielectric constant tensor:
#      x y z
#    x 1.782710 0.000000 0.000000 
#    y 0.000000 1.840060 0.000000 
#    z 0.000000 0.000000 1.825440 
# 
# From -- ./inp_files/15470.got.cif
#   From: 2010.06.25/outbox.cif.g09.slc.cpg/sg52_8_cif.got.tgz:15470.got - 2010.06.26 19:32:48.
