data_PCOD8216311
_publ_section_title
;
Structure prediction by ZEFSAII (Michael W. Deem and Ramdas Pophale) SiO2 
 PCOD8216311
Probable space group: P N N A
;
_chemical_formula_sum "Si O2"
_cell_formula_units_Z 56
_cell_length_a 21.678221
_cell_length_b 13.479680
_cell_length_c 9.441488
_cell_angle_alpha 90.000000
_cell_angle_beta 90.000000
_cell_angle_gamma 90.000000
_cell_volume 2758.948967
_symmetry_space_group_name_H-M "P N N A"
_symmetry_group_IT_number 52
_symmetry_cell_setting 'orthorhombic'
loop_
_space_group_symop_operation_xyz
x,y,z
1/2-x,-y,z
x,1/2-y,1/2-z
1/2-x,1/2+y,1/2-z
-x,-y,-z
1/2+x,y,-z
-x,1/2+y,1/2+z
1/2+x,1/2-y,1/2+z
loop_
_atom_site_type_symbol
_atom_site_label
_atom_site_fract_x
_atom_site_fract_y
_atom_site_fract_z
Si Si1 0.597789 0.264001 0.411948
Si Si2 0.374010 0.523429 0.221445
Si Si3 0.294378 0.807059 0.385401
Si Si4 0.195410 0.920564 0.504522
Si Si5 0.395286 0.138299 0.730004
Si Si6 0.072197 0.490048 0.521053
Si Si7 0.515818 0.107105 0.562412
O O1 0.618486 0.250000 0.250000
O O2 0.653740 0.243426 0.518463
O O3 0.580042 0.378318 0.425182
O O4 0.541640 0.187358 0.447955
O O5 0.315131 0.591215 0.189961
O O6 0.385462 0.489664 0.382508
O O7 0.433470 0.588627 0.181951
O O8 0.357654 0.431580 0.118120
O O9 0.272547 0.750000 0.250000
O O10 0.232253 0.818687 0.477758
O O11 0.158452 0.921310 0.650534
O O12 0.250000 0.000000 0.517819
O O13 0.371126 0.250000 0.750000
O O14 0.456452 0.152571 0.636333
O O15 0.406899 0.074482 0.869933
O O16 0.000000 0.500000 0.500000
O O17 0.500000 0.000000 0.500000
#
# Coordination Sequence:
#
# PCOD8216311 Si02
#       7
#     8   8   8   8   8   8   8
#     4  11  25  39  67 104 131 176 226 275 340 409
#     4  10  21  40  66  97 127 173 218 271 332 403
#     4  10  21  43  69  92 129 172 232 277 326 400
#     4  10  24  44  67  90 130 184 226 266 335 399
#     4  12  26  44  64  99 138 178 217 284 350 401
#     4  12  24  41  67 104 140 167 225 281 342 413
#     4  11  21  40  69  95 139 173 211 269 349 411
#
# _framework density 20.297585000000002
#
# number of rings (size 3 to 8) (size 9 to 14) (size 15 to 20)
#    0.000    1.143    4.286    1.714    4.000    1.714 
#    0.000    2.857    0.000    0.000    0.000    0.000 
#    0.000    0.000    0.000    0.000    0.000    0.000 
#
# Total GULP energy -693822.503588 kJ/mol
# GULP energy per Si atom -12389.687564 kJ/mol
# Density = 2.025139 g / cm^3
# Si number density = 20.297585 Si / 1000 Ang^3
#
#
#
# Elastic Constant Matrix: (Units=GPa)
#
#
# Indices 1 2 3 4 5 6 
#
# 1 99.8818 25.9886 47.7559 0.0000 0.0000 0.0000
# 2 25.9886 115.1616 51.0107 0.0000 0.0000 0.0000
# 3 47.7559 51.0107 134.0214 0.0000 0.0000 0.0000
# 4 0.0000 0.0000 0.0000 35.7355 0.0000 0.0000
# 5 0.0000 0.0000 0.0000 0.0000 2267.4544 0.0000
# 6 0.0000 0.0000 0.0000 0.0000 0.0000 -11.4852
#
#
#
# Elastic Compliance Matrix: (Units=1/GPa)
#
#
# Indices 1 2 3 4 5 6 
#
# 1 0.012161 -0.000992 -0.003956 0.000000 0.000000 0.000000
# 2 -0.000992 0.010525 -0.003653 0.000000 0.000000 0.000000
# 3 -0.003956 -0.003653 0.010261 0.000000 0.000000 0.000000
# 4 0.000000 0.000000 0.000000 0.027983 0.000000 0.000000
# 5 0.000000 0.000000 0.000000 0.000000 0.000441 0.000000
# 6 0.000000 0.000000 0.000000 0.000000 0.000000 -0.087069
#
#
# Mechanical properties :
#
#
# Convention : Reuss Voigt Hill
#
# Bulk Modulus (GPa) = 63.50508 66.50836 65.00672
# Shear Modulus (GPa) = -1540.09361 473.29491 -533.39935
#
# Velocity S-wave (km/s) = -27.57543 15.28673 -16.22837
# Velocity P-wave (km/s) = 31.34513 18.55847 17.86198
#
# Compressibility (1/GPa) = 0.01574677
#
# Stress axis : x y z
#
# Youngs Moduli (GPa) = 82.22747 95.00970 97.45377
#
# Poissons Ratio (x) = 0.09427 0.38551
# Poissons Ratio (y) = 0.08159 0.35595
# Poissons Ratio (z) = 0.32528 0.34702
#
# Static dielectric constant tensor:
#      x y z
#    x 3.969730 0.000000 0.000000 
#    y 0.000000 4.739330 0.000000 
#    z 0.000000 0.000000 3.896830 
# 
# 
# High freq. dielectric constant tensor:
#      x y z
#    x 1.797310 0.000000 0.000000 
#    y 0.000000 1.792580 0.000000 
#    z 0.000000 0.000000 1.795870 
# 
# From -- ./inp_files/13430.got.cif
#   From: 2010.06.25/outbox.cif.g09.slc.cpg/sg52_7_cif.got.tgz:13430.got - 2010.06.26 19:32:48.
