data_PCOD8216869
_publ_section_title
;
Structure prediction by ZEFSAII (Michael W. Deem and Ramdas Pophale) SiO2 
 PCOD8216869
Probable space group: P N N A
;
_chemical_formula_sum "Si O2"
_cell_formula_units_Z 40
_cell_length_a 9.221908
_cell_length_b 14.885478
_cell_length_c 12.676561
_cell_angle_alpha 90.000000
_cell_angle_beta 90.000000
_cell_angle_gamma 90.000000
_cell_volume 1740.143330
_symmetry_space_group_name_H-M "P N N A"
_symmetry_group_IT_number 52
_symmetry_cell_setting 'orthorhombic'
loop_
_space_group_symop_operation_xyz
x,y,z
1/2-x,-y,z
x,1/2-y,1/2-z
1/2-x,1/2+y,1/2-z
-x,-y,-z
1/2+x,y,-z
-x,1/2+y,1/2+z
1/2+x,1/2-y,1/2+z
loop_
_atom_site_type_symbol
_atom_site_label
_atom_site_fract_x
_atom_site_fract_y
_atom_site_fract_z
Si Si1 0.825737 0.412219 0.625909
Si Si2 0.558465 0.350502 0.715794
Si Si3 0.597425 0.477794 0.257275
Si Si4 0.075994 0.726800 0.523981
Si Si5 0.344643 0.695651 0.861034
O O1 0.750000 0.500000 0.576600
O O2 0.727151 0.379456 0.725555
O O3 0.814660 0.331381 0.545069
O O4 0.990263 0.430491 0.659979
O O5 0.527257 0.250000 0.750000
O O6 0.469058 0.426086 0.780789
O O7 0.508846 0.347557 0.593753
O O8 0.750000 0.500000 0.314737
O O9 0.629896 0.410435 0.160452
O O10 0.181570 0.791072 0.593468
O O11 0.964733 0.780015 0.448892
O O12 0.363288 0.750000 0.750000
#
# Coordination Sequence:
#
# PCOD8216869 Si02
#       5
#     8   8   8   8   8
#     4  10  24  42  69 104 139 189 245 314 373 445
#     4  11  25  45  71 103 145 197 258 314 378 453
#     4  11  24  45  73 106 149 193 247 312 385 450
#     4  12  24  45  73 111 151 199 253 314 389 457
#     4  12  26  46  75 112 157 202 252 319 386 458
#
# _framework density 22.986612000000001
#
# number of rings (size 3 to 8) (size 9 to 14) (size 15 to 20)
#    0.000    0.800    4.000    3.000    2.800    5.600 
#    0.000    4.000    0.000    0.000    0.000    0.000 
#    0.000    0.000    0.000    0.000    0.000    0.000 
#
# Total GULP energy -495536.317626 kJ/mol
# GULP energy per Si atom -12388.407941 kJ/mol
# Density = 2.293429 g / cm^3
# Si number density = 22.986612 Si / 1000 Ang^3
#
#
#
# Elastic Constant Matrix: (Units=GPa)
#
#
# Indices 1 2 3 4 5 6 
#
# 1 166.5511 61.2901 50.6804 0.0000 0.0000 0.0000
# 2 61.2901 171.2613 45.9988 0.0000 0.0000 0.0000
# 3 50.6804 45.9988 70.9309 0.0000 0.0000 0.0000
# 4 0.0000 0.0000 0.0000 35.9652 0.0000 0.0000
# 5 0.0000 0.0000 0.0000 0.0000 55.0457 0.0000
# 6 0.0000 0.0000 0.0000 0.0000 0.0000 37.7147
#
#
#
# Elastic Compliance Matrix: (Units=1/GPa)
#
#
# Indices 1 2 3 4 5 6 
#
# 1 0.008024 -0.001613 -0.004687 0.000000 0.000000 0.000000
# 2 -0.001613 0.007395 -0.003643 0.000000 0.000000 0.000000
# 3 -0.004687 -0.003643 0.019810 0.000000 0.000000 0.000000
# 4 0.000000 0.000000 0.000000 0.027805 0.000000 0.000000
# 5 0.000000 0.000000 0.000000 0.000000 0.018167 0.000000
# 6 0.000000 0.000000 0.000000 0.000000 0.000000 0.026515
#
#
# Mechanical properties :
#
#
# Convention : Reuss Voigt Hill
#
# Bulk Modulus (GPa) = 65.17967 80.52022 72.84995
# Shear Modulus (GPa) = 37.67462 42.46338 40.06900
#
# Velocity S-wave (km/s) = 4.05283 4.30270 4.17963
# Velocity P-wave (km/s) = 7.09349 7.73237 7.41981
#
# Compressibility (1/GPa) = 0.01534221
#
# Stress axis : x y z
#
# Youngs Moduli (GPa) = 124.62735 135.23251 50.47952
#
# Poissons Ratio (x) = 0.21807 0.23662
# Poissons Ratio (y) = 0.20097 0.18391
# Poissons Ratio (z) = 0.58417 0.49269
#
# Static dielectric constant tensor:
#      x y z
#    x 4.375810 0.000000 0.000000 
#    y 0.000000 4.383180 0.000000 
#    z 0.000000 0.000000 4.040710 
# 
# 
# High freq. dielectric constant tensor:
#      x y z
#    x 1.938700 0.000000 0.000000 
#    y 0.000000 1.921930 0.000000 
#    z 0.000000 0.000000 1.864680 
# 
# From -- ./inp_files/16676.got.cif
#   From: 2010.06.25/outbox.cif.g09.slc.cpg/sg52_9_cif.got.tgz:16676.got - 2010.06.26 19:32:48.
