data_PCOD8216450
_publ_section_title
;
Structure prediction by ZEFSAII (Michael W. Deem and Ramdas Pophale) SiO2 
 PCOD8216450
Probable space group: P N N A
;
_chemical_formula_sum "Si O2"
_cell_formula_units_Z 64
_cell_length_a 8.706220
_cell_length_b 14.355969
_cell_length_c 25.021255
_cell_angle_alpha 90.000000
_cell_angle_beta 90.000000
_cell_angle_gamma 90.000000
_cell_volume 3127.312193
_symmetry_space_group_name_H-M "P N N A"
_symmetry_group_IT_number 52
_symmetry_cell_setting 'orthorhombic'
loop_
_space_group_symop_operation_xyz
x,y,z
1/2-x,-y,z
x,1/2-y,1/2-z
1/2-x,1/2+y,1/2-z
-x,-y,-z
1/2+x,y,-z
-x,1/2+y,1/2+z
1/2+x,1/2-y,1/2+z
loop_
_atom_site_type_symbol
_atom_site_label
_atom_site_fract_x
_atom_site_fract_y
_atom_site_fract_z
Si Si1 0.569292 0.505749 0.320504
Si Si2 0.855214 0.910899 0.628339
Si Si3 0.347361 0.593902 0.246918
Si Si4 0.408662 0.199540 0.408999
Si Si5 0.854463 0.375294 0.527066
Si Si6 0.577529 0.807183 0.799472
Si Si7 0.571859 0.016705 0.442449
Si Si8 0.524218 0.439234 0.566018
O O1 0.750000 0.500000 0.323593
O O2 0.513732 0.570191 0.271654
O O3 0.510719 0.400901 0.314310
O O4 0.499497 0.561938 0.370880
O O5 0.881449 0.867298 0.687294
O O6 0.764787 0.840084 0.589770
O O7 0.750000 0.000000 0.636184
O O8 0.012605 0.939543 0.599669
O O9 0.250000 0.500000 0.245366
O O10 0.253212 0.668777 0.282265
O O11 0.419729 0.275952 0.455316
O O12 0.434941 0.240373 0.350234
O O13 0.534660 0.120498 0.421432
O O14 0.681711 0.388697 0.547888
O O15 0.969509 0.451993 0.551358
O O16 0.878658 0.388038 0.462901
O O17 0.501023 0.750000 0.750000
O O18 0.750000 0.000000 0.447663
O O19 0.500000 0.000000 0.500000
#
# Coordination Sequence:
#
# PCOD8216450 Si02
#       8
#     8   8   8   8   8   8   8   8
#     4  11  24  39  61  92 136 172 212 259 329 388
#     4   9  19  38  64  92 119 162 213 268 324 384
#     4   9  19  37  63  89 121 163 211 254 317 391
#     4  11  21  40  68  94 124 170 221 276 326 389
#     4  10  22  37  61  91 123 168 216 259 322 378
#     4  11  21  40  67  95 124 165 222 269 318 390
#     4  11  25  45  65  93 133 175 227 283 337 397
#     4  10  22  39  59  90 131 171 213 262 313 394
#
# _framework density 20.464859000000001
#
# number of rings (size 3 to 8) (size 9 to 14) (size 15 to 20)
#    0.000    1.750    2.500    1.875    8.750    2.500 
#    0.000    3.125    0.000    0.000    0.000    0.000 
#    0.000    0.000    0.000    0.000    0.000    0.000 
#
# Total GULP energy -793260.457989 kJ/mol
# GULP energy per Si atom -12394.694656 kJ/mol
# Density = 2.041828 g / cm^3
# Si number density = 20.464859 Si / 1000 Ang^3
#
#
#
# Elastic Constant Matrix: (Units=GPa)
#
#
# Indices 1 2 3 4 5 6 
#
# 1 136.9621 43.9046 58.3511 0.0000 0.0000 0.0000
# 2 43.9046 106.5001 53.6101 0.0000 0.0000 0.0000
# 3 58.3511 53.6101 129.3417 0.0000 0.0000 0.0000
# 4 0.0000 0.0000 0.0000 36.4817 0.0000 0.0000
# 5 0.0000 0.0000 0.0000 0.0000 25.9527 0.0000
# 6 0.0000 0.0000 0.0000 0.0000 0.0000 17.7564
#
#
#
# Elastic Compliance Matrix: (Units=1/GPa)
#
#
# Indices 1 2 3 4 5 6 
#
# 1 0.009432 -0.002207 -0.003340 0.000000 0.000000 0.000000
# 2 -0.002207 0.012382 -0.004136 0.000000 0.000000 0.000000
# 3 -0.003340 -0.004136 0.010953 0.000000 0.000000 0.000000
# 4 0.000000 0.000000 0.000000 0.027411 0.000000 0.000000
# 5 0.000000 0.000000 0.000000 0.000000 0.038532 0.000000
# 6 0.000000 0.000000 0.000000 0.000000 0.000000 0.056318
#
#
# Mechanical properties :
#
#
# Convention : Reuss Voigt Hill
#
# Bulk Modulus (GPa) = 74.63144 76.05950 75.34547
# Shear Modulus (GPa) = 27.95479 30.50070 29.22775
#
# Velocity S-wave (km/s) = 3.69994 3.86475 3.78324
# Velocity P-wave (km/s) = 7.40270 7.56053 7.48203
#
# Compressibility (1/GPa) = 0.01339918
#
# Stress axis : x y z
#
# Youngs Moduli (GPa) = 106.02392 80.76505 91.29990
#
# Poissons Ratio (x) = 0.17823 0.30498
# Poissons Ratio (y) = 0.23397 0.37765
# Poissons Ratio (z) = 0.35416 0.33408
#
# Static dielectric constant tensor:
#      x y z
#    x 3.668960 0.000000 0.000000 
#    y 0.000000 4.061080 0.000000 
#    z 0.000000 0.000000 4.016540 
# 
# 
# High freq. dielectric constant tensor:
#      x y z
#    x 1.773490 0.000000 0.000000 
#    y 0.000000 1.800020 0.000000 
#    z 0.000000 0.000000 1.812870 
# 
# From -- ./inp_files/39677.got.cif
#   From: 2010.06.25/outbox.cif.g09.slc.cpg/sg52_20_cif.got.tgz:39677.got - 2010.06.26 19:32:48.
