data_PCOD8216859
_publ_section_title
;
Structure prediction by ZEFSAII (Michael W. Deem and Ramdas Pophale) SiO2 
 PCOD8216859
Probable space group: P N N A
;
_chemical_formula_sum "Si O2"
_cell_formula_units_Z 48
_cell_length_a 12.047138
_cell_length_b 21.717059
_cell_length_c 8.671241
_cell_angle_alpha 90.000000
_cell_angle_beta 90.000000
_cell_angle_gamma 90.000000
_cell_volume 2268.642967
_symmetry_space_group_name_H-M "P N N A"
_symmetry_group_IT_number 52
_symmetry_cell_setting 'orthorhombic'
loop_
_space_group_symop_operation_xyz
x,y,z
1/2-x,-y,z
x,1/2-y,1/2-z
1/2-x,1/2+y,1/2-z
-x,-y,-z
1/2+x,y,-z
-x,1/2+y,1/2+z
1/2+x,1/2-y,1/2+z
loop_
_atom_site_type_symbol
_atom_site_label
_atom_site_fract_x
_atom_site_fract_y
_atom_site_fract_z
Si Si1 0.886458 0.936455 0.692486
Si Si2 0.359791 0.076509 0.239484
Si Si3 0.274889 0.686645 0.676617
Si Si4 0.422697 0.733997 0.423167
Si Si5 0.455129 0.642129 0.911560
Si Si6 0.568800 0.619075 0.413028
O O1 0.771405 0.907905 0.758190
O O2 0.905749 0.911669 0.519830
O O3 0.987097 0.918475 0.803770
O O4 0.880534 0.009676 0.688183
O O5 0.424062 0.124252 0.348120
O O6 0.407091 0.079550 0.066043
O O7 0.229101 0.750000 0.750000
O O8 0.314453 0.706058 0.505742
O O9 0.375307 0.655594 0.768586
O O10 0.183973 0.632878 0.673687
O O11 0.388022 0.750000 0.250000
O O12 0.471605 0.796085 0.493425
O O13 0.521242 0.686147 0.447824
#
# Coordination Sequence:
#
# PCOD8216859 Si02
#       6
#     8   8   8   8   8   8
#     4  11  26  45  70 100 134 185 231 280 338 407
#     4  11  26  46  69  97 139 179 235 281 336 403
#     4  10  24  42  65 102 136 177 220 283 348 418
#     4  11  22  42  67 100 134 174 225 278 346 410
#     4  11  24  44  70  97 139 172 230 278 350 403
#     4  12  23  44  70  99 139 174 230 275 348 407
#
# _framework density 21.158023
#
# number of rings (size 3 to 8) (size 9 to 14) (size 15 to 20)
#    0.000    1.000    3.333    2.500    2.333    1.333 
#    0.000    0.000    0.000    0.000    0.000    0.000 
#    0.000    0.000    0.000    0.000    0.000    0.000 
#
# Total GULP energy -595306.862137 kJ/mol
# GULP energy per Si atom -12402.226295 kJ/mol
# Density = 2.110987 g / cm^3
# Si number density = 21.158023 Si / 1000 Ang^3
#
#
#
# Elastic Constant Matrix: (Units=GPa)
#
#
# Indices 1 2 3 4 5 6 
#
# 1 96.2607 21.1428 37.0212 0.0000 0.0000 0.0000
# 2 21.1428 62.5767 24.2781 0.0000 0.0000 0.0000
# 3 37.0212 24.2781 117.4371 0.0000 0.0000 0.0000
# 4 0.0000 0.0000 0.0000 36.3266 0.0000 0.0000
# 5 0.0000 0.0000 0.0000 0.0000 33.4413 0.0000
# 6 0.0000 0.0000 0.0000 0.0000 0.0000 50.3288
#
#
#
# Elastic Compliance Matrix: (Units=1/GPa)
#
#
# Indices 1 2 3 4 5 6 
#
# 1 0.012281 -0.002878 -0.003276 0.000000 0.000000 0.000000
# 2 -0.002878 0.018048 -0.002824 0.000000 0.000000 0.000000
# 3 -0.003276 -0.002824 0.010132 0.000000 0.000000 0.000000
# 4 0.000000 0.000000 0.000000 0.027528 0.000000 0.000000
# 5 0.000000 0.000000 0.000000 0.000000 0.029903 0.000000
# 6 0.000000 0.000000 0.000000 0.000000 0.000000 0.019869
#
#
# Mechanical properties :
#
#
# Convention : Reuss Voigt Hill
#
# Bulk Modulus (GPa) = 44.43628 49.01763 46.72696
# Shear Modulus (GPa) = 34.91140 36.94150 35.92645
#
# Velocity S-wave (km/s) = 4.06646 4.18303 4.12516
# Velocity P-wave (km/s) = 6.56474 6.82261 6.69492
#
# Compressibility (1/GPa) = 0.02250413
#
# Stress axis : x y z
#
# Youngs Moduli (GPa) = 81.42864 55.40648 98.69873
#
# Poissons Ratio (x) = 0.15947 0.32338
# Poissons Ratio (y) = 0.23436 0.27871
# Poissons Ratio (z) = 0.26679 0.15646
#
# Static dielectric constant tensor:
#      x y z
#    x 3.851710 0.000000 0.000000 
#    y 0.000000 3.924880 0.000000 
#    z 0.000000 0.000000 4.091960 
# 
# 
# High freq. dielectric constant tensor:
#      x y z
#    x 1.834010 0.000000 0.000000 
#    y 0.000000 1.834930 0.000000 
#    z 0.000000 0.000000 1.837610 
# 
# From -- ./inp_files/8856.got.cif
#   From: 2010.06.25/outbox.cif.g09.slc.cpg/sg52_5_cif.got.tgz:8856.got - 2010.06.26 19:32:48.
