data_PCOD8216189
_publ_section_title
;
Structure prediction by ZEFSAII (Michael W. Deem and Ramdas Pophale) SiO2 
 PCOD8216189
Probable space group: P N N A
;
_chemical_formula_sum "Si O2"
_cell_formula_units_Z 40
_cell_length_a 18.036206
_cell_length_b 8.223172
_cell_length_c 12.325330
_cell_angle_alpha 90.000000
_cell_angle_beta 90.000000
_cell_angle_gamma 90.000000
_cell_volume 1828.029152
_symmetry_space_group_name_H-M "P N N A"
_symmetry_group_IT_number 52
_symmetry_cell_setting 'orthorhombic'
loop_
_space_group_symop_operation_xyz
x,y,z
1/2-x,-y,z
x,1/2-y,1/2-z
1/2-x,1/2+y,1/2-z
-x,-y,-z
1/2+x,y,-z
-x,1/2+y,1/2+z
1/2+x,1/2-y,1/2+z
loop_
_atom_site_type_symbol
_atom_site_label
_atom_site_fract_x
_atom_site_fract_y
_atom_site_fract_z
Si Si1 0.670854 0.928685 0.489190
Si Si2 0.572196 0.024049 0.669644
Si Si3 0.910722 0.572616 0.199466
Si Si4 0.395861 0.397088 0.583916
Si Si5 0.431534 0.876364 0.097124
O O1 0.662773 0.748574 0.436620
O O2 0.750000 0.000000 0.522691
O O3 0.624001 0.905412 0.600262
O O4 0.644354 0.063830 0.402011
O O5 0.580709 0.004543 0.799473
O O6 0.598624 0.200527 0.628194
O O7 0.486995 0.985549 0.644794
O O8 0.917899 0.750000 0.250000
O O9 0.882547 0.450574 0.292538
O O10 0.383645 0.548396 0.501335
O O11 0.481934 0.348637 0.567558
#
# Coordination Sequence:
#
# PCOD8216189 Si02
#       5
#     8   8   8   8   8
#     4  12  26  41  60  93 139 180 215 266 339 418
#     4  10  21  39  63  95 126 163 223 276 332 388
#     4  11  23  39  67  97 124 169 229 284 335 383
#     4  10  21  38  64  96 125 165 217 275 335 376
#     4   9  19  38  66  93 124 159 217 286 324 378
#
# _framework density 21.881488999999998
#
# number of rings (size 3 to 8) (size 9 to 14) (size 15 to 20)
#    0.000    1.600    2.000    2.400    8.400    1.600 
#    0.000    7.000    0.000    0.000    0.000    0.000 
#    0.000    0.000    0.000    0.000    0.000    0.000 
#
# Total GULP energy -495745.997123 kJ/mol
# GULP energy per Si atom -12393.649928 kJ/mol
# Density = 2.183169 g / cm^3
# Si number density = 21.881489 Si / 1000 Ang^3
#
#
#
# Elastic Constant Matrix: (Units=GPa)
#
#
# Indices 1 2 3 4 5 6 
#
# 1 52.1950 26.2231 38.9880 0.0000 0.0000 0.0000
# 2 26.2231 89.9997 10.9374 0.0000 0.0000 0.0000
# 3 38.9880 10.9374 56.1037 0.0000 0.0000 0.0000
# 4 0.0000 0.0000 0.0000 41.7312 0.0000 0.0000
# 5 0.0000 0.0000 0.0000 0.0000 7.1477 0.0000
# 6 0.0000 0.0000 0.0000 0.0000 0.0000 22.9097
#
#
#
# Elastic Compliance Matrix: (Units=1/GPa)
#
#
# Indices 1 2 3 4 5 6 
#
# 1 0.047271 -0.010019 -0.030897 0.000000 0.000000 0.000000
# 2 -0.010019 0.013504 0.004330 0.000000 0.000000 0.000000
# 3 -0.030897 0.004330 0.038451 0.000000 0.000000 0.000000
# 4 0.000000 0.000000 0.000000 0.023963 0.000000 0.000000
# 5 0.000000 0.000000 0.000000 0.000000 0.139906 0.000000
# 6 0.000000 0.000000 0.000000 0.000000 0.000000 0.043650
#
#
# Mechanical properties :
#
#
# Convention : Reuss Voigt Hill
#
# Bulk Modulus (GPa) = 38.38091 38.95506 38.66799
# Shear Modulus (GPa) = 12.86664 22.50105 17.68384
#
# Velocity S-wave (km/s) = 2.42753 3.21021 2.84591
# Velocity P-wave (km/s) = 5.04338 5.61979 5.33937
#
# Compressibility (1/GPa) = 0.02605462
#
# Stress axis : x y z
#
# Youngs Moduli (GPa) = 21.15446 74.05158 26.00697
#
# Poissons Ratio (x) = 0.74189 0.80354
# Poissons Ratio (y) = 0.21194 -0.11260
# Poissons Ratio (z) = 0.65361 -0.32061
#
# Static dielectric constant tensor:
#      x y z
#    x 3.375600 0.000000 0.000000 
#    y 0.000000 3.903760 0.000000 
#    z 0.000000 0.000000 4.243800 
# 
# 
# High freq. dielectric constant tensor:
#      x y z
#    x 1.799660 0.000000 0.000000 
#    y 0.000000 1.862100 0.000000 
#    z 0.000000 0.000000 1.883500 
# 
# From -- ./inp_files/20328.got.cif
#   From: 2010.06.25/outbox.cif.g09.slc.cpg/sg52_11_cif.got.tgz:20328.got - 2010.06.26 19:32:48.
