data_PCOD8216201
_publ_section_title
;
Structure prediction by ZEFSAII (Michael W. Deem and Ramdas Pophale) SiO2 
 PCOD8216201
Probable space group: P N N A
;
_chemical_formula_sum "Si O2"
_cell_formula_units_Z 40
_cell_length_a 17.294242
_cell_length_b 18.104569
_cell_length_c 5.587794
_cell_angle_alpha 90.000000
_cell_angle_beta 90.000000
_cell_angle_gamma 90.000000
_cell_volume 1749.565109
_symmetry_space_group_name_H-M "P N N A"
_symmetry_group_IT_number 52
_symmetry_cell_setting 'orthorhombic'
loop_
_space_group_symop_operation_xyz
x,y,z
1/2-x,-y,z
x,1/2-y,1/2-z
1/2-x,1/2+y,1/2-z
-x,-y,-z
1/2+x,y,-z
-x,1/2+y,1/2+z
1/2+x,1/2-y,1/2+z
loop_
_atom_site_type_symbol
_atom_site_label
_atom_site_fract_x
_atom_site_fract_y
_atom_site_fract_z
Si Si1 0.224691 0.327731 0.663954
Si Si2 0.054796 0.569735 0.299219
Si Si3 0.884141 0.291574 0.503985
Si Si4 0.390120 0.949636 0.876175
Si Si5 0.193135 0.556529 0.969463
O O1 0.189043 0.250000 0.750000
O O2 0.293329 0.313045 0.474665
O O3 0.155803 0.375594 0.548045
O O4 0.260405 0.370783 0.892080
O O5 0.066071 0.632636 0.503553
O O6 0.074674 0.487028 0.387534
O O7 0.965257 0.570696 0.210301
O O8 0.116442 0.587617 0.093330
O O9 0.908234 0.250000 0.750000
O O10 0.899936 0.250000 0.250000
O O11 0.331601 0.006684 0.756073
O O12 0.250000 0.500000 0.120875
#
# Coordination Sequence:
#
# PCOD8216201 Si02
#       5
#     8   8   8   8   8
#     4  10  21  42  63  90 127 168 221 271 334 394
#     4  11  22  39  65  92 130 171 219 272 341 392
#     4  11  24  42  68  97 133 177 227 275 330 400
#     4  10  23  40  61  94 130 168 218 279 332 403
#     4  10  21  38  67  95 126 172 222 276 326 396
#
# _framework density 22.862825000000001
#
# number of rings (size 3 to 8) (size 9 to 14) (size 15 to 20)
#    0.000    1.600    2.000    3.000    2.800    0.800 
#    0.000    1.000    0.000    0.000    0.000    0.000 
#    0.000    0.000    0.000    0.000    0.000    0.000 
#
# Total GULP energy -495658.485712 kJ/mol
# GULP energy per Si atom -12391.462143 kJ/mol
# Density = 2.281079 g / cm^3
# Si number density = 22.862825 Si / 1000 Ang^3
#
#
#
# Elastic Constant Matrix: (Units=GPa)
#
#
# Indices 1 2 3 4 5 6 
#
# 1 100.0606 48.9758 9.8893 0.0000 0.0000 0.0000
# 2 48.9758 156.4313 31.2013 0.0000 0.0000 0.0000
# 3 9.8893 31.2013 64.3141 0.0000 0.0000 0.0000
# 4 0.0000 0.0000 0.0000 18.9692 0.0000 0.0000
# 5 0.0000 0.0000 0.0000 0.0000 25.3531 0.0000
# 6 0.0000 0.0000 0.0000 0.0000 0.0000 33.2320
#
#
#
# Elastic Compliance Matrix: (Units=1/GPa)
#
#
# Indices 1 2 3 4 5 6 
#
# 1 0.011803 -0.003690 -0.000025 0.000000 0.000000 0.000000
# 2 -0.003690 0.008231 -0.003426 0.000000 0.000000 0.000000
# 3 -0.000025 -0.003426 0.017214 0.000000 0.000000 0.000000
# 4 0.000000 0.000000 0.000000 0.052717 0.000000 0.000000
# 5 0.000000 0.000000 0.000000 0.000000 0.039443 0.000000
# 6 0.000000 0.000000 0.000000 0.000000 0.000000 0.030091
#
#
# Mechanical properties :
#
#
# Convention : Reuss Voigt Hill
#
# Bulk Modulus (GPa) = 43.54076 55.65987 49.60031
# Shear Modulus (GPa) = 27.55781 30.89351 29.22566
#
# Velocity S-wave (km/s) = 3.47559 3.67993 3.57922
# Velocity P-wave (km/s) = 5.93228 6.51566 6.23080
#
# Compressibility (1/GPa) = 0.02296699
#
# Stress axis : x y z
#
# Youngs Moduli (GPa) = 84.72690 121.48804 58.09061
#
# Poissons Ratio (x) = 0.44833 0.00142
# Poissons Ratio (y) = 0.31267 0.19901
# Poissons Ratio (z) = 0.00208 0.41620
#
# Static dielectric constant tensor:
#      x y z
#    x 4.458030 0.000000 0.000000 
#    y 0.000000 4.579000 0.000000 
#    z 0.000000 0.000000 3.576390 
# 
# 
# High freq. dielectric constant tensor:
#      x y z
#    x 1.902580 0.000000 0.000000 
#    y 0.000000 1.922760 0.000000 
#    z 0.000000 0.000000 1.856450 
# 
# From -- ./inp_files/3167.got.cif
#   From: 2010.06.25/outbox.cif.g09.slc.cpg/sg52_2_cif.got.tgz:3167.got - 2010.06.26 19:32:48.
