data_PCOD8216321
_publ_section_title
;
Structure prediction by ZEFSAII (Michael W. Deem and Ramdas Pophale) SiO2 
 PCOD8216321
Probable space group: P N N A
;
_chemical_formula_sum "Si O2"
_cell_formula_units_Z 60
_cell_length_a 17.941058
_cell_length_b 5.025621
_cell_length_c 30.208645
_cell_angle_alpha 90.000000
_cell_angle_beta 90.000000
_cell_angle_gamma 90.000000
_cell_volume 2723.761203
_symmetry_space_group_name_H-M "P N N A"
_symmetry_group_IT_number 52
_symmetry_cell_setting 'orthorhombic'
loop_
_space_group_symop_operation_xyz
x,y,z
1/2-x,-y,z
x,1/2-y,1/2-z
1/2-x,1/2+y,1/2-z
-x,-y,-z
1/2+x,y,-z
-x,1/2+y,1/2+z
1/2+x,1/2-y,1/2+z
loop_
_atom_site_type_symbol
_atom_site_label
_atom_site_fract_x
_atom_site_fract_y
_atom_site_fract_z
Si Si1 0.142136 0.613599 0.855717
Si Si2 0.606346 0.624643 0.617869
Si Si3 0.750000 0.500000 0.220587
Si Si4 0.200260 0.763861 0.035976
Si Si5 0.008839 0.389408 0.106264
Si Si6 0.432672 0.130401 0.974151
Si Si7 0.825728 0.888594 0.089771
Si Si8 0.198853 0.748377 0.300386
O O1 0.176326 0.560248 0.807931
O O2 0.179061 0.409970 0.891417
O O3 0.052254 0.586435 0.854449
O O4 0.159451 0.916043 0.868839
O O5 0.677188 0.644599 0.585459
O O6 0.572100 0.328188 0.617807
O O7 0.628586 0.722637 0.667021
O O8 0.544099 0.822937 0.599714
O O9 0.771262 0.750000 0.250000
O O10 0.250000 0.500000 0.037048
O O11 0.250000 0.000000 0.015688
O O12 0.125828 0.720432 0.006543
O O13 0.966209 0.340493 0.060231
O O14 0.390401 0.899665 0.946834
O O15 0.500000 0.000000 0.000000
O O16 0.750000 0.000000 0.067396
O O17 0.250000 0.500000 0.309674
O O18 0.168527 0.750000 0.250000
O O19 0.250000 0.000000 0.311221
#
# Coordination Sequence:
#
# PCOD8216321 Si02
#       8
#     8   8   4   8   8   8   8   8
#     4  11  23  43  65  98 129 169 229 265 336 409
#     4  12  23  44  67  96 134 177 213 264 350 391
#     4  12  24  42  72 102 134 172 218 290 346 396
#     4  12  27  44  65  96 137 175 227 286 335 395
#     4  11  25  42  68  92 131 182 215 272 326 413
#     4  11  25  44  65  96 134 180 233 281 331 398
#     4  11  21  41  67  92 129 175 227 280 320 390
#     4  10  21  40  69 101 129 165 217 265 315 394
#
# _framework density 22.028362000000001
#
# number of rings (size 3 to 8) (size 9 to 14) (size 15 to 20)
#    0.000    0.800    2.667    5.200    0.000    5.867 
#    0.000    2.000    0.000    0.000    0.000    0.000 
#    0.000    0.000    0.000    0.000    0.000    0.000 
#
# Total GULP energy -744083.468695 kJ/mol
# GULP energy per Si atom -12401.391145 kJ/mol
# Density = 2.197822 g / cm^3
# Si number density = 22.028362 Si / 1000 Ang^3
#
#
#
# Elastic Constant Matrix: (Units=GPa)
#
#
# Indices 1 2 3 4 5 6 
#
# 1 126.0947 29.2031 51.0191 0.0000 0.0000 0.0000
# 2 29.2031 93.9268 16.6767 0.0000 0.0000 0.0000
# 3 51.0191 16.6767 121.1380 0.0000 0.0000 0.0000
# 4 0.0000 0.0000 0.0000 10.8759 0.0000 0.0000
# 5 0.0000 0.0000 0.0000 0.0000 39.8795 0.0000
# 6 0.0000 0.0000 0.0000 0.0000 0.0000 -104.3153
#
#
#
# Elastic Compliance Matrix: (Units=1/GPa)
#
#
# Indices 1 2 3 4 5 6 
#
# 1 0.010077 -0.002439 -0.003908 0.000000 0.000000 0.000000
# 2 -0.002439 0.011504 -0.000556 0.000000 0.000000 0.000000
# 3 -0.003908 -0.000556 0.009978 0.000000 0.000000 0.000000
# 4 0.000000 0.000000 0.000000 0.091946 0.000000 0.000000
# 5 0.000000 0.000000 0.000000 0.000000 0.025076 0.000000
# 6 0.000000 0.000000 0.000000 0.000000 0.000000 -0.009586
#
#
# Mechanical properties :
#
#
# Convention : Reuss Voigt Hill
#
# Bulk Modulus (GPa) = 56.33584 59.43972 57.88778
# Shear Modulus (GPa) = 31.50242 5.57204 18.53723
#
# Velocity S-wave (km/s) = 3.78575 1.59216 2.90404
# Velocity P-wave (km/s) = 6.68872 5.51560 6.13028
#
# Compressibility (1/GPa) = 0.01775069
#
# Stress axis : x y z
#
# Youngs Moduli (GPa) = 99.23856 86.92835 100.22406
#
# Poissons Ratio (x) = 0.21203 0.39169
# Poissons Ratio (y) = 0.24205 0.05577
# Poissons Ratio (z) = 0.38784 0.04837
#
# Static dielectric constant tensor:
#      x y z
#    x 0.000000 0.000000 0.000000 
#    y 0.000000 0.000000 0.000000 
#    z 0.000000 0.000000 0.000000 
# 
# 
# High freq. dielectric constant tensor:
#      x y z
#    x 1.877540 0.000000 0.000000 
#    y 0.000000 1.877900 0.000000 
#    z 0.000000 0.000000 1.853660 
# 
# From -- ./inp_files/43221.got.cif
#   From: 2010.06.25/outbox.cif.g09.slc.cpg/sg52_22_cif.got.tgz:43221.got - 2010.06.26 19:32:48.
