data_PCOD8216113
_publ_section_title
;
Structure prediction by ZEFSAII (Michael W. Deem and Ramdas Pophale) SiO2 
 PCOD8216113
Probable space group: P N N A
;
_chemical_formula_sum "Si O2"
_cell_formula_units_Z 32
_cell_length_a 7.820915
_cell_length_b 8.683393
_cell_length_c 23.155223
_cell_angle_alpha 90.000000
_cell_angle_beta 90.000000
_cell_angle_gamma 90.000000
_cell_volume 1572.519324
_symmetry_space_group_name_H-M "P N N A"
_symmetry_group_IT_number 52
_symmetry_cell_setting 'orthorhombic'
loop_
_space_group_symop_operation_xyz
x,y,z
1/2-x,-y,z
x,1/2-y,1/2-z
1/2-x,1/2+y,1/2-z
-x,-y,-z
1/2+x,y,-z
-x,1/2+y,1/2+z
1/2+x,1/2-y,1/2+z
loop_
_atom_site_type_symbol
_atom_site_label
_atom_site_fract_x
_atom_site_fract_y
_atom_site_fract_z
Si Si1 0.383445 0.693524 0.577886
Si Si2 0.582393 0.400677 0.605711
Si Si3 0.690305 0.667894 0.310351
Si Si4 0.221797 0.680272 0.027717
O O1 0.437940 0.512410 0.576474
O O2 0.319700 0.740869 0.641923
O O3 0.227852 0.730136 0.533750
O O4 0.541668 0.800040 0.559448
O O5 0.750000 0.500000 0.620587
O O6 0.502974 0.332381 0.664508
O O7 0.626136 0.257043 0.564890
O O8 0.750000 0.500000 0.294795
O O9 0.695595 0.750000 0.250000
O O10 0.250000 0.500000 0.019235
#
# Coordination Sequence:
#
# PCOD8216113 Si02
#       4
#     8   8   8   8
#     4  10  21  37  57  82 116 153 188 227 287 351
#     4   9  20  39  58  81 112 151 188 226 285 354
#     4  10  22  40  61  82 109 149 193 234 278 335
#     4  11  21  34  57  89 118 145 186 241 289 334
#
# _framework density 20.349512000000001
#
# number of rings (size 3 to 8) (size 9 to 14) (size 15 to 20)
#    0.000    2.000    0.000    3.000    0.000   10.000 
#    0.000   12.500    0.000    0.000    0.000    0.000 
#    0.000    0.000    0.000    0.000    0.000    0.000 
#
# Total GULP energy -396684.413880 kJ/mol
# GULP energy per Si atom -12396.387934 kJ/mol
# Density = 2.030320 g / cm^3
# Si number density = 20.349512 Si / 1000 Ang^3
#
#
#
# Elastic Constant Matrix: (Units=GPa)
#
#
# Indices 1 2 3 4 5 6 
#
# 1 100.2146 43.3458 66.7547 0.0000 0.0000 0.0000
# 2 43.3458 95.8127 80.9658 0.0000 0.0000 0.0000
# 3 66.7547 80.9658 194.2194 0.0000 0.0000 0.0000
# 4 0.0000 0.0000 0.0000 35.7913 0.0000 0.0000
# 5 0.0000 0.0000 0.0000 0.0000 -109.9997 0.0000
# 6 0.0000 0.0000 0.0000 0.0000 0.0000 18.1595
#
#
#
# Elastic Compliance Matrix: (Units=1/GPa)
#
#
# Indices 1 2 3 4 5 6 
#
# 1 0.013626 -0.003407 -0.003263 0.000000 0.000000 0.000000
# 2 -0.003407 0.016965 -0.005901 0.000000 0.000000 0.000000
# 3 -0.003263 -0.005901 0.008731 0.000000 0.000000 0.000000
# 4 0.000000 0.000000 0.000000 0.027940 0.000000 0.000000
# 5 0.000000 0.000000 0.000000 0.000000 -0.009091 0.000000
# 6 0.000000 0.000000 0.000000 0.000000 0.000000 0.055068
#
#
# Mechanical properties :
#
#
# Convention : Reuss Voigt Hill
#
# Bulk Modulus (GPa) = 70.52795 85.81991 78.17393
# Shear Modulus (GPa) = 34.93889 2.06891 18.50390
#
# Velocity S-wave (km/s) = 4.14809 1.00940 3.01874
# Velocity P-wave (km/s) = 7.59446 6.60477 7.11684
#
# Compressibility (1/GPa) = 0.01417878
#
# Stress axis : x y z
#
# Youngs Moduli (GPa) = 73.39059 58.94373 114.54062
#
# Poissons Ratio (x) = 0.20082 0.37375
# Poissons Ratio (y) = 0.25004 0.67596
# Poissons Ratio (z) = 0.23947 0.34786
#
# Static dielectric constant tensor:
#      x y z
#    x 4.203020 0.000000 0.000000 
#    y 0.000000 3.579000 0.000000 
#    z 0.000000 0.000000 3.633530 
# 
# 
# High freq. dielectric constant tensor:
#      x y z
#    x 1.815400 0.000000 0.000000 
#    y 0.000000 1.787880 0.000000 
#    z 0.000000 0.000000 1.779750 
# 
# From -- ./inp_files/35427.got.cif
#   From: 2010.06.25/outbox.cif.g09.slc.cpg/sg52_18_cif.got.tgz:35427.got - 2010.06.26 19:32:48.
