data_PCOD8216637
_publ_section_title
;
Structure prediction by ZEFSAII (Michael W. Deem and Ramdas Pophale) SiO2 
 PCOD8216637
Probable space group: P N N A
;
_chemical_formula_sum "Si O2"
_cell_formula_units_Z 32
_cell_length_a 8.327739
_cell_length_b 11.763515
_cell_length_c 12.943712
_cell_angle_alpha 90.000000
_cell_angle_beta 90.000000
_cell_angle_gamma 90.000000
_cell_volume 1268.011106
_symmetry_space_group_name_H-M "P N N A"
_symmetry_group_IT_number 52
_symmetry_cell_setting 'orthorhombic'
loop_
_space_group_symop_operation_xyz
x,y,z
1/2-x,-y,z
x,1/2-y,1/2-z
1/2-x,1/2+y,1/2-z
-x,-y,-z
1/2+x,y,-z
-x,1/2+y,1/2+z
1/2+x,1/2-y,1/2+z
loop_
_atom_site_type_symbol
_atom_site_label
_atom_site_fract_x
_atom_site_fract_y
_atom_site_fract_z
Si Si1 0.238081 0.250274 0.950662
Si Si2 0.925303 0.515301 0.707270
Si Si3 0.546772 0.750000 0.250000
Si Si4 0.750000 0.000000 0.075665
Si Si5 0.551956 0.898153 0.575417
O O1 0.344255 0.268132 0.849692
O O2 0.058344 0.285616 0.924395
O O3 0.251399 0.118110 0.989280
O O4 0.281944 0.343245 0.037541
O O5 0.750000 0.500000 0.650991
O O6 0.928719 0.438341 0.808455
O O7 0.928462 0.645512 0.739253
O O8 0.084815 0.488085 0.640893
O O9 0.500000 0.000000 0.500000
#
# Coordination Sequence:
#
# PCOD8216637 Si02
#       5
#     8   8   4   4   8
#     4  11  24  43  68  99 146 188 233 296 356 430
#     4  11  23  42  70 102 136 183 238 289 354 426
#     4  10  22  42  68  96 142 186 230 286 366 428
#     4  10  26  50  68  98 146 198 234 290 364 426
#     4  12  23  39  69 108 136 178 235 300 356 415
#
# _framework density 25.236374999999999
#
# number of rings (size 3 to 8) (size 9 to 14) (size 15 to 20)
#    0.000    1.000    2.500    5.250    0.000    3.000 
#    4.500    0.000    0.000    0.000    0.000    0.000 
#    0.000    0.000    0.000    0.000    0.000    0.000 
#
# Total GULP energy -396518.271043 kJ/mol
# GULP energy per Si atom -12391.195970 kJ/mol
# Density = 2.517894 g / cm^3
# Si number density = 25.236375 Si / 1000 Ang^3
#
#
#
# Elastic Constant Matrix: (Units=GPa)
#
#
# Indices 1 2 3 4 5 6 
#
# 1 137.1554 27.6273 -1.1259 0.0000 0.0000 0.0000
# 2 27.6273 158.0162 18.7347 0.0000 0.0000 0.0000
# 3 -1.1259 18.7347 45.2227 0.0000 0.0000 0.0000
# 4 0.0000 0.0000 0.0000 37.9226 0.0000 0.0000
# 5 0.0000 0.0000 0.0000 0.0000 4.0882 0.0000
# 6 0.0000 0.0000 0.0000 0.0000 0.0000 52.3033
#
#
#
# Elastic Compliance Matrix: (Units=1/GPa)
#
#
# Indices 1 2 3 4 5 6 
#
# 1 0.007583 -0.001418 0.000776 0.000000 0.000000 0.000000
# 2 -0.001418 0.006920 -0.002902 0.000000 0.000000 0.000000
# 3 0.000776 -0.002902 0.023334 0.000000 0.000000 0.000000
# 4 0.000000 0.000000 0.000000 0.026370 0.000000 0.000000
# 5 0.000000 0.000000 0.000000 0.000000 0.244609 0.000000
# 6 0.000000 0.000000 0.000000 0.000000 0.000000 0.019119
#
#
# Mechanical properties :
#
#
# Convention : Reuss Voigt Hill
#
# Bulk Modulus (GPa) = 32.52033 47.87406 40.19720
# Shear Modulus (GPa) = 14.48127 38.54003 26.51065
#
# Velocity S-wave (km/s) = 2.39806 3.91213 3.24465
# Velocity P-wave (km/s) = 4.53673 6.27836 5.47721
#
# Compressibility (1/GPa) = 0.03075000
#
# Stress axis : x y z
#
# Youngs Moduli (GPa) = 131.87460 144.49921 42.85510
#
# Poissons Ratio (x) = 0.20487 -0.03326
# Poissons Ratio (y) = 0.18697 0.12438
# Poissons Ratio (z) = -0.10236 0.41938
#
# Static dielectric constant tensor:
#      x y z
#    x 4.672570 0.000000 0.000000 
#    y 0.000000 4.884150 0.000000 
#    z 0.000000 0.000000 4.924000 
# 
# 
# High freq. dielectric constant tensor:
#      x y z
#    x 2.021030 0.000000 0.000000 
#    y 0.000000 2.033260 0.000000 
#    z 0.000000 0.000000 1.995750 
# 
# From -- ./inp_files/24108.got.cif
#   From: 2010.06.25/outbox.cif.g09.slc.cpg/sg52_13_cif.got.tgz:24108.got - 2010.06.26 19:32:48.
