data_PCOD8216741
_publ_section_title
;
Structure prediction by ZEFSAII (Michael W. Deem and Ramdas Pophale) SiO2 
 PCOD8216741
Probable space group: P N N A
;
_chemical_formula_sum "Si O2"
_cell_formula_units_Z 40
_cell_length_a 5.239406
_cell_length_b 12.800832
_cell_length_c 27.162344
_cell_angle_alpha 90.000000
_cell_angle_beta 90.000000
_cell_angle_gamma 90.000000
_cell_volume 1821.744622
_symmetry_space_group_name_H-M "P N N A"
_symmetry_group_IT_number 52
_symmetry_cell_setting 'orthorhombic'
loop_
_space_group_symop_operation_xyz
x,y,z
1/2-x,-y,z
x,1/2-y,1/2-z
1/2-x,1/2+y,1/2-z
-x,-y,-z
1/2+x,y,-z
-x,1/2+y,1/2+z
1/2+x,1/2-y,1/2+z
loop_
_atom_site_type_symbol
_atom_site_label
_atom_site_fract_x
_atom_site_fract_y
_atom_site_fract_z
Si Si1 0.228100 0.380326 0.161289
Si Si2 0.766462 0.620995 0.099108
Si Si3 0.250000 0.000000 0.895436
Si Si4 0.238165 0.813167 0.968747
Si Si5 0.867141 0.250000 0.750000
Si Si6 0.506459 0.447161 0.300054
O O1 0.250000 0.500000 0.176589
O O2 0.470817 0.351544 0.127135
O O3 0.201642 0.316176 0.211643
O O4 0.968881 0.353193 0.134007
O O5 0.750000 0.500000 0.081573
O O6 0.733885 0.695473 0.052079
O O7 0.322992 0.100161 0.927655
O O8 0.018556 0.036730 0.859432
O O9 0.519013 0.829953 0.990866
O O10 0.032577 0.326858 0.715789
O O11 0.250000 0.500000 0.279920
O O12 0.750000 0.500000 0.273707
#
# Coordination Sequence:
#
# PCOD8216741 Si02
#       6
#     8   8   4   8   4   8
#     4  10  23  40  64  94 131 176 217 268 331 395
#     4  10  23  45  66  93 133 174 214 276 349 394
#     4  10  26  46  66  92 144 176 216 266 352 386
#     4  12  26  41  70 101 127 171 226 277 330 410
#     4  12  24  42  68  98 136 170 236 282 314 392
#     4  10  26  42  66  97 131 183 219 272 334 397
#
# _framework density 21.956973000000001
#
# number of rings (size 3 to 8) (size 9 to 14) (size 15 to 20)
#    0.600    0.800    0.000    3.600    5.600    6.400 
#    0.000    0.000    0.000    0.000    0.000    0.000 
#    0.000    0.000    0.000    0.000    0.000    0.000 
#
# Total GULP energy -495795.395063 kJ/mol
# GULP energy per Si atom -12394.884877 kJ/mol
# Density = 2.190700 g / cm^3
# Si number density = 21.956973 Si / 1000 Ang^3
#
#
#
# Elastic Constant Matrix: (Units=GPa)
#
#
# Indices 1 2 3 4 5 6 
#
# 1 114.0239 56.2127 30.2837 0.0000 0.0000 0.0000
# 2 56.2127 135.1947 71.1178 0.0000 0.0000 0.0000
# 3 30.2837 71.1178 88.3679 0.0000 0.0000 0.0000
# 4 0.0000 0.0000 0.0000 335.7458 0.0000 0.0000
# 5 0.0000 0.0000 0.0000 0.0000 937.1417 0.0000
# 6 0.0000 0.0000 0.0000 0.0000 0.0000 16.3548
#
#
#
# Elastic Compliance Matrix: (Units=1/GPa)
#
#
# Indices 1 2 3 4 5 6 
#
# 1 0.011033 -0.004506 -0.000154 0.000000 0.000000 0.000000
# 2 -0.004506 0.014667 -0.010260 0.000000 0.000000 0.000000
# 3 -0.000154 -0.010260 0.019627 0.000000 0.000000 0.000000
# 4 0.000000 0.000000 0.000000 0.002978 0.000000 0.000000
# 5 0.000000 0.000000 0.000000 0.000000 0.001067 0.000000
# 6 0.000000 0.000000 0.000000 0.000000 0.000000 0.061144
#
#
# Mechanical properties :
#
#
# Convention : Reuss Voigt Hill
#
# Bulk Modulus (GPa) = 64.57676 72.53501 68.55589
# Shear Modulus (GPa) = 34.35971 269.84660 152.10315
#
# Velocity S-wave (km/s) = 3.96013 11.09796 8.33209
# Velocity P-wave (km/s) = 7.09821 14.04729 11.12904
#
# Compressibility (1/GPa) = 0.01548545
#
# Stress axis : x y z
#
# Youngs Moduli (GPa) = 90.64120 68.17795 50.95142
#
# Poissons Ratio (x) = 0.30721 0.00787
# Poissons Ratio (y) = 0.40842 0.52277
# Poissons Ratio (z) = 0.01400 0.69951
#
# Static dielectric constant tensor:
#      x y z
#    x 4.463760 0.000000 0.000000 
#    y 0.000000 2.173300 0.000000 
#    z 0.000000 0.000000 3.892780 
# 
# 
# High freq. dielectric constant tensor:
#      x y z
#    x 1.861720 0.000000 0.000000 
#    y 0.000000 1.878770 0.000000 
#    z 0.000000 0.000000 1.861830 
# 
# From -- ./inp_files/41527.got.cif
#   From: 2010.06.25/outbox.cif.g09.slc.cpg/sg52_21_cif.got.tgz:41527.got - 2010.06.26 19:32:48.
