data_PCOD8216245
_publ_section_title
;
Structure prediction by ZEFSAII (Michael W. Deem and Ramdas Pophale) SiO2 
 PCOD8216245
Probable space group: P N N A
;
_chemical_formula_sum "Si O2"
_cell_formula_units_Z 36
_cell_length_a 12.596003
_cell_length_b 13.012052
_cell_length_c 10.846070
_cell_angle_alpha 90.000000
_cell_angle_beta 90.000000
_cell_angle_gamma 90.000000
_cell_volume 1777.669203
_symmetry_space_group_name_H-M "P N N A"
_symmetry_group_IT_number 52
_symmetry_cell_setting 'orthorhombic'
loop_
_space_group_symop_operation_xyz
x,y,z
1/2-x,-y,z
x,1/2-y,1/2-z
1/2-x,1/2+y,1/2-z
-x,-y,-z
1/2+x,y,-z
-x,1/2+y,1/2+z
1/2+x,1/2-y,1/2+z
loop_
_atom_site_type_symbol
_atom_site_label
_atom_site_fract_x
_atom_site_fract_y
_atom_site_fract_z
Si Si1 0.750000 0.500000 0.540675
Si Si2 0.886956 0.363140 0.713568
Si Si3 0.384365 0.465546 0.027361
Si Si4 0.368718 0.634043 0.639079
Si Si5 0.723090 0.352728 0.097756
O O1 0.803780 0.408725 0.616809
O O2 0.655015 0.455664 0.456883
O O3 0.847674 0.250000 0.750000
O O4 0.882127 0.435660 0.830706
O O5 0.005771 0.355154 0.658092
O O6 0.500000 0.500000 0.000000
O O7 0.319390 0.571191 0.008759
O O8 0.348902 0.371165 0.933155
O O9 0.308996 0.607930 0.766774
O O10 0.319123 0.737990 0.580987
#
# Coordination Sequence:
#
# PCOD8216245 Si02
#       5
#     4   8   8   8   8
#     4  12  26  38  66  94 126 168 222 264 322 392
#     4  12  24  44  63  93 131 170 209 275 332 381
#     4  11  20  37  66  93 122 164 220 262 321 387
#     4  11  22  43  64  92 134 172 213 264 330 393
#     4  10  21  39  65  92 125 170 212 265 321 389
#
# _framework density 20.251235999999999
#
# number of rings (size 3 to 8) (size 9 to 14) (size 15 to 20)
#    0.000    0.889    4.444    4.667    0.000    0.000 
#    0.000    0.000    0.000    0.000    0.000    0.000 
#    0.000    0.000    0.000    0.000    0.000    0.000 
#
# Total GULP energy -446112.955128 kJ/mol
# GULP energy per Si atom -12392.026531 kJ/mol
# Density = 2.020514 g / cm^3
# Si number density = 20.251236 Si / 1000 Ang^3
#
#
#
# Elastic Constant Matrix: (Units=GPa)
#
#
# Indices 1 2 3 4 5 6 
#
# 1 109.8372 45.3193 34.6808 0.0000 0.0000 0.0000
# 2 45.3193 125.8219 53.0853 0.0000 0.0000 0.0000
# 3 34.6808 53.0853 92.1727 0.0000 0.0000 0.0000
# 4 0.0000 0.0000 0.0000 44.7651 0.0000 0.0000
# 5 0.0000 0.0000 0.0000 0.0000 27.4793 0.0000
# 6 0.0000 0.0000 0.0000 0.0000 0.0000 39.7468
#
#
#
# Elastic Compliance Matrix: (Units=1/GPa)
#
#
# Indices 1 2 3 4 5 6 
#
# 1 0.011106 -0.002955 -0.002477 0.000000 0.000000 0.000000
# 2 -0.002955 0.011285 -0.005388 0.000000 0.000000 0.000000
# 3 -0.002477 -0.005388 0.014884 0.000000 0.000000 0.000000
# 4 0.000000 0.000000 0.000000 0.022339 0.000000 0.000000
# 5 0.000000 0.000000 0.000000 0.000000 0.036391 0.000000
# 6 0.000000 0.000000 0.000000 0.000000 0.000000 0.025159
#
#
# Mechanical properties :
#
#
# Convention : Reuss Voigt Hill
#
# Bulk Modulus (GPa) = 63.95494 66.00029 64.97761
# Shear Modulus (GPa) = 33.78040 35.38136 34.58088
#
# Velocity S-wave (km/s) = 4.08863 4.18439 4.13679
# Velocity P-wave (km/s) = 7.34428 7.48378 7.41436
#
# Compressibility (1/GPa) = 0.01563601
#
# Stress axis : x y z
#
# Youngs Moduli (GPa) = 90.04388 88.61124 67.18642
#
# Poissons Ratio (x) = 0.26187 0.16639
# Poissons Ratio (y) = 0.26610 0.36198
# Poissons Ratio (z) = 0.22300 0.47740
#
# Static dielectric constant tensor:
#      x y z
#    x 4.125040 0.000000 0.000000 
#    y 0.000000 3.840720 0.000000 
#    z 0.000000 0.000000 3.942030 
# 
# 
# High freq. dielectric constant tensor:
#      x y z
#    x 1.796490 0.000000 0.000000 
#    y 0.000000 1.797140 0.000000 
#    z 0.000000 0.000000 1.792140 
# 
# From -- ./inp_files/19177.got.cif
#   From: 2010.06.25/outbox.cif.g09.slc.cpg/sg52_10_cif.got.tgz:19177.got - 2010.06.26 19:32:48.
