data_PCOD8216228
_publ_section_title
;
Structure prediction by ZEFSAII (Michael W. Deem and Ramdas Pophale) SiO2 
 PCOD8216228
Probable space group: P N N A
;
_chemical_formula_sum "Si O2"
_cell_formula_units_Z 48
_cell_length_a 9.432659
_cell_length_b 26.989565
_cell_length_c 8.774378
_cell_angle_alpha 90.000000
_cell_angle_beta 90.000000
_cell_angle_gamma 90.000000
_cell_volume 2233.810661
_symmetry_space_group_name_H-M "P N N A"
_symmetry_group_IT_number 52
_symmetry_cell_setting 'orthorhombic'
loop_
_space_group_symop_operation_xyz
x,y,z
1/2-x,-y,z
x,1/2-y,1/2-z
1/2-x,1/2+y,1/2-z
-x,-y,-z
1/2+x,y,-z
-x,1/2+y,1/2+z
1/2+x,1/2-y,1/2+z
loop_
_atom_site_type_symbol
_atom_site_label
_atom_site_fract_x
_atom_site_fract_y
_atom_site_fract_z
Si Si1 0.635847 0.630973 0.950376
Si Si2 0.505207 0.606840 0.636494
Si Si3 0.396963 0.694474 0.434251
Si Si4 0.082163 0.386138 0.192269
Si Si5 0.617610 0.754952 0.576133
Si Si6 0.707967 0.443529 0.546345
O O1 0.529958 0.615518 0.814183
O O2 0.789690 0.606832 0.928056
O O3 0.662111 0.689440 0.960900
O O4 0.567221 0.609415 0.105125
O O5 0.441990 0.656977 0.567316
O O6 0.654366 0.591872 0.555900
O O7 0.382552 0.565199 0.608856
O O8 0.408179 0.668081 0.270450
O O9 0.497023 0.742162 0.452444
O O10 0.239000 0.714408 0.452060
O O11 0.096932 0.429106 0.318824
O O12 0.563012 0.750000 0.750000
O O13 0.750000 0.500000 0.563350
#
# Coordination Sequence:
#
# PCOD8216228 Si02
#       6
#     8   8   8   8   8   8
#     4  11  22  39  56  87 123 160 203 255 301 357
#     4  10  21  39  63  88 124 157 202 262 314 369
#     4  11  22  41  59  85 121 168 204 251 301 355
#     4  10  23  40  59  84 126 161 199 252 317 363
#     4  12  22  38  59  86 122 160 216 251 288 357
#     4  10  21  41  67  94 119 158 209 261 320 393
#
# _framework density 21.487945
#
# number of rings (size 3 to 8) (size 9 to 14) (size 15 to 20)
#    0.000    1.333    3.333    3.500    0.000    4.000 
#    3.000    4.167    0.000    0.000    0.000    0.000 
#    0.000    0.000    0.000    0.000    0.000    0.000 
#
# Total GULP energy -595039.251409 kJ/mol
# GULP energy per Si atom -12396.651071 kJ/mol
# Density = 2.143904 g / cm^3
# Si number density = 21.487945 Si / 1000 Ang^3
#
#
#
# Elastic Constant Matrix: (Units=GPa)
#
#
# Indices 1 2 3 4 5 6 
#
# 1 73.0363 6.3223 36.5875 0.0000 0.0000 0.0000
# 2 6.3223 74.6360 16.9595 0.0000 0.0000 0.0000
# 3 36.5875 16.9595 48.6915 0.0000 0.0000 0.0000
# 4 0.0000 0.0000 0.0000 22.4753 0.0000 0.0000
# 5 0.0000 0.0000 0.0000 0.0000 44.1910 0.0000
# 6 0.0000 0.0000 0.0000 0.0000 0.0000 30.0163
#
#
#
# Elastic Compliance Matrix: (Units=1/GPa)
#
#
# Indices 1 2 3 4 5 6 
#
# 1 0.022250 0.002079 -0.017443 0.000000 0.000000 0.000000
# 2 0.002079 0.014744 -0.006697 0.000000 0.000000 0.000000
# 3 -0.017443 -0.006697 0.035977 0.000000 0.000000 0.000000
# 4 0.000000 0.000000 0.000000 0.044493 0.000000 0.000000
# 5 0.000000 0.000000 0.000000 0.000000 0.022629 0.000000
# 6 0.000000 0.000000 0.000000 0.000000 0.000000 0.033315
#
#
# Mechanical properties :
#
#
# Convention : Reuss Voigt Hill
#
# Bulk Modulus (GPa) = 34.66460 35.12247 34.89353
# Shear Modulus (GPa) = 22.01208 28.43616 25.22412
#
# Velocity S-wave (km/s) = 3.20408 3.64174 3.42990
# Velocity P-wave (km/s) = 5.46400 5.83641 5.65328
#
# Compressibility (1/GPa) = 0.02884788
#
# Stress axis : x y z
#
# Youngs Moduli (GPa) = 44.94396 67.82357 27.79543
#
# Poissons Ratio (x) = -0.14099 0.48484
# Poissons Ratio (y) = -0.09343 0.18616
# Poissons Ratio (z) = 0.78396 0.45425
#
# Static dielectric constant tensor:
#      x y z
#    x 4.078750 0.000000 0.000000 
#    y 0.000000 3.752750 0.000000 
#    z 0.000000 0.000000 3.860640 
# 
# 
# High freq. dielectric constant tensor:
#      x y z
#    x 1.853140 0.000000 0.000000 
#    y 0.000000 1.826860 0.000000 
#    z 0.000000 0.000000 1.828630 
# 
# From -- ./inp_files/7705.got.cif
#   From: 2010.06.25/outbox.cif.g09.slc.cpg/sg52_4_cif.got.tgz:7705.got - 2010.06.26 19:32:48.
