data_PCOD8216606
_publ_section_title
;
Structure prediction by ZEFSAII (Michael W. Deem and Ramdas Pophale) SiO2 
 PCOD8216606
Probable space group: P N N A
;
_chemical_formula_sum "Si O2"
_cell_formula_units_Z 56
_cell_length_a 14.198047
_cell_length_b 15.502377
_cell_length_c 11.740182
_cell_angle_alpha 90.000000
_cell_angle_beta 90.000000
_cell_angle_gamma 90.000000
_cell_volume 2584.054882
_symmetry_space_group_name_H-M "P N N A"
_symmetry_group_IT_number 52
_symmetry_cell_setting 'orthorhombic'
loop_
_space_group_symop_operation_xyz
x,y,z
1/2-x,-y,z
x,1/2-y,1/2-z
1/2-x,1/2+y,1/2-z
-x,-y,-z
1/2+x,y,-z
-x,1/2+y,1/2+z
1/2+x,1/2-y,1/2+z
loop_
_atom_site_type_symbol
_atom_site_label
_atom_site_fract_x
_atom_site_fract_y
_atom_site_fract_z
Si Si1 0.048439 0.515029 0.378695
Si Si2 0.209963 0.680368 0.558833
Si Si3 0.355293 0.531741 0.971463
Si Si4 0.624013 0.288059 0.124435
Si Si5 0.581686 0.750000 0.250000
Si Si6 0.750000 0.000000 0.968645
Si Si7 0.065669 0.790280 0.133345
Si Si8 0.000676 0.584037 0.843603
O O1 0.159153 0.493054 0.387327
O O2 0.029294 0.613240 0.341947
O O3 0.000000 0.500000 0.500000
O O4 0.002490 0.456118 0.282430
O O5 0.301142 0.739632 0.546673
O O6 0.149891 0.691602 0.672940
O O7 0.240552 0.581195 0.552387
O O8 0.151218 0.710424 0.451343
O O9 0.250000 0.500000 0.999525
O O10 0.355574 0.610023 0.880621
O O11 0.412103 0.452664 0.916448
O O12 0.403796 0.565104 0.088584
O O13 0.634491 0.250000 0.250000
O O14 0.518747 0.267475 0.080592
O O15 0.516876 0.686520 0.173960
O O16 0.103231 0.750000 0.250000
#
# Coordination Sequence:
#
# PCOD8216606 Si02
#       8
#     8   8   8   8   4   4   8   8
#     4  11  23  44  67 101 136 183 228 281 345 419
#     4  11  23  42  65 101 137 172 229 285 337 408
#     4  11  26  45  70 102 138 184 230 284 355 427
#     4  11  22  40  66 100 129 177 226 276 341 410
#     4  12  24  42  68 104 134 178 226 292 346 396
#     4  10  24  40  66  94 136 182 224 276 340 410
#     4  10  22  41  69  95 134 176 222 276 340 404
#     4  11  25  46  70  99 141 181 228 291 351 417
#
# _framework density 21.671367
#
# number of rings (size 3 to 8) (size 9 to 14) (size 15 to 20)
#    0.000    1.143    0.714    6.000    1.000    5.714 
#    3.857    0.000    1.571    0.000    0.000    0.000 
#    0.000    0.000    0.000    0.000    0.000    0.000 
#
# Total GULP energy -694606.578526 kJ/mol
# GULP energy per Si atom -12403.688902 kJ/mol
# Density = 2.162204 g / cm^3
# Si number density = 21.671367 Si / 1000 Ang^3
#
#
#
# Elastic Constant Matrix: (Units=GPa)
#
#
# Indices 1 2 3 4 5 6 
#
# 1 138.7603 48.3442 35.7761 0.0000 0.0000 0.0000
# 2 48.3442 146.5368 45.7123 0.0000 0.0000 0.0000
# 3 35.7761 45.7123 102.0002 0.0000 0.0000 0.0000
# 4 0.0000 0.0000 0.0000 38.8593 0.0000 0.0000
# 5 0.0000 0.0000 0.0000 0.0000 21.2266 0.0000
# 6 0.0000 0.0000 0.0000 0.0000 0.0000 34.8544
#
#
#
# Elastic Compliance Matrix: (Units=1/GPa)
#
#
# Indices 1 2 3 4 5 6 
#
# 1 0.008480 -0.002174 -0.002000 0.000000 0.000000 0.000000
# 2 -0.002174 0.008491 -0.003043 0.000000 0.000000 0.000000
# 3 -0.002000 -0.003043 0.011869 0.000000 0.000000 0.000000
# 4 0.000000 0.000000 0.000000 0.025734 0.000000 0.000000
# 5 0.000000 0.000000 0.000000 0.000000 0.047111 0.000000
# 6 0.000000 0.000000 0.000000 0.000000 0.000000 0.028691
#
#
# Mechanical properties :
#
#
# Convention : Reuss Voigt Hill
#
# Bulk Modulus (GPa) = 69.41363 71.88472 70.64917
# Shear Modulus (GPa) = 33.42032 36.15235 34.78634
#
# Velocity S-wave (km/s) = 3.93127 4.08880 4.01081
# Velocity P-wave (km/s) = 7.25990 7.45208 7.35662
#
# Compressibility (1/GPa) = 0.01440639
#
# Stress axis : x y z
#
# Youngs Moduli (GPa) = 117.92969 117.77869 84.25287
#
# Poissons Ratio (x) = 0.25600 0.16851
# Poissons Ratio (y) = 0.25633 0.25636
# Poissons Ratio (z) = 0.23587 0.35837
#
# Static dielectric constant tensor:
#      x y z
#    x 4.228920 0.000000 0.000000 
#    y 0.000000 4.056590 0.000000 
#    z 0.000000 0.000000 3.776380 
# 
# 
# High freq. dielectric constant tensor:
#      x y z
#    x 1.860170 0.000000 0.000000 
#    y 0.000000 1.864080 0.000000 
#    z 0.000000 0.000000 1.848500 
# 
# From -- ./inp_files/19678.got.cif
#   From: 2010.06.25/outbox.cif.g09.slc.cpg/sg52_10_cif.got.tgz:19678.got - 2010.06.26 19:32:48.
