data_PCOD8216576
_publ_section_title
;
Structure prediction by ZEFSAII (Michael W. Deem and Ramdas Pophale) SiO2 
 PCOD8216576
Probable space group: P N N A
;
_chemical_formula_sum "Si O2"
_cell_formula_units_Z 64
_cell_length_a 9.160000
_cell_length_b 10.932712
_cell_length_c 28.627174
_cell_angle_alpha 90.000000
_cell_angle_beta 90.000000
_cell_angle_gamma 90.000000
_cell_volume 2866.829462
_symmetry_space_group_name_H-M "P N N A"
_symmetry_group_IT_number 52
_symmetry_cell_setting 'orthorhombic'
loop_
_space_group_symop_operation_xyz
x,y,z
1/2-x,-y,z
x,1/2-y,1/2-z
1/2-x,1/2+y,1/2-z
-x,-y,-z
1/2+x,y,-z
-x,1/2+y,1/2+z
1/2+x,1/2-y,1/2+z
loop_
_atom_site_type_symbol
_atom_site_label
_atom_site_fract_x
_atom_site_fract_y
_atom_site_fract_z
Si Si1 0.850319 0.319396 0.201586
Si Si2 0.040291 0.416282 0.807242
Si Si3 0.800815 0.359757 0.465189
Si Si4 0.199564 0.632839 0.374422
Si Si5 0.988521 0.239654 0.949952
Si Si6 0.813473 0.370272 0.734237
Si Si7 0.500908 0.755694 0.389140
Si Si8 0.581176 0.977864 0.595782
O O1 0.848088 0.250000 0.250000
O O2 0.932467 0.446086 0.209734
O O3 0.688302 0.343416 0.182257
O O4 0.932864 0.239253 0.162539
O O5 0.959139 0.349946 0.764737
O O6 0.943704 0.413569 0.854136
O O7 0.750000 0.500000 0.467121
O O8 0.884776 0.320368 0.511500
O O9 0.657470 0.277728 0.461186
O O10 0.910686 0.336339 0.422287
O O11 0.250000 0.500000 0.390995
O O12 0.054615 0.672831 0.401693
O O13 0.154339 0.631537 0.320398
O O14 0.330011 0.725181 0.386615
O O15 0.969352 0.386077 0.945285
O O16 0.750000 0.500000 0.750518
O O17 0.715707 0.250000 0.750000
O O18 0.512136 0.896092 0.407378
O O19 0.750000 0.000000 0.588586
#
# Coordination Sequence:
#
# PCOD8216576 Si02
#       8
#     8   8   8   8   8   8   8   8
#     4  10  23  40  66  94 142 186 235 294 348 421
#     4  10  22  41  62  98 137 188 234 288 359 419
#     4  12  27  49  76 106 145 189 229 295 360 434
#     4  11  24  42  67 101 137 181 237 292 344 428
#     4  12  25  46  75 104 140 184 236 286 365 429
#     4  11  25  37  64  95 135 178 238 286 351 415
#     4  11  25  46  70 103 143 184 239 290 364 420
#     4  11  23  44  74 103 142 186 235 301 361 425
#
# _framework density 22.324313
#
# number of rings (size 3 to 8) (size 9 to 14) (size 15 to 20)
#    0.000    1.000    1.250    4.500    7.000    3.000 
#    2.250    0.000    0.000    0.000    0.000    0.000 
#    0.000    0.000    0.000    0.000    0.000    0.000 
#
# Total GULP energy -793737.468616 kJ/mol
# GULP energy per Si atom -12402.147947 kJ/mol
# Density = 2.227350 g / cm^3
# Si number density = 22.324313 Si / 1000 Ang^3
#
#
#
# Elastic Constant Matrix: (Units=GPa)
#
#
# Indices 1 2 3 4 5 6 
#
# 1 86.0124 7.9025 28.1930 0.0000 0.0000 0.0000
# 2 7.9025 112.7826 39.5398 0.0000 0.0000 0.0000
# 3 28.1930 39.5398 87.8339 0.0000 0.0000 0.0000
# 4 0.0000 0.0000 0.0000 37.9005 0.0000 0.0000
# 5 0.0000 0.0000 0.0000 0.0000 26.1345 0.0000
# 6 0.0000 0.0000 0.0000 0.0000 0.0000 30.1371
#
#
#
# Elastic Compliance Matrix: (Units=1/GPa)
#
#
# Indices 1 2 3 4 5 6 
#
# 1 0.013034 0.000657 -0.004480 0.000000 0.000000 0.000000
# 2 0.000657 0.010561 -0.004965 0.000000 0.000000 0.000000
# 3 -0.004480 -0.004965 0.015058 0.000000 0.000000 0.000000
# 4 0.000000 0.000000 0.000000 0.026385 0.000000 0.000000
# 5 0.000000 0.000000 0.000000 0.000000 0.038264 0.000000
# 6 0.000000 0.000000 0.000000 0.000000 0.000000 0.033182
#
#
# Mechanical properties :
#
#
# Convention : Reuss Voigt Hill
#
# Bulk Modulus (GPa) = 47.44211 48.65553 48.04882
# Shear Modulus (GPa) = 31.03946 32.90065 31.97006
#
# Velocity S-wave (km/s) = 3.73284 3.84312 3.78838
# Velocity P-wave (km/s) = 6.31476 6.44476 6.38009
#
# Compressibility (1/GPa) = 0.02107832
#
# Stress axis : x y z
#
# Youngs Moduli (GPa) = 76.72149 94.68513 66.40907
#
# Poissons Ratio (x) = -0.06222 0.29748
# Poissons Ratio (y) = -0.05042 0.32974
# Poissons Ratio (z) = 0.34368 0.47014
#
# Static dielectric constant tensor:
#      x y z
#    x 4.007900 0.000000 0.000000 
#    y 0.000000 4.466480 0.000000 
#    z 0.000000 0.000000 3.983180 
# 
# 
# High freq. dielectric constant tensor:
#      x y z
#    x 1.878910 0.000000 0.000000 
#    y 0.000000 1.898490 0.000000 
#    z 0.000000 0.000000 1.879650 
# 
# From -- ./inp_files/44614.got.cif
#   From: 2010.06.25/outbox.cif.g09.slc.cpg/sg52_23_cif.got.tgz:44614.got - 2010.06.26 19:32:48.
