data_PCOD8216944
_publ_section_title
;
Structure prediction by ZEFSAII (Michael W. Deem and Ramdas Pophale) SiO2 
 PCOD8216944
Probable space group: P N N A
;
_chemical_formula_sum "Si O2"
_cell_formula_units_Z 48
_cell_length_a 5.106794
_cell_length_b 12.872051
_cell_length_c 31.268467
_cell_angle_alpha 90.000000
_cell_angle_beta 90.000000
_cell_angle_gamma 90.000000
_cell_volume 2055.429952
_symmetry_space_group_name_H-M "P N N A"
_symmetry_group_IT_number 52
_symmetry_cell_setting 'orthorhombic'
loop_
_space_group_symop_operation_xyz
x,y,z
1/2-x,-y,z
x,1/2-y,1/2-z
1/2-x,1/2+y,1/2-z
-x,-y,-z
1/2+x,y,-z
-x,1/2+y,1/2+z
1/2+x,1/2-y,1/2+z
loop_
_atom_site_type_symbol
_atom_site_label
_atom_site_fract_x
_atom_site_fract_y
_atom_site_fract_z
Si Si1 0.864422 0.710049 0.336833
Si Si2 0.040852 0.145873 0.593918
Si Si3 0.750000 0.500000 0.375192
Si Si4 0.230254 0.779586 0.027734
Si Si5 0.870997 0.790519 0.703766
Si Si6 0.750000 0.000000 0.659927
Si Si7 0.250000 0.000000 0.529425
Si Si8 0.250000 0.000000 0.068365
O O1 0.792027 0.767129 0.381271
O O2 0.830446 0.588936 0.342425
O O3 0.667342 0.750460 0.300755
O O4 0.168091 0.735085 0.328070
O O5 0.243102 0.099839 0.559799
O O6 0.803601 0.202547 0.568438
O O7 0.951628 0.057341 0.627979
O O8 0.501959 0.530379 0.403696
O O9 0.187418 0.899943 0.039875
O O10 0.512715 0.755247 0.008219
O O11 0.776803 0.750000 0.750000
O O12 0.872612 0.914268 0.692804
O O13 0.500000 0.000000 0.500000
#
# Coordination Sequence:
#
# PCOD8216944 Si02
#       8
#     8   8   4   8   8   4   4   4
#     4  11  25  44  73 104 138 185 228 287 349 423
#     4  11  24  46  69 100 139 183 245 289 348 431
#     4  12  24  43  72 103 134 181 239 292 349 412
#     4  12  26  43  67  99 142 190 241 306 362 409
#     4  11  25  47  73 109 144 179 226 282 357 429
#     4  10  25  46  77 104 138 191 227 288 348 423
#     4  12  25  42  64  93 132 181 233 294 351 392
#     4  12  24  45  67  98 138 185 243 298 356 421
#
# _framework density 23.352775999999999
#
# number of rings (size 3 to 8) (size 9 to 14) (size 15 to 20)
#    0.000    0.667    1.667    5.500    2.333    6.000 
#    0.000    0.000    0.000    0.000    0.000    0.000 
#    0.000    0.000    0.000    0.000    0.000    0.000 
#
# Total GULP energy -595100.184906 kJ/mol
# GULP energy per Si atom -12397.920519 kJ/mol
# Density = 2.329962 g / cm^3
# Si number density = 23.352776 Si / 1000 Ang^3
#
#
#
# Elastic Constant Matrix: (Units=GPa)
#
#
# Indices 1 2 3 4 5 6 
#
# 1 97.0004 19.1089 19.7263 0.0000 0.0000 0.0000
# 2 19.1089 158.2994 62.3982 0.0000 0.0000 0.0000
# 3 19.7263 62.3982 110.6728 0.0000 0.0000 0.0000
# 4 0.0000 0.0000 0.0000 -64.7996 0.0000 0.0000
# 5 0.0000 0.0000 0.0000 0.0000 27.7714 0.0000
# 6 0.0000 0.0000 0.0000 0.0000 0.0000 27.2264
#
#
#
# Elastic Compliance Matrix: (Units=1/GPa)
#
#
# Indices 1 2 3 4 5 6 
#
# 1 0.010757 -0.000698 -0.001524 0.000000 0.000000 0.000000
# 2 -0.000698 0.008168 -0.004481 0.000000 0.000000 0.000000
# 3 -0.001524 -0.004481 0.011833 0.000000 0.000000 0.000000
# 4 0.000000 0.000000 0.000000 -0.015432 0.000000 0.000000
# 5 0.000000 0.000000 0.000000 0.000000 0.036008 0.000000
# 6 0.000000 0.000000 0.000000 0.000000 0.000000 0.036729
#
#
# Mechanical properties :
#
#
# Convention : Reuss Voigt Hill
#
# Bulk Modulus (GPa) = 57.62629 63.15992 60.39310
# Shear Modulus (GPa) = 46.61950 15.68894 31.15422
#
# Velocity S-wave (km/s) = 4.47286 2.59477 3.65645
# Velocity P-wave (km/s) = 7.16975 6.00681 6.61389
#
# Compressibility (1/GPa) = 0.01735319
#
# Stress axis : x y z
#
# Youngs Moduli (GPa) = 92.96620 122.43637 84.50649
#
# Poissons Ratio (x) = 0.08544 0.12877
# Poissons Ratio (y) = 0.06487 0.37863
# Poissons Ratio (z) = 0.14166 0.54858
#
# Static dielectric constant tensor:
#      x y z
#    x 4.069250 0.000000 0.000000 
#    y 0.000000 4.663660 0.000000 
#    z 0.000000 0.000000 4.280050 
# 
# 
# High freq. dielectric constant tensor:
#      x y z
#    x 1.922740 0.000000 0.000000 
#    y 0.000000 1.942900 0.000000 
#    z 0.000000 0.000000 1.922000 
# 
# From -- ./inp_files/41736.got.cif
#   From: 2010.06.25/outbox.cif.g09.slc.cpg/sg52_21_cif.got.tgz:41736.got - 2010.06.26 19:32:48.
