data_PCOD8216896
_publ_section_title
;
Structure prediction by ZEFSAII (Michael W. Deem and Ramdas Pophale) SiO2 
 PCOD8216896
Probable space group: P N N A
;
_chemical_formula_sum "Si O2"
_cell_formula_units_Z 40
_cell_length_a 8.678374
_cell_length_b 14.283435
_cell_length_c 14.273039
_cell_angle_alpha 90.000000
_cell_angle_beta 90.000000
_cell_angle_gamma 90.000000
_cell_volume 1769.242966
_symmetry_space_group_name_H-M "P N N A"
_symmetry_group_IT_number 52
_symmetry_cell_setting 'orthorhombic'
loop_
_space_group_symop_operation_xyz
x,y,z
1/2-x,-y,z
x,1/2-y,1/2-z
1/2-x,1/2+y,1/2-z
-x,-y,-z
1/2+x,y,-z
-x,1/2+y,1/2+z
1/2+x,1/2-y,1/2+z
loop_
_atom_site_type_symbol
_atom_site_label
_atom_site_fract_x
_atom_site_fract_y
_atom_site_fract_z
Si Si1 0.130760 0.111185 0.368208
Si Si2 0.028540 0.750000 0.750000
Si Si3 0.728328 0.699050 0.403666
Si Si4 0.960223 0.093989 0.943539
Si Si5 0.677322 0.595173 0.037829
Si Si6 0.750000 0.000000 0.795405
O O1 0.292108 0.105008 0.424784
O O2 0.081833 0.213241 0.332713
O O3 0.004295 0.081164 0.445080
O O4 0.130754 0.052987 0.272157
O O5 0.140846 0.676716 0.694821
O O6 0.625472 0.666722 0.490414
O O7 0.747093 0.812356 0.411197
O O8 0.888887 0.644241 0.402873
O O9 0.846982 0.071811 0.857846
O O10 0.000000 0.000000 0.000000
O O11 0.750000 0.500000 0.079003
#
# Coordination Sequence:
#
# PCOD8216896 Si02
#       6
#     8   4   8   8   8   4
#     4  11  25  44  69  99 139 183 234 294 352 421
#     4  10  24  44  68 108 142 178 242 298 338 432
#     4  11  24  45  73 100 140 185 232 286 357 418
#     4  12  24  46  73 103 140 187 232 289 365 426
#     4  11  24  46  72  97 140 187 230 290 359 413
#     4  12  26  40  72 106 140 186 242 292 364 422
#
# _framework density 22.608539
#
# number of rings (size 3 to 8) (size 9 to 14) (size 15 to 20)
#    0.000    0.800    3.000    4.200    2.800    3.200 
#    3.600    0.000    0.000    0.000    0.000    0.000 
#    0.000    0.000    0.000    0.000    0.000    0.000 
#
# Total GULP energy -495730.206511 kJ/mol
# GULP energy per Si atom -12393.255163 kJ/mol
# Density = 2.255708 g / cm^3
# Si number density = 22.608539 Si / 1000 Ang^3
#
#
#
# Elastic Constant Matrix: (Units=GPa)
#
#
# Indices 1 2 3 4 5 6 
#
# 1 127.9834 45.6597 74.4846 0.0000 0.0000 0.0000
# 2 45.6597 120.0586 38.0693 0.0000 0.0000 0.0000
# 3 74.4846 38.0693 152.3676 0.0000 0.0000 0.0000
# 4 0.0000 0.0000 0.0000 44.8457 0.0000 0.0000
# 5 0.0000 0.0000 0.0000 0.0000 43.2656 0.0000
# 6 0.0000 0.0000 0.0000 0.0000 0.0000 32.4665
#
#
#
# Elastic Compliance Matrix: (Units=1/GPa)
#
#
# Indices 1 2 3 4 5 6 
#
# 1 0.011771 -0.002880 -0.005035 0.000000 0.000000 0.000000
# 2 -0.002880 0.009751 -0.001028 0.000000 0.000000 0.000000
# 3 -0.005035 -0.001028 0.009281 0.000000 0.000000 0.000000
# 4 0.000000 0.000000 0.000000 0.022299 0.000000 0.000000
# 5 0.000000 0.000000 0.000000 0.000000 0.023113 0.000000
# 6 0.000000 0.000000 0.000000 0.000000 0.000000 0.030801
#
#
# Mechanical properties :
#
#
# Convention : Reuss Voigt Hill
#
# Bulk Modulus (GPa) = 77.41900 79.64852 78.53376
# Shear Modulus (GPa) = 38.69735 40.26194 39.47965
#
# Velocity S-wave (km/s) = 4.14167 4.22457 4.18332
# Velocity P-wave (km/s) = 7.56233 7.68777 7.62531
#
# Compressibility (1/GPa) = 0.01291673
#
# Stress axis : x y z
#
# Youngs Moduli (GPa) = 84.95301 102.55668 107.74506
#
# Poissons Ratio (x) = 0.29539 0.54246
# Poissons Ratio (y) = 0.24469 0.11078
# Poissons Ratio (z) = 0.42771 0.10545
#
# Static dielectric constant tensor:
#      x y z
#    x 4.202660 0.000000 0.000000 
#    y 0.000000 4.231680 0.000000 
#    z 0.000000 0.000000 4.236980 
# 
# 
# High freq. dielectric constant tensor:
#      x y z
#    x 1.891670 0.000000 0.000000 
#    y 0.000000 1.895900 0.000000 
#    z 0.000000 0.000000 1.899860 
# 
# From -- ./inp_files/24469.got.cif
#   From: 2010.06.25/outbox.cif.g09.slc.cpg/sg52_13_cif.got.tgz:24469.got - 2010.06.26 19:32:48.
