data_PCOD8216150
_publ_section_title
;
Structure prediction by ZEFSAII (Michael W. Deem and Ramdas Pophale) SiO2 
 PCOD8216150
Probable space group: P N N A
;
_chemical_formula_sum "Si O2"
_cell_formula_units_Z 64
_cell_length_a 17.642460
_cell_length_b 29.331788
_cell_length_c 5.233314
_cell_angle_alpha 90.000000
_cell_angle_beta 90.000000
_cell_angle_gamma 90.000000
_cell_volume 2708.160954
_symmetry_space_group_name_H-M "P N N A"
_symmetry_group_IT_number 52
_symmetry_cell_setting 'orthorhombic'
loop_
_space_group_symop_operation_xyz
x,y,z
1/2-x,-y,z
x,1/2-y,1/2-z
1/2-x,1/2+y,1/2-z
-x,-y,-z
1/2+x,y,-z
-x,1/2+y,1/2+z
1/2+x,1/2-y,1/2+z
loop_
_atom_site_type_symbol
_atom_site_label
_atom_site_fract_x
_atom_site_fract_y
_atom_site_fract_z
Si Si1 0.244460 0.155930 0.283699
Si Si2 0.464601 0.792633 0.060469
Si Si3 0.666094 0.427948 0.948147
Si Si4 0.545386 0.566657 0.467060
Si Si5 0.816389 0.799119 0.225604
Si Si6 0.971367 0.872540 0.595440
Si Si7 0.112546 0.028124 0.928663
Si Si8 0.085392 0.660123 0.286094
O O1 0.238393 0.101621 0.351609
O O2 0.192419 0.180709 0.491833
O O3 0.331288 0.171952 0.313132
O O4 0.219501 0.168714 0.994925
O O5 0.457943 0.750000 0.250000
O O6 0.439510 0.841388 0.176441
O O7 0.405328 0.788885 0.827043
O O8 0.552551 0.799795 0.970640
O O9 0.673542 0.458840 0.204412
O O10 0.602633 0.391658 0.044393
O O11 0.641986 0.458117 0.707089
O O12 0.518643 0.583465 0.189518
O O13 0.470883 0.549948 0.625821
O O14 0.605859 0.526523 0.430063
O O15 0.586759 0.609190 0.599426
O O16 0.774850 0.750000 0.250000
O O17 0.024792 0.838923 0.439745
#
# Coordination Sequence:
#
# PCOD8216150 Si02
#       8
#     8   8   8   8   8   8   8   8
#     4  12  27  46  71  98 151 187 233 287 371 436
#     4  11  25  45  74 108 135 184 245 309 354 425
#     4  11  21  40  66  98 131 181 235 282 343 422
#     4   9  21  37  65 100 136 174 231 294 354 401
#     4  12  27  49  73 104 133 189 243 296 350 428
#     4  10  21  40  67  99 134 181 235 286 350 422
#     4  10  21  37  68 102 131 174 236 299 336 409
#     4  11  25  43  69 102 145 191 225 295 367 440
#
# _framework density 23.632272
#
# number of rings (size 3 to 8) (size 9 to 14) (size 15 to 20)
#    0.000    1.250    2.500    2.625    8.750    2.000 
#    2.250    0.625    0.000    0.000    0.000    0.000 
#    0.000    0.000    0.000    0.000    0.000    0.000 
#
# Total GULP energy -792946.638975 kJ/mol
# GULP energy per Si atom -12389.791234 kJ/mol
# Density = 2.357848 g / cm^3
# Si number density = 23.632272 Si / 1000 Ang^3
#
#
#
# Elastic Constant Matrix: (Units=GPa)
#
#
# Indices 1 2 3 4 5 6 
#
# 1 87.1905 16.3221 22.5207 0.0000 0.0000 0.0000
# 2 16.3221 77.6218 13.3834 0.0000 0.0000 0.0000
# 3 22.5207 13.3834 94.1478 0.0000 0.0000 0.0000
# 4 0.0000 0.0000 0.0000 39.4910 0.0000 0.0000
# 5 0.0000 0.0000 0.0000 0.0000 20.4102 0.0000
# 6 0.0000 0.0000 0.0000 0.0000 0.0000 19.1910
#
#
#
# Elastic Compliance Matrix: (Units=1/GPa)
#
#
# Indices 1 2 3 4 5 6 
#
# 1 0.012574 -0.002179 -0.002698 0.000000 0.000000 0.000000
# 2 -0.002179 0.013584 -0.001410 0.000000 0.000000 0.000000
# 3 -0.002698 -0.001410 0.011467 0.000000 0.000000 0.000000
# 4 0.000000 0.000000 0.000000 0.025322 0.000000 0.000000
# 5 0.000000 0.000000 0.000000 0.000000 0.048995 0.000000
# 6 0.000000 0.000000 0.000000 0.000000 0.000000 0.052108
#
#
# Mechanical properties :
#
#
# Convention : Reuss Voigt Hill
#
# Bulk Modulus (GPa) = 39.91677 40.37916 40.14796
# Shear Modulus (GPa) = 27.03072 29.60069 28.31570
#
# Velocity S-wave (km/s) = 3.38569 3.54298 3.46523
# Velocity P-wave (km/s) = 5.67550 5.81898 5.74769
#
# Compressibility (1/GPa) = 0.02505213
#
# Stress axis : x y z
#
# Youngs Moduli (GPa) = 79.52986 73.61483 87.20372
#
# Poissons Ratio (x) = 0.16039 0.23528
# Poissons Ratio (y) = 0.17328 0.12294
# Poissons Ratio (z) = 0.21457 0.10379
#
# Static dielectric constant tensor:
#      x y z
#    x 3.945110 0.000000 0.000000 
#    y 0.000000 4.459080 0.000000 
#    z 0.000000 0.000000 4.187340 
# 
# 
# High freq. dielectric constant tensor:
#      x y z
#    x 1.902900 0.000000 0.000000 
#    y 0.000000 1.946370 0.000000 
#    z 0.000000 0.000000 1.937510 
# 
# From -- ./inp_files/3664.got.cif
#   From: 2010.06.25/outbox.cif.g09.slc.cpg/sg52_2_cif.got.tgz:3664.got - 2010.06.26 19:32:48.
