data_PCOD8216017
_publ_section_title
;
Structure prediction by ZEFSAII (Michael W. Deem and Ramdas Pophale) SiO2 
 PCOD8216017
Probable space group: P N N A
;
_chemical_formula_sum "Si O2"
_cell_formula_units_Z 56
_cell_length_a 19.719308
_cell_length_b 15.044808
_cell_length_c 8.748862
_cell_angle_alpha 90.000000
_cell_angle_beta 90.000000
_cell_angle_gamma 90.000000
_cell_volume 2595.552910
_symmetry_space_group_name_H-M "P N N A"
_symmetry_group_IT_number 52
_symmetry_cell_setting 'orthorhombic'
loop_
_space_group_symop_operation_xyz
x,y,z
1/2-x,-y,z
x,1/2-y,1/2-z
1/2-x,1/2+y,1/2-z
-x,-y,-z
1/2+x,y,-z
-x,1/2+y,1/2+z
1/2+x,1/2-y,1/2+z
loop_
_atom_site_type_symbol
_atom_site_label
_atom_site_fract_x
_atom_site_fract_y
_atom_site_fract_z
Si Si1 0.187834 0.254025 0.081209
Si Si2 0.700997 0.653023 0.099169
Si Si3 0.722848 0.402774 0.369835
Si Si4 0.876801 0.513082 0.148388
Si Si5 0.481717 0.073142 0.876077
Si Si6 0.065430 0.752906 0.572689
Si Si7 0.055394 0.365032 0.089968
O O1 0.218588 0.250000 0.250000
O O2 0.110248 0.285783 0.087223
O O3 0.230764 0.328184 0.992725
O O4 0.194536 0.155354 0.009183
O O5 0.718126 0.654716 0.282968
O O6 0.676576 0.552656 0.065526
O O7 0.643473 0.722315 0.044710
O O8 0.750000 0.500000 0.425067
O O9 0.662684 0.413114 0.246452
O O10 0.922112 0.455835 0.263128
O O11 0.922495 0.554056 0.016307
O O12 0.453310 0.153789 0.983438
O O13 0.544924 0.100449 0.765454
O O14 0.500000 0.000000 0.000000
O O15 0.047500 0.750000 0.750000
O O16 0.013343 0.827224 0.509448
#
# Coordination Sequence:
#
# PCOD8216017 Si02
#       7
#     8   8   8   8   8   8   8
#     4  12  26  44  67 101 145 179 224 292 357 416
#     4  11  22  45  71  94 133 182 237 273 343 419
#     4  10  24  43  72 102 130 183 240 279 339 426
#     4  11  23  43  71 103 130 183 230 291 336 418
#     4  11  25  43  69 102 137 181 233 288 351 411
#     4  10  20  41  70  92 126 178 221 274 335 405
#     4  11  24  44  70  98 139 177 225 286 352 407
#
# _framework density 21.575365999999999
#
# number of rings (size 3 to 8) (size 9 to 14) (size 15 to 20)
#    0.000    1.143    4.286    3.000    6.000    0.000 
#    5.143    0.000    0.000    0.000    0.000    0.000 
#    0.000    0.000    0.000    0.000    0.000    0.000 
#
# Total GULP energy -694141.098150 kJ/mol
# GULP energy per Si atom -12395.376753 kJ/mol
# Density = 2.152626 g / cm^3
# Si number density = 21.575366 Si / 1000 Ang^3
#
#
#
# Elastic Constant Matrix: (Units=GPa)
#
#
# Indices 1 2 3 4 5 6 
#
# 1 113.9779 46.7509 35.1643 0.0000 0.0000 0.0000
# 2 46.7509 116.2836 53.5031 0.0000 0.0000 0.0000
# 3 35.1643 53.5031 82.6135 0.0000 0.0000 0.0000
# 4 0.0000 0.0000 0.0000 42.1892 0.0000 0.0000
# 5 0.0000 0.0000 0.0000 0.0000 26.8148 0.0000
# 6 0.0000 0.0000 0.0000 0.0000 0.0000 46.4176
#
#
#
# Elastic Compliance Matrix: (Units=1/GPa)
#
#
# Indices 1 2 3 4 5 6 
#
# 1 0.010873 -0.003194 -0.002560 0.000000 0.000000 0.000000
# 2 -0.003194 0.013188 -0.007182 0.000000 0.000000 0.000000
# 3 -0.002560 -0.007182 0.017845 0.000000 0.000000 0.000000
# 4 0.000000 0.000000 0.000000 0.023703 0.000000 0.000000
# 5 0.000000 0.000000 0.000000 0.000000 0.037293 0.000000
# 6 0.000000 0.000000 0.000000 0.000000 0.000000 0.021544
#
#
# Mechanical properties :
#
#
# Convention : Reuss Voigt Hill
#
# Bulk Modulus (GPa) = 62.35885 64.85684 63.60785
# Shear Modulus (GPa) = 32.12103 34.91478 33.51791
#
# Velocity S-wave (km/s) = 3.86266 4.02714 3.94576
# Velocity P-wave (km/s) = 6.98993 7.19372 7.09256
#
# Compressibility (1/GPa) = 0.01603622
#
# Stress axis : x y z
#
# Youngs Moduli (GPa) = 91.96761 75.82668 56.03766
#
# Poissons Ratio (x) = 0.24217 0.14345
# Poissons Ratio (y) = 0.29372 0.40244
# Poissons Ratio (z) = 0.23543 0.54455
#
# Static dielectric constant tensor:
#      x y z
#    x 4.057800 0.000000 0.000000 
#    y 0.000000 4.361330 0.000000 
#    z 0.000000 0.000000 3.579540 
# 
# 
# High freq. dielectric constant tensor:
#      x y z
#    x 1.861840 0.000000 0.000000 
#    y 0.000000 1.868850 0.000000 
#    z 0.000000 0.000000 1.802150 
# 
# From -- ./inp_files/13472.got.cif
#   From: 2010.06.25/outbox.cif.g09.slc.cpg/sg52_7_cif.got.tgz:13472.got - 2010.06.26 19:32:48.
