data_PCOD8216117
_publ_section_title
;
Structure prediction by ZEFSAII (Michael W. Deem and Ramdas Pophale) SiO2 
 PCOD8216117
Probable space group: P N N A
;
_chemical_formula_sum "Si O2"
_cell_formula_units_Z 48
_cell_length_a 23.316820
_cell_length_b 6.552891
_cell_length_c 16.752281
_cell_angle_alpha 90.000000
_cell_angle_beta 90.000000
_cell_angle_gamma 90.000000
_cell_volume 2559.624234
_symmetry_space_group_name_H-M "P N N A"
_symmetry_group_IT_number 52
_symmetry_cell_setting 'orthorhombic'
loop_
_space_group_symop_operation_xyz
x,y,z
1/2-x,-y,z
x,1/2-y,1/2-z
1/2-x,1/2+y,1/2-z
-x,-y,-z
1/2+x,y,-z
-x,1/2+y,1/2+z
1/2+x,1/2-y,1/2+z
loop_
_atom_site_type_symbol
_atom_site_label
_atom_site_fract_x
_atom_site_fract_y
_atom_site_fract_z
Si Si1 0.310629 0.453744 0.544826
Si Si2 0.377026 0.732214 0.843376
Si Si3 0.492674 0.314452 0.160641
Si Si4 0.993000 0.815635 0.561944
Si Si5 0.575412 0.567352 0.532461
Si Si6 0.694264 0.870934 0.327335
O O1 0.250000 0.500000 0.501329
O O2 0.339333 0.619743 0.602802
O O3 0.356429 0.400461 0.475983
O O4 0.289392 0.271228 0.599947
O O5 0.362076 0.750000 0.750000
O O6 0.443933 0.765847 0.862099
O O7 0.358440 0.502124 0.862763
O O8 0.477416 0.250000 0.250000
O O9 0.490120 0.563569 0.147184
O O10 0.446353 0.198922 0.106899
O O11 0.045579 0.655313 0.549212
O O12 0.936780 0.675225 0.546369
O O13 0.000000 0.000000 0.500000
O O14 0.671975 0.750000 0.250000
O O15 0.750000 0.000000 0.302197
#
# Coordination Sequence:
#
# PCOD8216117 Si02
#       6
#     8   8   8   8   8   8
#     4  12  23  36  54  80 113 154 198 233 278 341
#     4  11  21  35  53  82 116 148 190 231 274 341
#     4  10  22  38  60  88 113 147 194 247 302 354
#     4   9  17  35  57  81 114 146 182 227 290 346
#     4  10  21  37  58  81 114 156 189 240 296 342
#     4  12  22  36  52  76 114 162 195 229 276 326
#
# _framework density 18.752752000000001
#
# number of rings (size 3 to 8) (size 9 to 14) (size 15 to 20)
#    0.000    1.333    3.333    5.000    0.000    2.000 
#    0.000    0.000    0.000    0.000    4.333    0.000 
#    0.000    0.000    0.000    0.000    0.000    0.000 
#
# Total GULP energy -594711.262244 kJ/mol
# GULP energy per Si atom -12389.817963 kJ/mol
# Density = 1.871007 g / cm^3
# Si number density = 18.752752 Si / 1000 Ang^3
#
#
#
# Elastic Constant Matrix: (Units=GPa)
#
#
# Indices 1 2 3 4 5 6 
#
# 1 141.8898 31.1964 50.1775 0.0000 0.0000 0.0000
# 2 31.1964 108.8551 40.1961 0.0000 0.0000 0.0000
# 3 50.1775 40.1961 81.6532 0.0000 0.0000 0.0000
# 4 0.0000 0.0000 0.0000 33.5748 0.0000 0.0000
# 5 0.0000 0.0000 0.0000 0.0000 26.0219 0.0000
# 6 0.0000 0.0000 0.0000 0.0000 0.0000 5.9694
#
#
#
# Elastic Compliance Matrix: (Units=1/GPa)
#
#
# Indices 1 2 3 4 5 6 
#
# 1 0.009043 -0.000659 -0.005233 0.000000 0.000000 0.000000
# 2 -0.000659 0.011276 -0.005145 0.000000 0.000000 0.000000
# 3 -0.005233 -0.005145 0.017995 0.000000 0.000000 0.000000
# 4 0.000000 0.000000 0.000000 0.029784 0.000000 0.000000
# 5 0.000000 0.000000 0.000000 0.000000 0.038429 0.000000
# 6 0.000000 0.000000 0.000000 0.000000 0.000000 0.167522
#
#
# Mechanical properties :
#
#
# Convention : Reuss Voigt Hill
#
# Bulk Modulus (GPa) = 61.57949 63.94868 62.76408
# Shear Modulus (GPa) = 16.58167 27.16844 21.87505
#
# Velocity S-wave (km/s) = 2.97682 3.81040 3.41911
# Velocity P-wave (km/s) = 6.68761 7.31668 7.00921
#
# Compressibility (1/GPa) = 0.01623917
#
# Stress axis : x y z
#
# Youngs Moduli (GPa) = 110.58108 88.68763 55.56971
#
# Poissons Ratio (x) = 0.05849 0.29077
# Poissons Ratio (y) = 0.07292 0.28593
# Poissons Ratio (z) = 0.57862 0.45634
#
# Static dielectric constant tensor:
#      x y z
#    x 3.379890 0.000000 0.000000 
#    y 0.000000 3.953780 0.000000 
#    z 0.000000 0.000000 3.329690 
# 
# 
# High freq. dielectric constant tensor:
#      x y z
#    x 1.714330 0.000000 0.000000 
#    y 0.000000 1.748690 0.000000 
#    z 0.000000 0.000000 1.689240 
# 
# From -- ./inp_files/34250.got.cif
#   From: 2010.06.25/outbox.cif.g09.slc.cpg/sg52_18_cif.got.tgz:34250.got - 2010.06.26 19:32:48.
