data_PCOD8216916
_publ_section_title
;
Structure prediction by ZEFSAII (Michael W. Deem and Ramdas Pophale) SiO2 
 PCOD8216916
Probable space group: P N N A
;
_chemical_formula_sum "Si O2"
_cell_formula_units_Z 32
_cell_length_a 13.911427
_cell_length_b 8.454683
_cell_length_c 11.051119
_cell_angle_alpha 90.000000
_cell_angle_beta 90.000000
_cell_angle_gamma 90.000000
_cell_volume 1299.796207
_symmetry_space_group_name_H-M "P N N A"
_symmetry_group_IT_number 52
_symmetry_cell_setting 'orthorhombic'
loop_
_space_group_symop_operation_xyz
x,y,z
1/2-x,-y,z
x,1/2-y,1/2-z
1/2-x,1/2+y,1/2-z
-x,-y,-z
1/2+x,y,-z
-x,1/2+y,1/2+z
1/2+x,1/2-y,1/2+z
loop_
_atom_site_type_symbol
_atom_site_label
_atom_site_fract_x
_atom_site_fract_y
_atom_site_fract_z
Si Si1 0.362412 0.518515 0.414587
Si Si2 0.427071 0.181046 0.502587
Si Si3 0.750000 0.500000 0.044138
Si Si4 0.107994 0.268380 0.883101
Si Si5 0.985281 0.750000 0.750000
O O1 0.250000 0.500000 0.380712
O O2 0.412664 0.350874 0.437436
O O3 0.374065 0.609333 0.542016
O O4 0.416669 0.612849 0.306657
O O5 0.528494 0.118844 0.448304
O O6 0.441059 0.187846 0.647502
O O7 0.336428 0.072358 0.463457
O O8 0.791082 0.639756 0.126866
O O9 0.067495 0.250000 0.750000
#
# Coordination Sequence:
#
# PCOD8216916 Si02
#       5
#     8   8   4   8   4
#     4  11  24  52  74 107 147 198 250 304 369 441
#     4  11  26  49  72 106 151 191 248 307 372 441
#     4  12  26  42  72 110 146 192 250 300 368 452
#     4  11  26  45  74 107 147 195 244 306 371 437
#     4  10  24  46  76 104 146 198 252 308 372 438
#
# _framework density 24.619244999999999
#
# number of rings (size 3 to 8) (size 9 to 14) (size 15 to 20)
#    0.000    1.000    2.500    3.750   10.500    0.000 
#   11.250    0.000    0.000    0.000    0.000    0.000 
#    0.000    0.000    0.000    0.000    0.000    0.000 
#
# Total GULP energy -396656.759703 kJ/mol
# GULP energy per Si atom -12395.523741 kJ/mol
# Density = 2.456321 g / cm^3
# Si number density = 24.619245 Si / 1000 Ang^3
#
#
#
# Elastic Constant Matrix: (Units=GPa)
#
#
# Indices 1 2 3 4 5 6 
#
# 1 163.9315 51.5116 24.8280 0.0000 0.0000 0.0000
# 2 51.5116 89.2683 37.1628 0.0000 0.0000 0.0000
# 3 24.8280 37.1628 83.2089 0.0000 0.0000 0.0000
# 4 0.0000 0.0000 0.0000 28.5478 0.0000 0.0000
# 5 0.0000 0.0000 0.0000 0.0000 18.4580 0.0000
# 6 0.0000 0.0000 0.0000 0.0000 0.0000 56.6160
#
#
#
# Elastic Compliance Matrix: (Units=1/GPa)
#
#
# Indices 1 2 3 4 5 6 
#
# 1 0.007461 -0.004150 -0.000373 0.000000 0.000000 0.000000
# 2 -0.004150 0.016069 -0.005939 0.000000 0.000000 0.000000
# 3 -0.000373 -0.005939 0.014781 0.000000 0.000000 0.000000
# 4 0.000000 0.000000 0.000000 0.035029 0.000000 0.000000
# 5 0.000000 0.000000 0.000000 0.000000 0.054177 0.000000
# 6 0.000000 0.000000 0.000000 0.000000 0.000000 0.017663
#
#
# Mechanical properties :
#
#
# Convention : Reuss Voigt Hill
#
# Bulk Modulus (GPa) = 57.50809 62.60150 60.05480
# Shear Modulus (GPa) = 29.08696 35.58479 32.33587
#
# Velocity S-wave (km/s) = 3.44098 3.80597 3.62807
# Velocity P-wave (km/s) = 6.26074 6.69305 6.48050
#
# Compressibility (1/GPa) = 0.01738886
#
# Stress axis : x y z
#
# Youngs Moduli (GPa) = 134.03817 62.23130 67.65262
#
# Poissons Ratio (x) = 0.25825 0.02521
# Poissons Ratio (y) = 0.55625 0.40176
# Poissons Ratio (z) = 0.04995 0.36956
#
# Static dielectric constant tensor:
#      x y z
#    x 4.822730 0.000000 0.000000 
#    y 0.000000 4.589620 0.000000 
#    z 0.000000 0.000000 4.055240 
# 
# 
# High freq. dielectric constant tensor:
#      x y z
#    x 2.010150 0.000000 0.000000 
#    y 0.000000 1.998840 0.000000 
#    z 0.000000 0.000000 1.952600 
# 
# From -- ./inp_files/18919.got.cif
#   From: 2010.06.25/outbox.cif.g09.slc.cpg/sg52_10_cif.got.tgz:18919.got - 2010.06.26 19:32:48.
