data_PCOD8216222
_publ_section_title
;
Structure prediction by ZEFSAII (Michael W. Deem and Ramdas Pophale) SiO2 
 PCOD8216222
Probable space group: P N N A
;
_chemical_formula_sum "Si O2"
_cell_formula_units_Z 44
_cell_length_a 14.772272
_cell_length_b 21.525204
_cell_length_c 7.168311
_cell_angle_alpha 90.000000
_cell_angle_beta 90.000000
_cell_angle_gamma 90.000000
_cell_volume 2279.352065
_symmetry_space_group_name_H-M "P N N A"
_symmetry_group_IT_number 52
_symmetry_cell_setting 'orthorhombic'
loop_
_space_group_symop_operation_xyz
x,y,z
1/2-x,-y,z
x,1/2-y,1/2-z
1/2-x,1/2+y,1/2-z
-x,-y,-z
1/2+x,y,-z
-x,1/2+y,1/2+z
1/2+x,1/2-y,1/2+z
loop_
_atom_site_type_symbol
_atom_site_label
_atom_site_fract_x
_atom_site_fract_y
_atom_site_fract_z
Si Si1 0.349127 0.523689 0.013643
Si Si2 0.804114 0.879347 0.816080
Si Si3 0.899035 0.404685 0.774842
Si Si4 0.485404 0.698260 0.891742
Si Si5 0.587355 0.095681 0.176838
Si Si6 0.890290 0.750000 0.750000
O O1 0.250000 0.500000 0.972449
O O2 0.348502 0.585441 0.141699
O O3 0.403243 0.468901 0.113337
O O4 0.392492 0.538673 0.814920
O O5 0.696371 0.890654 0.822889
O O6 0.825532 0.806443 0.809179
O O7 0.846195 0.908439 0.002832
O O8 0.929423 0.349503 0.919093
O O9 0.979985 0.408930 0.618730
O O10 0.520790 0.750000 0.750000
O O11 0.401464 0.660781 0.792939
O O12 0.456104 0.729325 0.084222
#
# Coordination Sequence:
#
# PCOD8216222 Si02
#       6
#     8   8   8   8   8   4
#     4  10  21  40  61  92 129 167 216 263 320 384
#     4  11  22  37  64  93 124 178 205 267 322 377
#     4   9  22  40  64  91 131 165 216 262 319 384
#     4  10  21  40  62  93 125 164 211 265 314 389
#     4  10  21  39  62  88 129 165 212 261 318 375
#     4  12  20  38  68  84 130 174 204 264 338 370
#
# _framework density 19.303730999999999
#
# number of rings (size 3 to 8) (size 9 to 14) (size 15 to 20)
#    1.091    0.727    3.636    0.545    1.273    2.909 
#    0.000   12.727    2.000    0.000    0.000    0.000 
#    0.000    0.000    0.000    0.000    0.000    0.000 
#
# Total GULP energy -545137.323067 kJ/mol
# GULP energy per Si atom -12389.484615 kJ/mol
# Density = 1.925980 g / cm^3
# Si number density = 19.303731 Si / 1000 Ang^3
#
#
#
# Elastic Constant Matrix: (Units=GPa)
#
#
# Indices 1 2 3 4 5 6 
#
# 1 114.3114 56.8070 80.8576 0.0000 0.0000 0.0000
# 2 56.8070 103.5990 22.4901 0.0000 0.0000 0.0000
# 3 80.8576 22.4901 89.6439 0.0000 0.0000 0.0000
# 4 0.0000 0.0000 0.0000 21.1351 0.0000 0.0000
# 5 0.0000 0.0000 0.0000 0.0000 11.7106 0.0000
# 6 0.0000 0.0000 0.0000 0.0000 0.0000 30.2146
#
#
#
# Elastic Compliance Matrix: (Units=1/GPa)
#
#
# Indices 1 2 3 4 5 6 
#
# 1 0.036019 -0.013429 -0.029120 0.000000 0.000000 0.000000
# 2 -0.013429 0.015215 0.008296 0.000000 0.000000 0.000000
# 3 -0.029120 0.008296 0.035340 0.000000 0.000000 0.000000
# 4 0.000000 0.000000 0.000000 0.047315 0.000000 0.000000
# 5 0.000000 0.000000 0.000000 0.000000 0.085392 0.000000
# 6 0.000000 0.000000 0.000000 0.000000 0.000000 0.033097
#
#
# Mechanical properties :
#
#
# Convention : Reuss Voigt Hill
#
# Bulk Modulus (GPa) = 55.34724 69.76265 62.55494
# Shear Modulus (GPa) = 15.29484 22.43871 18.86678
#
# Velocity S-wave (km/s) = 2.81788 3.41310 3.12967
# Velocity P-wave (km/s) = 6.27067 7.19377 6.74802
#
# Compressibility (1/GPa) = 0.01806775
#
# Stress axis : x y z
#
# Youngs Moduli (GPa) = 27.76282 65.72300 28.29676
#
# Poissons Ratio (x) = 0.88260 0.82400
# Poissons Ratio (y) = 0.37283 -0.23474
# Poissons Ratio (z) = 0.80845 -0.54521
#
# Static dielectric constant tensor:
#      x y z
#    x 3.403250 0.000000 0.000000 
#    y 0.000000 3.919800 0.000000 
#    z 0.000000 0.000000 3.223450 
# 
# 
# High freq. dielectric constant tensor:
#      x y z
#    x 1.742830 0.000000 0.000000 
#    y 0.000000 1.771010 0.000000 
#    z 0.000000 0.000000 1.727350 
# 
# From -- ./inp_files/3395.got.cif
#   From: 2010.06.25/outbox.cif.g09.slc.cpg/sg52_2_cif.got.tgz:3395.got - 2010.06.26 19:32:48.
