data_PCOD8216463
_publ_section_title
;
Structure prediction by ZEFSAII (Michael W. Deem and Ramdas Pophale) SiO2 
 PCOD8216463
Probable space group: P N N A
;
_chemical_formula_sum "Si O2"
_cell_formula_units_Z 60
_cell_length_a 12.205984
_cell_length_b 8.358964
_cell_length_c 27.951979
_cell_angle_alpha 90.000000
_cell_angle_beta 90.000000
_cell_angle_gamma 90.000000
_cell_volume 2851.923111
_symmetry_space_group_name_H-M "P N N A"
_symmetry_group_IT_number 52
_symmetry_cell_setting 'orthorhombic'
loop_
_space_group_symop_operation_xyz
x,y,z
1/2-x,-y,z
x,1/2-y,1/2-z
1/2-x,1/2+y,1/2-z
-x,-y,-z
1/2+x,y,-z
-x,1/2+y,1/2+z
1/2+x,1/2-y,1/2+z
loop_
_atom_site_type_symbol
_atom_site_label
_atom_site_fract_x
_atom_site_fract_y
_atom_site_fract_z
Si Si1 0.250000 0.500000 0.738332
Si Si2 0.971510 0.698158 0.860208
Si Si3 0.007075 0.806640 0.056853
Si Si4 0.563835 0.837570 0.052408
Si Si5 0.222671 0.317111 0.301449
Si Si6 0.222427 0.170847 0.580269
Si Si7 0.699022 0.705470 0.181893
Si Si8 0.853370 0.388945 0.869818
O O1 0.335285 0.429790 0.778332
O O2 0.225568 0.348083 0.704738
O O3 0.875725 0.806201 0.839104
O O4 0.949555 0.509164 0.852779
O O5 0.985398 0.719594 0.917363
O O6 0.082047 0.765995 0.836390
O O7 0.104931 0.733576 0.089291
O O8 0.899048 0.703000 0.062855
O O9 0.047427 0.801521 0.002789
O O10 0.973867 0.987264 0.069884
O O11 0.692550 0.808124 0.063584
O O12 0.250000 0.500000 0.294916
O O13 0.187767 0.250000 0.250000
O O14 0.323247 0.215271 0.323095
O O15 0.226304 0.148032 0.637835
O O16 0.250000 0.000000 0.556518
O O17 0.750000 0.500000 0.887356
#
# Coordination Sequence:
#
# PCOD8216463 Si02
#       8
#     4   8   8   8   8   8   8   8
#     4  10  22  38  58  88 124 156 208 248 302 366
#     4  10  22  41  66  87 128 167 207 259 321 371
#     4  11  23  42  66  93 126 167 209 258 327 380
#     4  10  24  41  63  97 124 164 212 257 317 387
#     4  11  23  43  65  93 127 167 215 266 316 375
#     4  11  23  40  64  90 130 162 206 261 309 380
#     4  10  22  40  59  93 123 163 201 256 305 368
#     4  10  23  42  65  95 125 164 214 267 311 384
#
# _framework density 21.038436999999998
#
# number of rings (size 3 to 8) (size 9 to 14) (size 15 to 20)
#    0.000    1.600    0.667    4.000    5.600    4.800 
#    0.000    2.667    0.000    0.000    0.000    0.000 
#    0.000    0.000    0.000    0.000    0.000    0.000 
#
# Total GULP energy -743289.278085 kJ/mol
# GULP energy per Si atom -12388.154635 kJ/mol
# Density = 2.099055 g / cm^3
# Si number density = 21.038437 Si / 1000 Ang^3
#
#
#
# Elastic Constant Matrix: (Units=GPa)
#
#
# Indices 1 2 3 4 5 6 
#
# 1 60.6351 29.6925 18.3320 0.0000 0.0000 0.0000
# 2 29.6925 115.0667 28.7392 0.0000 0.0000 0.0000
# 3 18.3320 28.7392 74.0371 0.0000 0.0000 0.0000
# 4 0.0000 0.0000 0.0000 33.8462 0.0000 0.0000
# 5 0.0000 0.0000 0.0000 0.0000 15.9442 0.0000
# 6 0.0000 0.0000 0.0000 0.0000 0.0000 34.5271
#
#
#
# Elastic Compliance Matrix: (Units=1/GPa)
#
#
# Indices 1 2 3 4 5 6 
#
# 1 0.019535 -0.004244 -0.003189 0.000000 0.000000 0.000000
# 2 -0.004244 0.010546 -0.003043 0.000000 0.000000 0.000000
# 3 -0.003189 -0.003043 0.015478 0.000000 0.000000 0.000000
# 4 0.000000 0.000000 0.000000 0.029545 0.000000 0.000000
# 5 0.000000 0.000000 0.000000 0.000000 0.062719 0.000000
# 6 0.000000 0.000000 0.000000 0.000000 0.000000 0.028963
#
#
# Mechanical properties :
#
#
# Convention : Reuss Voigt Hill
#
# Bulk Modulus (GPa) = 40.64157 44.80737 42.72447
# Shear Modulus (GPa) = 25.51808 28.39517 26.95662
#
# Velocity S-wave (km/s) = 3.48649 3.67779 3.58341
# Velocity P-wave (km/s) = 5.96382 6.27526 6.12152
#
# Compressibility (1/GPa) = 0.02460535
#
# Stress axis : x y z
#
# Youngs Moduli (GPa) = 51.19086 94.82476 64.60976
#
# Poissons Ratio (x) = 0.40246 0.20607
# Poissons Ratio (y) = 0.21727 0.19659
# Poissons Ratio (z) = 0.16327 0.28852
#
# Static dielectric constant tensor:
#      x y z
#    x 3.646070 0.000000 0.000000 
#    y 0.000000 4.170880 0.000000 
#    z 0.000000 0.000000 3.960620 
# 
# 
# High freq. dielectric constant tensor:
#      x y z
#    x 1.804630 0.000000 0.000000 
#    y 0.000000 1.839470 0.000000 
#    z 0.000000 0.000000 1.832290 
# 
# From -- ./inp_files/44818.got.cif
#   From: 2010.06.25/outbox.cif.g09.slc.cpg/sg52_23_cif.got.tgz:44818.got - 2010.06.26 19:32:48.
