data_PCOD8216133
_publ_section_title
;
Structure prediction by ZEFSAII (Michael W. Deem and Ramdas Pophale) SiO2 
 PCOD8216133
Probable space group: P N N A
;
_chemical_formula_sum "Si O2"
_cell_formula_units_Z 40
_cell_length_a 13.941010
_cell_length_b 10.163383
_cell_length_c 13.056488
_cell_angle_alpha 90.000000
_cell_angle_beta 90.000000
_cell_angle_gamma 90.000000
_cell_volume 1849.945374
_symmetry_space_group_name_H-M "P N N A"
_symmetry_group_IT_number 52
_symmetry_cell_setting 'orthorhombic'
loop_
_space_group_symop_operation_xyz
x,y,z
1/2-x,-y,z
x,1/2-y,1/2-z
1/2-x,1/2+y,1/2-z
-x,-y,-z
1/2+x,y,-z
-x,1/2+y,1/2+z
1/2+x,1/2-y,1/2+z
loop_
_atom_site_type_symbol
_atom_site_label
_atom_site_fract_x
_atom_site_fract_y
_atom_site_fract_z
Si Si1 0.160047 0.796683 0.045832
Si Si2 0.910928 0.016665 0.576036
Si Si3 0.563646 0.648096 0.342781
Si Si4 0.990696 0.388768 0.714454
Si Si5 0.354043 0.740533 0.369269
O O1 0.154290 0.638449 0.043899
O O2 0.083587 0.861482 0.122780
O O3 0.267350 0.841047 0.078381
O O4 0.142707 0.837527 0.929542
O O5 0.938822 0.037816 0.693426
O O6 0.852289 0.881642 0.574977
O O7 0.000000 0.000000 0.500000
O O8 0.583629 0.750000 0.250000
O O9 0.572901 0.493420 0.314891
O O10 0.456382 0.671058 0.387764
O O11 0.037514 0.250000 0.750000
O O12 0.329820 0.750000 0.250000
#
# Coordination Sequence:
#
# PCOD8216133 Si02
#       5
#     8   8   8   8   8
#     4  11  23  35  61  96 128 162 214 273 329 381
#     4  11  19  37  62  92 123 169 211 262 329 389
#     4  11  21  42  65  89 127 173 217 264 325 392
#     4  10  21  37  60  94 127 166 212 267 324 384
#     4  11  21  38  64  94 124 165 216 267 322 385
#
# _framework density 21.622260000000001
#
# number of rings (size 3 to 8) (size 9 to 14) (size 15 to 20)
#    0.000    1.200    6.000    3.000    0.000    0.800 
#    0.000    0.000    4.400    0.000    5.200    0.000 
#    0.000    0.000    0.000    0.000    0.000    0.000 
#
# Total GULP energy -495786.527157 kJ/mol
# GULP energy per Si atom -12394.663179 kJ/mol
# Density = 2.157305 g / cm^3
# Si number density = 21.622260 Si / 1000 Ang^3
#
#
#
# Elastic Constant Matrix: (Units=GPa)
#
#
# Indices 1 2 3 4 5 6 
#
# 1 71.6191 8.4732 51.7387 0.0000 0.0000 0.0000
# 2 8.4732 110.0766 37.0472 0.0000 0.0000 0.0000
# 3 51.7387 37.0472 116.9906 0.0000 0.0000 0.0000
# 4 0.0000 0.0000 0.0000 37.2512 0.0000 0.0000
# 5 0.0000 0.0000 0.0000 0.0000 26.6880 0.0000
# 6 0.0000 0.0000 0.0000 0.0000 0.0000 9.4776
#
#
#
# Elastic Compliance Matrix: (Units=1/GPa)
#
#
# Indices 1 2 3 4 5 6 
#
# 1 0.020789 0.001672 -0.009724 0.000000 0.000000 0.000000
# 2 0.001672 0.010303 -0.004002 0.000000 0.000000 0.000000
# 3 -0.009724 -0.004002 0.014115 0.000000 0.000000 0.000000
# 4 0.000000 0.000000 0.000000 0.026845 0.000000 0.000000
# 5 0.000000 0.000000 0.000000 0.000000 0.037470 0.000000
# 6 0.000000 0.000000 0.000000 0.000000 0.000000 0.105512
#
#
# Mechanical properties :
#
#
# Convention : Reuss Voigt Hill
#
# Bulk Modulus (GPa) = 47.39207 54.80048 51.09628
# Shear Modulus (GPa) = 20.31079 28.11183 24.21131
#
# Velocity S-wave (km/s) = 3.06820 3.60965 3.34988
# Velocity P-wave (km/s) = 5.87517 6.54005 6.21650
#
# Compressibility (1/GPa) = 0.02110058
#
# Stress axis : x y z
#
# Youngs Moduli (GPa) = 48.10149 97.06088 70.84523
#
# Poissons Ratio (x) = -0.16231 0.68887
# Poissons Ratio (y) = -0.08044 0.28353
# Poissons Ratio (z) = 0.46772 0.38845
#
# Static dielectric constant tensor:
#      x y z
#    x 3.545350 0.000000 0.000000 
#    y 0.000000 3.881320 0.000000 
#    z 0.000000 0.000000 3.965460 
# 
# 
# High freq. dielectric constant tensor:
#      x y z
#    x 1.805750 0.000000 0.000000 
#    y 0.000000 1.870120 0.000000 
#    z 0.000000 0.000000 1.851430 
# 
# From -- ./inp_files/19233.got.cif
#   From: 2010.06.25/outbox.cif.g09.slc.cpg/sg52_10_cif.got.tgz:19233.got - 2010.06.26 19:32:48.
