data_PCOD8216937
_publ_section_title
;
Structure prediction by ZEFSAII (Michael W. Deem and Ramdas Pophale) SiO2 
 PCOD8216937
Probable space group: P N N A
;
_chemical_formula_sum "Si O2"
_cell_formula_units_Z 40
_cell_length_a 14.231946
_cell_length_b 13.072273
_cell_length_c 9.120753
_cell_angle_alpha 90.000000
_cell_angle_beta 90.000000
_cell_angle_gamma 90.000000
_cell_volume 1696.860308
_symmetry_space_group_name_H-M "P N N A"
_symmetry_group_IT_number 52
_symmetry_cell_setting 'orthorhombic'
loop_
_space_group_symop_operation_xyz
x,y,z
1/2-x,-y,z
x,1/2-y,1/2-z
1/2-x,1/2+y,1/2-z
-x,-y,-z
1/2+x,y,-z
-x,1/2+y,1/2+z
1/2+x,1/2-y,1/2+z
loop_
_atom_site_type_symbol
_atom_site_label
_atom_site_fract_x
_atom_site_fract_y
_atom_site_fract_z
Si Si1 0.482327 0.005967 0.738099
Si Si2 0.078415 0.301893 0.098051
Si Si3 0.335646 0.342035 0.657746
Si Si4 0.188297 0.095004 0.617290
Si Si5 0.433755 0.318679 0.390855
O O1 0.536337 0.085686 0.635334
O O2 0.403492 0.060815 0.836195
O O3 0.421620 0.929482 0.637876
O O4 0.547330 0.935824 0.841718
O O5 0.105986 0.250000 0.250000
O O6 0.177760 0.319237 0.009488
O O7 0.012843 0.226961 0.000717
O O8 0.384460 0.250000 0.750000
O O9 0.234144 0.362196 0.731676
O O10 0.335423 0.315551 0.484370
O O11 0.250000 0.000000 0.559051
O O12 0.419875 0.250000 0.250000
#
# Coordination Sequence:
#
# PCOD8216937 Si02
#       5
#     8   8   8   8   8
#     4  11  22  44  76 103 141 186 256 293 367 444
#     4  12  24  46  75 110 146 187 256 305 357 453
#     4  11  23  45  68 103 149 189 234 303 373 433
#     4  10  25  43  73 100 147 196 230 301 380 428
#     4  12  24  40  77 109 137 194 250 303 360 444
#
# _framework density 23.572946999999999
#
# number of rings (size 3 to 8) (size 9 to 14) (size 15 to 20)
#    0.000    0.800    6.000    1.200    2.800    0.000 
#    0.000    3.000    0.000    0.000    0.000    0.000 
#    0.000    0.000    0.000    0.000    0.000    0.000 
#
# Total GULP energy -495522.439657 kJ/mol
# GULP energy per Si atom -12388.060991 kJ/mol
# Density = 2.351929 g / cm^3
# Si number density = 23.572947 Si / 1000 Ang^3
#
#
#
# Elastic Constant Matrix: (Units=GPa)
#
#
# Indices 1 2 3 4 5 6 
#
# 1 80.4257 31.6279 58.9425 0.0000 0.0000 0.0000
# 2 31.6279 121.1976 51.3133 0.0000 0.0000 0.0000
# 3 58.9425 51.3133 161.0696 0.0000 0.0000 0.0000
# 4 0.0000 0.0000 0.0000 51.4376 0.0000 0.0000
# 5 0.0000 0.0000 0.0000 0.0000 31.9810 0.0000
# 6 0.0000 0.0000 0.0000 0.0000 0.0000 22.4252
#
#
#
# Elastic Compliance Matrix: (Units=1/GPa)
#
#
# Indices 1 2 3 4 5 6 
#
# 1 0.017458 -0.002140 -0.005707 0.000000 0.000000 0.000000
# 2 -0.002140 0.009800 -0.002339 0.000000 0.000000 0.000000
# 3 -0.005707 -0.002339 0.009042 0.000000 0.000000 0.000000
# 4 0.000000 0.000000 0.000000 0.019441 0.000000 0.000000
# 5 0.000000 0.000000 0.000000 0.000000 0.031269 0.000000
# 6 0.000000 0.000000 0.000000 0.000000 0.000000 0.044593
#
#
# Mechanical properties :
#
#
# Convention : Reuss Voigt Hill
#
# Bulk Modulus (GPa) = 62.78074 71.82892 67.30483
# Shear Modulus (GPa) = 31.79001 35.88939 33.83970
#
# Velocity S-wave (km/s) = 3.67629 3.90613 3.79295
# Velocity P-wave (km/s) = 6.68659 7.13308 6.91344
#
# Compressibility (1/GPa) = 0.01592845
#
# Stress axis : x y z
#
# Youngs Moduli (GPa) = 57.28118 102.04475 110.59423
#
# Poissons Ratio (x) = 0.21833 0.63115
# Poissons Ratio (y) = 0.12256 0.25868
# Poissons Ratio (z) = 0.32690 0.23868
#
# Static dielectric constant tensor:
#      x y z
#    x 3.929330 0.000000 0.000000 
#    y 0.000000 4.667650 0.000000 
#    z 0.000000 0.000000 4.675570 
# 
# 
# High freq. dielectric constant tensor:
#      x y z
#    x 1.898830 0.000000 0.000000 
#    y 0.000000 1.954220 0.000000 
#    z 0.000000 0.000000 1.944040 
# 
# From -- ./inp_files/10037.got.cif
#   From: 2010.06.25/outbox.cif.g09.slc.cpg/sg52_6_cif.got.tgz:10037.got - 2010.06.26 19:32:48.
