data_PCOD8216810
_publ_section_title
;
Structure prediction by ZEFSAII (Michael W. Deem and Ramdas Pophale) SiO2 
 PCOD8216810
Probable space group: P N N A
;
_chemical_formula_sum "Si O2"
_cell_formula_units_Z 40
_cell_length_a 12.527151
_cell_length_b 11.242615
_cell_length_c 12.937780
_cell_angle_alpha 90.000000
_cell_angle_beta 90.000000
_cell_angle_gamma 90.000000
_cell_volume 1822.130228
_symmetry_space_group_name_H-M "P N N A"
_symmetry_group_IT_number 52
_symmetry_cell_setting 'orthorhombic'
loop_
_space_group_symop_operation_xyz
x,y,z
1/2-x,-y,z
x,1/2-y,1/2-z
1/2-x,1/2+y,1/2-z
-x,-y,-z
1/2+x,y,-z
-x,1/2+y,1/2+z
1/2+x,1/2-y,1/2+z
loop_
_atom_site_type_symbol
_atom_site_label
_atom_site_fract_x
_atom_site_fract_y
_atom_site_fract_z
Si Si1 0.321415 0.115211 0.502701
Si Si2 0.363917 0.502824 0.319012
Si Si3 0.136629 0.283012 0.470193
Si Si4 0.038299 0.734595 0.365700
Si Si5 0.487204 0.143365 0.677499
O O1 0.246838 0.230528 0.514220
O O2 0.403564 0.145050 0.408460
O O3 0.389444 0.095293 0.607871
O O4 0.250000 0.000000 0.479465
O O5 0.250000 0.500000 0.257642
O O6 0.348027 0.592203 0.414371
O O7 0.378277 0.373205 0.367945
O O8 0.464229 0.537381 0.246906
O O9 0.061732 0.304046 0.567493
O O10 0.084827 0.188447 0.391945
O O11 0.996523 0.750000 0.250000
O O12 0.444277 0.250000 0.750000
#
# Coordination Sequence:
#
# PCOD8216810 Si02
#       5
#     8   8   8   8   8
#     4  11  25  43  67  97 139 180 215 277 340 393
#     4  11  22  42  74  99 128 175 226 280 334 393
#     4  10  23  44  66  93 138 174 218 278 335 394
#     4  11  26  40  67 101 130 176 234 275 326 403
#     4   9  23  43  66  99 136 172 220 275 332 403
#
# _framework density 21.952328000000001
#
# number of rings (size 3 to 8) (size 9 to 14) (size 15 to 20)
#    0.000    1.600    2.000    0.600    8.400    2.400 
#    0.000    0.000    0.000    0.000    0.000    0.000 
#    0.000    0.000    0.000    0.000    0.000    0.000 
#
# Total GULP energy -495958.431601 kJ/mol
# GULP energy per Si atom -12398.960790 kJ/mol
# Density = 2.190236 g / cm^3
# Si number density = 21.952328 Si / 1000 Ang^3
#
#
#
# Elastic Constant Matrix: (Units=GPa)
#
#
# Indices 1 2 3 4 5 6 
#
# 1 55.3429 11.3631 38.3372 0.0000 0.0000 0.0000
# 2 11.3631 89.5920 36.9279 0.0000 0.0000 0.0000
# 3 38.3372 36.9279 119.3182 0.0000 0.0000 0.0000
# 4 0.0000 0.0000 0.0000 10.1755 0.0000 0.0000
# 5 0.0000 0.0000 0.0000 0.0000 31.2712 0.0000
# 6 0.0000 0.0000 0.0000 0.0000 0.0000 29.1715
#
#
#
# Elastic Compliance Matrix: (Units=1/GPa)
#
#
# Indices 1 2 3 4 5 6 
#
# 1 0.023244 0.000149 -0.007515 0.000000 0.000000 0.000000
# 2 0.000149 0.012795 -0.004008 0.000000 0.000000 0.000000
# 3 -0.007515 -0.004008 0.012036 0.000000 0.000000 0.000000
# 4 0.000000 0.000000 0.000000 0.098275 0.000000 0.000000
# 5 0.000000 0.000000 0.000000 0.000000 0.031978 0.000000
# 6 0.000000 0.000000 0.000000 0.000000 0.000000 0.034280
#
#
# Mechanical properties :
#
#
# Convention : Reuss Voigt Hill
#
# Bulk Modulus (GPa) = 39.48153 48.61219 44.04686
# Shear Modulus (GPa) = 20.50888 25.96531 23.23709
#
# Velocity S-wave (km/s) = 3.05986 3.44292 3.25703
# Velocity P-wave (km/s) = 5.52339 6.16421 5.85258
#
# Compressibility (1/GPa) = 0.02532830
#
# Stress axis : x y z
#
# Youngs Moduli (GPa) = 43.02180 78.15733 83.08568
#
# Poissons Ratio (x) = -0.01166 0.62435
# Poissons Ratio (y) = -0.00642 0.33299
# Poissons Ratio (z) = 0.32329 0.31324
#
# Static dielectric constant tensor:
#      x y z
#    x 3.914230 0.000000 0.000000 
#    y 0.000000 3.951360 0.000000 
#    z 0.000000 0.000000 3.943770 
# 
# 
# High freq. dielectric constant tensor:
#      x y z
#    x 1.861540 0.000000 0.000000 
#    y 0.000000 1.869550 0.000000 
#    z 0.000000 0.000000 1.859490 
# 
# From -- ./inp_files/25802.got.cif
#   From: 2010.06.25/outbox.cif.g09.slc.cpg/sg52_13_cif.got.tgz:25802.got - 2010.06.26 19:32:48.
