data_PCOD8216588
_publ_section_title
;
Structure prediction by ZEFSAII (Michael W. Deem and Ramdas Pophale) SiO2 
 PCOD8216588
Probable space group: P N N A
;
_chemical_formula_sum "Si O2"
_cell_formula_units_Z 36
_cell_length_a 21.616164
_cell_length_b 11.758293
_cell_length_c 6.806307
_cell_angle_alpha 90.000000
_cell_angle_beta 90.000000
_cell_angle_gamma 90.000000
_cell_volume 1729.953536
_symmetry_space_group_name_H-M "P N N A"
_symmetry_group_IT_number 52
_symmetry_cell_setting 'orthorhombic'
loop_
_space_group_symop_operation_xyz
x,y,z
1/2-x,-y,z
x,1/2-y,1/2-z
1/2-x,1/2+y,1/2-z
-x,-y,-z
1/2+x,y,-z
-x,1/2+y,1/2+z
1/2+x,1/2-y,1/2+z
loop_
_atom_site_type_symbol
_atom_site_label
_atom_site_fract_x
_atom_site_fract_y
_atom_site_fract_z
Si Si1 0.325047 0.129821 0.310714
Si Si2 0.864075 0.938440 0.964788
Si Si3 0.292164 0.750000 0.250000
Si Si4 0.528678 0.381117 0.788386
Si Si5 0.595150 0.997259 0.374402
O O1 0.357907 0.250000 0.250000
O O2 0.252602 0.158059 0.360653
O O3 0.357801 0.078373 0.500072
O O4 0.326060 0.043970 0.125786
O O5 0.834724 0.816891 0.904913
O O6 0.934036 0.947322 0.881460
O O7 0.865573 0.945664 0.200064
O O8 0.531906 0.250000 0.750000
O O9 0.457621 0.417386 0.784250
O O10 0.562411 0.405533 0.996312
#
# Coordination Sequence:
#
# PCOD8216588 Si02
#       5
#     8   8   4   8   8
#     4   9  23  42  65  92 134 169 215 275 323 382
#     4  11  21  43  66  94 132 173 223 266 333 394
#     4  10  22  44  68  92 140 172 206 288 324 380
#     4  10  22  41  64  97 137 167 213 284 330 381
#     4  10  23  42  67 100 127 176 224 264 332 404
#
# _framework density 20.809806999999999
#
# number of rings (size 3 to 8) (size 9 to 14) (size 15 to 20)
#    0.667    1.333    1.111    1.333    3.111    0.889 
#    0.000   13.333    0.000    0.000    0.000    0.000 
#    0.000    0.000    0.000    0.000    0.000    0.000 
#
# Total GULP energy -446269.066274 kJ/mol
# GULP energy per Si atom -12396.362952 kJ/mol
# Density = 2.076244 g / cm^3
# Si number density = 20.809807 Si / 1000 Ang^3
#
#
#
# Elastic Constant Matrix: (Units=GPa)
#
#
# Indices 1 2 3 4 5 6 
#
# 1 108.6486 33.1784 53.6763 0.0000 0.0000 0.0000
# 2 33.1784 113.0301 59.0267 0.0000 0.0000 0.0000
# 3 53.6763 59.0267 137.8610 0.0000 0.0000 0.0000
# 4 0.0000 0.0000 0.0000 28.9686 0.0000 0.0000
# 5 0.0000 0.0000 0.0000 0.0000 15.7964 0.0000
# 6 0.0000 0.0000 0.0000 0.0000 0.0000 16.8420
#
#
#
# Elastic Compliance Matrix: (Units=1/GPa)
#
#
# Indices 1 2 3 4 5 6 
#
# 1 0.011552 -0.001342 -0.003923 0.000000 0.000000 0.000000
# 2 -0.001342 0.011551 -0.004423 0.000000 0.000000 0.000000
# 3 -0.003923 -0.004423 0.010675 0.000000 0.000000 0.000000
# 4 0.000000 0.000000 0.000000 0.034520 0.000000 0.000000
# 5 0.000000 0.000000 0.000000 0.000000 0.063305 0.000000
# 6 0.000000 0.000000 0.000000 0.000000 0.000000 0.059375
#
#
# Mechanical properties :
#
#
# Convention : Reuss Voigt Hill
#
# Bulk Modulus (GPa) = 69.43888 72.36693 70.90291
# Shear Modulus (GPa) = 23.23892 26.56529 24.90211
#
# Velocity S-wave (km/s) = 3.34538 3.57680 3.46302
# Velocity P-wave (km/s) = 6.95434 7.20478 7.08067
#
# Compressibility (1/GPa) = 0.01440115
#
# Stress axis : x y z
#
# Youngs Moduli (GPa) = 86.56499 86.57238 93.67729
#
# Poissons Ratio (x) = 0.11620 0.36751
# Poissons Ratio (y) = 0.11619 0.41434
# Poissons Ratio (z) = 0.33960 0.38292
#
# Static dielectric constant tensor:
#      x y z
#    x 3.932720 0.000000 0.000000 
#    y 0.000000 3.768690 0.000000 
#    z 0.000000 0.000000 3.566950 
# 
# 
# High freq. dielectric constant tensor:
#      x y z
#    x 1.820830 0.000000 0.000000 
#    y 0.000000 1.822380 0.000000 
#    z 0.000000 0.000000 1.793770 
# 
# From -- ./inp_files/4901.got.cif
#   From: 2010.06.25/outbox.cif.g09.slc.cpg/sg52_3_cif.got.tgz:4901.got - 2010.06.26 19:32:48.
