data_PCOD8216488
_publ_section_title
;
Structure prediction by ZEFSAII (Michael W. Deem and Ramdas Pophale) SiO2 
 PCOD8216488
Probable space group: P N N A
;
_chemical_formula_sum "Si O2"
_cell_formula_units_Z 48
_cell_length_a 15.595631
_cell_length_b 27.520726
_cell_length_c 5.166800
_cell_angle_alpha 90.000000
_cell_angle_beta 90.000000
_cell_angle_gamma 90.000000
_cell_volume 2217.606513
_symmetry_space_group_name_H-M "P N N A"
_symmetry_group_IT_number 52
_symmetry_cell_setting 'orthorhombic'
loop_
_space_group_symop_operation_xyz
x,y,z
1/2-x,-y,z
x,1/2-y,1/2-z
1/2-x,1/2+y,1/2-z
-x,-y,-z
1/2+x,y,-z
-x,1/2+y,1/2+z
1/2+x,1/2-y,1/2+z
loop_
_atom_site_type_symbol
_atom_site_label
_atom_site_fract_x
_atom_site_fract_y
_atom_site_fract_z
Si Si1 0.282802 0.139597 0.320943
Si Si2 0.143629 0.451454 0.606648
Si Si3 0.430479 0.144295 0.699618
Si Si4 0.653921 0.718940 0.497208
Si Si5 0.164927 0.939824 0.960091
Si Si6 0.105184 0.395834 0.088995
O O1 0.356293 0.161590 0.503281
O O2 0.275454 0.177543 0.078721
O O3 0.190892 0.135980 0.462264
O O4 0.314558 0.085523 0.235610
O O5 0.125250 0.506479 0.514395
O O6 0.243262 0.443268 0.682629
O O7 0.111191 0.417815 0.375122
O O8 0.093015 0.437024 0.868071
O O9 0.404795 0.091477 0.807730
O O10 0.523766 0.140022 0.572051
O O11 0.430737 0.187570 0.913064
O O12 0.630102 0.750000 0.750000
O O13 0.688124 0.750000 0.250000
#
# Coordination Sequence:
#
# PCOD8216488 Si02
#       6
#     8   8   8   8   8   8
#     4  10  22  44  65  92 129 166 210 263 323 374
#     4  10  22  39  59  91 131 170 224 255 300 366
#     4  11  23  41  67  92 129 166 208 258 323 373
#     4  11  23  43  72  94 118 163 205 259 328 394
#     4   9  21  37  63  88 128 179 210 264 309 355
#     4  11  25  39  62  95 128 170 211 259 306 374
#
# _framework density 21.644960000000001
#
# number of rings (size 3 to 8) (size 9 to 14) (size 15 to 20)
#    0.000    1.667    3.333    0.000    7.000    2.667 
#    0.000    1.667    0.000    0.000    0.000    0.000 
#    0.000    0.000    0.000    0.000    0.000    0.000 
#
# Total GULP energy -594811.746858 kJ/mol
# GULP energy per Si atom -12391.911393 kJ/mol
# Density = 2.159569 g / cm^3
# Si number density = 21.644960 Si / 1000 Ang^3
#
#
#
# Elastic Constant Matrix: (Units=GPa)
#
#
# Indices 1 2 3 4 5 6 
#
# 1 97.6930 40.2778 38.5116 0.0000 0.0000 0.0000
# 2 40.2778 120.8894 44.3093 0.0000 0.0000 0.0000
# 3 38.5116 44.3093 108.1862 0.0000 0.0000 0.0000
# 4 0.0000 0.0000 0.0000 42.2180 0.0000 0.0000
# 5 0.0000 0.0000 0.0000 0.0000 23.0028 0.0000
# 6 0.0000 0.0000 0.0000 0.0000 0.0000 11.9669
#
#
#
# Elastic Compliance Matrix: (Units=1/GPa)
#
#
# Indices 1 2 3 4 5 6 
#
# 1 0.012798 -0.003052 -0.003306 0.000000 0.000000 0.000000
# 2 -0.003052 0.010461 -0.003198 0.000000 0.000000 0.000000
# 3 -0.003306 -0.003198 0.011730 0.000000 0.000000 0.000000
# 4 0.000000 0.000000 0.000000 0.023687 0.000000 0.000000
# 5 0.000000 0.000000 0.000000 0.000000 0.043473 0.000000
# 6 0.000000 0.000000 0.000000 0.000000 0.000000 0.083564
#
#
# Mechanical properties :
#
#
# Convention : Reuss Voigt Hill
#
# Bulk Modulus (GPa) = 62.98444 63.66289 63.32367
# Shear Modulus (GPa) = 23.79633 29.01550 26.40592
#
# Velocity S-wave (km/s) = 3.31931 3.66528 3.49658
# Velocity P-wave (km/s) = 6.62212 6.88394 6.75430
#
# Compressibility (1/GPa) = 0.01587694
#
# Stress axis : x y z
#
# Youngs Moduli (GPa) = 78.13922 95.59179 85.25306
#
# Poissons Ratio (x) = 0.29178 0.28181
# Poissons Ratio (y) = 0.23851 0.27264
# Poissons Ratio (z) = 0.25829 0.30570
#
# Static dielectric constant tensor:
#      x y z
#    x 3.684760 0.000000 0.000000 
#    y 0.000000 4.032950 0.000000 
#    z 0.000000 0.000000 3.971100 
# 
# 
# High freq. dielectric constant tensor:
#      x y z
#    x 1.813120 0.000000 0.000000 
#    y 0.000000 1.853730 0.000000 
#    z 0.000000 0.000000 1.855230 
# 
# From -- ./inp_files/2580.got.cif
#   From: 2010.06.25/outbox.cif.g09.slc.cpg/sg52_2_cif.got.tgz:2580.got - 2010.06.26 19:32:48.
