data_PCOD8216196
_publ_section_title
;
Structure prediction by ZEFSAII (Michael W. Deem and Ramdas Pophale) SiO2 
 PCOD8216196
Probable space group: P N N A
;
_chemical_formula_sum "Si O2"
_cell_formula_units_Z 48
_cell_length_a 18.507334
_cell_length_b 10.131354
_cell_length_c 11.377712
_cell_angle_alpha 90.000000
_cell_angle_beta 90.000000
_cell_angle_gamma 90.000000
_cell_volume 2133.370520
_symmetry_space_group_name_H-M "P N N A"
_symmetry_group_IT_number 52
_symmetry_cell_setting 'orthorhombic'
loop_
_space_group_symop_operation_xyz
x,y,z
1/2-x,-y,z
x,1/2-y,1/2-z
1/2-x,1/2+y,1/2-z
-x,-y,-z
1/2+x,y,-z
-x,1/2+y,1/2+z
1/2+x,1/2-y,1/2+z
loop_
_atom_site_type_symbol
_atom_site_label
_atom_site_fract_x
_atom_site_fract_y
_atom_site_fract_z
Si Si1 0.457600 0.556166 0.334162
Si Si2 0.701391 0.698919 0.119174
Si Si3 0.932331 0.317282 0.493956
Si Si4 0.806647 0.606444 0.766301
Si Si5 0.838699 0.915670 0.465579
Si Si6 0.983459 0.641915 0.154499
O O1 0.512091 0.668185 0.383764
O O2 0.439683 0.448665 0.431724
O O3 0.380677 0.620116 0.306454
O O4 0.494419 0.493288 0.218243
O O5 0.699910 0.750000 0.250000
O O6 0.649861 0.797707 0.046745
O O7 0.783761 0.701845 0.072524
O O8 0.674662 0.548300 0.108942
O O9 0.949811 0.191099 0.575447
O O10 0.750000 0.500000 0.714064
O O11 0.769356 0.750000 0.750000
O O12 0.826260 0.559482 0.897231
O O13 0.919344 0.872362 0.438312
O O14 0.959919 0.750000 0.250000
#
# Coordination Sequence:
#
# PCOD8216196 Si02
#       6
#     8   8   8   8   8   8
#     4  10  23  42  66  99 128 178 235 280 345 418
#     4  11  23  40  64  89 133 179 217 291 342 407
#     4  10  22  41  65  96 131 169 234 280 342 418
#     4  12  27  44  69  99 143 182 231 295 349 420
#     4  11  24  42  61 100 133 174 237 277 342 429
#     4  10  21  38  66  91 131 175 217 289 340 398
#
# _framework density 22.499607000000001
#
# number of rings (size 3 to 8) (size 9 to 14) (size 15 to 20)
#    0.000    1.333    1.667    3.500    2.333    6.667 
#    0.000    3.333    0.000    0.000    0.000    0.000 
#    0.000    0.000    0.000    0.000    0.000    0.000 
#
# Total GULP energy -595215.526248 kJ/mol
# GULP energy per Si atom -12400.323464 kJ/mol
# Density = 2.244840 g / cm^3
# Si number density = 22.499607 Si / 1000 Ang^3
#
#
#
# Elastic Constant Matrix: (Units=GPa)
#
#
# Indices 1 2 3 4 5 6 
#
# 1 99.4921 26.9090 21.4576 0.0000 0.0000 0.0000
# 2 26.9090 85.5803 18.5353 0.0000 0.0000 0.0000
# 3 21.4576 18.5353 83.7006 0.0000 0.0000 0.0000
# 4 0.0000 0.0000 0.0000 26.7918 0.0000 0.0000
# 5 0.0000 0.0000 0.0000 0.0000 28.2719 0.0000
# 6 0.0000 0.0000 0.0000 0.0000 0.0000 24.9983
#
#
#
# Elastic Compliance Matrix: (Units=1/GPa)
#
#
# Indices 1 2 3 4 5 6 
#
# 1 0.011368 -0.003092 -0.002230 0.000000 0.000000 0.000000
# 2 -0.003092 0.013114 -0.002112 0.000000 0.000000 0.000000
# 3 -0.002230 -0.002112 0.012987 0.000000 0.000000 0.000000
# 4 0.000000 0.000000 0.000000 0.037325 0.000000 0.000000
# 5 0.000000 0.000000 0.000000 0.000000 0.035371 0.000000
# 6 0.000000 0.000000 0.000000 0.000000 0.000000 0.040003
#
#
# Mechanical properties :
#
#
# Convention : Reuss Voigt Hill
#
# Bulk Modulus (GPa) = 44.24137 44.73077 44.48607
# Shear Modulus (GPa) = 28.97417 29.47047 29.22232
#
# Velocity S-wave (km/s) = 3.59244 3.62307 3.60779
# Velocity P-wave (km/s) = 6.07563 6.11768 6.09669
#
# Compressibility (1/GPa) = 0.02260328
#
# Stress axis : x y z
#
# Youngs Moduli (GPa) = 87.96548 76.25239 77.00265
#
# Poissons Ratio (x) = 0.23574 0.17170
# Poissons Ratio (y) = 0.27195 0.16260
# Poissons Ratio (z) = 0.19614 0.16101
#
# Static dielectric constant tensor:
#      x y z
#    x 4.279300 0.000000 0.000000 
#    y 0.000000 4.006730 0.000000 
#    z 0.000000 0.000000 4.117730 
# 
# 
# High freq. dielectric constant tensor:
#      x y z
#    x 1.893140 0.000000 0.000000 
#    y 0.000000 1.881480 0.000000 
#    z 0.000000 0.000000 1.892630 
# 
# From -- ./inp_files/20637.got.cif
#   From: 2010.06.25/outbox.cif.g09.slc.cpg/sg52_11_cif.got.tgz:20637.got - 2010.06.26 19:32:48.
