data_PCOD8216852
_publ_section_title
;
Structure prediction by ZEFSAII (Michael W. Deem and Ramdas Pophale) SiO2 
 PCOD8216852
Probable space group: P N N A
;
_chemical_formula_sum "Si O2"
_cell_formula_units_Z 64
_cell_length_a 8.729064
_cell_length_b 12.229242
_cell_length_c 29.143058
_cell_angle_alpha 90.000000
_cell_angle_beta 90.000000
_cell_angle_gamma 90.000000
_cell_volume 3111.016665
_symmetry_space_group_name_H-M "P N N A"
_symmetry_group_IT_number 52
_symmetry_cell_setting 'orthorhombic'
loop_
_space_group_symop_operation_xyz
x,y,z
1/2-x,-y,z
x,1/2-y,1/2-z
1/2-x,1/2+y,1/2-z
-x,-y,-z
1/2+x,y,-z
-x,1/2+y,1/2+z
1/2+x,1/2-y,1/2+z
loop_
_atom_site_type_symbol
_atom_site_label
_atom_site_fract_x
_atom_site_fract_y
_atom_site_fract_z
Si Si1 0.381175 0.634129 0.847055
Si Si2 0.464259 0.242329 0.999754
Si Si3 0.394461 0.799929 0.156910
Si Si4 0.714124 0.124762 0.450903
Si Si5 0.426669 0.467715 0.710681
Si Si6 0.920642 0.303863 0.701606
Si Si7 0.288192 0.872768 0.057327
Si Si8 0.439476 0.094259 0.687496
O O1 0.318503 0.640968 0.897907
O O2 0.495436 0.733766 0.837792
O O3 0.467458 0.519645 0.838872
O O4 0.235807 0.636482 0.813052
O O5 0.567085 0.339038 0.020211
O O6 0.363666 0.188856 0.040006
O O7 0.358023 0.297409 0.961355
O O8 0.569584 0.148311 0.976947
O O9 0.534144 0.879862 0.171163
O O10 0.259277 0.810981 0.193561
O O11 0.332725 0.825812 0.106640
O O12 0.451464 0.675972 0.160009
O O13 0.750000 0.000000 0.463768
O O14 0.250000 0.500000 0.709876
O O15 0.522711 0.573766 0.699371
O O16 0.480919 0.417184 0.759063
O O17 0.959984 0.250000 0.750000
O O18 0.250000 0.000000 0.060376
#
# Coordination Sequence:
#
# PCOD8216852 Si02
#       8
#     8   8   8   8   8   8   8   8
#     4  11  22  40  67  91 125 174 217 269 312 389
#     4  10  24  41  68  97 126 175 214 275 351 402
#     4  12  27  40  65  94 133 166 215 272 332 392
#     4  11  21  40  65  95 135 166 219 273 338 405
#     4  12  23  42  65  91 126 178 222 265 318 380
#     4  12  23  40  60  92 130 168 213 267 325 386
#     4  11  23  46  67  96 130 168 221 279 338 410
#     4  11  21  42  61  91 127 172 221 261 315 383
#
# _framework density 20.572053
#
# number of rings (size 3 to 8) (size 9 to 14) (size 15 to 20)
#    0.000    0.750    3.750    5.250    0.000    0.500 
#    0.000    1.875    0.000    0.000    0.000    0.000 
#    0.000    0.000    0.000    0.000    0.000    0.000 
#
# Total GULP energy -793928.832830 kJ/mol
# GULP energy per Si atom -12405.138013 kJ/mol
# Density = 2.052523 g / cm^3
# Si number density = 20.572053 Si / 1000 Ang^3
#
#
#
# Elastic Constant Matrix: (Units=GPa)
#
#
# Indices 1 2 3 4 5 6 
#
# 1 102.1665 63.8208 50.0874 0.0000 0.0000 0.0000
# 2 63.8208 145.5419 66.8608 0.0000 0.0000 0.0000
# 3 50.0874 66.8608 120.9364 0.0000 0.0000 0.0000
# 4 0.0000 0.0000 0.0000 33.9188 0.0000 0.0000
# 5 0.0000 0.0000 0.0000 0.0000 40.4591 0.0000
# 6 0.0000 0.0000 0.0000 0.0000 0.0000 37.4512
#
#
#
# Elastic Compliance Matrix: (Units=1/GPa)
#
#
# Indices 1 2 3 4 5 6 
#
# 1 0.014409 -0.004795 -0.003317 0.000000 0.000000 0.000000
# 2 -0.004795 0.010805 -0.003988 0.000000 0.000000 0.000000
# 3 -0.003317 -0.003988 0.011847 0.000000 0.000000 0.000000
# 4 0.000000 0.000000 0.000000 0.029482 0.000000 0.000000
# 5 0.000000 0.000000 0.000000 0.000000 0.024716 0.000000
# 6 0.000000 0.000000 0.000000 0.000000 0.000000 0.026701
#
#
# Mechanical properties :
#
#
# Convention : Reuss Voigt Hill
#
# Bulk Modulus (GPa) = 77.74507 81.13140 79.43823
# Shear Modulus (GPa) = 34.14153 34.89088 34.51620
#
# Velocity S-wave (km/s) = 4.07825 4.12276 4.10056
# Velocity P-wave (km/s) = 7.74918 7.88582 7.81780
#
# Compressibility (1/GPa) = 0.01286255
#
# Stress axis : x y z
#
# Youngs Moduli (GPa) = 69.39992 92.54548 84.40640
#
# Poissons Ratio (x) = 0.44373 0.27997
# Poissons Ratio (y) = 0.33275 0.33662
# Poissons Ratio (z) = 0.23020 0.36908
#
# Static dielectric constant tensor:
#      x y z
#    x 4.040090 0.000000 0.000000 
#    y 0.000000 4.130090 0.000000 
#    z 0.000000 0.000000 3.757370 
# 
# 
# High freq. dielectric constant tensor:
#      x y z
#    x 1.813330 0.000000 0.000000 
#    y 0.000000 1.816830 0.000000 
#    z 0.000000 0.000000 1.806470 
# 
# From -- ./inp_files/44595.got.cif
#   From: 2010.06.25/outbox.cif.g09.slc.cpg/sg52_23_cif.got.tgz:44595.got - 2010.06.26 19:32:48.
