data_PCOD8216571
_publ_section_title
;
Structure prediction by ZEFSAII (Michael W. Deem and Ramdas Pophale) SiO2 
 PCOD8216571
Probable space group: P N N A
;
_chemical_formula_sum "Si O2"
_cell_formula_units_Z 48
_cell_length_a 14.173561
_cell_length_b 13.019170
_cell_length_c 13.425397
_cell_angle_alpha 90.000000
_cell_angle_beta 90.000000
_cell_angle_gamma 90.000000
_cell_volume 2477.361660
_symmetry_space_group_name_H-M "P N N A"
_symmetry_group_IT_number 52
_symmetry_cell_setting 'orthorhombic'
loop_
_space_group_symop_operation_xyz
x,y,z
1/2-x,-y,z
x,1/2-y,1/2-z
1/2-x,1/2+y,1/2-z
-x,-y,-z
1/2+x,y,-z
-x,1/2+y,1/2+z
1/2+x,1/2-y,1/2+z
loop_
_atom_site_type_symbol
_atom_site_label
_atom_site_fract_x
_atom_site_fract_y
_atom_site_fract_z
Si Si1 0.240933 0.308065 0.107300
Si Si2 0.651683 0.201820 0.400001
Si Si3 0.315118 0.906555 0.195277
Si Si4 0.020721 0.526685 0.387635
Si Si5 0.673294 0.086396 0.200599
Si Si6 0.053721 0.749289 0.134749
O O1 0.213193 0.192306 0.132468
O O2 0.194411 0.385464 0.186730
O O3 0.354888 0.320352 0.112098
O O4 0.203964 0.337517 0.998688
O O5 0.676686 0.119012 0.315828
O O6 0.690208 0.314464 0.369557
O O7 0.538878 0.206689 0.421948
O O8 0.250000 0.000000 0.161354
O O9 0.421537 0.936752 0.167213
O O10 0.078105 0.633566 0.392958
O O11 0.000000 0.500000 0.500000
O O12 0.927214 0.537184 0.322589
O O13 0.750000 0.000000 0.176875
O O14 0.024943 0.750000 0.250000
#
# Coordination Sequence:
#
# PCOD8216571 Si02
#       6
#     8   8   8   8   8   8
#     4  11  23  37  62  92 123 157 203 254 306 362
#     4  10  22  41  61  88 123 160 209 243 303 383
#     4  11  21  38  61  92 121 150 202 260 301 351
#     4  11  22  36  63  92 116 155 205 255 303 361
#     4  10  22  41  62  85 122 163 202 246 304 366
#     4  11  18  41  64  83 119 168 198 249 311 356
#
# _framework density 19.375450000000001
#
# number of rings (size 3 to 8) (size 9 to 14) (size 15 to 20)
#    0.000    1.333    6.667    2.000    2.333    2.000 
#    3.000    2.500    0.000    0.000    0.000    0.000 
#    0.000    0.000    0.000    0.000    0.000    0.000 
#
# Total GULP energy -595262.041311 kJ/mol
# GULP energy per Si atom -12401.292527 kJ/mol
# Density = 1.933135 g / cm^3
# Si number density = 19.375450 Si / 1000 Ang^3
#
#
#
# Elastic Constant Matrix: (Units=GPa)
#
#
# Indices 1 2 3 4 5 6 
#
# 1 112.4091 30.2558 42.2335 0.0000 0.0000 0.0000
# 2 30.2558 62.6778 17.9962 0.0000 0.0000 0.0000
# 3 42.2335 17.9962 116.8415 0.0000 0.0000 0.0000
# 4 0.0000 0.0000 0.0000 21.8526 0.0000 0.0000
# 5 0.0000 0.0000 0.0000 0.0000 25.7145 0.0000
# 6 0.0000 0.0000 0.0000 0.0000 0.0000 33.1061
#
#
#
# Elastic Compliance Matrix: (Units=1/GPa)
#
#
# Indices 1 2 3 4 5 6 
#
# 1 0.011399 -0.004519 -0.003424 0.000000 0.000000 0.000000
# 2 -0.004519 0.018485 -0.001213 0.000000 0.000000 0.000000
# 3 -0.003424 -0.001213 0.009983 0.000000 0.000000 0.000000
# 4 0.000000 0.000000 0.000000 0.045761 0.000000 0.000000
# 5 0.000000 0.000000 0.000000 0.000000 0.038889 0.000000
# 6 0.000000 0.000000 0.000000 0.000000 0.000000 0.030206
#
#
# Mechanical properties :
#
#
# Convention : Reuss Voigt Hill
#
# Bulk Modulus (GPa) = 46.39774 52.54437 49.47105
# Shear Modulus (GPa) = 27.74372 29.56415 28.65394
#
# Velocity S-wave (km/s) = 3.78815 3.91046 3.84979
# Velocity P-wave (km/s) = 6.56750 6.89687 6.73420
#
# Compressibility (1/GPa) = 0.02155277
#
# Stress axis : x y z
#
# Youngs Moduli (GPa) = 87.72692 54.09901 100.16810
#
# Poissons Ratio (x) = 0.24449 0.34300
# Poissons Ratio (y) = 0.39647 0.12155
# Poissons Ratio (z) = 0.30039 0.06565
#
# Static dielectric constant tensor:
#      x y z
#    x 3.677640 0.000000 0.000000 
#    y 0.000000 3.744080 0.000000 
#    z 0.000000 0.000000 3.475420 
# 
# 
# High freq. dielectric constant tensor:
#      x y z
#    x 1.756810 0.000000 0.000000 
#    y 0.000000 1.747060 0.000000 
#    z 0.000000 0.000000 1.749750 
# 
# From -- ./inp_files/27167.got.cif
#   From: 2010.06.25/outbox.cif.g09.slc.cpg/sg52_14_cif.got.tgz:27167.got - 2010.06.26 19:32:48.
