data_PCOD8216312
_publ_section_title
;
Structure prediction by ZEFSAII (Michael W. Deem and Ramdas Pophale) SiO2 
 PCOD8216312
Probable space group: P N N A
;
_chemical_formula_sum "Si O2"
_cell_formula_units_Z 40
_cell_length_a 20.407672
_cell_length_b 8.853490
_cell_length_c 10.229442
_cell_angle_alpha 90.000000
_cell_angle_beta 90.000000
_cell_angle_gamma 90.000000
_cell_volume 1848.246578
_symmetry_space_group_name_H-M "P N N A"
_symmetry_group_IT_number 52
_symmetry_cell_setting 'orthorhombic'
loop_
_space_group_symop_operation_xyz
x,y,z
1/2-x,-y,z
x,1/2-y,1/2-z
1/2-x,1/2+y,1/2-z
-x,-y,-z
1/2+x,y,-z
-x,1/2+y,1/2+z
1/2+x,1/2-y,1/2+z
loop_
_atom_site_type_symbol
_atom_site_label
_atom_site_fract_x
_atom_site_fract_y
_atom_site_fract_z
Si Si1 0.532766 0.404138 0.679835
Si Si2 0.352561 0.599077 0.489260
Si Si3 0.646594 0.925362 0.738842
Si Si4 0.382101 0.078778 0.770434
Si Si5 0.682070 0.438619 0.033988
O O1 0.552024 0.250000 0.750000
O O2 0.567951 0.388543 0.536643
O O3 0.568021 0.541601 0.758823
O O4 0.455939 0.428795 0.676043
O O5 0.320911 0.517726 0.361087
O O6 0.338408 0.497406 0.616749
O O7 0.318800 0.759428 0.514690
O O8 0.661596 0.750000 0.750000
O O9 0.676309 0.980863 0.604366
O O10 0.358825 0.250000 0.750000
O O11 0.375311 0.987835 0.634525
O O12 0.750000 0.500000 0.096091
#
# Coordination Sequence:
#
# PCOD8216312 Si02
#       5
#     8   8   8   8   8
#     4   9  19  41  69  97 136 169 219 282 347 401
#     4  10  21  45  66  96 136 178 222 280 341 395
#     4  10  21  40  67 100 129 170 229 283 341 398
#     4  11  24  41  66 103 135 177 224 279 344 412
#     4  12  26  44  65  94 135 189 232 275 343 409
#
# _framework density 21.642133999999999
#
# number of rings (size 3 to 8) (size 9 to 14) (size 15 to 20)
#    1.200    0.400    2.000    3.000    0.000    5.600 
#    0.000    3.000    0.000    0.000    0.000    0.000 
#    0.000    0.000    0.000    0.000    0.000    0.000 
#
# Total GULP energy -495665.542407 kJ/mol
# GULP energy per Si atom -12391.638560 kJ/mol
# Density = 2.159288 g / cm^3
# Si number density = 21.642134 Si / 1000 Ang^3
#
#
#
# Elastic Constant Matrix: (Units=GPa)
#
#
# Indices 1 2 3 4 5 6 
#
# 1 55.7455 36.4477 18.8139 0.0000 0.0000 0.0000
# 2 36.4477 174.0339 69.4096 0.0000 0.0000 0.0000
# 3 18.8139 69.4096 141.2561 0.0000 0.0000 0.0000
# 4 0.0000 0.0000 0.0000 39.1944 0.0000 0.0000
# 5 0.0000 0.0000 0.0000 0.0000 11.1422 0.0000
# 6 0.0000 0.0000 0.0000 0.0000 0.0000 20.8580
#
#
#
# Elastic Compliance Matrix: (Units=1/GPa)
#
#
# Indices 1 2 3 4 5 6 
#
# 1 0.020855 -0.004054 -0.000785 0.000000 0.000000 0.000000
# 2 -0.004054 0.007935 -0.003359 0.000000 0.000000 0.000000
# 3 -0.000785 -0.003359 0.008834 0.000000 0.000000 0.000000
# 4 0.000000 0.000000 0.000000 0.025514 0.000000 0.000000
# 5 0.000000 0.000000 0.000000 0.000000 0.089748 0.000000
# 6 0.000000 0.000000 0.000000 0.000000 0.000000 0.047943
#
#
# Mechanical properties :
#
#
# Convention : Reuss Voigt Hill
#
# Bulk Modulus (GPa) = 47.11118 68.93089 58.02103
# Shear Modulus (GPa) = 22.29138 30.66322 26.47730
#
# Velocity S-wave (km/s) = 3.21284 3.76816 3.50153
# Velocity P-wave (km/s) = 5.96479 7.13103 6.57382
#
# Compressibility (1/GPa) = 0.02122639
#
# Stress axis : x y z
#
# Youngs Moduli (GPa) = 47.95122 126.02830 113.19326
#
# Poissons Ratio (x) = 0.51095 0.08891
# Poissons Ratio (y) = 0.19441 0.38021
# Poissons Ratio (z) = 0.03766 0.42332
#
# Static dielectric constant tensor:
#      x y z
#    x 3.590280 0.000000 0.000000 
#    y 0.000000 3.960620 0.000000 
#    z 0.000000 0.000000 3.879080 
# 
# 
# High freq. dielectric constant tensor:
#      x y z
#    x 1.828450 0.000000 0.000000 
#    y 0.000000 1.858830 0.000000 
#    z 0.000000 0.000000 1.854200 
# 
# From -- ./inp_files/14836.got.cif
#   From: 2010.06.25/outbox.cif.g09.slc.cpg/sg52_8_cif.got.tgz:14836.got - 2010.06.26 19:32:48.
