data_PCOD8216907
_publ_section_title
;
Structure prediction by ZEFSAII (Michael W. Deem and Ramdas Pophale) SiO2 
 PCOD8216907
Probable space group: P N N A
;
_chemical_formula_sum "Si O2"
_cell_formula_units_Z 60
_cell_length_a 9.032483
_cell_length_b 18.285728
_cell_length_c 15.959811
_cell_angle_alpha 90.000000
_cell_angle_beta 90.000000
_cell_angle_gamma 90.000000
_cell_volume 2636.010599
_symmetry_space_group_name_H-M "P N N A"
_symmetry_group_IT_number 52
_symmetry_cell_setting 'orthorhombic'
loop_
_space_group_symop_operation_xyz
x,y,z
1/2-x,-y,z
x,1/2-y,1/2-z
1/2-x,1/2+y,1/2-z
-x,-y,-z
1/2+x,y,-z
-x,1/2+y,1/2+z
1/2+x,1/2-y,1/2+z
loop_
_atom_site_type_symbol
_atom_site_label
_atom_site_fract_x
_atom_site_fract_y
_atom_site_fract_z
Si Si1 0.250000 0.000000 0.545471
Si Si2 0.072626 0.414424 0.235582
Si Si3 0.735459 0.084516 0.902814
Si Si4 0.756199 0.236382 0.454197
Si Si5 0.041209 0.063007 0.682508
Si Si6 0.502792 0.665043 0.513332
Si Si7 0.281329 0.169541 0.715662
Si Si8 0.277630 0.378141 0.088311
O O1 0.113544 0.021217 0.604294
O O2 0.300954 0.065900 0.487049
O O3 0.029410 0.500289 0.241572
O O4 0.934438 0.360982 0.251643
O O5 0.194388 0.398678 0.306491
O O6 0.134957 0.397945 0.143401
O O7 0.603636 0.111440 0.962495
O O8 0.750000 0.000000 0.922439
O O9 0.893055 0.122915 0.920426
O O10 0.890493 0.293855 0.447131
O O11 0.599674 0.276451 0.437643
O O12 0.780473 0.173358 0.385465
O O13 0.756647 0.201981 0.547888
O O14 0.155660 0.109958 0.738954
O O15 0.920453 0.119846 0.647840
O O16 0.246508 0.250000 0.750000
#
# Coordination Sequence:
#
# PCOD8216907 Si02
#       8
#     4   8   8   8   8   8   8   8
#     4  12  22  38  70 104 146 184 234 266 334 420
#     4  12  25  44  67 104 142 178 228 292 359 410
#     4  11  24  47  75 100 127 174 234 308 358 419
#     4  11  22  42  66 100 140 187 226 273 337 424
#     4  12  23  43  65 105 141 189 232 286 344 419
#     4  10  24  45  70  98 131 173 234 286 354 415
#     4  12  26  42  64  93 138 188 233 282 349 415
#     4  12  24  38  71 105 144 186 224 276 336 428
#
# _framework density 22.761669000000001
#
# number of rings (size 3 to 8) (size 9 to 14) (size 15 to 20)
#    0.000    0.533    4.000    4.000    1.867    3.200 
#    0.000    4.667    0.000    0.000    0.000    0.000 
#    0.000    0.000    0.000    0.000    0.000    0.000 
#
# Total GULP energy -744230.720512 kJ/mol
# GULP energy per Si atom -12403.845342 kJ/mol
# Density = 2.270986 g / cm^3
# Si number density = 22.761669 Si / 1000 Ang^3
#
#
#
# Elastic Constant Matrix: (Units=GPa)
#
#
# Indices 1 2 3 4 5 6 
#
# 1 140.3622 55.9933 35.1393 0.0000 0.0000 0.0000
# 2 55.9933 116.5289 43.2634 0.0000 0.0000 0.0000
# 3 35.1393 43.2634 78.8982 0.0000 0.0000 0.0000
# 4 0.0000 0.0000 0.0000 36.4316 0.0000 0.0000
# 5 0.0000 0.0000 0.0000 0.0000 36.4099 0.0000
# 6 0.0000 0.0000 0.0000 0.0000 0.0000 42.9339
#
#
#
# Elastic Compliance Matrix: (Units=1/GPa)
#
#
# Indices 1 2 3 4 5 6 
#
# 1 0.009076 -0.003592 -0.002073 0.000000 0.000000 0.000000
# 2 -0.003592 0.012196 -0.005088 0.000000 0.000000 0.000000
# 3 -0.002073 -0.005088 0.016388 0.000000 0.000000 0.000000
# 4 0.000000 0.000000 0.000000 0.027449 0.000000 0.000000
# 5 0.000000 0.000000 0.000000 0.000000 0.027465 0.000000
# 6 0.000000 0.000000 0.000000 0.000000 0.000000 0.023292
#
#
# Mechanical properties :
#
#
# Convention : Reuss Voigt Hill
#
# Bulk Modulus (GPa) = 61.90010 67.17570 64.53790
# Shear Modulus (GPa) = 35.02474 36.58129 35.80302
#
# Velocity S-wave (km/s) = 3.92696 4.01327 3.97035
# Velocity P-wave (km/s) = 6.91486 7.14506 7.03090
#
# Compressibility (1/GPa) = 0.01615506
#
# Stress axis : x y z
#
# Youngs Moduli (GPa) = 110.17929 81.99105 61.02071
#
# Poissons Ratio (x) = 0.29448 0.12649
# Poissons Ratio (y) = 0.39572 0.31049
# Poissons Ratio (z) = 0.22839 0.41719
#
# Static dielectric constant tensor:
#      x y z
#    x 4.251900 0.000000 0.000000 
#    y 0.000000 4.162690 0.000000 
#    z 0.000000 0.000000 3.904540 
# 
# 
# High freq. dielectric constant tensor:
#      x y z
#    x 1.913430 0.000000 0.000000 
#    y 0.000000 1.906520 0.000000 
#    z 0.000000 0.000000 1.879610 
# 
# From -- ./inp_files/31483.got.cif
#   From: 2010.06.25/outbox.cif.g09.slc.cpg/sg52_16_cif.got.tgz:31483.got - 2010.06.26 19:32:48.
