data_PCOD8216402
_publ_section_title
;
Structure prediction by ZEFSAII (Michael W. Deem and Ramdas Pophale) SiO2 
 PCOD8216402
Probable space group: P N N A
;
_chemical_formula_sum "Si O2"
_cell_formula_units_Z 40
_cell_length_a 13.233631
_cell_length_b 8.884456
_cell_length_c 14.444519
_cell_angle_alpha 90.000000
_cell_angle_beta 90.000000
_cell_angle_gamma 90.000000
_cell_volume 1698.294277
_symmetry_space_group_name_H-M "P N N A"
_symmetry_group_IT_number 52
_symmetry_cell_setting 'orthorhombic'
loop_
_space_group_symop_operation_xyz
x,y,z
1/2-x,-y,z
x,1/2-y,1/2-z
1/2-x,1/2+y,1/2-z
-x,-y,-z
1/2+x,y,-z
-x,1/2+y,1/2+z
1/2+x,1/2-y,1/2+z
loop_
_atom_site_type_symbol
_atom_site_label
_atom_site_fract_x
_atom_site_fract_y
_atom_site_fract_z
Si Si1 0.054893 0.134348 0.823487
Si Si2 0.449198 0.817929 0.028550
Si Si3 0.852724 0.084248 0.875185
Si Si4 0.359364 0.321311 0.649516
Si Si5 0.750131 0.322521 0.987477
O O1 0.101476 0.250000 0.750000
O O2 0.938489 0.085422 0.793509
O O3 0.136584 0.001289 0.834197
O O4 0.031441 0.215835 0.920823
O O5 0.540128 0.768665 0.095170
O O6 0.410413 0.992140 0.041273
O O7 0.357460 0.711455 0.057990
O O8 0.750000 0.000000 0.842377
O O9 0.830369 0.251334 0.914973
O O10 0.354232 0.250000 0.750000
O O11 0.264555 0.263934 0.587148
O O12 0.750000 0.500000 0.001409
#
# Coordination Sequence:
#
# PCOD8216402 Si02
#       5
#     8   8   8   8   8
#     4  11  22  39  68  96 124 177 225 269 335 408
#     4  10  21  43  69  86 131 181 216 268 341 402
#     4   9  18  41  65  88 125 175 221 264 336 409
#     4  11  24  44  65  97 137 172 219 279 340 403
#     4  11  23  38  65  98 130 170 219 276 335 394
#
# _framework density 23.553044
#
# number of rings (size 3 to 8) (size 9 to 14) (size 15 to 20)
#    0.000    1.600    4.000    1.200    2.800    3.200 
#    0.000   10.000    0.000    0.000    0.000    0.000 
#    0.000    0.000    0.000    0.000    0.000    0.000 
#
# Total GULP energy -495568.058368 kJ/mol
# GULP energy per Si atom -12389.201459 kJ/mol
# Density = 2.349944 g / cm^3
# Si number density = 23.553044 Si / 1000 Ang^3
#
#
#
# Elastic Constant Matrix: (Units=GPa)
#
#
# Indices 1 2 3 4 5 6 
#
# 1 54.9928 3.6478 -5.1121 0.0000 0.0000 0.0000
# 2 3.6478 131.8835 25.3297 0.0000 0.0000 0.0000
# 3 -5.1121 25.3297 54.2743 0.0000 0.0000 0.0000
# 4 0.0000 0.0000 0.0000 37.0575 0.0000 0.0000
# 5 0.0000 0.0000 0.0000 0.0000 21.0919 0.0000
# 6 0.0000 0.0000 0.0000 0.0000 0.0000 15.4683
#
#
#
# Elastic Compliance Matrix: (Units=1/GPa)
#
#
# Indices 1 2 3 4 5 6 
#
# 1 0.018447 -0.000927 0.002170 0.000000 0.000000 0.000000
# 2 -0.000927 0.008376 -0.003996 0.000000 0.000000 0.000000
# 3 0.002170 -0.003996 0.020494 0.000000 0.000000 0.000000
# 4 0.000000 0.000000 0.000000 0.026985 0.000000 0.000000
# 5 0.000000 0.000000 0.000000 0.000000 0.047412 0.000000
# 6 0.000000 0.000000 0.000000 0.000000 0.000000 0.064648
#
#
# Mechanical properties :
#
#
# Convention : Reuss Voigt Hill
#
# Bulk Modulus (GPa) = 23.91695 32.09793 28.00744
# Shear Modulus (GPa) = 24.29476 29.20921 26.75198
#
# Velocity S-wave (km/s) = 3.21517 3.52539 3.37385
# Velocity P-wave (km/s) = 4.89486 5.49806 5.20521
#
# Compressibility (1/GPa) = 0.04181135
#
# Stress axis : x y z
#
# Youngs Moduli (GPa) = 54.20810 119.39436 48.79391
#
# Poissons Ratio (x) = 0.11069 -0.10589
# Poissons Ratio (y) = 0.05025 0.19499
# Poissons Ratio (z) = -0.11764 0.47712
#
# Static dielectric constant tensor:
#      x y z
#    x 4.925080 0.000000 0.000000 
#    y 0.000000 4.022640 0.000000 
#    z 0.000000 0.000000 3.858820 
# 
# 
# High freq. dielectric constant tensor:
#      x y z
#    x 1.966780 0.000000 0.000000 
#    y 0.000000 1.907790 0.000000 
#    z 0.000000 0.000000 1.898700 
# 
# From -- ./inp_files/26871.got.cif
#   From: 2010.06.25/outbox.cif.g09.slc.cpg/sg52_14_cif.got.tgz:26871.got - 2010.06.26 19:32:48.
