data_PCOD8216029
_publ_section_title
;
Structure prediction by ZEFSAII (Michael W. Deem and Ramdas Pophale) SiO2 
 PCOD8216029
Probable space group: P N N A
;
_chemical_formula_sum "Si O2"
_cell_formula_units_Z 40
_cell_length_a 7.568857
_cell_length_b 10.705530
_cell_length_c 23.528158
_cell_angle_alpha 90.000000
_cell_angle_beta 90.000000
_cell_angle_gamma 90.000000
_cell_volume 1906.454308
_symmetry_space_group_name_H-M "P N N A"
_symmetry_group_IT_number 52
_symmetry_cell_setting 'orthorhombic'
loop_
_space_group_symop_operation_xyz
x,y,z
1/2-x,-y,z
x,1/2-y,1/2-z
1/2-x,1/2+y,1/2-z
-x,-y,-z
1/2+x,y,-z
-x,1/2+y,1/2+z
1/2+x,1/2-y,1/2+z
loop_
_atom_site_type_symbol
_atom_site_label
_atom_site_fract_x
_atom_site_fract_y
_atom_site_fract_z
Si Si1 0.446692 0.767787 0.372973
Si Si2 0.897134 0.251070 0.935494
Si Si3 0.250000 0.500000 0.711222
Si Si4 0.233877 0.860749 0.549063
Si Si5 0.944060 0.492921 0.626924
Si Si6 0.415532 0.250000 0.750000
O O1 0.247663 0.805031 0.390910
O O2 0.589316 0.860667 0.400643
O O3 0.492456 0.629584 0.397693
O O4 0.459804 0.764216 0.304883
O O5 0.936025 0.104827 0.924972
O O6 0.077621 0.324633 0.925119
O O7 0.823936 0.267528 0.999071
O O8 0.412979 0.548276 0.673255
O O9 0.299395 0.377130 0.747732
O O10 0.250000 0.000000 0.523928
O O11 0.750000 0.500000 0.656531
#
# Coordination Sequence:
#
# PCOD8216029 Si02
#       6
#     8   8   4   8   8   4
#     4  10  23  43  64  96 131 164 220 271 327 397
#     4  11  22  41  65  92 127 177 208 273 327 384
#     4  10  20  42  66  96 132 170 220 278 324 396
#     4  12  25  40  63  95 135 171 221 266 331 396
#     4   9  20  41  64  92 129 161 214 267 328 381
#     4  10  22  42  72  94 134 174 220 276 326 396
#
# _framework density 20.981356000000002
#
# number of rings (size 3 to 8) (size 9 to 14) (size 15 to 20)
#    0.000    1.600    2.000    3.000    1.400    0.800 
#    3.600   16.000    8.800    0.000    0.000    0.000 
#    0.000    0.000    0.000    0.000    0.000    0.000 
#
# Total GULP energy -495915.767324 kJ/mol
# GULP energy per Si atom -12397.894183 kJ/mol
# Density = 2.093360 g / cm^3
# Si number density = 20.981356 Si / 1000 Ang^3
#
#
#
# Elastic Constant Matrix: (Units=GPa)
#
#
# Indices 1 2 3 4 5 6 
#
# 1 137.3866 39.5859 45.3377 0.0000 0.0000 0.0000
# 2 39.5859 115.6159 45.3166 0.0000 0.0000 0.0000
# 3 45.3377 45.3166 117.2616 0.0000 0.0000 0.0000
# 4 0.0000 0.0000 0.0000 29.7194 0.0000 0.0000
# 5 0.0000 0.0000 0.0000 0.0000 26.7400 0.0000
# 6 0.0000 0.0000 0.0000 0.0000 0.0000 17.9107
#
#
#
# Elastic Compliance Matrix: (Units=1/GPa)
#
#
# Indices 1 2 3 4 5 6 
#
# 1 0.008704 -0.001958 -0.002609 0.000000 0.000000 0.000000
# 2 -0.001958 0.010634 -0.003353 0.000000 0.000000 0.000000
# 3 -0.002609 -0.003353 0.010832 0.000000 0.000000 0.000000
# 4 0.000000 0.000000 0.000000 0.033648 0.000000 0.000000
# 5 0.000000 0.000000 0.000000 0.000000 0.037397 0.000000
# 6 0.000000 0.000000 0.000000 0.000000 0.000000 0.055833
#
#
# Mechanical properties :
#
#
# Convention : Reuss Voigt Hill
#
# Bulk Modulus (GPa) = 69.77453 70.08273 69.92863
# Shear Modulus (GPa) = 28.14331 30.87562 29.50946
#
# Velocity S-wave (km/s) = 3.66642 3.84027 3.75435
# Velocity P-wave (km/s) = 7.15899 7.28961 7.22460
#
# Compressibility (1/GPa) = 0.01433188
#
# Stress axis : x y z
#
# Youngs Moduli (GPa) = 114.89472 94.04101 92.31767
#
# Poissons Ratio (x) = 0.18409 0.24082
# Poissons Ratio (y) = 0.22491 0.30950
# Poissons Ratio (z) = 0.29972 0.31528
#
# Static dielectric constant tensor:
#      x y z
#    x 4.069700 0.000000 0.000000 
#    y 0.000000 3.948190 0.000000 
#    z 0.000000 0.000000 3.478010 
# 
# 
# High freq. dielectric constant tensor:
#      x y z
#    x 1.839110 0.000000 0.000000 
#    y 0.000000 1.825070 0.000000 
#    z 0.000000 0.000000 1.795230 
# 
# From -- ./inp_files/39263.got.cif
#   From: 2010.06.25/outbox.cif.g09.slc.cpg/sg52_20_cif.got.tgz:39263.got - 2010.06.26 19:32:48.
