data_PCOD8216125
_publ_section_title
;
Structure prediction by ZEFSAII (Michael W. Deem and Ramdas Pophale) SiO2 
 PCOD8216125
Probable space group: P N N A
;
_chemical_formula_sum "Si O2"
_cell_formula_units_Z 64
_cell_length_a 14.031660
_cell_length_b 24.749263
_cell_length_c 9.754606
_cell_angle_alpha 90.000000
_cell_angle_beta 90.000000
_cell_angle_gamma 90.000000
_cell_volume 3387.513666
_symmetry_space_group_name_H-M "P N N A"
_symmetry_group_IT_number 52
_symmetry_cell_setting 'orthorhombic'
loop_
_space_group_symop_operation_xyz
x,y,z
1/2-x,-y,z
x,1/2-y,1/2-z
1/2-x,1/2+y,1/2-z
-x,-y,-z
1/2+x,y,-z
-x,1/2+y,1/2+z
1/2+x,1/2-y,1/2+z
loop_
_atom_site_type_symbol
_atom_site_label
_atom_site_fract_x
_atom_site_fract_y
_atom_site_fract_z
Si Si1 0.501961 0.168850 0.981024
Si Si2 0.506131 0.910448 0.253138
Si Si3 0.501274 0.155092 0.488436
Si Si4 0.862244 0.247343 0.587881
Si Si5 0.139689 0.000360 0.175888
Si Si6 0.859692 0.741690 0.910412
Si Si7 0.494006 0.587701 0.721037
Si Si8 0.858782 0.497170 0.352637
O O1 0.503042 0.146108 0.827099
O O2 0.588944 0.210875 0.996096
O O3 0.402527 0.198300 0.017736
O O4 0.517300 0.118031 0.078070
O O5 0.522649 0.894582 0.410979
O O6 0.411853 0.947728 0.241900
O O7 0.599298 0.940178 0.195456
O O8 0.412736 0.195992 0.480823
O O9 0.597119 0.184734 0.540162
O O10 0.518623 0.131016 0.339343
O O11 0.882385 0.250000 0.750000
O O12 0.751285 0.243065 0.553784
O O13 0.250000 0.000000 0.218485
O O14 0.094684 0.944135 0.229520
O O15 0.124428 0.004455 0.013661
O O16 0.878390 0.750000 0.750000
O O17 0.410221 0.544218 0.731298
O O18 0.750000 0.500000 0.310649
#
# Coordination Sequence:
#
# PCOD8216125 Si02
#       8
#     8   8   8   8   8   8   8   8
#     4  11  20  37  62  86 112 155 194 241 290 344
#     4  11  21  39  59  85 118 153 191 238 295 344
#     4  11  24  39  60  88 122 153 188 249 300 344
#     4  10  22  39  60  87 117 153 199 242 287 354
#     4  10  21  37  61  90 113 151 204 240 276 347
#     4  10  22  39  60  87 117 153 199 242 287 354
#     4  11  21  39  59  85 118 153 191 238 295 344
#     4  10  21  37  59  88 119 149 196 246 282 342
#
# _framework density 18.892913
#
# number of rings (size 3 to 8) (size 9 to 14) (size 15 to 20)
#    0.000    1.500    5.000    0.750    0.000    6.000 
#    0.000    2.500    0.000    0.000    0.000    0.000 
#    0.000    0.000    0.000    0.000    0.000    0.000 
#
# Total GULP energy -793838.442745 kJ/mol
# GULP energy per Si atom -12403.725668 kJ/mol
# Density = 1.884991 g / cm^3
# Si number density = 18.892913 Si / 1000 Ang^3
#
#
#
# Elastic Constant Matrix: (Units=GPa)
#
#
# Indices 1 2 3 4 5 6 
#
# 1 145.0568 46.1564 31.6239 0.0000 0.0000 0.0000
# 2 46.1564 90.5676 17.6048 0.0000 0.0000 0.0000
# 3 31.6239 17.6048 42.2789 0.0000 0.0000 0.0000
# 4 0.0000 0.0000 0.0000 44.4058 0.0000 0.0000
# 5 0.0000 0.0000 0.0000 0.0000 16.3588 0.0000
# 6 0.0000 0.0000 0.0000 0.0000 0.0000 14.2257
#
#
#
# Elastic Compliance Matrix: (Units=1/GPa)
#
#
# Indices 1 2 3 4 5 6 
#
# 1 0.009231 -0.003658 -0.005381 0.000000 0.000000 0.000000
# 2 -0.003658 0.013464 -0.002870 0.000000 0.000000 0.000000
# 3 -0.005381 -0.002870 0.028873 0.000000 0.000000 0.000000
# 4 0.000000 0.000000 0.000000 0.022520 0.000000 0.000000
# 5 0.000000 0.000000 0.000000 0.000000 0.061129 0.000000
# 6 0.000000 0.000000 0.000000 0.000000 0.000000 0.070295
#
#
# Mechanical properties :
#
#
# Convention : Reuss Voigt Hill
#
# Bulk Modulus (GPa) = 36.03831 52.07483 44.05657
# Shear Modulus (GPa) = 20.95732 27.16595 24.06164
#
# Velocity S-wave (km/s) = 3.33418 3.79607 3.57260
# Velocity P-wave (km/s) = 5.82570 6.84372 6.35513
#
# Compressibility (1/GPa) = 0.02774825
#
# Stress axis : x y z
#
# Youngs Moduli (GPa) = 108.32881 74.27318 34.63491
#
# Poissons Ratio (x) = 0.27173 0.18638
# Poissons Ratio (y) = 0.39632 0.09940
# Poissons Ratio (z) = 0.58296 0.21315
#
# Static dielectric constant tensor:
#      x y z
#    x 3.427090 0.000000 0.000000 
#    y 0.000000 3.549490 0.000000 
#    z 0.000000 0.000000 3.326770 
# 
# 
# High freq. dielectric constant tensor:
#      x y z
#    x 1.730340 0.000000 0.000000 
#    y 0.000000 1.748120 0.000000 
#    z 0.000000 0.000000 1.726260 
# 
# From -- ./inp_files/11032.got.cif
#   From: 2010.06.25/outbox.cif.g09.slc.cpg/sg52_6_cif.got.tgz:11032.got - 2010.06.26 19:32:48.
