data_PCOD8216835
_publ_section_title
;
Structure prediction by ZEFSAII (Michael W. Deem and Ramdas Pophale) SiO2 
 PCOD8216835
Probable space group: P N N A
;
_chemical_formula_sum "Si O2"
_cell_formula_units_Z 28
_cell_length_a 9.924949
_cell_length_b 15.722278
_cell_length_c 7.569608
_cell_angle_alpha 90.000000
_cell_angle_beta 90.000000
_cell_angle_gamma 90.000000
_cell_volume 1181.182883
_symmetry_space_group_name_H-M "P N N A"
_symmetry_group_IT_number 52
_symmetry_cell_setting 'orthorhombic'
loop_
_space_group_symop_operation_xyz
x,y,z
1/2-x,-y,z
x,1/2-y,1/2-z
1/2-x,1/2+y,1/2-z
-x,-y,-z
1/2+x,y,-z
-x,1/2+y,1/2+z
1/2+x,1/2-y,1/2+z
loop_
_atom_site_type_symbol
_atom_site_label
_atom_site_fract_x
_atom_site_fract_y
_atom_site_fract_z
Si Si1 0.540197 0.082240 0.108655
Si Si2 0.750000 0.000000 0.361259
Si Si3 0.863072 0.746552 0.040402
Si Si4 0.880505 0.143564 0.582265
O O1 0.658113 0.061327 0.245743
O O2 0.596086 0.157240 0.980730
O O3 0.409997 0.118830 0.213486
O O4 0.500000 0.000000 0.000000
O O5 0.846212 0.057833 0.479454
O O6 0.831915 0.750000 0.250000
O O7 0.985573 0.683304 0.996371
O O8 0.736738 0.714076 0.927517
#
# Coordination Sequence:
#
# PCOD8216835 Si02
#       4
#     8   4   8   8
#     4  11  27  48  74 114 154 195 257 325 384 459
#     4  12  24  48  74 108 146 198 262 308 382 472
#     4  10  23  47  73 109 149 194 257 312 378 464
#     4  11  23  48  77 104 152 203 247 313 388 462
#
# _framework density 23.705052999999999
#
# number of rings (size 3 to 8) (size 9 to 14) (size 15 to 20)
#    0.000    1.143    5.714    0.857    4.000    1.143 
#   10.286    4.286    0.000    0.000    0.000    0.000 
#    0.000    0.000    0.000    0.000    0.000    0.000 
#
# Total GULP energy -347230.591677 kJ/mol
# GULP energy per Si atom -12401.092560 kJ/mol
# Density = 2.365110 g / cm^3
# Si number density = 23.705053 Si / 1000 Ang^3
#
#
#
# Elastic Constant Matrix: (Units=GPa)
#
#
# Indices 1 2 3 4 5 6 
#
# 1 162.8049 74.6269 57.9730 0.0000 0.0000 0.0000
# 2 74.6269 176.1233 54.3758 0.0000 0.0000 0.0000
# 3 57.9730 54.3758 64.3591 0.0000 0.0000 0.0000
# 4 0.0000 0.0000 0.0000 43.5264 0.0000 0.0000
# 5 0.0000 0.0000 0.0000 0.0000 21.8676 0.0000
# 6 0.0000 0.0000 0.0000 0.0000 0.0000 50.2208
#
#
#
# Elastic Compliance Matrix: (Units=1/GPa)
#
#
# Indices 1 2 3 4 5 6 
#
# 1 0.009476 -0.001867 -0.006958 0.000000 0.000000 0.000000
# 2 -0.001867 0.008049 -0.005119 0.000000 0.000000 0.000000
# 3 -0.006958 -0.005119 0.026131 0.000000 0.000000 0.000000
# 4 0.000000 0.000000 0.000000 0.022975 0.000000 0.000000
# 5 0.000000 0.000000 0.000000 0.000000 0.045730 0.000000
# 6 0.000000 0.000000 0.000000 0.000000 0.000000 0.019912
#
#
# Mechanical properties :
#
#
# Convention : Reuss Voigt Hill
#
# Bulk Modulus (GPa) = 63.42228 86.35987 74.89108
# Shear Modulus (GPa) = 30.22671 37.54374 33.88523
#
# Velocity S-wave (km/s) = 3.57475 3.98400 3.78491
# Velocity P-wave (km/s) = 6.62203 7.59428 7.12476
#
# Compressibility (1/GPa) = 0.01576733
#
# Stress axis : x y z
#
# Youngs Moduli (GPa) = 105.53188 124.23419 38.26902
#
# Poissons Ratio (x) = 0.23192 0.26629
# Poissons Ratio (y) = 0.19701 0.19591
# Poissons Ratio (z) = 0.73433 0.63598
#
# Static dielectric constant tensor:
#      x y z
#    x 4.357860 0.000000 0.000000 
#    y 0.000000 4.939250 0.000000 
#    z 0.000000 0.000000 3.959900 
# 
# 
# High freq. dielectric constant tensor:
#      x y z
#    x 1.944990 0.000000 0.000000 
#    y 0.000000 1.976110 0.000000 
#    z 0.000000 0.000000 1.906170 
# 
# From -- ./inp_files/7087.got.cif
#   From: 2010.06.25/outbox.cif.g09.slc.cpg/sg52_4_cif.got.tgz:7087.got - 2010.06.26 19:32:48.
