data_PCOD8216496
_publ_section_title
;
Structure prediction by ZEFSAII (Michael W. Deem and Ramdas Pophale) SiO2 
 PCOD8216496
Probable space group: P N N A
;
_chemical_formula_sum "Si O2"
_cell_formula_units_Z 32
_cell_length_a 5.034840
_cell_length_b 20.458785
_cell_length_c 15.110331
_cell_angle_alpha 90.000000
_cell_angle_beta 90.000000
_cell_angle_gamma 90.000000
_cell_volume 1556.465469
_symmetry_space_group_name_H-M "P N N A"
_symmetry_group_IT_number 52
_symmetry_cell_setting 'orthorhombic'
loop_
_space_group_symop_operation_xyz
x,y,z
1/2-x,-y,z
x,1/2-y,1/2-z
1/2-x,1/2+y,1/2-z
-x,-y,-z
1/2+x,y,-z
-x,1/2+y,1/2+z
1/2+x,1/2-y,1/2+z
loop_
_atom_site_type_symbol
_atom_site_label
_atom_site_fract_x
_atom_site_fract_y
_atom_site_fract_z
Si Si1 0.489106 0.108696 0.558021
Si Si2 0.386813 0.102866 0.207698
Si Si3 0.894045 0.324952 0.240028
Si Si4 0.750000 0.000000 0.649288
Si Si5 0.250000 0.000000 0.062309
O O1 0.785431 0.121581 0.521174
O O2 0.405251 0.157193 0.636547
O O3 0.511554 0.033335 0.592517
O O4 0.683123 0.131790 0.203945
O O5 0.182184 0.162521 0.218114
O O6 0.386400 0.055934 0.292584
O O7 0.292645 0.064142 0.121401
O O8 0.814270 0.250000 0.250000
O O9 0.500000 0.000000 0.000000
#
# Coordination Sequence:
#
# PCOD8216496 Si02
#       5
#     8   8   8   4   4
#     4  11  22  36  57  90 119 147 188 241 291 340
#     4  10  22  39  62  88 115 158 202 236 298 371
#     4  11  23  42  61  81 118 167 205 237 284 357
#     4   9  20  36  60  87 122 152 182 233 304 368
#     4  11  22  40  64  95 124 148 196 269 316 348
#
# _framework density 20.559401000000001
#
# number of rings (size 3 to 8) (size 9 to 14) (size 15 to 20)
#    0.000    1.500    0.000    6.000    0.000   12.000 
#    0.000    7.500    0.000    0.000    0.000    0.000 
#    0.000    0.000    0.000    0.000    0.000    0.000 
#
# Total GULP energy -396657.158185 kJ/mol
# GULP energy per Si atom -12395.536193 kJ/mol
# Density = 2.051261 g / cm^3
# Si number density = 20.559401 Si / 1000 Ang^3
#
#
#
# Elastic Constant Matrix: (Units=GPa)
#
#
# Indices 1 2 3 4 5 6 
#
# 1 119.1471 36.2769 45.5425 0.0000 0.0000 0.0000
# 2 36.2769 119.3501 46.4928 0.0000 0.0000 0.0000
# 3 45.5425 46.4928 117.1286 0.0000 0.0000 0.0000
# 4 0.0000 0.0000 0.0000 14.8473 0.0000 0.0000
# 5 0.0000 0.0000 0.0000 0.0000 38.8099 0.0000
# 6 0.0000 0.0000 0.0000 0.0000 0.0000 27.0254
#
#
#
# Elastic Compliance Matrix: (Units=1/GPa)
#
#
# Indices 1 2 3 4 5 6 
#
# 1 0.010188 -0.001838 -0.003232 0.000000 0.000000 0.000000
# 2 -0.001838 0.010243 -0.003351 0.000000 0.000000 0.000000
# 3 -0.003232 -0.003351 0.011124 0.000000 0.000000 0.000000
# 4 0.000000 0.000000 0.000000 0.067352 0.000000 0.000000
# 5 0.000000 0.000000 0.000000 0.000000 0.025767 0.000000
# 6 0.000000 0.000000 0.000000 0.000000 0.000000 0.037002
#
#
# Mechanical properties :
#
#
# Convention : Reuss Voigt Hill
#
# Bulk Modulus (GPa) = 67.96425 68.02779 67.99602
# Shear Modulus (GPa) = 27.25953 31.29077 29.27515
#
# Velocity S-wave (km/s) = 3.64523 3.90547 3.77759
# Velocity P-wave (km/s) = 7.13065 7.31418 7.22300
#
# Compressibility (1/GPa) = 0.01471362
#
# Stress axis : x y z
#
# Youngs Moduli (GPa) = 98.15634 97.63013 89.89200
#
# Poissons Ratio (x) = 0.17941 0.29052
# Poissons Ratio (y) = 0.18038 0.30125
# Poissons Ratio (z) = 0.31723 0.32718
#
# Static dielectric constant tensor:
#      x y z
#    x 3.790670 0.000000 0.000000 
#    y 0.000000 3.610780 0.000000 
#    z 0.000000 0.000000 4.066130 
# 
# 
# High freq. dielectric constant tensor:
#      x y z
#    x 1.819310 0.000000 0.000000 
#    y 0.000000 1.785540 0.000000 
#    z 0.000000 0.000000 1.806350 
# 
# From -- ./inp_files/23509.got.cif
#   From: 2010.06.25/outbox.cif.g09.slc.cpg/sg52_12_cif.got.tgz:23509.got - 2010.06.26 19:32:48.
