data_PCOD8216268
_publ_section_title
;
Structure prediction by ZEFSAII (Michael W. Deem and Ramdas Pophale) SiO2 
 PCOD8216268
Probable space group: P N N A
;
_chemical_formula_sum "Si O2"
_cell_formula_units_Z 56
_cell_length_a 14.367206
_cell_length_b 28.311673
_cell_length_c 6.877819
_cell_angle_alpha 90.000000
_cell_angle_beta 90.000000
_cell_angle_gamma 90.000000
_cell_volume 2797.619168
_symmetry_space_group_name_H-M "P N N A"
_symmetry_group_IT_number 52
_symmetry_cell_setting 'orthorhombic'
loop_
_space_group_symop_operation_xyz
x,y,z
1/2-x,-y,z
x,1/2-y,1/2-z
1/2-x,1/2+y,1/2-z
-x,-y,-z
1/2+x,y,-z
-x,1/2+y,1/2+z
1/2+x,1/2-y,1/2+z
loop_
_atom_site_type_symbol
_atom_site_label
_atom_site_fract_x
_atom_site_fract_y
_atom_site_fract_z
Si Si1 0.353072 0.981582 0.029311
Si Si2 0.097465 0.750000 0.750000
Si Si3 0.436457 0.807886 0.429410
Si Si4 0.859359 0.623045 0.600403
Si Si5 0.995850 0.366887 0.728847
Si Si6 0.703711 0.250000 0.750000
Si Si7 0.502054 0.529109 0.800270
Si Si8 0.315144 0.321904 0.451852
O O1 0.344083 0.932078 0.145710
O O2 0.250000 0.000000 0.983481
O O3 0.408096 0.016174 0.172629
O O4 0.407213 0.978863 0.822560
O O5 0.161265 0.716771 0.615315
O O6 0.036539 0.788140 0.634582
O O7 0.391918 0.847764 0.289348
O O8 0.451853 0.827922 0.642892
O O9 0.365038 0.763237 0.431872
O O10 0.945435 0.624363 0.459501
O O11 0.766585 0.641627 0.487276
O O12 0.985231 0.415336 0.851209
O O13 0.898828 0.349460 0.644493
O O14 0.768642 0.294411 0.724533
O O15 0.500000 0.500000 0.000000
#
# Coordination Sequence:
#
# PCOD8216268 Si02
#       8
#     8   4   8   8   8   4   8   8
#     4  10  21  40  64  90 126 165 200 260 316 381
#     4  11  22  38  59  88 118 160 211 248 305 356
#     4  10  21  40  60  85 121 165 197 261 301 362
#     4  10  22  41  59  91 126 154 211 249 313 373
#     4  11  22  40  64  88 122 164 203 254 320 364
#     4   9  22  38  55  88 122 156 211 242 301 368
#     4  10  22  40  64  95 122 162 210 259 318 384
#     4  11  22  39  60  91 119 162 207 254 303 372
#
# _framework density 20.017022000000001
#
# number of rings (size 3 to 8) (size 9 to 14) (size 15 to 20)
#    0.000    1.714    1.429    2.571    2.000    0.571 
#    2.571    2.857    0.000    0.000    0.000    0.000 
#    0.000    0.000    0.000    0.000    0.000    0.000 
#
# Total GULP energy -693882.216576 kJ/mol
# GULP energy per Si atom -12390.753867 kJ/mol
# Density = 1.997146 g / cm^3
# Si number density = 20.017022 Si / 1000 Ang^3
#
#
#
# Elastic Constant Matrix: (Units=GPa)
#
#
# Indices 1 2 3 4 5 6 
#
# 1 134.9497 44.5710 18.9005 0.0000 0.0000 0.0000
# 2 44.5710 89.4493 12.3864 0.0000 0.0000 0.0000
# 3 18.9005 12.3864 46.0870 0.0000 0.0000 0.0000
# 4 0.0000 0.0000 0.0000 37.7406 0.0000 0.0000
# 5 0.0000 0.0000 0.0000 0.0000 2.2707 0.0000
# 6 0.0000 0.0000 0.0000 0.0000 0.0000 27.7044
#
#
#
# Elastic Compliance Matrix: (Units=1/GPa)
#
#
# Indices 1 2 3 4 5 6 
#
# 1 0.009167 -0.004204 -0.002630 0.000000 0.000000 0.000000
# 2 -0.004204 0.013539 -0.001915 0.000000 0.000000 0.000000
# 3 -0.002630 -0.001915 0.023291 0.000000 0.000000 0.000000
# 4 0.000000 0.000000 0.000000 0.026497 0.000000 0.000000
# 5 0.000000 0.000000 0.000000 0.000000 0.440401 0.000000
# 6 0.000000 0.000000 0.000000 0.000000 0.000000 0.036095
#
#
# Mechanical properties :
#
#
# Convention : Reuss Voigt Hill
#
# Bulk Modulus (GPa) = 35.08641 46.91131 40.99886
# Shear Modulus (GPa) = 8.68075 26.51834 17.59955
#
# Velocity S-wave (km/s) = 2.08473 3.64371 2.96840
# Velocity P-wave (km/s) = 4.83334 6.41785 5.68111
#
# Compressibility (1/GPa) = 0.02850106
#
# Stress axis : x y z
#
# Youngs Moduli (GPa) = 109.08940 73.85941 42.93477
#
# Poissons Ratio (x) = 0.31047 0.11290
# Poissons Ratio (y) = 0.45856 0.08222
# Poissons Ratio (z) = 0.28686 0.14144
#
# Static dielectric constant tensor:
#      x y z
#    x 3.900810 0.000000 0.000000 
#    y 0.000000 4.623250 0.000000 
#    z 0.000000 0.000000 3.313500 
# 
# 
# High freq. dielectric constant tensor:
#      x y z
#    x 1.799140 0.000000 0.000000 
#    y 0.000000 1.801150 0.000000 
#    z 0.000000 0.000000 1.753030 
# 
# From -- ./inp_files/2668.got.cif
#   From: 2010.06.25/outbox.cif.g09.slc.cpg/sg52_2_cif.got.tgz:2668.got - 2010.06.26 19:32:48.
