data_PCOD8216914
_publ_section_title
;
Structure prediction by ZEFSAII (Michael W. Deem and Ramdas Pophale) SiO2 
 PCOD8216914
Probable space group: P N N A
;
_chemical_formula_sum "Si O2"
_cell_formula_units_Z 24
_cell_length_a 9.022769
_cell_length_b 16.212037
_cell_length_c 5.246926
_cell_angle_alpha 90.000000
_cell_angle_beta 90.000000
_cell_angle_gamma 90.000000
_cell_volume 767.507034
_symmetry_space_group_name_H-M "P N N A"
_symmetry_group_IT_number 52
_symmetry_cell_setting 'orthorhombic'
loop_
_space_group_symop_operation_xyz
x,y,z
1/2-x,-y,z
x,1/2-y,1/2-z
1/2-x,1/2+y,1/2-z
-x,-y,-z
1/2+x,y,-z
-x,1/2+y,1/2+z
1/2+x,1/2-y,1/2+z
loop_
_atom_site_type_symbol
_atom_site_label
_atom_site_fract_x
_atom_site_fract_y
_atom_site_fract_z
Si Si1 0.479523 0.602747 0.032116
Si Si2 0.248556 0.857288 0.833584
Si Si3 0.250000 0.000000 0.210086
Si Si4 0.684077 0.250000 0.750000
O O1 0.655489 0.618157 0.074385
O O2 0.402438 0.514408 0.121116
O O3 0.412676 0.667698 0.238017
O O4 0.420579 0.630232 0.753321
O O5 0.198849 0.923550 0.042672
O O6 0.226707 0.766741 0.978108
#
# Coordination Sequence:
#
# PCOD8216914 Si02
#       4
#     8   8   4   4
#     4  11  25  45  75 109 151 199 254 315 376 452
#     4  11  25  48  76 110 153 201 255 313 381 454
#     4  10  24  46  70 114 150 204 252 312 374 454
#     4  10  26  46  70 106 152 200 252 308 378 456
#
# _framework density 31.270071000000002
#
# number of rings (size 3 to 8) (size 9 to 14) (size 15 to 20)
#    0.000    1.333    0.000    3.000    4.667   16.000 
#    0.000    0.000    0.000    2.000    0.000    0.000 
#    0.000    0.000    0.000    0.000    0.000    0.000 
#
# Total GULP energy -297518.798734 kJ/mol
# GULP energy per Si atom -12396.616614 kJ/mol
# Density = 3.119890 g / cm^3
# Si number density = 31.270071 Si / 1000 Ang^3
#
#
#
# Elastic Constant Matrix: (Units=GPa)
#
#
# Indices 1 2 3 4 5 6 
#
# 1 157.8482 21.9963 58.5077 0.0000 0.0000 0.0000
# 2 21.9963 68.4455 14.2981 0.0000 0.0000 0.0000
# 3 58.5077 14.2981 174.1959 0.0000 0.0000 0.0000
# 4 0.0000 0.0000 0.0000 41.3742 0.0000 0.0000
# 5 0.0000 0.0000 0.0000 0.0000 52.8230 0.0000
# 6 0.0000 0.0000 0.0000 0.0000 0.0000 20.7909
#
#
#
# Elastic Compliance Matrix: (Units=1/GPa)
#
#
# Indices 1 2 3 4 5 6 
#
# 1 0.007474 -0.001910 -0.002353 0.000000 0.000000 0.000000
# 2 -0.001910 0.015353 -0.000619 0.000000 0.000000 0.000000
# 3 -0.002353 -0.000619 0.006582 0.000000 0.000000 0.000000
# 4 0.000000 0.000000 0.000000 0.024170 0.000000 0.000000
# 5 0.000000 0.000000 0.000000 0.000000 0.018931 0.000000
# 6 0.000000 0.000000 0.000000 0.000000 0.000000 0.048098
#
#
# Mechanical properties :
#
#
# Convention : Reuss Voigt Hill
#
# Bulk Modulus (GPa) = 50.90515 65.56598 58.23556
# Shear Modulus (GPa) = 36.51762 43.37680 39.94721
#
# Velocity S-wave (km/s) = 3.42104 3.72851 3.57808
# Velocity P-wave (km/s) = 5.64971 6.28879 5.97779
#
# Compressibility (1/GPa) = 0.01964438
#
# Stress axis : x y z
#
# Youngs Moduli (GPa) = 133.80249 65.13275 151.93195
#
# Poissons Ratio (x) = 0.12442 0.35756
# Poissons Ratio (y) = 0.25559 0.09399
# Poissons Ratio (z) = 0.31489 0.04029
#
# Static dielectric constant tensor:
#      x y z
#    x 5.397630 0.000000 0.000000 
#    y 0.000000 6.660260 0.000000 
#    z 0.000000 0.000000 5.743440 
# 
# 
# High freq. dielectric constant tensor:
#      x y z
#    x 2.265020 0.000000 0.000000 
#    y 0.000000 2.335370 0.000000 
#    z 0.000000 0.000000 2.316510 
# 
# From -- ./inp_files/834.got.cif
#   From: 2010.06.25/outbox.cif.g09.slc.cpg/sg52_1_cif.got.tgz:834.got - 2010.06.26 19:32:48.
