data_PCOD8216180
_publ_section_title
;
Structure prediction by ZEFSAII (Michael W. Deem and Ramdas Pophale) SiO2 
 PCOD8216180
Probable space group: P N N A
;
_chemical_formula_sum "Si O2"
_cell_formula_units_Z 32
_cell_length_a 4.880662
_cell_length_b 8.393786
_cell_length_c 34.679145
_cell_angle_alpha 90.000000
_cell_angle_beta 90.000000
_cell_angle_gamma 90.000000
_cell_volume 1420.708591
_symmetry_space_group_name_H-M "P N N A"
_symmetry_group_IT_number 52
_symmetry_cell_setting 'orthorhombic'
loop_
_space_group_symop_operation_xyz
x,y,z
1/2-x,-y,z
x,1/2-y,1/2-z
1/2-x,1/2+y,1/2-z
-x,-y,-z
1/2+x,y,-z
-x,1/2+y,1/2+z
1/2+x,1/2-y,1/2+z
loop_
_atom_site_type_symbol
_atom_site_label
_atom_site_fract_x
_atom_site_fract_y
_atom_site_fract_z
Si Si1 0.256559 0.311966 0.159973
Si Si2 0.998136 0.604608 0.407879
Si Si3 0.749611 0.682542 0.025319
Si Si4 0.752950 0.186513 0.291563
O O1 0.250000 0.500000 0.150642
O O2 0.355167 0.220754 0.122298
O O3 0.452446 0.260989 0.195324
O O4 0.959796 0.255319 0.174728
O O5 0.250000 0.500000 0.424942
O O6 0.750000 0.500000 0.389287
O O7 0.843961 0.704316 0.440574
O O8 0.750000 0.500000 0.039779
O O9 0.439653 0.716430 0.012002
O O10 0.837097 0.250000 0.250000
O O11 0.750000 0.000000 0.288109
#
# Coordination Sequence:
#
# PCOD8216180 Si02
#       4
#     8   8   8   8
#     4  10  23  42  62  87 125 172 215 252 307 385
#     4  12  26  41  64  99 132 165 208 265 324 366
#     4  10  23  43  67  93 124 168 214 253 307 382
#     4  10  21  38  62  90 120 162 211 261 314 370
#
# _framework density 22.523973000000002
#
# number of rings (size 3 to 8) (size 9 to 14) (size 15 to 20)
#    0.000    1.500    0.000    3.750    0.000   14.000 
#    0.000    0.000    0.000    0.000    0.000    0.000 
#    0.000    0.000    0.000    0.000    0.000    0.000 
#
# Total GULP energy -396636.280471 kJ/mol
# GULP energy per Si atom -12394.883765 kJ/mol
# Density = 2.247271 g / cm^3
# Si number density = 22.523973 Si / 1000 Ang^3
#
#
#
# Elastic Constant Matrix: (Units=GPa)
#
#
# Indices 1 2 3 4 5 6 
#
# 1 120.8427 54.1473 21.4519 0.0000 0.0000 0.0000
# 2 54.1473 85.8234 58.4553 0.0000 0.0000 0.0000
# 3 21.4519 58.4553 98.9504 0.0000 0.0000 0.0000
# 4 0.0000 0.0000 0.0000 13.3102 0.0000 0.0000
# 5 0.0000 0.0000 0.0000 0.0000 -57.8743 0.0000
# 6 0.0000 0.0000 0.0000 0.0000 0.0000 40.1711
#
#
#
# Elastic Compliance Matrix: (Units=1/GPa)
#
#
# Indices 1 2 3 4 5 6 
#
# 1 0.012098 -0.009783 0.003156 0.000000 0.000000 0.000000
# 2 -0.009783 0.027407 -0.014070 0.000000 0.000000 0.000000
# 3 0.003156 -0.014070 0.017734 0.000000 0.000000 0.000000
# 4 0.000000 0.000000 0.000000 0.075130 0.000000 0.000000
# 5 0.000000 0.000000 0.000000 0.000000 -0.017279 0.000000
# 6 0.000000 0.000000 0.000000 0.000000 0.000000 0.024894
#
#
# Mechanical properties :
#
#
# Convention : Reuss Voigt Hill
#
# Bulk Modulus (GPa) = 63.10628 63.74728 63.42678
# Shear Modulus (GPa) = 26.78666 10.55888 18.67277
#
# Velocity S-wave (km/s) = 3.45229 2.16749 2.88239
# Velocity P-wave (km/s) = 6.63094 5.88451 6.26884
#
# Compressibility (1/GPa) = 0.01584628
#
# Stress axis : x y z
#
# Youngs Moduli (GPa) = 82.65511 36.48642 56.38961
#
# Poissons Ratio (x) = 0.35695 -0.17799
# Poissons Ratio (y) = 0.80862 0.79341
# Poissons Ratio (z) = -0.26090 0.51337
#
# Static dielectric constant tensor:
#      x y z
#    x 6.252240 0.000000 0.000000 
#    y 0.000000 4.124190 0.000000 
#    z 0.000000 0.000000 3.117480 
# 
# 
# High freq. dielectric constant tensor:
#      x y z
#    x 1.915840 0.000000 0.000000 
#    y 0.000000 1.887500 0.000000 
#    z 0.000000 0.000000 1.874120 
# 
# From -- ./inp_files/43572.got.cif
#   From: 2010.06.25/outbox.cif.g09.slc.cpg/sg52_22_cif.got.tgz:43572.got - 2010.06.26 19:32:48.
