data_PCOD8216755
_publ_section_title
;
Structure prediction by ZEFSAII (Michael W. Deem and Ramdas Pophale) SiO2 
 PCOD8216755
Probable space group: P N N A
;
_chemical_formula_sum "Si O2"
_cell_formula_units_Z 40
_cell_length_a 9.296489
_cell_length_b 19.078674
_cell_length_c 11.011935
_cell_angle_alpha 90.000000
_cell_angle_beta 90.000000
_cell_angle_gamma 90.000000
_cell_volume 1953.128360
_symmetry_space_group_name_H-M "P N N A"
_symmetry_group_IT_number 52
_symmetry_cell_setting 'orthorhombic'
loop_
_space_group_symop_operation_xyz
x,y,z
1/2-x,-y,z
x,1/2-y,1/2-z
1/2-x,1/2+y,1/2-z
-x,-y,-z
1/2+x,y,-z
-x,1/2+y,1/2+z
1/2+x,1/2-y,1/2+z
loop_
_atom_site_type_symbol
_atom_site_label
_atom_site_fract_x
_atom_site_fract_y
_atom_site_fract_z
Si Si1 0.380855 0.949246 0.114796
Si Si2 0.869481 0.681406 0.166932
Si Si3 0.612722 0.047472 0.160254
Si Si4 0.380959 0.273170 0.003777
Si Si5 0.878688 0.795427 0.861891
O O1 0.353007 0.875323 0.180355
O O2 0.250000 0.000000 0.102382
O O3 0.490640 0.992243 0.199107
O O4 0.428208 0.928208 0.976995
O O5 0.881221 0.750000 0.250000
O O6 0.871534 0.613461 0.251861
O O7 0.010243 0.676146 0.079171
O O8 0.717660 0.683472 0.092668
O O9 0.750000 0.000000 0.165213
O O10 0.272336 0.231851 0.089185
O O11 0.484099 0.212680 0.949833
O O12 0.927974 0.750000 0.750000
#
# Coordination Sequence:
#
# PCOD8216755 Si02
#       5
#     8   8   8   8   8
#     4  10  24  38  62  97 126 155 213 267 322 383
#     4  11  23  42  69  92 134 170 216 263 319 377
#     4  10  23  41  65  92 125 165 206 269 329 368
#     4  10  24  40  64  97 125 166 221 254 310 387
#     4  11  24  39  67  90 127 165 211 260 316 377
#
# _framework density 20.479965
#
# number of rings (size 3 to 8) (size 9 to 14) (size 15 to 20)
#    0.000    1.600    0.000    3.600   19.600    0.000 
#    0.000    1.000    0.000    0.000    0.000    0.000 
#    0.000    0.000    0.000    0.000    0.000    0.000 
#
# Total GULP energy -495593.655427 kJ/mol
# GULP energy per Si atom -12389.841386 kJ/mol
# Density = 2.043335 g / cm^3
# Si number density = 20.479965 Si / 1000 Ang^3
#
#
#
# Elastic Constant Matrix: (Units=GPa)
#
#
# Indices 1 2 3 4 5 6 
#
# 1 124.6433 32.3840 31.2696 0.0000 0.0000 0.0000
# 2 32.3840 159.1866 51.6045 0.0000 0.0000 0.0000
# 3 31.2696 51.6045 68.0746 0.0000 0.0000 0.0000
# 4 0.0000 0.0000 0.0000 43.4010 0.0000 0.0000
# 5 0.0000 0.0000 0.0000 0.0000 35.1925 0.0000
# 6 0.0000 0.0000 0.0000 0.0000 0.0000 27.0883
#
#
#
# Elastic Compliance Matrix: (Units=1/GPa)
#
#
# Indices 1 2 3 4 5 6 
#
# 1 0.009120 -0.000659 -0.003689 0.000000 0.000000 0.000000
# 2 -0.000659 0.008376 -0.006047 0.000000 0.000000 0.000000
# 3 -0.003689 -0.006047 0.020968 0.000000 0.000000 0.000000
# 4 0.000000 0.000000 0.000000 0.023041 0.000000 0.000000
# 5 0.000000 0.000000 0.000000 0.000000 0.028415 0.000000
# 6 0.000000 0.000000 0.000000 0.000000 0.000000 0.036916
#
#
# Mechanical properties :
#
#
# Convention : Reuss Voigt Hill
#
# Bulk Modulus (GPa) = 56.58222 64.71342 60.64782
# Shear Modulus (GPa) = 32.56927 36.91278 34.74103
#
# Velocity S-wave (km/s) = 3.99218 4.25006 4.12314
# Velocity P-wave (km/s) = 6.99558 7.46666 7.23495
#
# Compressibility (1/GPa) = 0.01767340
#
# Stress axis : x y z
#
# Youngs Moduli (GPa) = 109.65237 119.38415 47.69092
#
# Poissons Ratio (x) = 0.07871 0.17595
# Poissons Ratio (y) = 0.07229 0.28838
# Poissons Ratio (z) = 0.40454 0.72191
#
# Static dielectric constant tensor:
#      x y z
#    x 3.994400 0.000000 0.000000 
#    y 0.000000 4.418870 0.000000 
#    z 0.000000 0.000000 3.779060 
# 
# 
# High freq. dielectric constant tensor:
#      x y z
#    x 1.826570 0.000000 0.000000 
#    y 0.000000 1.794670 0.000000 
#    z 0.000000 0.000000 1.779890 
# 
# From -- ./inp_files/16632.got.cif
#   From: 2010.06.25/outbox.cif.g09.slc.cpg/sg52_9_cif.got.tgz:16632.got - 2010.06.26 19:32:48.
