data_PCOD8216077
_publ_section_title
;
Structure prediction by ZEFSAII (Michael W. Deem and Ramdas Pophale) SiO2 
 PCOD8216077
Probable space group: P N N A
;
_chemical_formula_sum "Si O2"
_cell_formula_units_Z 36
_cell_length_a 7.393166
_cell_length_b 14.061263
_cell_length_c 18.452011
_cell_angle_alpha 90.000000
_cell_angle_beta 90.000000
_cell_angle_gamma 90.000000
_cell_volume 1918.220349
_symmetry_space_group_name_H-M "P N N A"
_symmetry_group_IT_number 52
_symmetry_cell_setting 'orthorhombic'
loop_
_space_group_symop_operation_xyz
x,y,z
1/2-x,-y,z
x,1/2-y,1/2-z
1/2-x,1/2+y,1/2-z
-x,-y,-z
1/2+x,y,-z
-x,1/2+y,1/2+z
1/2+x,1/2-y,1/2+z
loop_
_atom_site_type_symbol
_atom_site_label
_atom_site_fract_x
_atom_site_fract_y
_atom_site_fract_z
Si Si1 0.458025 0.007418 0.354523
Si Si2 0.016114 0.306532 0.085909
Si Si3 0.281190 0.797438 0.825839
Si Si4 0.250000 0.500000 0.732868
Si Si5 0.069595 0.792998 0.421507
O O1 0.571244 0.006883 0.281226
O O2 0.500855 0.102184 0.400017
O O3 0.250000 0.000000 0.331046
O O4 0.513757 0.919414 0.405360
O O5 0.222911 0.277591 0.100311
O O6 0.899772 0.252004 0.145401
O O7 0.950330 0.277102 0.006773
O O8 0.336029 0.750000 0.750000
O O9 0.240606 0.908731 0.818712
O O10 0.448924 0.784664 0.880408
#
# Coordination Sequence:
#
# PCOD8216077 Si02
#       5
#     8   8   8   4   8
#     4  10  21  35  62 100 129 158 200 264 318 376
#     4  11  22  39  65  96 130 164 209 258 320 372
#     4  12  24  42  66  92 129 170 209 262 312 384
#     4  12  24  42  62  94 130 164 212 256 322 366
#     4  11  22  39  65  96 130 164 209 258 320 372
#
# _framework density 18.767393999999999
#
# number of rings (size 3 to 8) (size 9 to 14) (size 15 to 20)
#    0.000    0.889    6.667    0.667    0.000    2.667 
#    0.000    1.111    0.000    0.000    0.000    0.000 
#    0.000    0.000    0.000    0.000    0.000    0.000 
#
# Total GULP energy -446650.830876 kJ/mol
# GULP energy per Si atom -12406.967524 kJ/mol
# Density = 1.872468 g / cm^3
# Si number density = 18.767394 Si / 1000 Ang^3
#
#
#
# Elastic Constant Matrix: (Units=GPa)
#
#
# Indices 1 2 3 4 5 6 
#
# 1 80.9659 6.2463 17.3307 0.0000 0.0000 0.0000
# 2 6.2463 68.1591 12.2314 0.0000 0.0000 0.0000
# 3 17.3307 12.2314 76.4956 0.0000 0.0000 0.0000
# 4 0.0000 0.0000 0.0000 33.8190 0.0000 0.0000
# 5 0.0000 0.0000 0.0000 0.0000 23.1099 0.0000
# 6 0.0000 0.0000 0.0000 0.0000 0.0000 22.3437
#
#
#
# Elastic Compliance Matrix: (Units=1/GPa)
#
#
# Indices 1 2 3 4 5 6 
#
# 1 0.013011 -0.000683 -0.002839 0.000000 0.000000 0.000000
# 2 -0.000683 0.015141 -0.002266 0.000000 0.000000 0.000000
# 3 -0.002839 -0.002266 0.014078 0.000000 0.000000 0.000000
# 4 0.000000 0.000000 0.000000 0.029569 0.000000 0.000000
# 5 0.000000 0.000000 0.000000 0.000000 0.043271 0.000000
# 6 0.000000 0.000000 0.000000 0.000000 0.000000 0.044755
#
#
# Mechanical properties :
#
#
# Convention : Reuss Voigt Hill
#
# Bulk Modulus (GPa) = 32.62162 33.02638 32.82400
# Shear Modulus (GPa) = 27.53002 28.50866 28.01934
#
# Velocity S-wave (km/s) = 3.83418 3.90173 3.86810
# Velocity P-wave (km/s) = 6.08449 6.15905 6.12189
#
# Compressibility (1/GPa) = 0.03065451
#
# Stress axis : x y z
#
# Youngs Moduli (GPa) = 76.85703 66.04655 71.03223
#
# Poissons Ratio (x) = 0.04511 0.20163
# Poissons Ratio (y) = 0.05249 0.16098
# Poissons Ratio (z) = 0.21817 0.14968
#
# Static dielectric constant tensor:
#      x y z
#    x 3.604010 0.000000 0.000000 
#    y 0.000000 3.448830 0.000000 
#    z 0.000000 0.000000 3.332580 
# 
# 
# High freq. dielectric constant tensor:
#      x y z
#    x 1.747550 0.000000 0.000000 
#    y 0.000000 1.715370 0.000000 
#    z 0.000000 0.000000 1.724510 
# 
# From -- ./inp_files/24331.got.cif
#   From: 2010.06.25/outbox.cif.g09.slc.cpg/sg52_13_cif.got.tgz:24331.got - 2010.06.26 19:32:48.
