data_PCOD8216504
_publ_section_title
;
Structure prediction by ZEFSAII (Michael W. Deem and Ramdas Pophale) SiO2 
 PCOD8216504
Probable space group: P N N A
;
_chemical_formula_sum "Si O2"
_cell_formula_units_Z 64
_cell_length_a 14.876404
_cell_length_b 17.656672
_cell_length_c 12.060082
_cell_angle_alpha 90.000000
_cell_angle_beta 90.000000
_cell_angle_gamma 90.000000
_cell_volume 3167.795038
_symmetry_space_group_name_H-M "P N N A"
_symmetry_group_IT_number 52
_symmetry_cell_setting 'orthorhombic'
loop_
_space_group_symop_operation_xyz
x,y,z
1/2-x,-y,z
x,1/2-y,1/2-z
1/2-x,1/2+y,1/2-z
-x,-y,-z
1/2+x,y,-z
-x,1/2+y,1/2+z
1/2+x,1/2-y,1/2+z
loop_
_atom_site_type_symbol
_atom_site_label
_atom_site_fract_x
_atom_site_fract_y
_atom_site_fract_z
Si Si1 0.329012 0.639435 0.038529
Si Si2 0.929117 0.908259 0.924808
Si Si3 0.018952 0.251631 0.118685
Si Si4 0.854970 0.989278 0.378222
Si Si5 0.039839 0.456865 0.663699
Si Si6 0.125323 0.645256 0.984007
Si Si7 0.411602 0.337831 0.233932
Si Si8 0.770838 0.586847 0.727600
O O1 0.394760 0.709934 0.059505
O O2 0.315034 0.592933 0.151587
O O3 0.379389 0.583594 0.952924
O O4 0.231856 0.665670 0.989819
O O5 0.991184 0.833566 0.927967
O O6 0.836081 0.883369 0.868525
O O7 0.911247 0.940206 0.047448
O O8 0.972820 0.972558 0.847796
O O9 0.034372 0.250000 0.250000
O O10 0.925112 0.292076 0.089613
O O11 0.885482 0.977796 0.252819
O O12 0.750000 0.000000 0.378070
O O13 0.898158 0.064546 0.429769
O O14 0.987620 0.382312 0.700541
O O15 0.082910 0.640972 0.105515
O O16 0.429976 0.250000 0.250000
O O17 0.315432 0.359868 0.284344
O O18 0.750000 0.500000 0.704292
#
# Coordination Sequence:
#
# PCOD8216504 Si02
#       8
#     8   8   8   8   8   8   8   8
#     4  10  22  39  65  98 131 160 214 278 328 387
#     4  11  25  41  58  92 128 167 216 262 315 395
#     4  12  23  40  65  97 133 172 220 268 327 397
#     4  10  22  42  65  93 127 168 219 267 328 391
#     4  11  24  44  61  87 130 170 215 263 317 396
#     4  10  23  39  64  98 128 167 214 276 332 383
#     4  11  23  39  67  96 129 165 213 270 335 387
#     4  11  21  39  64  94 126 165 210 268 322 381
#
# _framework density 20.203327000000002
#
# number of rings (size 3 to 8) (size 9 to 14) (size 15 to 20)
#    0.000    1.250    2.500    4.125    3.500    1.500 
#    0.000    2.500    0.000    0.000    0.000    0.000 
#    0.000    0.000    0.000    0.000    0.000    0.000 
#
# Total GULP energy -793892.649894 kJ/mol
# GULP energy per Si atom -12404.572655 kJ/mol
# Density = 2.015734 g / cm^3
# Si number density = 20.203327 Si / 1000 Ang^3
#
#
#
# Elastic Constant Matrix: (Units=GPa)
#
#
# Indices 1 2 3 4 5 6 
#
# 1 56.5578 36.7352 29.5458 0.0000 0.0000 0.0000
# 2 36.7352 142.2516 34.7583 0.0000 0.0000 0.0000
# 3 29.5458 34.7583 102.2971 0.0000 0.0000 0.0000
# 4 0.0000 0.0000 0.0000 21.3278 0.0000 0.0000
# 5 0.0000 0.0000 0.0000 0.0000 34.3494 0.0000
# 6 0.0000 0.0000 0.0000 0.0000 0.0000 29.2115
#
#
#
# Elastic Compliance Matrix: (Units=1/GPa)
#
#
# Indices 1 2 3 4 5 6 
#
# 1 0.023496 -0.004809 -0.005152 0.000000 0.000000 0.000000
# 2 -0.004809 0.008650 -0.001550 0.000000 0.000000 0.000000
# 3 -0.005152 -0.001550 0.011790 0.000000 0.000000 0.000000
# 4 0.000000 0.000000 0.000000 0.046887 0.000000 0.000000
# 5 0.000000 0.000000 0.000000 0.000000 0.029113 0.000000
# 6 0.000000 0.000000 0.000000 0.000000 0.000000 0.034233
#
#
# Mechanical properties :
#
#
# Convention : Reuss Voigt Hill
#
# Bulk Modulus (GPa) = 47.81486 55.90944 51.86215
# Shear Modulus (GPa) = 27.14981 30.31557 28.73269
#
# Velocity S-wave (km/s) = 3.66980 3.87786 3.77527
# Velocity P-wave (km/s) = 6.45560 6.91259 6.68800
#
# Compressibility (1/GPa) = 0.02091400
#
# Stress axis : x y z
#
# Youngs Moduli (GPa) = 42.56063 115.60137 84.81534
#
# Poissons Ratio (x) = 0.55589 0.43699
# Poissons Ratio (y) = 0.20466 0.13149
# Poissons Ratio (z) = 0.21928 0.17922
#
# Static dielectric constant tensor:
#      x y z
#    x 3.613880 0.000000 0.000000 
#    y 0.000000 3.835310 0.000000 
#    z 0.000000 0.000000 3.729100 
# 
# 
# High freq. dielectric constant tensor:
#      x y z
#    x 1.783430 0.000000 0.000000 
#    y 0.000000 1.798130 0.000000 
#    z 0.000000 0.000000 1.793780 
# 
# From -- ./inp_files/19856.got.cif
#   From: 2010.06.25/outbox.cif.g09.slc.cpg/sg52_10_cif.got.tgz:19856.got - 2010.06.26 19:32:48.
