data_PCOD8216492
_publ_section_title
;
Structure prediction by ZEFSAII (Michael W. Deem and Ramdas Pophale) SiO2 
 PCOD8216492
Probable space group: P N N A
;
_chemical_formula_sum "Si O2"
_cell_formula_units_Z 48
_cell_length_a 15.369540
_cell_length_b 9.152109
_cell_length_c 15.693752
_cell_angle_alpha 90.000000
_cell_angle_beta 90.000000
_cell_angle_gamma 90.000000
_cell_volume 2207.541307
_symmetry_space_group_name_H-M "P N N A"
_symmetry_group_IT_number 52
_symmetry_cell_setting 'orthorhombic'
loop_
_space_group_symop_operation_xyz
x,y,z
1/2-x,-y,z
x,1/2-y,1/2-z
1/2-x,1/2+y,1/2-z
-x,-y,-z
1/2+x,y,-z
-x,1/2+y,1/2+z
1/2+x,1/2-y,1/2+z
loop_
_atom_site_type_symbol
_atom_site_label
_atom_site_fract_x
_atom_site_fract_y
_atom_site_fract_z
Si Si1 0.829196 0.188834 0.844600
Si Si2 0.644576 0.129935 0.099523
Si Si3 0.855424 0.629935 0.599522
Si Si4 0.170804 0.688834 0.655400
Si Si5 0.496466 0.159541 0.597261
Si Si6 0.496466 0.340459 0.097261
O O1 0.827754 0.250000 0.750000
O O2 0.735796 0.214482 0.888567
O O3 0.899927 0.277628 0.897882
O O4 0.854573 0.018038 0.845413
O O5 0.735796 0.214482 0.111433
O O6 0.567139 0.229727 0.138010
O O7 0.645427 0.981962 0.154587
O O8 0.630713 0.090401 0.000000
O O9 0.932861 0.729727 0.638010
O O10 0.172246 0.750000 0.750000
O O11 0.100073 0.777628 0.602118
O O12 0.525529 0.140808 0.500000
O O13 0.500000 0.000000 0.642227
#
# Coordination Sequence:
#
# PCOD8216492 Si02
#       6
#     8   8   8   8   8   8
#     4  11  23  37  60  91 122 157 200 256 312 362
#     4  10  22  43  67  87 119 169 215 249 297 373
#     4  10  22  43  67  87 119 169 215 249 297 373
#     4  11  23  37  60  91 122 157 200 256 312 362
#     4  10  22  39  61  89 120 159 205 250 298 362
#     4  10  22  39  61  89 120 159 205 250 298 362
#
# _framework density 21.743648
#
# number of rings (size 3 to 8) (size 9 to 14) (size 15 to 20)
#    0.000    1.667    0.000    5.000    0.000   13.333 
#    0.000    5.000    0.000    0.000    0.000    0.000 
#    0.000    0.000    0.000    0.000    0.000    0.000 
#
# Total GULP energy -595251.872700 kJ/mol
# GULP energy per Si atom -12401.080681 kJ/mol
# Density = 2.169416 g / cm^3
# Si number density = 21.743648 Si / 1000 Ang^3
#
#
#
# Elastic Constant Matrix: (Units=GPa)
#
#
# Indices 1 2 3 4 5 6 
#
# 1 129.5531 75.2999 10.9408 0.0000 0.0000 0.0000
# 2 75.2999 147.2035 39.9799 0.0000 0.0000 0.0000
# 3 10.9408 39.9799 67.8744 0.0000 0.0000 0.0000
# 4 0.0000 0.0000 0.0000 48.5526 0.0000 0.0000
# 5 0.0000 0.0000 0.0000 0.0000 29.6431 0.0000
# 6 0.0000 0.0000 0.0000 0.0000 0.0000 33.2977
#
#
#
# Elastic Compliance Matrix: (Units=1/GPa)
#
#
# Indices 1 2 3 4 5 6 
#
# 1 0.011180 -0.006225 0.001865 0.000000 0.000000 0.000000
# 2 -0.006225 0.011554 -0.005802 0.000000 0.000000 0.000000
# 3 0.001865 -0.005802 0.017850 0.000000 0.000000 0.000000
# 4 0.000000 0.000000 0.000000 0.020596 0.000000 0.000000
# 5 0.000000 0.000000 0.000000 0.000000 0.033735 0.000000
# 6 0.000000 0.000000 0.000000 0.000000 0.000000 0.030032
#
#
# Mechanical properties :
#
#
# Convention : Reuss Voigt Hill
#
# Bulk Modulus (GPa) = 49.36219 66.34134 57.85177
# Shear Modulus (GPa) = 32.88961 36.85937 34.87449
#
# Velocity S-wave (km/s) = 3.89345 4.12172 4.00921
# Velocity P-wave (km/s) = 6.55462 7.29578 6.93511
#
# Compressibility (1/GPa) = 0.02025842
#
# Stress axis : x y z
#
# Youngs Moduli (GPa) = 89.44818 86.55365 56.02254
#
# Poissons Ratio (x) = 0.53882 -0.10447
# Poissons Ratio (y) = 0.55684 0.32504
# Poissons Ratio (z) = -0.16680 0.50217
#
# Static dielectric constant tensor:
#      x y z
#    x 4.194230 0.000000 0.000000 
#    y 0.000000 4.147280 0.000000 
#    z 0.000000 0.000000 3.562580 
# 
# 
# High freq. dielectric constant tensor:
#      x y z
#    x 1.870160 0.000000 0.000000 
#    y 0.000000 1.860200 0.000000 
#    z 0.000000 0.000000 1.830490 
# 
# From -- ./inp_files/33023.got.cif
#   From: 2010.06.25/outbox.cif.g09.slc.cpg/sg52_17_cif.got.tgz:33023.got - 2010.06.26 19:32:48.
