data_PCOD8216162
_publ_section_title
;
Structure prediction by ZEFSAII (Michael W. Deem and Ramdas Pophale) SiO2 
 PCOD8216162
Probable space group: P N N A
;
_chemical_formula_sum "Si O2"
_cell_formula_units_Z 44
_cell_length_a 16.542864
_cell_length_b 5.218559
_cell_length_c 25.245619
_cell_angle_alpha 90.000000
_cell_angle_beta 90.000000
_cell_angle_gamma 90.000000
_cell_volume 2179.452062
_symmetry_space_group_name_H-M "P N N A"
_symmetry_group_IT_number 52
_symmetry_cell_setting 'orthorhombic'
loop_
_space_group_symop_operation_xyz
x,y,z
1/2-x,-y,z
x,1/2-y,1/2-z
1/2-x,1/2+y,1/2-z
-x,-y,-z
1/2+x,y,-z
-x,1/2+y,1/2+z
1/2+x,1/2-y,1/2+z
loop_
_atom_site_type_symbol
_atom_site_label
_atom_site_fract_x
_atom_site_fract_y
_atom_site_fract_z
Si Si1 0.300721 0.248215 0.023880
Si Si2 0.046321 0.250000 0.250000
Si Si3 0.800238 0.252008 0.400483
Si Si4 0.066206 0.756413 0.391707
Si Si5 0.476064 0.222789 0.860072
Si Si6 0.172833 0.873700 0.301220
O O1 0.250000 0.500000 0.037773
O O2 0.386741 0.264114 0.052973
O O3 0.250000 0.000000 0.042196
O O4 0.322263 0.232208 0.962205
O O5 0.101395 0.463528 0.224016
O O6 0.990157 0.153188 0.201812
O O7 0.750000 0.500000 0.382449
O O8 0.881526 0.234139 0.366836
O O9 0.750000 0.000000 0.386908
O O10 0.131348 0.691731 0.344930
O O11 0.002524 0.525185 0.394227
O O12 0.024223 0.029032 0.381052
O O13 0.215376 0.750000 0.250000
O O14 0.250000 0.000000 0.330945
#
# Coordination Sequence:
#
# PCOD8216162 Si02
#       6
#     8   4   8   8   8   8
#     4  10  21  38  59  85 121 155 190 237 282 338
#     4  10  22  38  52  82 118 154 192 238 288 322
#     4  10  22  42  64  86 111 147 192 242 304 356
#     4  11  23  36  57  89 118 156 194 233 283 336
#     4  11  23  39  61  84 118 152 191 245 290 346
#     4  11  20  33  53  78 116 161 196 225 264 336
#
# _framework density 20.188561
#
# number of rings (size 3 to 8) (size 9 to 14) (size 15 to 20)
#    0.000    1.455    2.727    2.727    0.000    3.636 
#    0.000    0.909    0.000    0.000    0.000    0.000 
#    0.000    0.000    0.000    0.000    0.000    0.000 
#
# Total GULP energy -545472.958447 kJ/mol
# GULP energy per Si atom -12397.112692 kJ/mol
# Density = 2.014261 g / cm^3
# Si number density = 20.188561 Si / 1000 Ang^3
#
#
#
# Elastic Constant Matrix: (Units=GPa)
#
#
# Indices 1 2 3 4 5 6 
#
# 1 137.9833 44.4779 57.7324 0.0000 0.0000 0.0000
# 2 44.4779 130.5441 23.6383 0.0000 0.0000 0.0000
# 3 57.7324 23.6383 62.0923 0.0000 0.0000 0.0000
# 4 0.0000 0.0000 0.0000 -128.8607 0.0000 0.0000
# 5 0.0000 0.0000 0.0000 0.0000 39.3437 0.0000
# 6 0.0000 0.0000 0.0000 0.0000 0.0000 31.6890
#
#
#
# Elastic Compliance Matrix: (Units=1/GPa)
#
#
# Indices 1 2 3 4 5 6 
#
# 1 0.012478 -0.002310 -0.010723 0.000000 0.000000 0.000000
# 2 -0.002310 0.008655 -0.001147 0.000000 0.000000 0.000000
# 3 -0.010723 -0.001147 0.026512 0.000000 0.000000 0.000000
# 4 0.000000 0.000000 0.000000 -0.007760 0.000000 0.000000
# 5 0.000000 0.000000 0.000000 0.000000 0.025417 0.000000
# 6 0.000000 0.000000 0.000000 0.000000 0.000000 0.031557
#
#
# Mechanical properties :
#
#
# Convention : Reuss Voigt Hill
#
# Bulk Modulus (GPa) = 51.85324 64.70189 58.27756
# Shear Modulus (GPa) = 37.98056 2.08578 20.03317
#
# Velocity S-wave (km/s) = 4.34209 1.01754 3.15350
# Velocity P-wave (km/s) = 7.13292 5.78782 6.49528
#
# Compressibility (1/GPa) = 0.01928520
#
# Stress axis : x y z
#
# Youngs Moduli (GPa) = 80.13968 115.54037 37.71931
#
# Poissons Ratio (x) = 0.26688 0.40445
# Poissons Ratio (y) = 0.18511 0.04327
# Poissons Ratio (z) = 0.85931 0.13255
#
# Static dielectric constant tensor:
#      x y z
#    x 3.609200 0.000000 0.000000 
#    y 0.000000 3.646550 0.000000 
#    z 0.000000 0.000000 3.913760 
# 
# 
# High freq. dielectric constant tensor:
#      x y z
#    x 1.785120 0.000000 0.000000 
#    y 0.000000 1.795950 0.000000 
#    z 0.000000 0.000000 1.782190 
# 
# From -- ./inp_files/42945.got.cif
#   From: 2010.06.25/outbox.cif.g09.slc.cpg/sg52_22_cif.got.tgz:42945.got - 2010.06.26 19:32:48.
