data_PCOD8216109
_publ_section_title
;
Structure prediction by ZEFSAII (Michael W. Deem and Ramdas Pophale) SiO2 
 PCOD8216109
Probable space group: P N N A
;
_chemical_formula_sum "Si O2"
_cell_formula_units_Z 48
_cell_length_a 22.987813
_cell_length_b 7.677127
_cell_length_c 13.877235
_cell_angle_alpha 90.000000
_cell_angle_beta 90.000000
_cell_angle_gamma 90.000000
_cell_volume 2449.059427
_symmetry_space_group_name_H-M "P N N A"
_symmetry_group_IT_number 52
_symmetry_cell_setting 'orthorhombic'
loop_
_space_group_symop_operation_xyz
x,y,z
1/2-x,-y,z
x,1/2-y,1/2-z
1/2-x,1/2+y,1/2-z
-x,-y,-z
1/2+x,y,-z
-x,1/2+y,1/2+z
1/2+x,1/2-y,1/2+z
loop_
_atom_site_type_symbol
_atom_site_label
_atom_site_fract_x
_atom_site_fract_y
_atom_site_fract_z
Si Si1 0.314646 0.560293 0.790151
Si Si2 0.420297 0.785377 0.140947
Si Si3 0.966698 0.142640 0.840761
Si Si4 0.461160 0.193322 0.543610
Si Si5 0.115974 0.359991 0.959472
Si Si6 0.411634 0.996097 0.850792
O O1 0.250000 0.500000 0.768097
O O2 0.321434 0.750000 0.750000
O O3 0.328183 0.555845 0.905137
O O4 0.364104 0.453834 0.731259
O O5 0.403203 0.750000 0.250000
O O6 0.482171 0.703238 0.110671
O O7 0.420672 0.994209 0.127487
O O8 0.372390 0.691248 0.071385
O O9 0.941622 0.250000 0.750000
O O10 0.025272 0.043665 0.803875
O O11 0.978153 0.263235 0.933260
O O12 0.414159 0.335078 0.580415
O O13 0.436870 0.997679 0.548304
O O14 0.102147 0.177759 0.909210
#
# Coordination Sequence:
#
# PCOD8216109 Si02
#       6
#     8   8   8   8   8   8
#     4  10  24  40  62  86 118 154 201 253 303 345
#     4  11  22  33  51  84 118 155 197 231 280 351
#     4  11  20  35  54  81 120 160 196 236 285 358
#     4  11  22  33  57  79 120 160 198 228 288 365
#     4  11  21  37  55  81 115 155 194 245 292 341
#     4  10  21  37  53  82 117 152 192 246 287 347
#
# _framework density 19.599360999999998
#
# number of rings (size 3 to 8) (size 9 to 14) (size 15 to 20)
#    0.000    1.333    3.333    4.000    9.333    0.000 
#    0.000    0.000    0.000    0.000    0.000    8.167 
#    0.000    0.000    0.000    0.000    0.000    0.000 
#
# Total GULP energy -594724.690580 kJ/mol
# GULP energy per Si atom -12390.097720 kJ/mol
# Density = 1.955475 g / cm^3
# Si number density = 19.599361 Si / 1000 Ang^3
#
#
#
# Elastic Constant Matrix: (Units=GPa)
#
#
# Indices 1 2 3 4 5 6 
#
# 1 60.7948 12.1265 46.1900 0.0000 0.0000 0.0000
# 2 12.1265 82.1897 38.0955 0.0000 0.0000 0.0000
# 3 46.1900 38.0955 155.8614 0.0000 0.0000 0.0000
# 4 0.0000 0.0000 0.0000 36.7507 0.0000 0.0000
# 5 0.0000 0.0000 0.0000 0.0000 19.2896 0.0000
# 6 0.0000 0.0000 0.0000 0.0000 0.0000 17.6280
#
#
#
# Elastic Compliance Matrix: (Units=1/GPa)
#
#
# Indices 1 2 3 4 5 6 
#
# 1 0.021233 -0.000244 -0.006233 0.000000 0.000000 0.000000
# 2 -0.000244 0.013724 -0.003282 0.000000 0.000000 0.000000
# 3 -0.006233 -0.003282 0.009065 0.000000 0.000000 0.000000
# 4 0.000000 0.000000 0.000000 0.027210 0.000000 0.000000
# 5 0.000000 0.000000 0.000000 0.000000 0.051841 0.000000
# 6 0.000000 0.000000 0.000000 0.000000 0.000000 0.056728
#
#
# Mechanical properties :
#
#
# Convention : Reuss Voigt Hill
#
# Bulk Modulus (GPa) = 40.80838 54.62998 47.71918
# Shear Modulus (GPa) = 24.09778 28.22927 26.16353
#
# Velocity S-wave (km/s) = 3.51025 3.79927 3.65762
# Velocity P-wave (km/s) = 6.10702 6.86875 6.49905
#
# Compressibility (1/GPa) = 0.02450477
#
# Stress axis : x y z
#
# Youngs Moduli (GPa) = 47.09670 72.86358 110.31059
#
# Poissons Ratio (x) = 0.01776 0.68755
# Poissons Ratio (y) = 0.01148 0.36206
# Poissons Ratio (z) = 0.29355 0.23915
#
# Static dielectric constant tensor:
#      x y z
#    x 2.888330 0.000000 0.000000 
#    y 0.000000 3.879600 0.000000 
#    z 0.000000 0.000000 3.950780 
# 
# 
# High freq. dielectric constant tensor:
#      x y z
#    x 1.687450 0.000000 0.000000 
#    y 0.000000 1.788240 0.000000 
#    z 0.000000 0.000000 1.771890 
# 
# From -- ./inp_files/28629.got.cif
#   From: 2010.06.25/outbox.cif.g09.slc.cpg/sg52_15_cif.got.tgz:28629.got - 2010.06.26 19:32:48.
