data_PCOD8216770
_publ_section_title
;
Structure prediction by ZEFSAII (Michael W. Deem and Ramdas Pophale) SiO2 
 PCOD8216770
Probable space group: P N N A
;
_chemical_formula_sum "Si O2"
_cell_formula_units_Z 48
_cell_length_a 11.309382
_cell_length_b 13.176741
_cell_length_c 15.160347
_cell_angle_alpha 90.000000
_cell_angle_beta 90.000000
_cell_angle_gamma 90.000000
_cell_volume 2259.207000
_symmetry_space_group_name_H-M "P N N A"
_symmetry_group_IT_number 52
_symmetry_cell_setting 'orthorhombic'
loop_
_space_group_symop_operation_xyz
x,y,z
1/2-x,-y,z
x,1/2-y,1/2-z
1/2-x,1/2+y,1/2-z
-x,-y,-z
1/2+x,y,-z
-x,1/2+y,1/2+z
1/2+x,1/2-y,1/2+z
loop_
_atom_site_type_symbol
_atom_site_label
_atom_site_fract_x
_atom_site_fract_y
_atom_site_fract_z
Si Si1 0.711758 0.369378 0.250000
Si Si2 0.572010 0.130275 0.423517
Si Si3 0.377696 0.526721 0.402362
Si Si4 0.122304 0.026721 0.402362
Si Si5 0.477721 0.370545 0.750000
Si Si6 0.427990 0.869725 0.923517
O O1 0.725024 0.250000 0.250000
O O2 0.642378 0.404702 0.163177
O O3 0.655996 0.582859 0.250000
O O4 0.642378 0.404702 0.336823
O O5 0.643370 0.091385 0.508709
O O6 0.552985 0.250000 0.427582
O O7 0.443030 0.079091 0.422776
O O8 0.250000 0.500000 0.361409
O O9 0.454024 0.593867 0.336289
O O10 0.356630 0.591385 0.491291
O O11 0.443030 0.420909 0.422776
O O12 0.045976 0.093867 0.336289
O O13 0.250000 0.000000 0.361409
O O14 0.472588 0.250000 0.750000
#
# Coordination Sequence:
#
# PCOD8216770 Si02
#       6
#     8   8   8   8   8   8
#     4   9  21  41  68  93 121 168 216 264 314 377
#     4  10  23  42  65  95 130 171 218 268 324 382
#     4  11  25  41  63  97 131 173 213 268 327 387
#     4  11  25  41  63  97 131 173 213 268 327 387
#     4  11  24  43  68  97 130 169 218 270 322 382
#     4  10  23  42  65  95 130 171 218 268 324 382
#
# _framework density 21.246393999999999
#
# number of rings (size 3 to 8) (size 9 to 14) (size 15 to 20)
#    0.000    1.667    0.000    2.500    9.333    4.000 
#    0.000    1.667    0.000    0.000    0.000    0.000 
#    0.000    0.000    0.000    0.000    0.000    0.000 
#
# Total GULP energy -595408.817445 kJ/mol
# GULP energy per Si atom -12404.350363 kJ/mol
# Density = 2.119804 g / cm^3
# Si number density = 21.246394 Si / 1000 Ang^3
#
#
#
# Elastic Constant Matrix: (Units=GPa)
#
#
# Indices 1 2 3 4 5 6 
#
# 1 147.5590 37.5086 55.3627 0.0000 0.0000 0.0000
# 2 37.5086 115.1304 43.4452 0.0000 0.0000 0.0000
# 3 55.3627 43.4452 168.4928 0.0000 0.0000 0.0000
# 4 0.0000 0.0000 0.0000 32.6018 0.0000 0.0000
# 5 0.0000 0.0000 0.0000 0.0000 16.6283 0.0000
# 6 0.0000 0.0000 0.0000 0.0000 0.0000 24.0938
#
#
#
# Elastic Compliance Matrix: (Units=1/GPa)
#
#
# Indices 1 2 3 4 5 6 
#
# 1 0.008053 -0.001800 -0.002182 0.000000 0.000000 0.000000
# 2 -0.001800 0.010024 -0.001993 0.000000 0.000000 0.000000
# 3 -0.002182 -0.001993 0.007166 0.000000 0.000000 0.000000
# 4 0.000000 0.000000 0.000000 0.030673 0.000000 0.000000
# 5 0.000000 0.000000 0.000000 0.000000 0.060138 0.000000
# 6 0.000000 0.000000 0.000000 0.000000 0.000000 0.041504
#
#
# Mechanical properties :
#
#
# Convention : Reuss Voigt Hill
#
# Bulk Modulus (GPa) = 75.22954 78.20169 76.71561
# Shear Modulus (GPa) = 28.74535 34.32251 31.53393
#
# Velocity S-wave (km/s) = 3.68224 4.02363 3.85671
# Velocity P-wave (km/s) = 7.31871 7.64677 7.48454
#
# Compressibility (1/GPa) = 0.01329265
#
# Stress axis : x y z
#
# Youngs Moduli (GPa) = 124.17421 99.75569 139.55113
#
# Poissons Ratio (x) = 0.17959 0.30448
# Poissons Ratio (y) = 0.22355 0.27816
# Poissons Ratio (z) = 0.27093 0.19884
#
# Static dielectric constant tensor:
#      x y z
#    x 3.816150 0.000000 0.000000 
#    y 0.000000 3.836120 0.000000 
#    z 0.000000 0.000000 3.979030 
# 
# 
# High freq. dielectric constant tensor:
#      x y z
#    x 1.832250 0.000000 0.000000 
#    y 0.000000 1.850650 0.000000 
#    z 0.000000 0.000000 1.845130 
# 
# From -- ./inp_files/32225.got.cif
#   From: 2010.06.25/outbox.cif.g09.slc.cpg/sg52_17_cif.got.tgz:32225.got - 2010.06.26 19:32:48.
