data_PCOD8216291
_publ_section_title
;
Structure prediction by ZEFSAII (Michael W. Deem and Ramdas Pophale) SiO2 
 PCOD8216291
Probable space group: P N N A
;
_chemical_formula_sum "Si O2"
_cell_formula_units_Z 40
_cell_length_a 9.041407
_cell_length_b 19.278311
_cell_length_c 11.793038
_cell_angle_alpha 90.000000
_cell_angle_beta 90.000000
_cell_angle_gamma 90.000000
_cell_volume 2055.562563
_symmetry_space_group_name_H-M "P N N A"
_symmetry_group_IT_number 52
_symmetry_cell_setting 'orthorhombic'
loop_
_space_group_symop_operation_xyz
x,y,z
1/2-x,-y,z
x,1/2-y,1/2-z
1/2-x,1/2+y,1/2-z
-x,-y,-z
1/2+x,y,-z
-x,1/2+y,1/2+z
1/2+x,1/2-y,1/2+z
loop_
_atom_site_type_symbol
_atom_site_label
_atom_site_fract_x
_atom_site_fract_y
_atom_site_fract_z
Si Si1 0.076481 0.509949 0.880283
Si Si2 0.065366 0.359691 0.202645
Si Si3 0.608730 0.275935 0.579870
Si Si4 0.158026 0.566398 0.259892
Si Si5 0.069619 0.705400 0.362648
O O1 0.250000 0.500000 0.889840
O O2 0.062212 0.586348 0.827035
O O3 0.993658 0.455361 0.800043
O O4 0.000000 0.500000 0.000000
O O5 0.061991 0.338788 0.336098
O O6 0.033630 0.294268 0.123604
O O7 0.225387 0.395285 0.175477
O O8 0.564404 0.289884 0.450800
O O9 0.783718 0.261841 0.583123
O O10 0.250000 0.500000 0.312317
O O11 0.101994 0.623441 0.349023
O O12 0.029294 0.750000 0.250000
#
# Coordination Sequence:
#
# PCOD8216291 Si02
#       5
#     8   8   8   8   8
#     4  11  23  36  59  88 122 159 209 259 310 366
#     4   9  19  41  60  85 123 163 202 251 319 361
#     4  10  21  40  64  86 126 164 201 261 312 373
#     4   9  19  40  62  84 121 165 202 256 311 368
#     4  11  22  41  63  94 126 164 213 258 320 377
#
# _framework density 19.459394
#
# number of rings (size 3 to 8) (size 9 to 14) (size 15 to 20)
#    0.000    2.000    4.000    1.800    2.800    3.200 
#    3.600   10.000    0.000    0.000    0.000    0.000 
#    0.000    0.000    0.000    0.000    0.000    0.000 
#
# Total GULP energy -495642.942456 kJ/mol
# GULP energy per Si atom -12391.073561 kJ/mol
# Density = 1.941510 g / cm^3
# Si number density = 19.459394 Si / 1000 Ang^3
#
#
#
# Elastic Constant Matrix: (Units=GPa)
#
#
# Indices 1 2 3 4 5 6 
#
# 1 118.4334 40.4743 51.6794 0.0000 0.0000 0.0000
# 2 40.4743 123.2709 46.2993 0.0000 0.0000 0.0000
# 3 51.6794 46.2993 102.8846 0.0000 0.0000 0.0000
# 4 0.0000 0.0000 0.0000 17.6150 0.0000 0.0000
# 5 0.0000 0.0000 0.0000 0.0000 37.2427 0.0000
# 6 0.0000 0.0000 0.0000 0.0000 0.0000 21.3335
#
#
#
# Elastic Compliance Matrix: (Units=1/GPa)
#
#
# Indices 1 2 3 4 5 6 
#
# 1 0.011163 -0.001876 -0.004763 0.000000 0.000000 0.000000
# 2 -0.001876 0.010078 -0.003593 0.000000 0.000000 0.000000
# 3 -0.004763 -0.003593 0.013729 0.000000 0.000000 0.000000
# 4 0.000000 0.000000 0.000000 0.056770 0.000000 0.000000
# 5 0.000000 0.000000 0.000000 0.000000 0.026851 0.000000
# 6 0.000000 0.000000 0.000000 0.000000 0.000000 0.046875
#
#
# Mechanical properties :
#
#
# Convention : Reuss Voigt Hill
#
# Bulk Modulus (GPa) = 68.93760 69.05499 68.99629
# Shear Modulus (GPa) = 26.21041 28.98063 27.59552
#
# Velocity S-wave (km/s) = 3.67403 3.86332 3.76986
# Velocity P-wave (km/s) = 7.31446 7.44742 7.38124
#
# Compressibility (1/GPa) = 0.01450587
#
# Stress axis : x y z
#
# Youngs Moduli (GPa) = 89.58056 99.22989 72.83982
#
# Poissons Ratio (x) = 0.18619 0.34693
# Poissons Ratio (y) = 0.16808 0.26168
# Poissons Ratio (z) = 0.42666 0.35649
#
# Static dielectric constant tensor:
#      x y z
#    x 3.558480 0.000000 0.000000 
#    y 0.000000 3.956810 0.000000 
#    z 0.000000 0.000000 3.167150 
# 
# 
# High freq. dielectric constant tensor:
#      x y z
#    x 1.750660 0.000000 0.000000 
#    y 0.000000 1.777990 0.000000 
#    z 0.000000 0.000000 1.729670 
# 
# From -- ./inp_files/16679.got.cif
#   From: 2010.06.25/outbox.cif.g09.slc.cpg/sg52_9_cif.got.tgz:16679.got - 2010.06.26 19:32:48.
