data_PCOD8216280
_publ_section_title
;
Structure prediction by ZEFSAII (Michael W. Deem and Ramdas Pophale) SiO2 
 PCOD8216280
Probable space group: P N N A
;
_chemical_formula_sum "Si O2"
_cell_formula_units_Z 40
_cell_length_a 20.185137
_cell_length_b 7.258700
_cell_length_c 12.746245
_cell_angle_alpha 90.000000
_cell_angle_beta 90.000000
_cell_angle_gamma 90.000000
_cell_volume 1867.552463
_symmetry_space_group_name_H-M "P N N A"
_symmetry_group_IT_number 52
_symmetry_cell_setting 'orthorhombic'
loop_
_space_group_symop_operation_xyz
x,y,z
1/2-x,-y,z
x,1/2-y,1/2-z
1/2-x,1/2+y,1/2-z
-x,-y,-z
1/2+x,y,-z
-x,1/2+y,1/2+z
1/2+x,1/2-y,1/2+z
loop_
_atom_site_type_symbol
_atom_site_label
_atom_site_fract_x
_atom_site_fract_y
_atom_site_fract_z
Si Si1 0.421107 0.371840 0.086142
Si Si2 0.569429 0.343433 0.081910
Si Si3 0.823074 0.250000 0.750000
Si Si4 0.322754 0.963505 0.728082
Si Si5 0.633988 0.536344 0.446793
Si Si6 0.250000 0.000000 0.093901
O O1 0.424160 0.573071 0.034240
O O2 0.371228 0.386538 0.184863
O O3 0.495328 0.341355 0.128356
O O4 0.399881 0.209619 0.004232
O O5 0.616742 0.484391 0.147011
O O6 0.583742 0.126834 0.078762
O O7 0.773369 0.336134 0.667191
O O8 0.325861 0.750000 0.750000
O O9 0.333744 0.091050 0.832906
O O10 0.250000 0.000000 0.678458
O O11 0.689530 0.441286 0.519751
#
# Coordination Sequence:
#
# PCOD8216280 Si02
#       6
#     8   8   4   8   8   4
#     4  10  23  42  61  89 122 163 204 244 306 357
#     4  10  23  40  63  92 122 158 202 251 302 366
#     4  10  24  38  64  86 126 160 206 258 288 364
#     4  10  22  36  62  93 122 155 199 250 307 360
#     4  10  21  40  63  87 122 157 198 256 303 357
#     4  10  22  40  60  88 118 162 210 248 304 358
#
# _framework density 21.418407999999999
#
# number of rings (size 3 to 8) (size 9 to 14) (size 15 to 20)
#    0.000    2.000    1.000    0.600    9.800    1.600 
#    0.000    0.000    0.000    0.000    0.000    0.000 
#    0.000    0.000    0.000    0.000    0.000    0.000 
#
# Total GULP energy -495544.621869 kJ/mol
# GULP energy per Si atom -12388.615547 kJ/mol
# Density = 2.136966 g / cm^3
# Si number density = 21.418408 Si / 1000 Ang^3
#
#
#
# Elastic Constant Matrix: (Units=GPa)
#
#
# Indices 1 2 3 4 5 6 
#
# 1 140.4564 6.5907 33.1935 0.0000 0.0000 0.0000
# 2 6.5907 20.5736 -0.6561 0.0000 0.0000 0.0000
# 3 33.1935 -0.6561 73.4361 0.0000 0.0000 0.0000
# 4 0.0000 0.0000 0.0000 26.0372 0.0000 0.0000
# 5 0.0000 0.0000 0.0000 0.0000 11.0669 0.0000
# 6 0.0000 0.0000 0.0000 0.0000 0.0000 30.3107
#
#
#
# Elastic Compliance Matrix: (Units=1/GPa)
#
#
# Indices 1 2 3 4 5 6 
#
# 1 0.008120 -0.002719 -0.003695 0.000000 0.000000 0.000000
# 2 -0.002719 0.049530 0.001672 0.000000 0.000000 0.000000
# 3 -0.003695 0.001672 0.015302 0.000000 0.000000 0.000000
# 4 0.000000 0.000000 0.000000 0.038407 0.000000 0.000000
# 5 0.000000 0.000000 0.000000 0.000000 0.090359 0.000000
# 6 0.000000 0.000000 0.000000 0.000000 0.000000 0.032992
#
#
# Mechanical properties :
#
#
# Convention : Reuss Voigt Hill
#
# Bulk Modulus (GPa) = 15.75589 34.74692 25.25140
# Shear Modulus (GPa) = 18.84292 26.50548 22.67420
#
# Velocity S-wave (km/s) = 2.96928 3.52164 3.25719
# Velocity P-wave (km/s) = 4.37352 5.72661 5.09518
#
# Compressibility (1/GPa) = 0.06346834
#
# Stress axis : x y z
#
# Youngs Moduli (GPa) = 123.14646 20.18964 65.34975
#
# Poissons Ratio (x) = 0.05490 0.24145
# Poissons Ratio (y) = 0.33486 -0.10924
# Poissons Ratio (z) = 0.45500 -0.03375
#
# Static dielectric constant tensor:
#      x y z
#    x 2.553790 0.000000 0.000000 
#    y 0.000000 3.525160 0.000000 
#    z 0.000000 0.000000 4.267200 
# 
# 
# High freq. dielectric constant tensor:
#      x y z
#    x 1.857390 0.000000 0.000000 
#    y 0.000000 1.821230 0.000000 
#    z 0.000000 0.000000 1.841510 
# 
# From -- ./inp_files/20359.got.cif
#   From: 2010.06.25/outbox.cif.g09.slc.cpg/sg52_11_cif.got.tgz:20359.got - 2010.06.26 19:32:48.
