data_PCOD8216556
_publ_section_title
;
Structure prediction by ZEFSAII (Michael W. Deem and Ramdas Pophale) SiO2 
 PCOD8216556
Probable space group: P N N A
;
_chemical_formula_sum "Si O2"
_cell_formula_units_Z 40
_cell_length_a 9.692704
_cell_length_b 11.885396
_cell_length_c 15.122981
_cell_angle_alpha 90.000000
_cell_angle_beta 90.000000
_cell_angle_gamma 90.000000
_cell_volume 1742.191991
_symmetry_space_group_name_H-M "P N N A"
_symmetry_group_IT_number 52
_symmetry_cell_setting 'orthorhombic'
loop_
_space_group_symop_operation_xyz
x,y,z
1/2-x,-y,z
x,1/2-y,1/2-z
1/2-x,1/2+y,1/2-z
-x,-y,-z
1/2+x,y,-z
-x,1/2+y,1/2+z
1/2+x,1/2-y,1/2+z
loop_
_atom_site_type_symbol
_atom_site_label
_atom_site_fract_x
_atom_site_fract_y
_atom_site_fract_z
Si Si1 0.568450 0.906707 0.793325
Si Si2 0.132726 0.812943 0.391142
Si Si3 0.113866 0.227756 0.491963
Si Si4 0.273609 0.622351 0.641888
Si Si5 0.023437 0.159170 0.180293
O O1 0.622846 0.887475 0.695449
O O2 0.639725 0.821405 0.864430
O O3 0.405550 0.877647 0.793409
O O4 0.599026 0.038003 0.812401
O O5 0.274789 0.849108 0.439870
O O6 0.002998 0.841074 0.455053
O O7 0.206771 0.296659 0.559750
O O8 0.037115 0.305821 0.421248
O O9 0.250000 0.500000 0.599520
O O10 0.140009 0.652808 0.700887
O O11 0.088384 0.250000 0.250000
#
# Coordination Sequence:
#
# PCOD8216556 Si02
#       5
#     8   8   8   8   8
#     4   9  22  41  64  91 130 167 205 261 331 376
#     4  10  22  40  67  93 127 165 208 267 325 374
#     4  11  22  38  63  96 125 160 212 270 313 374
#     4   9  20  37  63  91 118 161 210 267 315 365
#     4  11  24  39  63  93 126 169 217 260 311 391
#
# _framework density 22.959582999999999
#
# number of rings (size 3 to 8) (size 9 to 14) (size 15 to 20)
#    0.000    2.000    2.000    0.000   11.200    2.400 
#    0.000    1.000    4.400    0.000    0.000    0.000 
#    0.000    0.000    0.000    0.000    0.000    0.000 
#
# Total GULP energy -495858.725269 kJ/mol
# GULP energy per Si atom -12396.468132 kJ/mol
# Density = 2.290733 g / cm^3
# Si number density = 22.959583 Si / 1000 Ang^3
#
#
#
# Elastic Constant Matrix: (Units=GPa)
#
#
# Indices 1 2 3 4 5 6 
#
# 1 67.6350 -10.7736 26.1859 0.0000 0.0000 0.0000
# 2 -10.7736 37.7565 7.0839 0.0000 0.0000 0.0000
# 3 26.1859 7.0839 101.7140 0.0000 0.0000 0.0000
# 4 0.0000 0.0000 0.0000 25.9050 0.0000 0.0000
# 5 0.0000 0.0000 0.0000 0.0000 -5.9265 0.0000
# 6 0.0000 0.0000 0.0000 0.0000 0.0000 16.9521
#
#
#
# Elastic Compliance Matrix: (Units=1/GPa)
#
#
# Indices 1 2 3 4 5 6 
#
# 1 0.017657 0.005969 -0.004961 0.000000 0.000000 0.000000
# 2 0.005969 0.028854 -0.003546 0.000000 0.000000 0.000000
# 3 -0.004961 -0.003546 0.011356 0.000000 0.000000 0.000000
# 4 0.000000 0.000000 0.000000 0.038603 0.000000 0.000000
# 5 0.000000 0.000000 0.000000 0.000000 -0.168734 0.000000
# 6 0.000000 0.000000 0.000000 0.000000 0.000000 0.058990
#
#
# Mechanical properties :
#
#
# Convention : Reuss Voigt Hill
#
# Bulk Modulus (GPa) = 18.94307 28.01090 23.47699
# Shear Modulus (GPa) = 531.96544 19.69341 275.82943
#
# Velocity S-wave (km/s) = 15.23809 2.93190 10.97259
# Velocity P-wave (km/s) = 17.82885 4.86703 13.06820
#
# Compressibility (1/GPa) = 0.05278974
#
# Stress axis : x y z
#
# Youngs Moduli (GPa) = 56.63484 34.65707 88.06091
#
# Poissons Ratio (x) = -0.20687 0.43691
# Poissons Ratio (y) = -0.33806 0.31229
# Poissons Ratio (z) = 0.28099 0.12290
#
# Static dielectric constant tensor:
#      x y z
#    x 4.392110 0.000000 0.000000 
#    y 0.000000 3.801780 0.000000 
#    z 0.000000 0.000000 3.909310 
# 
# 
# High freq. dielectric constant tensor:
#      x y z
#    x 1.931760 0.000000 0.000000 
#    y 0.000000 1.871790 0.000000 
#    z 0.000000 0.000000 1.902010 
# 
# From -- ./inp_files/25840.got.cif
#   From: 2010.06.25/outbox.cif.g09.slc.cpg/sg52_13_cif.got.tgz:25840.got - 2010.06.26 19:32:48.
