data_PCOD8216386
_publ_section_title
;
Structure prediction by ZEFSAII (Michael W. Deem and Ramdas Pophale) SiO2 
 PCOD8216386
Probable space group: P N N A
;
_chemical_formula_sum "Si O2"
_cell_formula_units_Z 56
_cell_length_a 13.875219
_cell_length_b 13.004777
_cell_length_c 15.014453
_cell_angle_alpha 90.000000
_cell_angle_beta 90.000000
_cell_angle_gamma 90.000000
_cell_volume 2709.269893
_symmetry_space_group_name_H-M "P N N A"
_symmetry_group_IT_number 52
_symmetry_cell_setting 'orthorhombic'
loop_
_space_group_symop_operation_xyz
x,y,z
1/2-x,-y,z
x,1/2-y,1/2-z
1/2-x,1/2+y,1/2-z
-x,-y,-z
1/2+x,y,-z
-x,1/2+y,1/2+z
1/2+x,1/2-y,1/2+z
loop_
_atom_site_type_symbol
_atom_site_label
_atom_site_fract_x
_atom_site_fract_y
_atom_site_fract_z
Si Si1 0.068268 0.029733 0.679245
Si Si2 0.388902 0.750000 0.250000
Si Si3 0.750000 0.500000 0.296834
Si Si4 0.213076 0.815493 0.928675
Si Si5 0.758679 0.379270 0.632217
Si Si6 0.477300 0.180752 0.603505
Si Si7 0.414723 0.727204 0.930369
Si Si8 0.533380 0.653212 0.692466
O O1 0.048338 0.126673 0.618019
O O2 0.988902 0.043918 0.758958
O O3 0.168323 0.037387 0.730309
O O4 0.062648 0.934972 0.610645
O O5 0.327624 0.679137 0.317506
O O6 0.464936 0.816673 0.304675
O O7 0.787211 0.407457 0.358128
O O8 0.112574 0.756640 0.913673
O O9 0.300934 0.737624 0.912188
O O10 0.232630 0.858128 0.027412
O O11 0.750000 0.500000 0.648447
O O12 0.854455 0.336781 0.676384
O O13 0.559395 0.206099 0.532363
O O14 0.470869 0.831507 0.898492
O O15 0.497957 0.750000 0.750000
#
# Coordination Sequence:
#
# PCOD8216386 Si02
#       8
#     8   4   4   8   8   8   8   8
#     4  11  24  41  69 101 135 176 236 281 349 418
#     4  12  26  46  66 104 142 172 230 296 348 400
#     4  12  24  44  68 104 134 182 240 282 350 416
#     4  12  25  43  68  99 138 183 230 287 351 411
#     4  12  24  43  70  99 135 182 229 279 347 417
#     4  12  25  44  69 101 138 182 230 296 350 411
#     4  11  23  44  68  97 139 181 228 288 346 420
#     4  10  21  42  69  95 133 182 223 277 342 418
#
# _framework density 20.669775000000001
#
# number of rings (size 3 to 8) (size 9 to 14) (size 15 to 20)
#    0.000    0.571    5.714    3.000    0.000    1.143 
#    0.000    2.857    0.000    0.000    0.000    0.000 
#    0.000    0.000    0.000    0.000    0.000    0.000 
#
# Total GULP energy -693842.980175 kJ/mol
# GULP energy per Si atom -12390.053217 kJ/mol
# Density = 2.062273 g / cm^3
# Si number density = 20.669775 Si / 1000 Ang^3
#
#
#
# Elastic Constant Matrix: (Units=GPa)
#
#
# Indices 1 2 3 4 5 6 
#
# 1 105.7853 12.0213 21.4297 0.0000 0.0000 0.0000
# 2 12.0213 86.9489 21.0840 0.0000 0.0000 0.0000
# 3 21.4297 21.0840 79.6673 0.0000 0.0000 0.0000
# 4 0.0000 0.0000 0.0000 23.2552 0.0000 0.0000
# 5 0.0000 0.0000 0.0000 0.0000 36.5313 0.0000
# 6 0.0000 0.0000 0.0000 0.0000 0.0000 30.3568
#
#
#
# Elastic Compliance Matrix: (Units=1/GPa)
#
#
# Indices 1 2 3 4 5 6 
#
# 1 0.010048 -0.000784 -0.002495 0.000000 0.000000 0.000000
# 2 -0.000784 0.012351 -0.003058 0.000000 0.000000 0.000000
# 3 -0.002495 -0.003058 0.014033 0.000000 0.000000 0.000000
# 4 0.000000 0.000000 0.000000 0.043001 0.000000 0.000000
# 5 0.000000 0.000000 0.000000 0.000000 0.027374 0.000000
# 6 0.000000 0.000000 0.000000 0.000000 0.000000 0.032942
#
#
# Mechanical properties :
#
#
# Convention : Reuss Voigt Hill
#
# Bulk Modulus (GPa) = 42.09276 42.38572 42.23924
# Shear Modulus (GPa) = 31.18358 32.55310 31.86834
#
# Velocity S-wave (km/s) = 3.88836 3.97282 3.93082
# Velocity P-wave (km/s) = 6.36928 6.44943 6.40948
#
# Compressibility (1/GPa) = 0.02375705
#
# Stress axis : x y z
#
# Youngs Moduli (GPa) = 99.52544 80.96585 71.26250
#
# Poissons Ratio (x) = 0.06349 0.17781
# Poissons Ratio (y) = 0.07804 0.21790
# Poissons Ratio (z) = 0.24834 0.24757
#
# Static dielectric constant tensor:
#      x y z
#    x 3.794050 0.000000 0.000000 
#    y 0.000000 3.761470 0.000000 
#    z 0.000000 0.000000 4.103870 
# 
# 
# High freq. dielectric constant tensor:
#      x y z
#    x 1.818690 0.000000 0.000000 
#    y 0.000000 1.805750 0.000000 
#    z 0.000000 0.000000 1.824120 
# 
# From -- ./inp_files/27312.got.cif
#   From: 2010.06.25/outbox.cif.g09.slc.cpg/sg52_14_cif.got.tgz:27312.got - 2010.06.26 19:32:48.
