data_PCOD8216693
_publ_section_title
;
Structure prediction by ZEFSAII (Michael W. Deem and Ramdas Pophale) SiO2 
 PCOD8216693
Probable space group: P N N A
;
_chemical_formula_sum "Si O2"
_cell_formula_units_Z 64
_cell_length_a 9.336696
_cell_length_b 28.014175
_cell_length_c 11.587612
_cell_angle_alpha 90.000000
_cell_angle_beta 90.000000
_cell_angle_gamma 90.000000
_cell_volume 3030.853890
_symmetry_space_group_name_H-M "P N N A"
_symmetry_group_IT_number 52
_symmetry_cell_setting 'orthorhombic'
loop_
_space_group_symop_operation_xyz
x,y,z
1/2-x,-y,z
x,1/2-y,1/2-z
1/2-x,1/2+y,1/2-z
-x,-y,-z
1/2+x,y,-z
-x,1/2+y,1/2+z
1/2+x,1/2-y,1/2+z
loop_
_atom_site_type_symbol
_atom_site_label
_atom_site_fract_x
_atom_site_fract_y
_atom_site_fract_z
Si Si1 0.066791 0.199159 0.297131
Si Si2 0.359963 0.462463 0.227175
Si Si3 0.601232 0.803708 0.740875
Si Si4 0.492491 0.887752 0.139864
Si Si5 0.503305 0.650236 0.979465
Si Si6 0.659068 0.616536 0.593364
Si Si7 0.753849 0.084151 0.496981
Si Si8 0.619292 0.973238 0.286720
O O1 0.012285 0.250000 0.250000
O O2 0.236448 0.195777 0.300562
O O3 0.990840 0.158590 0.220328
O O4 0.028970 0.192510 0.431100
O O5 0.250000 0.500000 0.284731
O O6 0.406177 0.424456 0.324467
O O7 0.273456 0.437715 0.123693
O O8 0.502262 0.487282 0.177479
O O9 0.542758 0.750000 0.750000
O O10 0.497255 0.829384 0.649683
O O11 0.600792 0.832298 0.861456
O O12 0.330693 0.889550 0.093153
O O13 0.536347 0.934059 0.212394
O O14 0.604175 0.886795 0.035946
O O15 0.661968 0.633690 0.012163
O O16 0.410115 0.601421 0.985172
O O17 0.803551 0.047154 0.400450
O O18 0.750000 0.000000 0.218121
#
# Coordination Sequence:
#
# PCOD8216693 Si02
#       8
#     8   8   8   8   8   8   8   8
#     4  10  22  44  70  97 133 175 215 269 336 395
#     4  12  23  44  67  95 132 178 224 267 338 395
#     4  10  23  44  70  99 135 174 217 269 336 396
#     4  11  25  45  66  94 132 175 225 273 326 394
#     4  12  21  41  72 100 135 173 212 273 334 392
#     4  11  25  45  68  93 131 178 221 275 327 391
#     4  12  23  41  68 100 137 169 218 275 335 390
#     4  12  26  41  65 101 132 174 223 275 331 394
#
# _framework density 21.116161000000002
#
# number of rings (size 3 to 8) (size 9 to 14) (size 15 to 20)
#    0.000    0.750    5.000    3.000    3.500    1.000 
#    0.000    0.625    0.000    0.000    0.000    0.000 
#    0.000    0.000    0.000    0.000    0.000    0.000 
#
# Total GULP energy -793541.066850 kJ/mol
# GULP energy per Si atom -12399.079170 kJ/mol
# Density = 2.106810 g / cm^3
# Si number density = 21.116161 Si / 1000 Ang^3
#
#
#
# Elastic Constant Matrix: (Units=GPa)
#
#
# Indices 1 2 3 4 5 6 
#
# 1 65.1487 41.0247 33.9589 0.0000 0.0000 0.0000
# 2 41.0247 121.5920 29.8166 0.0000 0.0000 0.0000
# 3 33.9589 29.8166 91.7437 0.0000 0.0000 0.0000
# 4 0.0000 0.0000 0.0000 25.2089 0.0000 0.0000
# 5 0.0000 0.0000 0.0000 0.0000 32.9496 0.0000
# 6 0.0000 0.0000 0.0000 0.0000 0.0000 28.4853
#
#
#
# Elastic Compliance Matrix: (Units=1/GPa)
#
#
# Indices 1 2 3 4 5 6 
#
# 1 0.022451 -0.006016 -0.006355 0.000000 0.000000 0.000000
# 2 -0.006016 0.010549 -0.001201 0.000000 0.000000 0.000000
# 3 -0.006355 -0.001201 0.013643 0.000000 0.000000 0.000000
# 4 0.000000 0.000000 0.000000 0.039669 0.000000 0.000000
# 5 0.000000 0.000000 0.000000 0.000000 0.030349 0.000000
# 6 0.000000 0.000000 0.000000 0.000000 0.000000 0.035106
#
#
# Mechanical properties :
#
#
# Convention : Reuss Voigt Hill
#
# Bulk Modulus (GPa) = 51.29041 54.23164 52.76102
# Shear Modulus (GPa) = 26.96733 28.90770 27.93752
#
# Velocity S-wave (km/s) = 3.57752 3.70399 3.64131
# Velocity P-wave (km/s) = 6.43485 6.63559 6.53599
#
# Compressibility (1/GPa) = 0.01949682
#
# Stress axis : x y z
#
# Youngs Moduli (GPa) = 44.54240 94.79799 73.29997
#
# Poissons Ratio (x) = 0.57035 0.46580
# Poissons Ratio (y) = 0.26799 0.08806
# Poissons Ratio (z) = 0.28305 0.11388
#
# Static dielectric constant tensor:
#      x y z
#    x 3.845560 0.000000 0.000000 
#    y 0.000000 4.197790 0.000000 
#    z 0.000000 0.000000 3.644910 
# 
# 
# High freq. dielectric constant tensor:
#      x y z
#    x 1.828780 0.000000 0.000000 
#    y 0.000000 1.839970 0.000000 
#    z 0.000000 0.000000 1.816920 
# 
# From -- ./inp_files/17236.got.cif
#   From: 2010.06.25/outbox.cif.g09.slc.cpg/sg52_9_cif.got.tgz:17236.got - 2010.06.26 19:32:48.
