data_PCOD8216655
_publ_section_title
;
Structure prediction by ZEFSAII (Michael W. Deem and Ramdas Pophale) SiO2 
 PCOD8216655
Probable space group: P N N A
;
_chemical_formula_sum "Si O2"
_cell_formula_units_Z 48
_cell_length_a 28.166858
_cell_length_b 8.568551
_cell_length_c 9.822611
_cell_angle_alpha 90.000000
_cell_angle_beta 90.000000
_cell_angle_gamma 90.000000
_cell_volume 2370.678907
_symmetry_space_group_name_H-M "P N N A"
_symmetry_group_IT_number 52
_symmetry_cell_setting 'orthorhombic'
loop_
_space_group_symop_operation_xyz
x,y,z
1/2-x,-y,z
x,1/2-y,1/2-z
1/2-x,1/2+y,1/2-z
-x,-y,-z
1/2+x,y,-z
-x,1/2+y,1/2+z
1/2+x,1/2-y,1/2+z
loop_
_atom_site_type_symbol
_atom_site_label
_atom_site_fract_x
_atom_site_fract_y
_atom_site_fract_z
Si Si1 0.551635 0.435511 0.007599
Si Si2 0.296534 0.896445 0.343702
Si Si3 0.890191 0.067868 0.727943
Si Si4 0.296384 0.602578 0.843907
Si Si5 0.052550 0.432651 0.474876
Si Si6 0.108569 0.067522 0.763030
O O1 0.586722 0.537383 0.917294
O O2 0.551721 0.253915 0.968632
O O3 0.500000 0.500000 0.000000
O O4 0.566507 0.472832 0.160967
O O5 0.285012 0.750000 0.250000
O O6 0.309713 0.848416 0.499750
O O7 0.250000 0.000000 0.345417
O O8 0.339218 0.986287 0.268456
O O9 0.882929 0.250000 0.750000
O O10 0.927052 0.997054 0.835307
O O11 0.250000 0.500000 0.844557
O O12 0.284908 0.750000 0.750000
O O13 0.339930 0.498137 0.780102
O O14 0.089927 0.488009 0.590509
O O15 0.000000 0.500000 0.500000
O O16 0.119277 0.250000 0.750000
#
# Coordination Sequence:
#
# PCOD8216655 Si02
#       6
#     8   8   8   8   8   8
#     4  11  21  39  66  91 128 168 213 270 326 386
#     4  11  24  44  69  98 132 168 214 269 330 394
#     4  12  25  42  62  94 131 175 221 269 321 385
#     4  10  22  43  66  96 128 165 210 257 320 386
#     4  11  23  41  64  96 129 170 217 266 330 390
#     4   9  20  39  62  89 122 165 205 258 320 380
#
# _framework density 20.247363
#
# number of rings (size 3 to 8) (size 9 to 14) (size 15 to 20)
#    0.000    1.333    1.667    4.000    4.667    2.000 
#    6.000    2.500    0.000    0.000    0.000    0.000 
#    0.000    0.000    0.000    0.000    0.000    0.000 
#
# Total GULP energy -595090.253596 kJ/mol
# GULP energy per Si atom -12397.713617 kJ/mol
# Density = 2.020128 g / cm^3
# Si number density = 20.247363 Si / 1000 Ang^3
#
#
#
# Elastic Constant Matrix: (Units=GPa)
#
#
# Indices 1 2 3 4 5 6 
#
# 1 128.6939 20.1058 29.5837 0.0000 0.0000 0.0000
# 2 20.1058 85.1957 38.0111 0.0000 0.0000 0.0000
# 3 29.5837 38.0111 94.3080 0.0000 0.0000 0.0000
# 4 0.0000 0.0000 0.0000 27.1102 0.0000 0.0000
# 5 0.0000 0.0000 0.0000 0.0000 39.4775 0.0000
# 6 0.0000 0.0000 0.0000 0.0000 0.0000 30.6787
#
#
#
# Elastic Compliance Matrix: (Units=1/GPa)
#
#
# Indices 1 2 3 4 5 6 
#
# 1 0.008442 -0.000989 -0.002250 0.000000 0.000000 0.000000
# 2 -0.000989 0.014427 -0.005505 0.000000 0.000000 0.000000
# 3 -0.002250 -0.005505 0.013528 0.000000 0.000000 0.000000
# 4 0.000000 0.000000 0.000000 0.036886 0.000000 0.000000
# 5 0.000000 0.000000 0.000000 0.000000 0.025331 0.000000
# 6 0.000000 0.000000 0.000000 0.000000 0.000000 0.032596
#
#
# Mechanical properties :
#
#
# Convention : Reuss Voigt Hill
#
# Bulk Modulus (GPa) = 52.87950 53.73317 53.30634
# Shear Modulus (GPa) = 32.25811 34.15310 33.20560
#
# Velocity S-wave (km/s) = 3.99582 4.11151 4.05408
# Velocity P-wave (km/s) = 6.88928 7.00966 6.94973
#
# Compressibility (1/GPa) = 0.01891092
#
# Stress axis : x y z
#
# Youngs Moduli (GPa) = 118.45569 69.31463 73.92079
#
# Poissons Ratio (x) = 0.06852 0.16630
# Poissons Ratio (y) = 0.11709 0.40691
# Poissons Ratio (z) = 0.26650 0.38156
#
# Static dielectric constant tensor:
#      x y z
#    x 3.863500 0.000000 0.000000 
#    y 0.000000 3.891300 0.000000 
#    z 0.000000 0.000000 4.131580 
# 
# 
# High freq. dielectric constant tensor:
#      x y z
#    x 1.817570 0.000000 0.000000 
#    y 0.000000 1.770810 0.000000 
#    z 0.000000 0.000000 1.807200 
# 
# From -- ./inp_files/15537.got.cif
#   From: 2010.06.25/outbox.cif.g09.slc.cpg/sg52_8_cif.got.tgz:15537.got - 2010.06.26 19:32:48.
