data_PCOD8216731
_publ_section_title
;
Structure prediction by ZEFSAII (Michael W. Deem and Ramdas Pophale) SiO2 
 PCOD8216731
Probable space group: P N N A
;
_chemical_formula_sum "Si O2"
_cell_formula_units_Z 64
_cell_length_a 12.042213
_cell_length_b 13.815721
_cell_length_c 18.858500
_cell_angle_alpha 90.000000
_cell_angle_beta 90.000000
_cell_angle_gamma 90.000000
_cell_volume 3137.523628
_symmetry_space_group_name_H-M "P N N A"
_symmetry_group_IT_number 52
_symmetry_cell_setting 'orthorhombic'
loop_
_space_group_symop_operation_xyz
x,y,z
1/2-x,-y,z
x,1/2-y,1/2-z
1/2-x,1/2+y,1/2-z
-x,-y,-z
1/2+x,y,-z
-x,1/2+y,1/2+z
1/2+x,1/2-y,1/2+z
loop_
_atom_site_type_symbol
_atom_site_label
_atom_site_fract_x
_atom_site_fract_y
_atom_site_fract_z
Si Si1 0.995289 0.345140 0.210408
Si Si2 0.772723 0.889963 0.504307
Si Si3 0.892993 0.241058 0.422348
Si Si4 0.716949 0.395434 0.387655
Si Si5 0.236743 0.390924 0.171825
Si Si6 0.367872 0.968283 0.737747
Si Si7 0.974368 0.186613 0.684963
Si Si8 0.946261 0.756773 0.041159
O O1 0.955737 0.250000 0.250000
O O2 0.947762 0.335593 0.131223
O O3 0.942112 0.436416 0.251399
O O4 0.128679 0.349167 0.210673
O O5 0.674833 0.823160 0.477106
O O6 0.777118 0.881733 0.588306
O O7 0.886820 0.846685 0.473054
O O8 0.750000 0.000000 0.479814
O O9 0.823553 0.324136 0.381234
O O10 0.985886 0.291054 0.472057
O O11 0.750000 0.500000 0.419192
O O12 0.659279 0.412062 0.311111
O O13 0.635953 0.345654 0.443908
O O14 0.250000 0.500000 0.196181
O O15 0.347146 0.339295 0.199777
O O16 0.438705 0.903022 0.683388
O O17 0.250000 0.000000 0.702382
O O18 0.017457 0.250000 0.750000
O O19 0.978465 0.242452 0.610703
#
# Coordination Sequence:
#
# PCOD8216731 Si02
#       8
#     8   8   8   8   8   8   8   8
#     4  12  25  42  67  95 130 174 217 280 332 392
#     4  10  23  38  61  96 136 168 210 265 328 402
#     4  11  24  42  67  97 132 174 224 272 337 396
#     4  10  23  46  65  94 131 171 229 283 329 397
#     4  11  22  42  64  93 133 173 213 266 330 398
#     4  11  25  41  65  97 133 170 221 275 338 396
#     4  12  24  41  65  95 133 178 218 268 334 401
#     4  11  23  40  67  95 130 178 222 269 337 399
#
# _framework density 20.398251999999999
#
# number of rings (size 3 to 8) (size 9 to 14) (size 15 to 20)
#    0.000    1.000    5.000    1.875    5.250    1.500 
#    0.000    0.000    0.000    1.500    0.000    0.000 
#    0.000    0.000    0.000    0.000    0.000    0.000 
#
# Total GULP energy -793447.706044 kJ/mol
# GULP energy per Si atom -12397.620407 kJ/mol
# Density = 2.035182 g / cm^3
# Si number density = 20.398252 Si / 1000 Ang^3
#
#
#
# Elastic Constant Matrix: (Units=GPa)
#
#
# Indices 1 2 3 4 5 6 
#
# 1 128.0543 39.0470 25.1775 0.0000 0.0000 0.0000
# 2 39.0470 111.4860 27.3334 0.0000 0.0000 0.0000
# 3 25.1775 27.3334 75.8200 0.0000 0.0000 0.0000
# 4 0.0000 0.0000 0.0000 30.3466 0.0000 0.0000
# 5 0.0000 0.0000 0.0000 0.0000 26.2122 0.0000
# 6 0.0000 0.0000 0.0000 0.0000 0.0000 34.8213
#
#
#
# Elastic Compliance Matrix: (Units=1/GPa)
#
#
# Indices 1 2 3 4 5 6 
#
# 1 0.009021 -0.002660 -0.002037 0.000000 0.000000 0.000000
# 2 -0.002660 0.010624 -0.002947 0.000000 0.000000 0.000000
# 3 -0.002037 -0.002947 0.014928 0.000000 0.000000 0.000000
# 4 0.000000 0.000000 0.000000 0.032953 0.000000 0.000000
# 5 0.000000 0.000000 0.000000 0.000000 0.038150 0.000000
# 6 0.000000 0.000000 0.000000 0.000000 0.000000 0.028718
#
#
# Mechanical properties :
#
#
# Convention : Reuss Voigt Hill
#
# Bulk Modulus (GPa) = 51.85174 55.38622 53.61898
# Shear Modulus (GPa) = 32.02908 33.19619 32.61263
#
# Velocity S-wave (km/s) = 3.96686 4.03849 4.00283
# Velocity P-wave (km/s) = 6.81588 6.99694 6.90700
#
# Compressibility (1/GPa) = 0.01928576
#
# Stress axis : x y z
#
# Youngs Moduli (GPa) = 110.85560 94.12781 66.98974
#
# Poissons Ratio (x) = 0.25039 0.13643
# Poissons Ratio (y) = 0.29489 0.19739
# Poissons Ratio (z) = 0.22576 0.27736
#
# Static dielectric constant tensor:
#      x y z
#    x 3.872680 0.000000 0.000000 
#    y 0.000000 3.722450 0.000000 
#    z 0.000000 0.000000 3.467630 
# 
# 
# High freq. dielectric constant tensor:
#      x y z
#    x 1.809440 0.000000 0.000000 
#    y 0.000000 1.797090 0.000000 
#    z 0.000000 0.000000 1.788320 
# 
# From -- ./inp_files/32403.got.cif
#   From: 2010.06.25/outbox.cif.g09.slc.cpg/sg52_17_cif.got.tgz:32403.got - 2010.06.26 19:32:48.
