data_PCOD8216236
_publ_section_title
;
Structure prediction by ZEFSAII (Michael W. Deem and Ramdas Pophale) SiO2 
 PCOD8216236
Probable space group: P N N A
;
_chemical_formula_sum "Si O2"
_cell_formula_units_Z 40
_cell_length_a 13.517090
_cell_length_b 13.721484
_cell_length_c 10.661053
_cell_angle_alpha 90.000000
_cell_angle_beta 90.000000
_cell_angle_gamma 90.000000
_cell_volume 1977.353839
_symmetry_space_group_name_H-M "P N N A"
_symmetry_group_IT_number 52
_symmetry_cell_setting 'orthorhombic'
loop_
_space_group_symop_operation_xyz
x,y,z
1/2-x,-y,z
x,1/2-y,1/2-z
1/2-x,1/2+y,1/2-z
-x,-y,-z
1/2+x,y,-z
-x,1/2+y,1/2+z
1/2+x,1/2-y,1/2+z
loop_
_atom_site_type_symbol
_atom_site_label
_atom_site_fract_x
_atom_site_fract_y
_atom_site_fract_z
Si Si1 0.997335 0.102521 0.433924
Si Si2 0.821513 0.227457 0.384597
Si Si3 0.601867 0.168356 0.342238
Si Si4 0.346237 0.431709 0.494269
Si Si5 0.501910 0.999407 0.803538
O O1 0.064957 0.177894 0.513615
O O2 0.887271 0.144992 0.448673
O O3 0.034781 0.088121 0.289908
O O4 0.000000 0.000000 0.500000
O O5 0.872265 0.250000 0.250000
O O6 0.718803 0.176823 0.350269
O O7 0.811686 0.321138 0.476866
O O8 0.556714 0.250000 0.250000
O O9 0.568345 0.067885 0.280784
O O10 0.250000 0.500000 0.504650
O O11 0.431994 0.458598 0.590177
O O12 0.399526 0.446193 0.358316
#
# Coordination Sequence:
#
# PCOD8216236 Si02
#       5
#     8   8   8   8   8
#     4  10  22  40  62  91 125 167 210 271 331 390
#     4  11  21  38  64  92 120 164 226 264 316 407
#     4  10  21  39  64  90 123 163 211 268 329 388
#     4  11  22  39  63  91 130 170 218 268 334 396
#     4  10  22  39  61  90 126 167 213 271 324 398
#
# _framework density 20.229056
#
# number of rings (size 3 to 8) (size 9 to 14) (size 15 to 20)
#    0.000    1.600    2.000    3.600    0.000    4.000 
#    7.200    0.000    0.000    0.000    0.000    0.000 
#    0.000    0.000    0.000    0.000    0.000    0.000 
#
# Total GULP energy -495581.489043 kJ/mol
# GULP energy per Si atom -12389.537226 kJ/mol
# Density = 2.018301 g / cm^3
# Si number density = 20.229056 Si / 1000 Ang^3
#
#
#
# Elastic Constant Matrix: (Units=GPa)
#
#
# Indices 1 2 3 4 5 6 
#
# 1 61.4400 43.1922 49.7445 0.0000 0.0000 0.0000
# 2 43.1922 95.6999 48.8660 0.0000 0.0000 0.0000
# 3 49.7445 48.8660 118.9180 0.0000 0.0000 0.0000
# 4 0.0000 0.0000 0.0000 45.8344 0.0000 0.0000
# 5 0.0000 0.0000 0.0000 0.0000 34.3181 0.0000
# 6 0.0000 0.0000 0.0000 0.0000 0.0000 33.9905
#
#
#
# Elastic Compliance Matrix: (Units=1/GPa)
#
#
# Indices 1 2 3 4 5 6 
#
# 1 0.029598 -0.008905 -0.008722 0.000000 0.000000 0.000000
# 2 -0.008905 0.015903 -0.002810 0.000000 0.000000 0.000000
# 3 -0.008722 -0.002810 0.013212 0.000000 0.000000 0.000000
# 4 0.000000 0.000000 0.000000 0.021818 0.000000 0.000000
# 5 0.000000 0.000000 0.000000 0.000000 0.029139 0.000000
# 6 0.000000 0.000000 0.000000 0.000000 0.000000 0.029420
#
#
# Mechanical properties :
#
#
# Convention : Reuss Voigt Hill
#
# Bulk Modulus (GPa) = 56.05418 62.18482 59.11950
# Shear Modulus (GPa) = 26.89476 31.77893 29.33685
#
# Velocity S-wave (km/s) = 3.65020 3.96783 3.81232
# Velocity P-wave (km/s) = 6.74798 7.19713 6.97617
#
# Compressibility (1/GPa) = 0.01783988
#
# Stress axis : x y z
#
# Youngs Moduli (GPa) = 33.78643 62.88052 75.68730
#
# Poissons Ratio (x) = 0.55994 0.66013
# Poissons Ratio (y) = 0.30086 0.21268
# Poissons Ratio (z) = 0.29468 0.17669
#
# Static dielectric constant tensor:
#      x y z
#    x 3.602980 0.000000 0.000000 
#    y 0.000000 3.979820 0.000000 
#    z 0.000000 0.000000 4.746730 
# 
# 
# High freq. dielectric constant tensor:
#      x y z
#    x 1.777000 0.000000 0.000000 
#    y 0.000000 1.789190 0.000000 
#    z 0.000000 0.000000 1.800870 
# 
# From -- ./inp_files/17979.got.cif
#   From: 2010.06.25/outbox.cif.g09.slc.cpg/sg52_9_cif.got.tgz:17979.got - 2010.06.26 19:32:48.
