data_PCOD8216467
_publ_section_title
;
Structure prediction by ZEFSAII (Michael W. Deem and Ramdas Pophale) SiO2 
 PCOD8216467
Probable space group: P N N A
;
_chemical_formula_sum "Si O2"
_cell_formula_units_Z 52
_cell_length_a 9.000978
_cell_length_b 20.071627
_cell_length_c 13.881588
_cell_angle_alpha 90.000000
_cell_angle_beta 90.000000
_cell_angle_gamma 90.000000
_cell_volume 2507.907005
_symmetry_space_group_name_H-M "P N N A"
_symmetry_group_IT_number 52
_symmetry_cell_setting 'orthorhombic'
loop_
_space_group_symop_operation_xyz
x,y,z
1/2-x,-y,z
x,1/2-y,1/2-z
1/2-x,1/2+y,1/2-z
-x,-y,-z
1/2+x,y,-z
-x,1/2+y,1/2+z
1/2+x,1/2-y,1/2+z
loop_
_atom_site_type_symbol
_atom_site_label
_atom_site_fract_x
_atom_site_fract_y
_atom_site_fract_z
Si Si1 0.643830 0.140651 0.119892
Si Si2 0.615025 0.409542 0.731411
Si Si3 0.551943 0.940774 0.746249
Si Si4 0.584157 0.836459 0.593410
Si Si5 0.973504 0.336739 0.431302
Si Si6 0.073902 0.310457 0.100662
Si Si7 0.935077 0.750000 0.250000
O O1 0.578508 0.075836 0.175989
O O2 0.803342 0.137732 0.069672
O O3 0.668533 0.194106 0.204567
O O4 0.523083 0.163973 0.041953
O O5 0.554734 0.480406 0.768121
O O6 0.791862 0.409925 0.718396
O O7 0.558976 0.394673 0.624713
O O8 0.547571 0.353791 0.803044
O O9 0.535874 0.906828 0.641379
O O10 0.512420 0.840534 0.489236
O O11 0.754614 0.818857 0.574100
O O12 0.535159 0.777399 0.663703
O O13 0.014603 0.265102 0.383851
#
# Coordination Sequence:
#
# PCOD8216467 Si02
#       7
#     8   8   8   8   8   8   4
#     4  11  24  39  64  90 128 159 208 252 314 363
#     4  10  23  41  66  89 127 163 216 253 305 371
#     4   9  22  45  63  90 120 174 208 255 310 363
#     4  10  22  38  64  87 128 159 206 251 311 361
#     4  12  24  38  63  95 125 163 204 260 308 374
#     4  11  23  37  62  96 125 163 202 257 309 370
#     4  10  22  38  60  88 124 160 192 258 304 366
#
# _framework density 20.734421999999999
#
# number of rings (size 3 to 8) (size 9 to 14) (size 15 to 20)
#    0.000    1.538    1.538    2.308    8.615    3.077 
#    0.000    0.000    0.000    0.000    0.000    0.000 
#    0.000    0.000    0.000    0.000    0.000    0.000 
#
# Total GULP energy -644347.555771 kJ/mol
# GULP energy per Si atom -12391.299149 kJ/mol
# Density = 2.068723 g / cm^3
# Si number density = 20.734422 Si / 1000 Ang^3
#
#
#
# Elastic Constant Matrix: (Units=GPa)
#
#
# Indices 1 2 3 4 5 6 
#
# 1 100.5729 13.8923 35.9019 0.0000 0.0000 0.0000
# 2 13.8923 85.2232 17.3351 0.0000 0.0000 0.0000
# 3 35.9019 17.3351 79.3642 0.0000 0.0000 0.0000
# 4 0.0000 0.0000 0.0000 19.1661 0.0000 0.0000
# 5 0.0000 0.0000 0.0000 0.0000 35.3386 0.0000
# 6 0.0000 0.0000 0.0000 0.0000 0.0000 22.4118
#
#
#
# Elastic Compliance Matrix: (Units=1/GPa)
#
#
# Indices 1 2 3 4 5 6 
#
# 1 0.011921 -0.000886 -0.005199 0.000000 0.000000 0.000000
# 2 -0.000886 0.012345 -0.002296 0.000000 0.000000 0.000000
# 3 -0.005199 -0.002296 0.015454 0.000000 0.000000 0.000000
# 4 0.000000 0.000000 0.000000 0.052176 0.000000 0.000000
# 5 0.000000 0.000000 0.000000 0.000000 0.028298 0.000000
# 6 0.000000 0.000000 0.000000 0.000000 0.000000 0.044619
#
#
# Mechanical properties :
#
#
# Convention : Reuss Voigt Hill
#
# Bulk Modulus (GPa) = 43.55705 44.37990 43.96848
# Shear Modulus (GPa) = 26.42318 28.58535 27.50426
#
# Velocity S-wave (km/s) = 3.57369 3.71704 3.64607
# Velocity P-wave (km/s) = 6.17099 6.31445 6.24313
#
# Compressibility (1/GPa) = 0.02295840
#
# Stress axis : x y z
#
# Youngs Moduli (GPa) = 83.88247 81.00265 64.70952
#
# Poissons Ratio (x) = 0.07175 0.33645
# Poissons Ratio (y) = 0.07430 0.14856
# Poissons Ratio (z) = 0.43614 0.18597
#
# Static dielectric constant tensor:
#      x y z
#    x 3.729680 0.000000 0.000000 
#    y 0.000000 3.765290 0.000000 
#    z 0.000000 0.000000 3.847650 
# 
# 
# High freq. dielectric constant tensor:
#      x y z
#    x 1.810710 0.000000 0.000000 
#    y 0.000000 1.804490 0.000000 
#    z 0.000000 0.000000 1.820960 
# 
# From -- ./inp_files/24891.got.cif
#   From: 2010.06.25/outbox.cif.g09.slc.cpg/sg52_13_cif.got.tgz:24891.got - 2010.06.26 19:32:48.
