data_PCOD8216885
_publ_section_title
;
Structure prediction by ZEFSAII (Michael W. Deem and Ramdas Pophale) SiO2 
 PCOD8216885
Probable space group: P N N A
;
_chemical_formula_sum "Si O2"
_cell_formula_units_Z 48
_cell_length_a 30.024117
_cell_length_b 8.824799
_cell_length_c 7.950660
_cell_angle_alpha 90.000000
_cell_angle_beta 90.000000
_cell_angle_gamma 90.000000
_cell_volume 2106.581413
_symmetry_space_group_name_H-M "P N N A"
_symmetry_group_IT_number 52
_symmetry_cell_setting 'orthorhombic'
loop_
_space_group_symop_operation_xyz
x,y,z
1/2-x,-y,z
x,1/2-y,1/2-z
1/2-x,1/2+y,1/2-z
-x,-y,-z
1/2+x,y,-z
-x,1/2+y,1/2+z
1/2+x,1/2-y,1/2+z
loop_
_atom_site_type_symbol
_atom_site_label
_atom_site_fract_x
_atom_site_fract_y
_atom_site_fract_z
Si Si1 0.785749 0.616016 0.499654
Si Si2 0.429812 0.712494 0.012254
Si Si3 0.145726 0.250000 0.250000
Si Si4 0.723422 0.638677 0.898764
Si Si5 0.076307 0.004341 0.802403
Si Si6 0.173279 0.582840 0.787025
Si Si7 0.007883 0.750000 0.750000
O O1 0.750000 0.500000 0.574124
O O2 0.824509 0.633020 0.640889
O O3 0.759668 0.775166 0.481361
O O4 0.803744 0.552307 0.320788
O O5 0.421313 0.890287 0.967927
O O6 0.434914 0.611518 0.851004
O O7 0.387390 0.658500 0.123665
O O8 0.476398 0.685863 0.104613
O O9 0.750000 0.500000 0.815195
O O10 0.705389 0.750000 0.750000
O O11 0.683678 0.567046 0.013287
O O12 0.121788 0.918449 0.760550
O O13 0.037956 0.881696 0.829299
O O14 0.192437 0.750000 0.750000
#
# Coordination Sequence:
#
# PCOD8216885 Si02
#       7
#     8   8   4   8   8   8   4
#     4  12  25  45  71 101 142 196 248 299 363 422
#     4  10  24  43  71 100 137 179 231 282 364 440
#     4  11  24  44  70 100 138 190 240 292 352 431
#     4  12  29  45  71 102 143 198 250 309 355 430
#     4  11  23  43  70 102 139 176 227 294 355 441
#     4  12  26  45  71 104 146 188 243 301 367 424
#     4  11  22  44  72 102 132 178 222 290 358 437
#
# _framework density 22.785731999999999
#
# number of rings (size 3 to 8) (size 9 to 14) (size 15 to 20)
#    0.000    0.667    5.000    2.000    2.333    0.000 
#    0.000    0.000    3.667    0.000    0.000    0.000 
#    0.000    0.000    0.000    0.000    0.000    0.000 
#
# Total GULP energy -594758.975323 kJ/mol
# GULP energy per Si atom -12390.811986 kJ/mol
# Density = 2.273387 g / cm^3
# Si number density = 22.785732 Si / 1000 Ang^3
#
#
#
# Elastic Constant Matrix: (Units=GPa)
#
#
# Indices 1 2 3 4 5 6 
#
# 1 134.1333 17.4515 35.9560 0.0000 0.0000 0.0000
# 2 17.4515 74.9172 12.5257 0.0000 0.0000 0.0000
# 3 35.9560 12.5257 109.9563 0.0000 0.0000 0.0000
# 4 0.0000 0.0000 0.0000 37.9398 0.0000 0.0000
# 5 0.0000 0.0000 0.0000 0.0000 28.1011 0.0000
# 6 0.0000 0.0000 0.0000 0.0000 0.0000 2.4882
#
#
#
# Elastic Compliance Matrix: (Units=1/GPa)
#
#
# Indices 1 2 3 4 5 6 
#
# 1 0.008337 -0.001515 -0.002554 0.000000 0.000000 0.000000
# 2 -0.001515 0.013883 -0.001086 0.000000 0.000000 0.000000
# 3 -0.002554 -0.001086 0.010053 0.000000 0.000000 0.000000
# 4 0.000000 0.000000 0.000000 0.026358 0.000000 0.000000
# 5 0.000000 0.000000 0.000000 0.000000 0.035586 0.000000
# 6 0.000000 0.000000 0.000000 0.000000 0.000000 0.401896
#
#
# Mechanical properties :
#
#
# Convention : Reuss Voigt Hill
#
# Bulk Modulus (GPa) = 45.53033 50.09702 47.81367
# Shear Modulus (GPa) = 9.73249 30.57739 20.15494
#
# Velocity S-wave (km/s) = 2.06896 3.66724 2.97735
# Velocity P-wave (km/s) = 5.07275 6.32182 5.73141
#
# Compressibility (1/GPa) = 0.02196338
#
# Stress axis : x y z
#
# Youngs Moduli (GPa) = 119.94854 72.03278 99.47021
#
# Poissons Ratio (x) = 0.10914 0.25401
# Poissons Ratio (y) = 0.18173 0.10802
# Poissons Ratio (z) = 0.30630 0.07823
#
# Static dielectric constant tensor:
#      x y z
#    x 4.192330 0.000000 0.000000 
#    y 0.000000 4.483370 0.000000 
#    z 0.000000 0.000000 4.116550 
# 
# 
# High freq. dielectric constant tensor:
#      x y z
#    x 1.896660 0.000000 0.000000 
#    y 0.000000 1.896360 0.000000 
#    z 0.000000 0.000000 1.911300 
# 
# From -- ./inp_files/15597.got.cif
#   From: 2010.06.25/outbox.cif.g09.slc.cpg/sg52_8_cif.got.tgz:15597.got - 2010.06.26 19:32:48.
