data_PCOD8216102
_publ_section_title
;
Structure prediction by ZEFSAII (Michael W. Deem and Ramdas Pophale) SiO2 
 PCOD8216102
Probable space group: P N N A
;
_chemical_formula_sum "Si O2"
_cell_formula_units_Z 48
_cell_length_a 18.797125
_cell_length_b 8.252580
_cell_length_c 15.694358
_cell_angle_alpha 90.000000
_cell_angle_beta 90.000000
_cell_angle_gamma 90.000000
_cell_volume 2434.583798
_symmetry_space_group_name_H-M "P N N A"
_symmetry_group_IT_number 52
_symmetry_cell_setting 'orthorhombic'
loop_
_space_group_symop_operation_xyz
x,y,z
1/2-x,-y,z
x,1/2-y,1/2-z
1/2-x,1/2+y,1/2-z
-x,-y,-z
1/2+x,y,-z
-x,1/2+y,1/2+z
1/2+x,1/2-y,1/2+z
loop_
_atom_site_type_symbol
_atom_site_label
_atom_site_fract_x
_atom_site_fract_y
_atom_site_fract_z
Si Si1 0.314721 0.373871 0.076359
Si Si2 0.965576 0.937083 0.084665
Si Si3 0.974967 0.075728 0.586620
Si Si4 0.680457 0.922661 0.818937
Si Si5 0.175392 0.947423 0.990206
Si Si6 0.958984 0.933854 0.756056
O O1 0.250000 0.500000 0.062239
O O2 0.390497 0.457921 0.084993
O O3 0.304050 0.269703 0.164526
O O4 0.323709 0.250100 0.995528
O O5 0.994610 0.756035 0.097159
O O6 0.987900 0.043565 0.165235
O O7 0.881582 0.966102 0.071581
O O8 0.000000 0.000000 0.000000
O O9 0.000000 0.000000 0.500000
O O10 0.002138 0.981658 0.670463
O O11 0.610409 0.951514 0.763210
O O12 0.750000 0.000000 0.774509
O O13 0.666924 0.010692 0.911605
O O14 0.250000 0.000000 0.950251
O O15 0.933250 0.750000 0.750000
#
# Coordination Sequence:
#
# PCOD8216102 Si02
#       6
#     8   8   8   8   8   8
#     4  10  21  36  63  92 136 164 217 253 327 402
#     4  12  20  43  66  89 132 170 218 278 325 397
#     4  12  27  39  64  94 129 176 223 271 338 393
#     4   9  20  39  58  89 132 169 205 248 329 396
#     4   9  20  37  65  90 126 170 210 255 336 384
#     4  12  26  40  63  93 130 173 225 274 337 397
#
# _framework density 19.715896000000001
#
# number of rings (size 3 to 8) (size 9 to 14) (size 15 to 20)
#    1.000    0.333    5.000    1.500    4.667    0.667 
#    0.000    0.000    0.000    3.000    0.000    0.000 
#    0.000    0.000    0.000    0.000    0.000    0.000 
#
# Total GULP energy -594737.172857 kJ/mol
# GULP energy per Si atom -12390.357768 kJ/mol
# Density = 1.967102 g / cm^3
# Si number density = 19.715896 Si / 1000 Ang^3
#
#
#
# Elastic Constant Matrix: (Units=GPa)
#
#
# Indices 1 2 3 4 5 6 
#
# 1 125.5536 37.3560 44.2342 0.0000 0.0000 0.0000
# 2 37.3560 106.0210 33.7654 0.0000 0.0000 0.0000
# 3 44.2342 33.7654 111.0439 0.0000 0.0000 0.0000
# 4 0.0000 0.0000 0.0000 31.1362 0.0000 0.0000
# 5 0.0000 0.0000 0.0000 0.0000 12.4348 0.0000
# 6 0.0000 0.0000 0.0000 0.0000 0.0000 40.8234
#
#
#
# Elastic Compliance Matrix: (Units=1/GPa)
#
#
# Indices 1 2 3 4 5 6 
#
# 1 0.009807 -0.002448 -0.003162 0.000000 0.000000 0.000000
# 2 -0.002448 0.011055 -0.002386 0.000000 0.000000 0.000000
# 3 -0.003162 -0.002386 0.010991 0.000000 0.000000 0.000000
# 4 0.000000 0.000000 0.000000 0.032117 0.000000 0.000000
# 5 0.000000 0.000000 0.000000 0.000000 0.080420 0.000000
# 6 0.000000 0.000000 0.000000 0.000000 0.000000 0.024496
#
#
# Mechanical properties :
#
#
# Convention : Reuss Voigt Hill
#
# Bulk Modulus (GPa) = 63.05515 63.70331 63.37923
# Shear Modulus (GPa) = 26.29295 32.02973 29.16134
#
# Velocity S-wave (km/s) = 3.65580 4.03496 3.85005
# Velocity P-wave (km/s) = 7.06195 7.35450 7.20971
#
# Compressibility (1/GPa) = 0.01585913
#
# Stress axis : x y z
#
# Youngs Moduli (GPa) = 101.96482 90.45912 90.98638
#
# Poissons Ratio (x) = 0.22149 0.28772
# Poissons Ratio (y) = 0.24966 0.21710
# Poissons Ratio (z) = 0.32243 0.21584
#
# Static dielectric constant tensor:
#      x y z
#    x 2.698260 0.000000 0.000000 
#    y 0.000000 3.437390 0.000000 
#    z 0.000000 0.000000 3.557000 
# 
# 
# High freq. dielectric constant tensor:
#      x y z
#    x 1.761910 0.000000 0.000000 
#    y 0.000000 1.769640 0.000000 
#    z 0.000000 0.000000 1.752600 
# 
# From -- ./inp_files/28053.got.cif
#   From: 2010.06.25/outbox.cif.g09.slc.cpg/sg52_15_cif.got.tgz:28053.got - 2010.06.26 19:32:48.
