data_PCOD8216193
_publ_section_title
;
Structure prediction by ZEFSAII (Michael W. Deem and Ramdas Pophale) SiO2 
 PCOD8216193
Probable space group: P N N A
;
_chemical_formula_sum "Si O2"
_cell_formula_units_Z 32
_cell_length_a 20.795148
_cell_length_b 8.772626
_cell_length_c 8.676663
_cell_angle_alpha 90.000000
_cell_angle_beta 90.000000
_cell_angle_gamma 90.000000
_cell_volume 1582.866764
_symmetry_space_group_name_H-M "P N N A"
_symmetry_group_IT_number 52
_symmetry_cell_setting 'orthorhombic'
loop_
_space_group_symop_operation_xyz
x,y,z
1/2-x,-y,z
x,1/2-y,1/2-z
1/2-x,1/2+y,1/2-z
-x,-y,-z
1/2+x,y,-z
-x,1/2+y,1/2+z
1/2+x,1/2-y,1/2+z
loop_
_atom_site_type_symbol
_atom_site_label
_atom_site_fract_x
_atom_site_fract_y
_atom_site_fract_z
Si Si1 0.177471 0.508564 0.457690
Si Si2 0.820621 0.070018 0.284131
Si Si3 0.622997 0.250000 0.750000
Si Si4 0.122080 0.750000 0.250000
Si Si5 0.573186 0.497334 0.954982
O O1 0.250000 0.500000 0.507124
O O2 0.146138 0.497148 0.628814
O O3 0.165127 0.375013 0.337081
O O4 0.165297 0.673281 0.381972
O O5 0.812439 0.250000 0.250000
O O6 0.872751 0.031751 0.416367
O O7 0.750000 0.000000 0.329282
O O8 0.581537 0.330003 0.882238
O O9 0.076984 0.621857 0.178807
O O10 0.500000 0.500000 0.000000
#
# Coordination Sequence:
#
# PCOD8216193 Si02
#       5
#     8   8   4   4   8
#     4  10  21  38  65  95 132 170 217 272 338 394
#     4  11  25  43  69  99 134 176 226 278 340 392
#     4  10  25  40  62  98 127 176 226 266 340 394
#     4  10  21  42  60  94 131 174 218 278 328 398
#     4  11  26  44  68  94 136 178 228 277 334 404
#
# _framework density 20.216484000000001
#
# number of rings (size 3 to 8) (size 9 to 14) (size 15 to 20)
#    0.000    1.500    2.500    0.750    8.750    6.000 
#    0.000    5.000    0.000    0.000    0.000    0.000 
#    0.000    0.000    0.000    0.000    0.000    0.000 
#
# Total GULP energy -396419.786376 kJ/mol
# GULP energy per Si atom -12388.118324 kJ/mol
# Density = 2.017047 g / cm^3
# Si number density = 20.216484 Si / 1000 Ang^3
#
#
#
# Elastic Constant Matrix: (Units=GPa)
#
#
# Indices 1 2 3 4 5 6 
#
# 1 117.6239 36.2408 53.7634 0.0000 0.0000 0.0000
# 2 36.2408 103.9388 33.4285 0.0000 0.0000 0.0000
# 3 53.7634 33.4285 121.7400 0.0000 0.0000 0.0000
# 4 0.0000 0.0000 0.0000 38.0958 0.0000 0.0000
# 5 0.0000 0.0000 0.0000 0.0000 23.3253 0.0000
# 6 0.0000 0.0000 0.0000 0.0000 0.0000 13.9475
#
#
#
# Elastic Compliance Matrix: (Units=1/GPa)
#
#
# Indices 1 2 3 4 5 6 
#
# 1 0.011234 -0.002546 -0.004262 0.000000 0.000000 0.000000
# 2 -0.002546 0.011130 -0.001932 0.000000 0.000000 0.000000
# 3 -0.004262 -0.001932 0.010627 0.000000 0.000000 0.000000
# 4 0.000000 0.000000 0.000000 0.026250 0.000000 0.000000
# 5 0.000000 0.000000 0.000000 0.000000 0.042872 0.000000
# 6 0.000000 0.000000 0.000000 0.000000 0.000000 0.071697
#
#
# Mechanical properties :
#
#
# Convention : Reuss Voigt Hill
#
# Bulk Modulus (GPa) = 64.47026 65.57423 65.02225
# Shear Modulus (GPa) = 25.45036 29.73174 27.59105
#
# Velocity S-wave (km/s) = 3.55194 3.83909 3.69830
# Velocity P-wave (km/s) = 6.98433 7.22204 7.10418
#
# Compressibility (1/GPa) = 0.01551103
#
# Stress axis : x y z
#
# Youngs Moduli (GPa) = 89.01254 89.84595 94.10056
#
# Poissons Ratio (x) = 0.22878 0.40107
# Poissons Ratio (y) = 0.22666 0.18177
# Poissons Ratio (z) = 0.37939 0.17355
#
# Static dielectric constant tensor:
#      x y z
#    x 3.368080 0.000000 0.000000 
#    y 0.000000 4.462860 0.000000 
#    z 0.000000 0.000000 4.058550 
# 
# 
# High freq. dielectric constant tensor:
#      x y z
#    x 1.763420 0.000000 0.000000 
#    y 0.000000 1.805590 0.000000 
#    z 0.000000 0.000000 1.817990 
# 
# From -- ./inp_files/12830.got.cif
#   From: 2010.06.25/outbox.cif.g09.slc.cpg/sg52_7_cif.got.tgz:12830.got - 2010.06.26 19:32:48.
