data_PCOD8216243
_publ_section_title
;
Structure prediction by ZEFSAII (Michael W. Deem and Ramdas Pophale) SiO2 
 PCOD8216243
Probable space group: P N N A
;
_chemical_formula_sum "Si O2"
_cell_formula_units_Z 60
_cell_length_a 9.610986
_cell_length_b 23.402366
_cell_length_c 13.356656
_cell_angle_alpha 90.000000
_cell_angle_beta 90.000000
_cell_angle_gamma 90.000000
_cell_volume 3004.176556
_symmetry_space_group_name_H-M "P N N A"
_symmetry_group_IT_number 52
_symmetry_cell_setting 'orthorhombic'
loop_
_space_group_symop_operation_xyz
x,y,z
1/2-x,-y,z
x,1/2-y,1/2-z
1/2-x,1/2+y,1/2-z
-x,-y,-z
1/2+x,y,-z
-x,1/2+y,1/2+z
1/2+x,1/2-y,1/2+z
loop_
_atom_site_type_symbol
_atom_site_label
_atom_site_fract_x
_atom_site_fract_y
_atom_site_fract_z
Si Si1 0.860460 0.949461 0.204635
Si Si2 0.101971 0.968567 0.072653
Si Si3 0.502882 0.189287 0.535027
Si Si4 0.098391 0.750000 0.250000
Si Si5 0.682091 0.627366 0.430966
Si Si6 0.759189 0.238803 0.952931
Si Si7 0.401834 0.184880 0.736993
Si Si8 0.105645 0.344037 0.833150
O O1 0.803713 0.913033 0.110843
O O2 0.881564 0.909697 0.300377
O O3 0.017617 0.969377 0.177557
O O4 0.750000 0.000000 0.228169
O O5 0.250000 0.000000 0.086697
O O6 0.111736 0.905583 0.023411
O O7 0.000000 0.000000 0.000000
O O8 0.598299 0.244835 0.548649
O O9 0.351445 0.210852 0.500918
O O10 0.490059 0.157706 0.643548
O O11 0.574978 0.149504 0.451676
O O12 0.191986 0.773934 0.159648
O O13 0.013838 0.694075 0.217199
O O14 0.744638 0.684509 0.475424
O O15 0.581190 0.645598 0.336809
O O16 0.453392 0.250000 0.750000
O O17 0.244023 0.188774 0.698679
#
# Coordination Sequence:
#
# PCOD8216243 Si02
#       8
#     8   8   8   4   8   8   8   8
#     4  11  23  41  65  91 117 165 213 257 318 379
#     4  12  22  41  59  92 129 154 200 261 315 367
#     4  11  22  40  56  91 128 164 206 254 304 363
#     4  10  22  38  56  92 128 168 202 248 314 374
#     4  11  22  35  63  91 121 165 202 248 316 372
#     4  11  24  35  58  87 132 164 203 249 305 373
#     4  11  20  36  59  88 122 163 206 243 295 375
#     4  10  21  39  65  85 124 165 207 254 314 373
#
# _framework density 19.972194999999999
#
# number of rings (size 3 to 8) (size 9 to 14) (size 15 to 20)
#    0.000    1.067    6.000    0.800    8.400    0.000 
#    0.000    1.333    0.000    3.200    0.000    0.933 
#    0.000    0.000    0.000    0.000    0.000    0.000 
#
# Total GULP energy -743379.489583 kJ/mol
# GULP energy per Si atom -12389.658160 kJ/mol
# Density = 1.992674 g / cm^3
# Si number density = 19.972195 Si / 1000 Ang^3
#
#
#
# Elastic Constant Matrix: (Units=GPa)
#
#
# Indices 1 2 3 4 5 6 
#
# 1 63.3692 24.4643 24.7110 0.0000 0.0000 0.0000
# 2 24.4643 86.7698 45.8033 0.0000 0.0000 0.0000
# 3 24.7110 45.8033 122.0995 0.0000 0.0000 0.0000
# 4 0.0000 0.0000 0.0000 28.7691 0.0000 0.0000
# 5 0.0000 0.0000 0.0000 0.0000 30.9551 0.0000
# 6 0.0000 0.0000 0.0000 0.0000 0.0000 18.7282
#
#
#
# Elastic Compliance Matrix: (Units=1/GPa)
#
#
# Indices 1 2 3 4 5 6 
#
# 1 0.018165 -0.003966 -0.002188 0.000000 0.000000 0.000000
# 2 -0.003966 0.015236 -0.004913 0.000000 0.000000 0.000000
# 3 -0.002188 -0.004913 0.010476 0.000000 0.000000 0.000000
# 4 0.000000 0.000000 0.000000 0.034760 0.000000 0.000000
# 5 0.000000 0.000000 0.000000 0.000000 0.032305 0.000000
# 6 0.000000 0.000000 0.000000 0.000000 0.000000 0.053395
#
#
# Mechanical properties :
#
#
# Convention : Reuss Voigt Hill
#
# Bulk Modulus (GPa) = 45.99372 51.35507 48.67439
# Shear Modulus (GPa) = 25.81044 27.50782 26.65913
#
# Velocity S-wave (km/s) = 3.59878 3.71523 3.65747
# Velocity P-wave (km/s) = 6.35194 6.64628 6.50078
#
# Compressibility (1/GPa) = 0.02174210
#
# Stress axis : x y z
#
# Youngs Moduli (GPa) = 55.05037 65.63212 95.45678
#
# Poissons Ratio (x) = 0.26032 0.20890
# Poissons Ratio (y) = 0.21835 0.46897
# Poissons Ratio (z) = 0.12047 0.32245
#
# Static dielectric constant tensor:
#      x y z
#    x 3.770050 0.000000 0.000000 
#    y 0.000000 5.252240 0.000000 
#    z 0.000000 0.000000 3.904150 
# 
# 
# High freq. dielectric constant tensor:
#      x y z
#    x 1.779990 0.000000 0.000000 
#    y 0.000000 1.748660 0.000000 
#    z 0.000000 0.000000 1.784500 
# 
# From -- ./inp_files/25094.got.cif
#   From: 2010.06.25/outbox.cif.g09.slc.cpg/sg52_13_cif.got.tgz:25094.got - 2010.06.26 19:32:48.
