data_PCOD8216934
_publ_section_title
;
Structure prediction by ZEFSAII (Michael W. Deem and Ramdas Pophale) SiO2 
 PCOD8216934
Probable space group: P N N A
;
_chemical_formula_sum "Si O2"
_cell_formula_units_Z 56
_cell_length_a 16.543755
_cell_length_b 11.892792
_cell_length_c 12.354118
_cell_angle_alpha 90.000000
_cell_angle_beta 90.000000
_cell_angle_gamma 90.000000
_cell_volume 2430.690471
_symmetry_space_group_name_H-M "P N N A"
_symmetry_group_IT_number 52
_symmetry_cell_setting 'orthorhombic'
loop_
_space_group_symop_operation_xyz
x,y,z
1/2-x,-y,z
x,1/2-y,1/2-z
1/2-x,1/2+y,1/2-z
-x,-y,-z
1/2+x,y,-z
-x,1/2+y,1/2+z
1/2+x,1/2-y,1/2+z
loop_
_atom_site_type_symbol
_atom_site_label
_atom_site_fract_x
_atom_site_fract_y
_atom_site_fract_z
Si Si1 0.169038 0.154247 0.176892
Si Si2 0.700914 0.239600 0.049220
Si Si3 0.110902 0.461075 0.607240
Si Si4 0.158938 0.462162 0.839177
Si Si5 0.150299 0.587651 0.261901
Si Si6 0.133777 0.640851 0.013040
Si Si7 0.446461 0.149465 0.047361
O O1 0.129900 0.250000 0.250000
O O2 0.261093 0.128206 0.207384
O O3 0.124023 0.036009 0.193612
O O4 0.154785 0.208003 0.060499
O O5 0.693547 0.116404 0.107507
O O6 0.654973 0.332161 0.122625
O O7 0.789868 0.282999 0.022531
O O8 0.102161 0.488367 0.734935
O O9 0.110381 0.571669 0.531628
O O10 0.037879 0.387464 0.558844
O O11 0.250000 0.500000 0.814622
O O12 0.121784 0.534862 0.936409
O O13 0.142429 0.591857 0.133449
O O14 0.091447 0.665745 0.332186
O O15 0.056863 0.723486 0.000482
#
# Coordination Sequence:
#
# PCOD8216934 Si02
#       7
#     8   8   8   8   8   8   8
#     4  11  19  32  59  94 132 160 204 277 332 382
#     4  11  21  40  65  99 130 168 224 276 335 391
#     4  11  26  46  66  95 132 181 226 268 331 404
#     4  10  25  42  67  98 137 176 223 286 331 407
#     4  11  21  35  63  98 127 167 213 275 333 387
#     4  11  23  41  67 100 134 170 222 275 341 398
#     4  11  24  44  69  93 132 176 227 270 327 407
#
# _framework density 23.038720999999999
#
# number of rings (size 3 to 8) (size 9 to 14) (size 15 to 20)
#    0.000    1.143    4.286    1.714    6.000    2.857 
#    0.000    4.286    0.000    0.000    0.000    0.000 
#    0.000    0.000    0.000    0.000    0.000    0.000 
#
# Total GULP energy -693764.791507 kJ/mol
# GULP energy per Si atom -12388.656991 kJ/mol
# Density = 2.298628 g / cm^3
# Si number density = 23.038721 Si / 1000 Ang^3
#
#
#
# Elastic Constant Matrix: (Units=GPa)
#
#
# Indices 1 2 3 4 5 6 
#
# 1 13.7191 4.5081 18.9510 0.0000 0.0000 0.0000
# 2 4.5081 97.9119 38.6463 0.0000 0.0000 0.0000
# 3 18.9510 38.6463 159.5972 0.0000 0.0000 0.0000
# 4 0.0000 0.0000 0.0000 27.4075 0.0000 0.0000
# 5 0.0000 0.0000 0.0000 0.0000 20.3932 0.0000
# 6 0.0000 0.0000 0.0000 0.0000 0.0000 24.7475
#
#
#
# Elastic Compliance Matrix: (Units=1/GPa)
#
#
# Indices 1 2 3 4 5 6 
#
# 1 0.087193 0.000080 -0.010373 0.000000 0.000000 0.000000
# 2 0.000080 0.011293 -0.002744 0.000000 0.000000 0.000000
# 3 -0.010373 -0.002744 0.008162 0.000000 0.000000 0.000000
# 4 0.000000 0.000000 0.000000 0.036486 0.000000 0.000000
# 5 0.000000 0.000000 0.000000 0.000000 0.049036 0.000000
# 6 0.000000 0.000000 0.000000 0.000000 0.000000 0.040408
#
#
# Mechanical properties :
#
#
# Convention : Reuss Voigt Hill
#
# Bulk Modulus (GPa) = 12.41102 43.93768 28.17435
# Shear Modulus (GPa) = 17.51249 28.45117 22.98183
#
# Velocity S-wave (km/s) = 2.76004 3.51797 3.16180
# Velocity P-wave (km/s) = 3.94409 5.96775 5.05816
#
# Compressibility (1/GPa) = 0.08057355
#
# Stress axis : x y z
#
# Youngs Moduli (GPa) = 11.46876 88.55319 122.52020
#
# Poissons Ratio (x) = -0.00705 1.27088
# Poissons Ratio (y) = -0.00091 0.33619
# Poissons Ratio (z) = 0.11896 0.24299
#
# Static dielectric constant tensor:
#      x y z
#    x 3.719220 0.000000 0.000000 
#    y 0.000000 4.753080 0.000000 
#    z 0.000000 0.000000 4.591100 
# 
# 
# High freq. dielectric constant tensor:
#      x y z
#    x 1.864380 0.000000 0.000000 
#    y 0.000000 1.929800 0.000000 
#    z 0.000000 0.000000 1.925800 
# 
# From -- ./inp_files/21687.got.cif
#   From: 2010.06.25/outbox.cif.g09.slc.cpg/sg52_11_cif.got.tgz:21687.got - 2010.06.26 19:32:48.
