data_PCOD8216233
_publ_section_title
;
Structure prediction by ZEFSAII (Michael W. Deem and Ramdas Pophale) SiO2 
 PCOD8216233
Probable space group: P N N A
;
_chemical_formula_sum "Si O2"
_cell_formula_units_Z 48
_cell_length_a 16.550211
_cell_length_b 9.330571
_cell_length_c 15.228928
_cell_angle_alpha 90.000000
_cell_angle_beta 90.000000
_cell_angle_gamma 90.000000
_cell_volume 2351.695512
_symmetry_space_group_name_H-M "P N N A"
_symmetry_group_IT_number 52
_symmetry_cell_setting 'orthorhombic'
loop_
_space_group_symop_operation_xyz
x,y,z
1/2-x,-y,z
x,1/2-y,1/2-z
1/2-x,1/2+y,1/2-z
-x,-y,-z
1/2+x,y,-z
-x,1/2+y,1/2+z
1/2+x,1/2-y,1/2+z
loop_
_atom_site_type_symbol
_atom_site_label
_atom_site_fract_x
_atom_site_fract_y
_atom_site_fract_z
Si Si1 0.769893 0.663058 0.837700
Si Si2 0.571519 0.176149 0.555335
Si Si3 0.369228 0.923027 0.952826
Si Si4 0.833298 0.915740 0.237528
Si Si5 0.199902 0.712311 0.506390
Si Si6 0.097616 0.555889 0.907519
O O1 0.750000 0.500000 0.817028
O O2 0.754968 0.750000 0.750000
O O3 0.861884 0.684366 0.868624
O O4 0.706723 0.721657 0.909566
O O5 0.563806 0.329587 0.504735
O O6 0.486654 0.140256 0.600036
O O7 0.597433 0.055553 0.486635
O O8 0.388323 0.940061 0.849489
O O9 0.285904 0.834470 0.957032
O O10 0.361177 0.077637 0.998909
O O11 0.813150 0.750000 0.250000
O O12 0.750000 0.000000 0.226531
O O13 0.886414 0.974707 0.317286
O O14 0.168609 0.831182 0.574415
#
# Coordination Sequence:
#
# PCOD8216233 Si02
#       6
#     8   8   8   8   8   8
#     4  11  24  42  66  93 120 164 219 273 309 367
#     4  10  23  44  62  89 130 171 210 245 325 379
#     4  10  21  39  63  95 127 163 209 263 311 376
#     4  12  23  37  63 101 127 160 211 269 314 372
#     4  10  21  41  65  91 123 165 212 258 319 370
#     4  11  23  40  67  91 129 174 202 252 318 391
#
# _framework density 20.410806000000001
#
# number of rings (size 3 to 8) (size 9 to 14) (size 15 to 20)
#    0.000    1.333    5.000    1.000    7.000    0.667 
#    3.000    2.500    0.000    0.000    0.000    0.000 
#    0.000    0.000    0.000    0.000    0.000    0.000 
#
# Total GULP energy -595382.012381 kJ/mol
# GULP energy per Si atom -12403.791925 kJ/mol
# Density = 2.036435 g / cm^3
# Si number density = 20.410806 Si / 1000 Ang^3
#
#
#
# Elastic Constant Matrix: (Units=GPa)
#
#
# Indices 1 2 3 4 5 6 
#
# 1 47.1792 34.3228 41.1116 0.0000 0.0000 0.0000
# 2 34.3228 145.9766 69.9241 0.0000 0.0000 0.0000
# 3 41.1116 69.9241 129.3477 0.0000 0.0000 0.0000
# 4 0.0000 0.0000 0.0000 41.8374 0.0000 0.0000
# 5 0.0000 0.0000 0.0000 0.0000 13.9162 0.0000
# 6 0.0000 0.0000 0.0000 0.0000 0.0000 26.7782
#
#
#
# Elastic Compliance Matrix: (Units=1/GPa)
#
#
# Indices 1 2 3 4 5 6 
#
# 1 0.030526 -0.003414 -0.007857 0.000000 0.000000 0.000000
# 2 -0.003414 0.009626 -0.004119 0.000000 0.000000 0.000000
# 3 -0.007857 -0.004119 0.012455 0.000000 0.000000 0.000000
# 4 0.000000 0.000000 0.000000 0.023902 0.000000 0.000000
# 5 0.000000 0.000000 0.000000 0.000000 0.071859 0.000000
# 6 0.000000 0.000000 0.000000 0.000000 0.000000 0.037344
#
#
# Mechanical properties :
#
#
# Convention : Reuss Voigt Hill
#
# Bulk Modulus (GPa) = 45.81296 68.13561 56.97429
# Shear Modulus (GPa) = 22.34484 28.31604 25.33044
#
# Velocity S-wave (km/s) = 3.31230 3.72870 3.52665
# Velocity P-wave (km/s) = 6.09283 7.21056 6.67513
#
# Compressibility (1/GPa) = 0.02182788
#
# Stress axis : x y z
#
# Youngs Moduli (GPa) = 32.75937 103.88559 80.29070
#
# Poissons Ratio (x) = 0.35466 0.63082
# Poissons Ratio (y) = 0.11184 0.33069
# Poissons Ratio (z) = 0.25738 0.42787
#
# Static dielectric constant tensor:
#      x y z
#    x 3.498310 0.000000 0.000000 
#    y 0.000000 4.098680 0.000000 
#    z 0.000000 0.000000 3.757930 
# 
# 
# High freq. dielectric constant tensor:
#      x y z
#    x 1.771570 0.000000 0.000000 
#    y 0.000000 1.822030 0.000000 
#    z 0.000000 0.000000 1.798840 
# 
# From -- ./inp_files/28087.got.cif
#   From: 2010.06.25/outbox.cif.g09.slc.cpg/sg52_15_cif.got.tgz:28087.got - 2010.06.26 19:32:48.
