data_PCOD8216615
_publ_section_title
;
Structure prediction by ZEFSAII (Michael W. Deem and Ramdas Pophale) SiO2 
 PCOD8216615
Probable space group: P N N A
;
_chemical_formula_sum "Si O2"
_cell_formula_units_Z 60
_cell_length_a 11.766981
_cell_length_b 16.596989
_cell_length_c 14.735724
_cell_angle_alpha 90.000000
_cell_angle_beta 90.000000
_cell_angle_gamma 90.000000
_cell_volume 2877.834648
_symmetry_space_group_name_H-M "P N N A"
_symmetry_group_IT_number 52
_symmetry_cell_setting 'orthorhombic'
loop_
_space_group_symop_operation_xyz
x,y,z
1/2-x,-y,z
x,1/2-y,1/2-z
1/2-x,1/2+y,1/2-z
-x,-y,-z
1/2+x,y,-z
-x,1/2+y,1/2+z
1/2+x,1/2-y,1/2+z
loop_
_atom_site_type_symbol
_atom_site_label
_atom_site_fract_x
_atom_site_fract_y
_atom_site_fract_z
Si Si1 0.858280 0.233760 0.099526
Si Si2 0.117952 0.219073 0.844257
Si Si3 0.036812 0.250000 0.250000
Si Si4 0.836669 0.620503 0.861590
Si Si5 0.517565 0.054174 0.141480
Si Si6 0.409861 0.441117 0.160847
Si Si7 0.485912 0.830097 0.520077
Si Si8 0.147762 0.561580 0.526395
O O1 0.743038 0.259608 0.150143
O O2 0.959035 0.214781 0.169748
O O3 0.818864 0.153624 0.045847
O O4 0.900347 0.308684 0.037342
O O5 0.064245 0.250000 0.750000
O O6 0.115403 0.122591 0.854123
O O7 0.036619 0.250149 0.923112
O O8 0.114973 0.324459 0.219289
O O9 0.701889 0.614800 0.847014
O O10 0.890289 0.532689 0.863941
O O11 0.874130 0.657355 0.958043
O O12 0.456256 0.056267 0.237696
O O13 0.580613 0.971087 0.115542
O O14 0.426080 0.068500 0.063802
O O15 0.498250 0.406208 0.087071
O O16 0.250000 0.500000 0.504513
#
# Coordination Sequence:
#
# PCOD8216615 Si02
#       8
#     8   8   4   8   8   8   8   8
#     4  11  22  40  63  91 126 167 210 264 320 383
#     4  12  22  40  62  90 124 161 210 260 319 375
#     4  10  22  42  64  94 130 168 214 262 320 384
#     4  10  24  42  65  93 125 169 209 263 318 386
#     4  11  24  40  62  94 125 170 207 263 320 385
#     4  11  23  44  65  92 129 162 214 260 323 375
#     4  11  23  41  65  92 123 165 213 265 317 382
#     4  11  23  40  63  93 130 170 211 261 324 390
#
# _framework density 20.849008999999999
#
# number of rings (size 3 to 8) (size 9 to 14) (size 15 to 20)
#    0.000    1.067    4.667    2.000    1.867    1.067 
#    4.800    0.000    2.933    0.000    0.000    0.000 
#    0.000    0.000    0.000    0.000    0.000    0.000 
#
# Total GULP energy -743796.749146 kJ/mol
# GULP energy per Si atom -12396.612486 kJ/mol
# Density = 2.080156 g / cm^3
# Si number density = 20.849009 Si / 1000 Ang^3
#
#
#
# Elastic Constant Matrix: (Units=GPa)
#
#
# Indices 1 2 3 4 5 6 
#
# 1 72.0217 2.8449 29.7855 0.0000 0.0000 0.0000
# 2 2.8449 59.9055 19.4141 0.0000 0.0000 0.0000
# 3 29.7855 19.4141 124.9639 0.0000 0.0000 0.0000
# 4 0.0000 0.0000 0.0000 32.4367 0.0000 0.0000
# 5 0.0000 0.0000 0.0000 0.0000 15.5836 0.0000
# 6 0.0000 0.0000 0.0000 0.0000 0.0000 29.5900
#
#
#
# Elastic Compliance Matrix: (Units=1/GPa)
#
#
# Indices 1 2 3 4 5 6 
#
# 1 0.015416 0.000483 -0.003750 0.000000 0.000000 0.000000
# 2 0.000483 0.017593 -0.002848 0.000000 0.000000 0.000000
# 3 -0.003750 -0.002848 0.009339 0.000000 0.000000 0.000000
# 4 0.000000 0.000000 0.000000 0.030829 0.000000 0.000000
# 5 0.000000 0.000000 0.000000 0.000000 0.064170 0.000000
# 6 0.000000 0.000000 0.000000 0.000000 0.000000 0.033795
#
#
# Mechanical properties :
#
#
# Convention : Reuss Voigt Hill
#
# Bulk Modulus (GPa) = 33.20250 40.10888 36.65569
# Shear Modulus (GPa) = 25.85161 29.17851 27.51506
#
# Velocity S-wave (km/s) = 3.52510 3.74507 3.63675
# Velocity P-wave (km/s) = 5.70336 6.16281 5.93753
#
# Compressibility (1/GPa) = 0.03011821
#
# Stress axis : x y z
#
# Youngs Moduli (GPa) = 64.86639 56.84044 107.08310
#
# Poissons Ratio (x) = -0.02746 0.40151
# Poissons Ratio (y) = -0.03133 0.30501
# Poissons Ratio (z) = 0.24322 0.16190
#
# Static dielectric constant tensor:
#      x y z
#    x 3.694240 0.000000 0.000000 
#    y 0.000000 3.703750 0.000000 
#    z 0.000000 0.000000 3.825330 
# 
# 
# High freq. dielectric constant tensor:
#      x y z
#    x 1.814360 0.000000 0.000000 
#    y 0.000000 1.817250 0.000000 
#    z 0.000000 0.000000 1.826740 
# 
# From -- ./inp_files/26328.got.cif
#   From: 2010.06.25/outbox.cif.g09.slc.cpg/sg52_14_cif.got.tgz:26328.got - 2010.06.26 19:32:48.
