data_PCOD8216385
_publ_section_title
;
Structure prediction by ZEFSAII (Michael W. Deem and Ramdas Pophale) SiO2 
 PCOD8216385
Probable space group: P N N A
;
_chemical_formula_sum "Si O2"
_cell_formula_units_Z 40
_cell_length_a 8.579234
_cell_length_b 17.242548
_cell_length_c 12.187294
_cell_angle_alpha 90.000000
_cell_angle_beta 90.000000
_cell_angle_gamma 90.000000
_cell_volume 1802.840248
_symmetry_space_group_name_H-M "P N N A"
_symmetry_group_IT_number 52
_symmetry_cell_setting 'orthorhombic'
loop_
_space_group_symop_operation_xyz
x,y,z
1/2-x,-y,z
x,1/2-y,1/2-z
1/2-x,1/2+y,1/2-z
-x,-y,-z
1/2+x,y,-z
-x,1/2+y,1/2+z
1/2+x,1/2-y,1/2+z
loop_
_atom_site_type_symbol
_atom_site_label
_atom_site_fract_x
_atom_site_fract_y
_atom_site_fract_z
Si Si1 0.761229 0.262605 0.373351
Si Si2 0.332371 0.080550 0.391845
Si Si3 0.050391 0.174054 0.458550
Si Si4 0.641782 0.927520 0.060409
Si Si5 0.582011 0.533194 0.668243
O O1 0.706672 0.250000 0.250000
O O2 0.628239 0.225680 0.447387
O O3 0.764116 0.354293 0.397634
O O4 0.934489 0.228137 0.389133
O O5 0.189027 0.141983 0.380980
O O6 0.449112 0.104130 0.489665
O O7 0.442194 0.080419 0.281853
O O8 0.250000 0.000000 0.423422
O O9 0.750000 0.000000 0.032363
O O10 0.526268 0.956657 0.156285
O O11 0.561245 0.912192 0.940509
O O12 0.750000 0.500000 0.689311
#
# Coordination Sequence:
#
# PCOD8216385 Si02
#       5
#     8   8   8   8   8
#     4  11  27  43  67  94 140 174 219 272 344 385
#     4  10  21  42  69  95 131 175 222 267 326 393
#     4  10  25  44  62 100 132 177 218 274 327 400
#     4  10  23  41  64  95 125 164 222 269 315 397
#     4   9  21  38  68  92 117 160 221 263 330 367
#
# _framework density 22.187211999999999
#
# number of rings (size 3 to 8) (size 9 to 14) (size 15 to 20)
#    0.000    2.000    0.000    0.600   16.800    0.000 
#    0.000    4.000    0.000    0.000    0.000    0.000 
#    0.000    0.000    0.000    0.000    0.000    0.000 
#
# Total GULP energy -495727.437110 kJ/mol
# GULP energy per Si atom -12393.185928 kJ/mol
# Density = 2.213671 g / cm^3
# Si number density = 22.187212 Si / 1000 Ang^3
#
#
#
# Elastic Constant Matrix: (Units=GPa)
#
#
# Indices 1 2 3 4 5 6 
#
# 1 65.0698 13.0308 8.1134 0.0000 0.0000 0.0000
# 2 13.0308 118.4639 38.4417 0.0000 0.0000 0.0000
# 3 8.1134 38.4417 101.6490 0.0000 0.0000 0.0000
# 4 0.0000 0.0000 0.0000 28.2983 0.0000 0.0000
# 5 0.0000 0.0000 0.0000 0.0000 53.0864 0.0000
# 6 0.0000 0.0000 0.0000 0.0000 0.0000 41.8585
#
#
#
# Elastic Compliance Matrix: (Units=1/GPa)
#
#
# Indices 1 2 3 4 5 6 
#
# 1 0.015756 -0.001510 -0.000686 0.000000 0.000000 0.000000
# 2 -0.001510 0.009767 -0.003573 0.000000 0.000000 0.000000
# 3 -0.000686 -0.003573 0.011244 0.000000 0.000000 0.000000
# 4 0.000000 0.000000 0.000000 0.035338 0.000000 0.000000
# 5 0.000000 0.000000 0.000000 0.000000 0.018837 0.000000
# 6 0.000000 0.000000 0.000000 0.000000 0.000000 0.023890
#
#
# Mechanical properties :
#
#
# Convention : Reuss Voigt Hill
#
# Bulk Modulus (GPa) = 39.63986 44.92826 42.28406
# Shear Modulus (GPa) = 37.09719 39.68842 38.39281
#
# Velocity S-wave (km/s) = 4.09346 4.23401 4.16432
# Velocity P-wave (km/s) = 6.34403 6.64801 6.49780
#
# Compressibility (1/GPa) = 0.02522713
#
# Stress axis : x y z
#
# Youngs Moduli (GPa) = 63.46717 102.38538 88.93750
#
# Poissons Ratio (x) = 0.15464 0.06105
# Poissons Ratio (y) = 0.09586 0.31779
# Poissons Ratio (z) = 0.04357 0.36584
#
# Static dielectric constant tensor:
#      x y z
#    x -1.676400 0.000000 0.000000 
#    y 0.000000 3.746700 0.000000 
#    z 0.000000 0.000000 4.273180 
# 
# 
# High freq. dielectric constant tensor:
#      x y z
#    x 1.883870 0.000000 0.000000 
#    y 0.000000 1.862330 0.000000 
#    z 0.000000 0.000000 1.870150 
# 
# From -- ./inp_files/16622.got.cif
#   From: 2010.06.25/outbox.cif.g09.slc.cpg/sg52_9_cif.got.tgz:16622.got - 2010.06.26 19:32:48.
