data_PCOD8216706
_publ_section_title
;
Structure prediction by ZEFSAII (Michael W. Deem and Ramdas Pophale) SiO2 
 PCOD8216706
Probable space group: P N N A
;
_chemical_formula_sum "Si O2"
_cell_formula_units_Z 32
_cell_length_a 5.533582
_cell_length_b 8.537740
_cell_length_c 26.738588
_cell_angle_alpha 90.000000
_cell_angle_beta 90.000000
_cell_angle_gamma 90.000000
_cell_volume 1263.245456
_symmetry_space_group_name_H-M "P N N A"
_symmetry_group_IT_number 52
_symmetry_cell_setting 'orthorhombic'
loop_
_space_group_symop_operation_xyz
x,y,z
1/2-x,-y,z
x,1/2-y,1/2-z
1/2-x,1/2+y,1/2-z
-x,-y,-z
1/2+x,y,-z
-x,1/2+y,1/2+z
1/2+x,1/2-y,1/2+z
loop_
_atom_site_type_symbol
_atom_site_label
_atom_site_fract_x
_atom_site_fract_y
_atom_site_fract_z
Si Si1 0.750000 0.500000 0.226082
Si Si2 0.920159 0.750000 0.750000
Si Si3 0.937760 0.285801 0.837701
Si Si4 0.750000 0.500000 0.612942
Si Si5 0.750000 0.000000 0.578435
Si Si6 0.083138 0.290197 0.471011
O O1 0.561496 0.587097 0.262384
O O2 0.669346 0.351029 0.191850
O O3 0.781156 0.695387 0.799211
O O4 0.915393 0.389960 0.887368
O O5 0.937485 0.103891 0.853979
O O6 0.923267 0.610333 0.579840
O O7 0.920841 0.893519 0.543239
O O8 0.340303 0.331596 0.498386
#
# Coordination Sequence:
#
# PCOD8216706 Si02
#       6
#     4   4   8   4   4   8
#     4  12  26  44  77 103 142 214 249 305 390 444
#     4  12  26  46  72 104 156 192 256 310 378 458
#     4  11  25  48  67 108 151 192 254 305 371 454
#     4  10  26  45  72 105 154 186 243 321 368 454
#     4  10  22  45  69 108 142 188 242 316 368 462
#     4  11  24  47  74 107 147 193 247 311 393 461
#
# _framework density 25.331576999999999
#
# number of rings (size 3 to 8) (size 9 to 14) (size 15 to 20)
#    0.000    1.000    2.500    2.250    7.000    4.000 
#    4.500    0.000    0.000    0.000    0.000    0.000 
#    0.000    0.000    0.000    0.000    0.000    0.000 
#
# Total GULP energy -396472.800145 kJ/mol
# GULP energy per Si atom -12389.775005 kJ/mol
# Density = 2.527392 g / cm^3
# Si number density = 25.331577 Si / 1000 Ang^3
#
#
#
# Elastic Constant Matrix: (Units=GPa)
#
#
# Indices 1 2 3 4 5 6 
#
# 1 111.3433 38.2380 33.4996 0.0000 0.0000 0.0000
# 2 38.2380 149.2718 32.3101 0.0000 0.0000 0.0000
# 3 33.4996 32.3101 46.8004 0.0000 0.0000 0.0000
# 4 0.0000 0.0000 0.0000 59.7922 0.0000 0.0000
# 5 0.0000 0.0000 0.0000 0.0000 -16.0638 0.0000
# 6 0.0000 0.0000 0.0000 0.0000 0.0000 40.1448
#
#
#
# Elastic Compliance Matrix: (Units=1/GPa)
#
#
# Indices 1 2 3 4 5 6 
#
# 1 0.011687 -0.001391 -0.007405 0.000000 0.000000 0.000000
# 2 -0.001391 0.008042 -0.004556 0.000000 0.000000 0.000000
# 3 -0.007405 -0.004556 0.029813 0.000000 0.000000 0.000000
# 4 0.000000 0.000000 0.000000 0.016725 0.000000 0.000000
# 5 0.000000 0.000000 0.000000 0.000000 -0.062252 0.000000
# 6 0.000000 0.000000 0.000000 0.000000 0.000000 0.024910
#
#
# Mechanical properties :
#
#
# Convention : Reuss Voigt Hill
#
# Bulk Modulus (GPa) = 43.78776 57.27898 50.53337
# Shear Modulus (GPa) = 79.06155 30.33248 54.69701
#
# Velocity S-wave (km/s) = 5.59271 3.46413 4.65181
# Velocity P-wave (km/s) = 7.68296 6.21780 6.98888
#
# Compressibility (1/GPa) = 0.02283743
#
# Stress axis : x y z
#
# Youngs Moduli (GPa) = 85.56598 124.35202 33.54187
#
# Poissons Ratio (x) = 0.17296 0.24838
# Poissons Ratio (y) = 0.11901 0.15282
# Poissons Ratio (z) = 0.63363 0.56658
#
# Static dielectric constant tensor:
#      x y z
#    x 4.160690 0.000000 0.000000 
#    y 0.000000 2.723050 0.000000 
#    z 0.000000 0.000000 4.668650 
# 
# 
# High freq. dielectric constant tensor:
#      x y z
#    x 1.974540 0.000000 0.000000 
#    y 0.000000 2.044010 0.000000 
#    z 0.000000 0.000000 2.017130 
# 
# From -- ./inp_files/43514.got.cif
#   From: 2010.06.25/outbox.cif.g09.slc.cpg/sg52_22_cif.got.tgz:43514.got - 2010.06.26 19:32:48.
