data_PCOD8216919
_publ_section_title
;
Structure prediction by ZEFSAII (Michael W. Deem and Ramdas Pophale) SiO2 
 PCOD8216919
Probable space group: P N N A
;
_chemical_formula_sum "Si O2"
_cell_formula_units_Z 32
_cell_length_a 9.017345
_cell_length_b 5.445784
_cell_length_c 26.264139
_cell_angle_alpha 90.000000
_cell_angle_beta 90.000000
_cell_angle_gamma 90.000000
_cell_volume 1289.740286
_symmetry_space_group_name_H-M "P N N A"
_symmetry_group_IT_number 52
_symmetry_cell_setting 'orthorhombic'
loop_
_space_group_symop_operation_xyz
x,y,z
1/2-x,-y,z
x,1/2-y,1/2-z
1/2-x,1/2+y,1/2-z
-x,-y,-z
1/2+x,y,-z
-x,1/2+y,1/2+z
1/2+x,1/2-y,1/2+z
loop_
_atom_site_type_symbol
_atom_site_label
_atom_site_fract_x
_atom_site_fract_y
_atom_site_fract_z
Si Si1 0.250000 0.000000 0.999596
Si Si2 0.923883 0.026105 0.652147
Si Si3 0.491662 0.198506 0.456093
Si Si4 0.345480 0.250000 0.250000
Si Si5 0.328110 0.248359 0.810188
O O1 0.372683 0.884953 0.962670
O O2 0.170523 0.815493 0.038227
O O3 0.006339 0.102014 0.600773
O O4 0.948124 0.222258 0.699209
O O5 0.750000 0.000000 0.642223
O O6 0.001978 0.768733 0.668667
O O7 0.500000 0.000000 0.500000
O O8 0.250000 0.500000 0.253481
O O9 0.250000 0.500000 0.830095
O O10 0.334351 0.250000 0.750000
O O11 0.250000 0.000000 0.831054
#
# Coordination Sequence:
#
# PCOD8216919 Si02
#       5
#     4   8   8   4   8
#     4  10  24  46  80 112 150 200 258 330 396 478
#     4  11  26  46  80 114 153 209 267 335 399 483
#     4  11  24  50  76 113 154 201 264 328 402 476
#     4  10  26  46  74 116 162 202 268 332 404 476
#     4  10  25  49  72 107 158 206 262 324 396 481
#
# _framework density 24.811198000000001
#
# number of rings (size 3 to 8) (size 9 to 14) (size 15 to 20)
#    0.000    1.500    0.000    2.250   14.000    2.000 
#   18.000    0.000    0.000    0.000    0.000    0.000 
#    0.000    0.000    0.000    0.000    0.000    0.000 
#
# Total GULP energy -396619.923445 kJ/mol
# GULP energy per Si atom -12394.372608 kJ/mol
# Density = 2.475473 g / cm^3
# Si number density = 24.811198 Si / 1000 Ang^3
#
#
#
# Elastic Constant Matrix: (Units=GPa)
#
#
# Indices 1 2 3 4 5 6 
#
# 1 131.8818 61.5369 25.8876 0.0000 0.0000 0.0000
# 2 61.5369 160.5325 57.1594 0.0000 0.0000 0.0000
# 3 25.8876 57.1594 175.7947 0.0000 0.0000 0.0000
# 4 0.0000 0.0000 0.0000 26.6034 0.0000 0.0000
# 5 0.0000 0.0000 0.0000 0.0000 24.6317 0.0000
# 6 0.0000 0.0000 0.0000 0.0000 0.0000 40.3872
#
#
#
# Elastic Compliance Matrix: (Units=1/GPa)
#
#
# Indices 1 2 3 4 5 6 
#
# 1 0.009243 -0.003459 -0.000236 0.000000 0.000000 0.000000
# 2 -0.003459 0.008339 -0.002202 0.000000 0.000000 0.000000
# 3 -0.000236 -0.002202 0.006439 0.000000 0.000000 0.000000
# 4 0.000000 0.000000 0.000000 0.037589 0.000000 0.000000
# 5 0.000000 0.000000 0.000000 0.000000 0.040598 0.000000
# 6 0.000000 0.000000 0.000000 0.000000 0.000000 0.024760
#
#
# Mechanical properties :
#
#
# Convention : Reuss Voigt Hill
#
# Bulk Modulus (GPa) = 81.78967 84.15297 82.97132
# Shear Modulus (GPa) = 35.00431 39.89946 37.45189
#
# Velocity S-wave (km/s) = 3.76017 4.01449 3.88941
# Velocity P-wave (km/s) = 7.20335 7.44843 7.32692
#
# Compressibility (1/GPa) = 0.01222648
#
# Stress axis : x y z
#
# Youngs Moduli (GPa) = 108.19116 119.91478 155.29637
#
# Poissons Ratio (x) = 0.41477 0.03672
# Poissons Ratio (y) = 0.37422 0.34198
# Poissons Ratio (z) = 0.02558 0.26407
#
# Static dielectric constant tensor:
#      x y z
#    x 4.787140 0.000000 0.000000 
#    y 0.000000 4.757970 0.000000 
#    z 0.000000 0.000000 4.459710 
# 
# 
# High freq. dielectric constant tensor:
#      x y z
#    x 2.007080 0.000000 0.000000 
#    y 0.000000 1.981220 0.000000 
#    z 0.000000 0.000000 1.986630 
# 
# From -- ./inp_files/44068.got.cif
#   From: 2010.06.25/outbox.cif.g09.slc.cpg/sg52_23_cif.got.tgz:44068.got - 2010.06.26 19:32:48.
