data_PCOD8216970
_publ_section_title
;
Structure prediction by ZEFSAII (Michael W. Deem and Ramdas Pophale) SiO2 
 PCOD8216970
Probable space group: P N N A
;
_chemical_formula_sum "Si O2"
_cell_formula_units_Z 40
_cell_length_a 11.072545
_cell_length_b 19.530557
_cell_length_c 8.698225
_cell_angle_alpha 90.000000
_cell_angle_beta 90.000000
_cell_angle_gamma 90.000000
_cell_volume 1881.017001
_symmetry_space_group_name_H-M "P N N A"
_symmetry_group_IT_number 52
_symmetry_cell_setting 'orthorhombic'
loop_
_space_group_symop_operation_xyz
x,y,z
1/2-x,-y,z
x,1/2-y,1/2-z
1/2-x,1/2+y,1/2-z
-x,-y,-z
1/2+x,y,-z
-x,1/2+y,1/2+z
1/2+x,1/2-y,1/2+z
loop_
_atom_site_type_symbol
_atom_site_label
_atom_site_fract_x
_atom_site_fract_y
_atom_site_fract_z
Si Si1 0.367946 0.382305 0.762968
Si Si2 0.522359 0.750000 0.750000
Si Si3 0.250000 0.000000 0.538200
Si Si4 0.695355 0.212459 0.437462
Si Si5 0.799284 0.154606 0.940738
Si Si6 0.854378 0.893716 0.678852
O O1 0.298878 0.313990 0.820318
O O2 0.354583 0.390785 0.578781
O O3 0.508491 0.374764 0.793294
O O4 0.320327 0.448687 0.851361
O O5 0.436835 0.795553 0.638823
O O6 0.599324 0.804455 0.846202
O O7 0.344132 0.961548 0.425701
O O8 0.709652 0.291372 0.480613
O O9 0.707140 0.169512 0.591896
O O10 0.722893 0.101687 0.835854
#
# Coordination Sequence:
#
# PCOD8216970 Si02
#       6
#     8   4   4   8   8   8
#     4  11  24  44  67  93 133 170 220 268 318 382
#     4  12  22  38  64 102 142 160 212 254 324 404
#     4  10  26  48  66  92 118 180 226 268 328 368
#     4  11  22  40  66  99 137 172 205 256 333 391
#     4  12  23  40  66 105 130 170 207 266 328 387
#     4  11  24  44  68  93 131 170 222 266 320 385
#
# _framework density 21.265091999999999
#
# number of rings (size 3 to 8) (size 9 to 14) (size 15 to 20)
#    0.000    0.800    4.000    3.000    2.800    2.400 
#    0.000    2.000    0.000    0.000    0.000    0.000 
#    0.000    0.000    0.000    0.000    0.000    0.000 
#
# Total GULP energy -495988.371852 kJ/mol
# GULP energy per Si atom -12399.709296 kJ/mol
# Density = 2.121669 g / cm^3
# Si number density = 21.265092 Si / 1000 Ang^3
#
#
#
# Elastic Constant Matrix: (Units=GPa)
#
#
# Indices 1 2 3 4 5 6 
#
# 1 130.3621 20.3095 60.2638 0.0000 0.0000 0.0000
# 2 20.3095 80.9320 47.2076 0.0000 0.0000 0.0000
# 3 60.2638 47.2076 156.1082 0.0000 0.0000 0.0000
# 4 0.0000 0.0000 0.0000 29.3138 0.0000 0.0000
# 5 0.0000 0.0000 0.0000 0.0000 37.2454 0.0000
# 6 0.0000 0.0000 0.0000 0.0000 0.0000 24.3578
#
#
#
# Elastic Compliance Matrix: (Units=1/GPa)
#
#
# Indices 1 2 3 4 5 6 
#
# 1 0.009343 -0.000292 -0.003518 0.000000 0.000000 0.000000
# 2 -0.000292 0.015011 -0.004427 0.000000 0.000000 0.000000
# 3 -0.003518 -0.004427 0.009103 0.000000 0.000000 0.000000
# 4 0.000000 0.000000 0.000000 0.034114 0.000000 0.000000
# 5 0.000000 0.000000 0.000000 0.000000 0.026849 0.000000
# 6 0.000000 0.000000 0.000000 0.000000 0.000000 0.041055
#
#
# Mechanical properties :
#
#
# Convention : Reuss Voigt Hill
#
# Bulk Modulus (GPa) = 58.88442 69.21825 64.05134
# Shear Modulus (GPa) = 31.72393 34.15817 32.94105
#
# Velocity S-wave (km/s) = 3.86661 4.01222 3.94009
# Velocity P-wave (km/s) = 6.90543 7.35423 7.13336
#
# Compressibility (1/GPa) = 0.01698242
#
# Stress axis : x y z
#
# Youngs Moduli (GPa) = 107.03274 66.61570 109.85798
#
# Poissons Ratio (x) = 0.01947 0.38652
# Poissons Ratio (y) = 0.03129 0.48630
# Poissons Ratio (z) = 0.37658 0.29489
#
# Static dielectric constant tensor:
#      x y z
#    x 3.755410 0.000000 0.000000 
#    y 0.000000 3.648680 0.000000 
#    z 0.000000 0.000000 4.296210 
# 
# 
# High freq. dielectric constant tensor:
#      x y z
#    x 1.837270 0.000000 0.000000 
#    y 0.000000 1.810990 0.000000 
#    z 0.000000 0.000000 1.862110 
# 
# From -- ./inp_files/7477.got.cif
#   From: 2010.06.25/outbox.cif.g09.slc.cpg/sg52_4_cif.got.tgz:7477.got - 2010.06.26 19:32:48.
