data_PCOD8216119
_publ_section_title
;
Structure prediction by ZEFSAII (Michael W. Deem and Ramdas Pophale) SiO2 
 PCOD8216119
Probable space group: P N N A
;
_chemical_formula_sum "Si O2"
_cell_formula_units_Z 48
_cell_length_a 8.398130
_cell_length_b 8.987912
_cell_length_c 31.789758
_cell_angle_alpha 90.000000
_cell_angle_beta 90.000000
_cell_angle_gamma 90.000000
_cell_volume 2399.543495
_symmetry_space_group_name_H-M "P N N A"
_symmetry_group_IT_number 52
_symmetry_cell_setting 'orthorhombic'
loop_
_space_group_symop_operation_xyz
x,y,z
1/2-x,-y,z
x,1/2-y,1/2-z
1/2-x,1/2+y,1/2-z
-x,-y,-z
1/2+x,y,-z
-x,1/2+y,1/2+z
1/2+x,1/2-y,1/2+z
loop_
_atom_site_type_symbol
_atom_site_label
_atom_site_fract_x
_atom_site_fract_y
_atom_site_fract_z
Si Si1 0.599607 0.314057 0.368493
Si Si2 0.726574 0.168264 0.045314
Si Si3 0.431748 0.342095 0.014586
Si Si4 0.208506 0.661866 0.103373
Si Si5 0.901549 0.593202 0.651598
Si Si6 0.683780 0.838826 0.207383
O O1 0.733893 0.313797 0.404465
O O2 0.462824 0.194003 0.376271
O O3 0.523777 0.479513 0.370540
O O4 0.690985 0.269996 0.325947
O O5 0.556908 0.221731 0.029427
O O6 0.750000 0.000000 0.029760
O O7 0.858225 0.278185 0.027726
O O8 0.301405 0.348773 0.052359
O O9 0.500000 0.500000 0.000000
O O10 0.250000 0.500000 0.121498
O O11 0.340056 0.783447 0.118036
O O12 0.750000 0.500000 0.669459
O O13 0.001657 0.665275 0.689923
O O14 0.686708 0.750000 0.250000
O O15 0.750000 0.000000 0.218331
#
# Coordination Sequence:
#
# PCOD8216119 Si02
#       6
#     8   8   8   8   8   8
#     4   9  21  39  60  84 113 149 190 242 292 338
#     4  11  22  37  59  83 108 149 202 241 277 341
#     4  11  24  39  54  81 122 158 189 242 304 344
#     4  10  21  37  58  83 114 155 197 235 285 350
#     4   9  19  39  60  81 113 150 186 233 288 338
#     4  10  21  39  62  88 116 147 184 235 294 351
#
# _framework density 20.003805
#
# number of rings (size 3 to 8) (size 9 to 14) (size 15 to 20)
#    0.000    2.000    0.000    3.500    0.000   10.000 
#    0.000   11.667    0.000    0.000    0.000    0.000 
#    0.000    0.000    0.000    0.000    0.000    0.000 
#
# Total GULP energy -595017.756603 kJ/mol
# GULP energy per Si atom -12396.203263 kJ/mol
# Density = 1.995828 g / cm^3
# Si number density = 20.003805 Si / 1000 Ang^3
#
#
#
# Elastic Constant Matrix: (Units=GPa)
#
#
# Indices 1 2 3 4 5 6 
#
# 1 83.1084 62.2518 71.4422 0.0000 0.0000 0.0000
# 2 62.2518 123.8710 71.4522 0.0000 0.0000 0.0000
# 3 71.4422 71.4522 157.5987 0.0000 0.0000 0.0000
# 4 0.0000 0.0000 0.0000 28.6651 0.0000 0.0000
# 5 0.0000 0.0000 0.0000 0.0000 33.0263 0.0000
# 6 0.0000 0.0000 0.0000 0.0000 0.0000 35.8821
#
#
#
# Elastic Compliance Matrix: (Units=1/GPa)
#
#
# Indices 1 2 3 4 5 6 
#
# 1 0.024405 -0.007967 -0.007451 0.000000 0.000000 0.000000
# 2 -0.007967 0.013533 -0.002524 0.000000 0.000000 0.000000
# 3 -0.007451 -0.002524 0.010867 0.000000 0.000000 0.000000
# 4 0.000000 0.000000 0.000000 0.034886 0.000000 0.000000
# 5 0.000000 0.000000 0.000000 0.000000 0.030279 0.000000
# 6 0.000000 0.000000 0.000000 0.000000 0.000000 0.027869
#
#
# Mechanical properties :
#
#
# Convention : Reuss Voigt Hill
#
# Bulk Modulus (GPa) = 77.39305 86.09673 81.74489
# Shear Modulus (GPa) = 27.46798 30.14348 28.80573
#
# Velocity S-wave (km/s) = 3.70961 3.88608 3.79887
# Velocity P-wave (km/s) = 7.55787 7.95419 7.75856
#
# Compressibility (1/GPa) = 0.01292106
#
# Stress axis : x y z
#
# Youngs Moduli (GPa) = 40.97453 73.89599 92.01886
#
# Poissons Ratio (x) = 0.58872 0.68567
# Poissons Ratio (y) = 0.32644 0.23224
# Poissons Ratio (z) = 0.30532 0.18650
#
# Static dielectric constant tensor:
#      x y z
#    x 3.957240 0.000000 0.000000 
#    y 0.000000 4.039050 0.000000 
#    z 0.000000 0.000000 3.599280 
# 
# 
# High freq. dielectric constant tensor:
#      x y z
#    x 1.794080 0.000000 0.000000 
#    y 0.000000 1.783170 0.000000 
#    z 0.000000 0.000000 1.765040 
# 
# From -- ./inp_files/44369.got.cif
#   From: 2010.06.25/outbox.cif.g09.slc.cpg/sg52_23_cif.got.tgz:44369.got - 2010.06.26 19:32:48.
