data_PCOD8216754
_publ_section_title
;
Structure prediction by ZEFSAII (Michael W. Deem and Ramdas Pophale) SiO2 
 PCOD8216754
Probable space group: P N N A
;
_chemical_formula_sum "Si O2"
_cell_formula_units_Z 64
_cell_length_a 9.385246
_cell_length_b 19.262586
_cell_length_c 16.966947
_cell_angle_alpha 90.000000
_cell_angle_beta 90.000000
_cell_angle_gamma 90.000000
_cell_volume 3067.354382
_symmetry_space_group_name_H-M "P N N A"
_symmetry_group_IT_number 52
_symmetry_cell_setting 'orthorhombic'
loop_
_space_group_symop_operation_xyz
x,y,z
1/2-x,-y,z
x,1/2-y,1/2-z
1/2-x,1/2+y,1/2-z
-x,-y,-z
1/2+x,y,-z
-x,1/2+y,1/2+z
1/2+x,1/2-y,1/2+z
loop_
_atom_site_type_symbol
_atom_site_label
_atom_site_fract_x
_atom_site_fract_y
_atom_site_fract_z
Si Si1 0.772550 0.573045 0.007884
Si Si2 0.413789 0.574536 0.835666
Si Si3 0.659797 0.338009 0.861278
Si Si4 0.191408 0.930901 0.804312
Si Si5 0.950883 0.281463 0.879442
Si Si6 0.213418 0.282105 0.666005
Si Si7 0.398647 0.193969 0.557770
Si Si8 0.607568 0.465835 0.753142
O O1 0.750000 0.500000 0.962128
O O2 0.880204 0.549809 0.076362
O O3 0.637123 0.611695 0.048219
O O4 0.831183 0.629470 0.948401
O O5 0.272278 0.571162 0.780859
O O6 0.468586 0.652612 0.841687
O O7 0.541108 0.524711 0.808881
O O8 0.788787 0.283898 0.847258
O O9 0.512484 0.296217 0.870295
O O10 0.661644 0.397356 0.796839
O O11 0.228424 0.859725 0.848269
O O12 0.019662 0.939336 0.803270
O O13 0.250000 0.000000 0.849285
O O14 0.039803 0.216665 0.843390
O O15 0.952060 0.276336 0.974276
O O16 0.261770 0.250000 0.750000
O O17 0.263835 0.235903 0.591592
O O18 0.750000 0.500000 0.712282
#
# Coordination Sequence:
#
# PCOD8216754 Si02
#       8
#     8   8   8   8   8   8   8   8
#     4  11  20  29  49  74 116 171 214 233 273 359
#     4  11  18  36  51  81 118 165 210 241 291 368
#     4  11  21  31  45  79 121 162 202 239 295 343
#     4  10  23  41  65  85 111 156 213 261 310 385
#     4  11  21  36  56  85 122 165 206 256 295 365
#     4  12  22  42  68  88 116 170 217 252 305 388
#     4  11  22  37  54  83 126 164 213 259 309 357
#     4  11  21  32  53  85 129 158 196 264 308 353
#
# _framework density 20.864885999999998
#
# number of rings (size 3 to 8) (size 9 to 14) (size 15 to 20)
#    0.000    1.000    5.000    4.500    1.750    1.000 
#    0.000    4.375    0.000    0.750    0.000    0.000 
#    0.000    0.000    0.000    0.000    0.000    0.000 
#
# Total GULP energy -792856.560578 kJ/mol
# GULP energy per Si atom -12388.383759 kJ/mol
# Density = 2.081740 g / cm^3
# Si number density = 20.864886 Si / 1000 Ang^3
#
#
#
# Elastic Constant Matrix: (Units=GPa)
#
#
# Indices 1 2 3 4 5 6 
#
# 1 138.6870 43.2413 11.7678 0.0000 0.0000 0.0000
# 2 43.2413 89.0749 20.5988 0.0000 0.0000 0.0000
# 3 11.7678 20.5988 30.2633 0.0000 0.0000 0.0000
# 4 0.0000 0.0000 0.0000 17.9951 0.0000 0.0000
# 5 0.0000 0.0000 0.0000 0.0000 17.5624 0.0000
# 6 0.0000 0.0000 0.0000 0.0000 0.0000 30.3170
#
#
#
# Elastic Compliance Matrix: (Units=1/GPa)
#
#
# Indices 1 2 3 4 5 6 
#
# 1 0.008505 -0.003993 -0.000590 0.000000 0.000000 0.000000
# 2 -0.003993 0.015198 -0.008792 0.000000 0.000000 0.000000
# 3 -0.000590 -0.008792 0.039257 0.000000 0.000000 0.000000
# 4 0.000000 0.000000 0.000000 0.055571 0.000000 0.000000
# 5 0.000000 0.000000 0.000000 0.000000 0.056940 0.000000
# 6 0.000000 0.000000 0.000000 0.000000 0.000000 0.032985
#
#
# Mechanical properties :
#
#
# Convention : Reuss Voigt Hill
#
# Bulk Modulus (GPa) = 27.61547 45.47124 36.54336
# Shear Modulus (GPa) = 20.22045 25.33606 22.77825
#
# Velocity S-wave (km/s) = 3.11644 3.48845 3.30768
# Velocity P-wave (km/s) = 5.11993 6.16978 5.66921
#
# Compressibility (1/GPa) = 0.03621158
#
# Stress axis : x y z
#
# Youngs Moduli (GPa) = 117.57289 65.79877 25.47322
#
# Poissons Ratio (x) = 0.26270 0.01502
# Poissons Ratio (y) = 0.46941 0.22396
# Poissons Ratio (z) = 0.06934 0.57850
#
# Static dielectric constant tensor:
#      x y z
#    x 4.252550 0.000000 0.000000 
#    y 0.000000 3.770110 0.000000 
#    z 0.000000 0.000000 3.258560 
# 
# 
# High freq. dielectric constant tensor:
#      x y z
#    x 1.840150 0.000000 0.000000 
#    y 0.000000 1.798830 0.000000 
#    z 0.000000 0.000000 1.758650 
# 
# From -- ./inp_files/31613.got.cif
#   From: 2010.06.25/outbox.cif.g09.slc.cpg/sg52_16_cif.got.tgz:31613.got - 2010.06.26 19:32:48.
