data_PCOD8216558
_publ_section_title
;
Structure prediction by ZEFSAII (Michael W. Deem and Ramdas Pophale) SiO2 
 PCOD8216558
Probable space group: P N N A
;
_chemical_formula_sum "Si O2"
_cell_formula_units_Z 24
_cell_length_a 8.297257
_cell_length_b 7.627110
_cell_length_c 13.188224
_cell_angle_alpha 90.000000
_cell_angle_beta 90.000000
_cell_angle_gamma 90.000000
_cell_volume 834.604779
_symmetry_space_group_name_H-M "P N N A"
_symmetry_group_IT_number 52
_symmetry_cell_setting 'orthorhombic'
loop_
_space_group_symop_operation_xyz
x,y,z
1/2-x,-y,z
x,1/2-y,1/2-z
1/2-x,1/2+y,1/2-z
-x,-y,-z
1/2+x,y,-z
-x,1/2+y,1/2+z
1/2+x,1/2-y,1/2+z
loop_
_atom_site_type_symbol
_atom_site_label
_atom_site_fract_x
_atom_site_fract_y
_atom_site_fract_z
Si Si1 0.522173 0.127923 0.129213
Si Si2 0.638842 0.764696 0.053881
Si Si3 0.417717 0.929276 0.313099
O O1 0.683544 0.235114 0.101084
O O2 0.536403 0.930182 0.090401
O O3 0.486976 0.098027 0.248947
O O4 0.371943 0.224103 0.070078
O O5 0.544105 0.594622 0.095316
O O6 0.398022 0.750000 0.250000
O O7 0.250000 0.000000 0.357954
#
# Coordination Sequence:
#
# PCOD8216558 Si02
#       3
#     8   8   8
#     4   9  19  36  69  97 139 187 237 295 360 429
#     4   9  19  37  67 101 137 186 242 292 360 431
#     4  10  22  40  68 109 146 187 247 301 365 440
#
# _framework density 28.756125999999998
#
# number of rings (size 3 to 8) (size 9 to 14) (size 15 to 20)
#    0.000    2.667    0.000    0.000   14.000    0.000 
#    0.000   13.333    0.000    0.000    0.000    2.333 
#    0.000    0.000    0.000    0.000    0.000    0.000 
#
# Total GULP energy -297369.602524 kJ/mol
# GULP energy per Si atom -12390.400105 kJ/mol
# Density = 2.869068 g / cm^3
# Si number density = 28.756126 Si / 1000 Ang^3
#
#
#
# Elastic Constant Matrix: (Units=GPa)
#
#
# Indices 1 2 3 4 5 6 
#
# 1 137.5226 49.0513 43.4269 0.0000 0.0000 0.0000
# 2 49.0513 118.0945 12.2066 0.0000 0.0000 0.0000
# 3 43.4269 12.2066 116.9947 0.0000 0.0000 0.0000
# 4 0.0000 0.0000 0.0000 22.4004 0.0000 0.0000
# 5 0.0000 0.0000 0.0000 0.0000 47.9545 0.0000
# 6 0.0000 0.0000 0.0000 0.0000 0.0000 55.0219
#
#
#
# Elastic Compliance Matrix: (Units=1/GPa)
#
#
# Indices 1 2 3 4 5 6 
#
# 1 0.009575 -0.003649 -0.003173 0.000000 0.000000 0.000000
# 2 -0.003649 0.009951 0.000316 0.000000 0.000000 0.000000
# 3 -0.003173 0.000316 0.009692 0.000000 0.000000 0.000000
# 4 0.000000 0.000000 0.000000 0.044642 0.000000 0.000000
# 5 0.000000 0.000000 0.000000 0.000000 0.020853 0.000000
# 6 0.000000 0.000000 0.000000 0.000000 0.000000 0.018175
#
#
# Mechanical properties :
#
#
# Convention : Reuss Voigt Hill
#
# Bulk Modulus (GPa) = 61.70640 64.66460 63.18550
# Shear Modulus (GPa) = 38.07999 42.93715 40.50857
#
# Velocity S-wave (km/s) = 3.64296 3.86832 3.75733
# Velocity P-wave (km/s) = 6.26099 6.51828 6.39093
#
# Compressibility (1/GPa) = 0.01620578
#
# Stress axis : x y z
#
# Youngs Moduli (GPa) = 104.43642 100.49459 103.17421
#
# Poissons Ratio (x) = 0.36672 0.32742
# Poissons Ratio (y) = 0.38110 -0.03263
# Poissons Ratio (z) = 0.33142 -0.03179
#
# Static dielectric constant tensor:
#      x y z
#    x 4.813620 0.000000 0.000000 
#    y 0.000000 5.496490 0.000000 
#    z 0.000000 0.000000 5.904330 
# 
# 
# High freq. dielectric constant tensor:
#      x y z
#    x 2.144390 0.000000 0.000000 
#    y 0.000000 2.201120 0.000000 
#    z 0.000000 0.000000 2.166900 
# 
# From -- ./inp_files/23922.got.cif
#   From: 2010.06.25/outbox.cif.g09.slc.cpg/sg52_12_cif.got.tgz:23922.got - 2010.06.26 19:32:48.
