data_PCOD8216940
_publ_section_title
;
Structure prediction by ZEFSAII (Michael W. Deem and Ramdas Pophale) SiO2 
 PCOD8216940
Probable space group: P N N A
;
_chemical_formula_sum "Si O2"
_cell_formula_units_Z 48
_cell_length_a 13.573674
_cell_length_b 8.718811
_cell_length_c 18.404233
_cell_angle_alpha 90.000000
_cell_angle_beta 90.000000
_cell_angle_gamma 90.000000
_cell_volume 2178.072846
_symmetry_space_group_name_H-M "P N N A"
_symmetry_group_IT_number 52
_symmetry_cell_setting 'orthorhombic'
loop_
_space_group_symop_operation_xyz
x,y,z
1/2-x,-y,z
x,1/2-y,1/2-z
1/2-x,1/2+y,1/2-z
-x,-y,-z
1/2+x,y,-z
-x,1/2+y,1/2+z
1/2+x,1/2-y,1/2+z
loop_
_atom_site_type_symbol
_atom_site_label
_atom_site_fract_x
_atom_site_fract_y
_atom_site_fract_z
Si Si1 0.959208 0.338359 0.928866
Si Si2 0.952986 0.066169 0.171962
Si Si3 0.562223 0.920013 0.334858
Si Si4 0.857310 0.453526 0.603888
Si Si5 0.808343 0.363014 0.044001
Si Si6 0.640061 0.121085 0.047990
O O1 0.977120 0.477726 0.873516
O O2 0.062832 0.254749 0.938973
O O3 0.869160 0.230286 0.900757
O O4 0.918076 0.376068 0.008860
O O5 0.918927 0.021263 0.253033
O O6 0.971633 0.245067 0.162329
O O7 0.061573 0.999831 0.161972
O O8 0.872231 0.998540 0.115048
O O9 0.668905 0.920483 0.374126
O O10 0.750000 0.500000 0.632816
O O11 0.880996 0.531044 0.526077
O O12 0.750000 0.500000 0.004065
O O13 0.749756 0.198785 0.042775
#
# Coordination Sequence:
#
# PCOD8216940 Si02
#       6
#     8   8   8   8   8   8
#     4  11  23  41  69  91 135 169 218 282 330 391
#     4  10  25  45  66  90 140 180 213 278 339 403
#     4  11  24  45  62  96 135 177 217 272 347 396
#     4  11  22  41  68  99 124 172 229 273 327 401
#     4  12  24  40  67 105 127 172 224 280 328 398
#     4  11  23  43  68  97 131 174 224 275 337 395
#
# _framework density 22.037831000000001
#
# number of rings (size 3 to 8) (size 9 to 14) (size 15 to 20)
#    0.000    1.000    3.333    4.500    2.333    2.667 
#    6.000    4.167    0.000    0.000    0.000    0.000 
#    0.000    0.000    0.000    0.000    0.000    0.000 
#
# Total GULP energy -594756.252595 kJ/mol
# GULP energy per Si atom -12390.755262 kJ/mol
# Density = 2.198767 g / cm^3
# Si number density = 22.037831 Si / 1000 Ang^3
#
#
#
# Elastic Constant Matrix: (Units=GPa)
#
#
# Indices 1 2 3 4 5 6 
#
# 1 76.9895 13.3820 29.5869 0.0000 0.0000 0.0000
# 2 13.3820 92.1240 47.2812 0.0000 0.0000 0.0000
# 3 29.5869 47.2812 110.7493 0.0000 0.0000 0.0000
# 4 0.0000 0.0000 0.0000 31.7311 0.0000 0.0000
# 5 0.0000 0.0000 0.0000 0.0000 23.8905 0.0000
# 6 0.0000 0.0000 0.0000 0.0000 0.0000 38.8843
#
#
#
# Elastic Compliance Matrix: (Units=1/GPa)
#
#
# Indices 1 2 3 4 5 6 
#
# 1 0.014477 -0.000151 -0.003803 0.000000 0.000000 0.000000
# 2 -0.000151 0.013902 -0.005895 0.000000 0.000000 0.000000
# 3 -0.003803 -0.005895 0.012562 0.000000 0.000000 0.000000
# 4 0.000000 0.000000 0.000000 0.031515 0.000000 0.000000
# 5 0.000000 0.000000 0.000000 0.000000 0.041858 0.000000
# 6 0.000000 0.000000 0.000000 0.000000 0.000000 0.025717
#
#
# Mechanical properties :
#
#
# Convention : Reuss Voigt Hill
#
# Bulk Modulus (GPa) = 47.07404 51.15146 49.11275
# Shear Modulus (GPa) = 29.97434 31.54202 30.75818
#
# Velocity S-wave (km/s) = 3.69200 3.78731 3.73996
# Velocity P-wave (km/s) = 6.29137 6.51046 6.40186
#
# Compressibility (1/GPa) = 0.02124313
#
# Stress axis : x y z
#
# Youngs Moduli (GPa) = 69.07743 71.93049 79.60521
#
# Poissons Ratio (x) = 0.01087 0.30273
# Poissons Ratio (y) = 0.01044 0.46926
# Poissons Ratio (z) = 0.26270 0.42402
#
# Static dielectric constant tensor:
#      x y z
#    x 3.974310 0.000000 0.000000 
#    y 0.000000 4.285110 0.000000 
#    z 0.000000 0.000000 4.026960 
# 
# 
# High freq. dielectric constant tensor:
#      x y z
#    x 1.866220 0.000000 0.000000 
#    y 0.000000 1.886900 0.000000 
#    z 0.000000 0.000000 1.849590 
# 
# From -- ./inp_files/33069.got.cif
#   From: 2010.06.25/outbox.cif.g09.slc.cpg/sg52_17_cif.got.tgz:33069.got - 2010.06.26 19:32:48.
