data_PCOD8216480
_publ_section_title
;
Structure prediction by ZEFSAII (Michael W. Deem and Ramdas Pophale) SiO2 
 PCOD8216480
Probable space group: P N N A
;
_chemical_formula_sum "Si O2"
_cell_formula_units_Z 56
_cell_length_a 9.397438
_cell_length_b 17.199975
_cell_length_c 14.441276
_cell_angle_alpha 90.000000
_cell_angle_beta 90.000000
_cell_angle_gamma 90.000000
_cell_volume 2334.225736
_symmetry_space_group_name_H-M "P N N A"
_symmetry_group_IT_number 52
_symmetry_cell_setting 'orthorhombic'
loop_
_space_group_symop_operation_xyz
x,y,z
1/2-x,-y,z
x,1/2-y,1/2-z
1/2-x,1/2+y,1/2-z
-x,-y,-z
1/2+x,y,-z
-x,1/2+y,1/2+z
1/2+x,1/2-y,1/2+z
loop_
_atom_site_type_symbol
_atom_site_label
_atom_site_fract_x
_atom_site_fract_y
_atom_site_fract_z
Si Si1 0.383050 0.950406 0.135807
Si Si2 0.403417 0.346457 0.561886
Si Si3 0.284193 0.353618 0.093142
Si Si4 0.307920 0.181491 0.138262
Si Si5 0.480013 0.082483 0.260799
Si Si6 0.258745 0.338334 0.751252
Si Si7 0.532533 0.674298 0.086079
O O1 0.490001 0.920823 0.055354
O O2 0.319799 0.870850 0.182770
O O3 0.250000 0.000000 0.094639
O O4 0.467451 0.997741 0.214491
O O5 0.309535 0.339581 0.470661
O O6 0.298368 0.362349 0.647302
O O7 0.494965 0.267119 0.577434
O O8 0.293094 0.273368 0.152637
O O9 0.367887 0.417090 0.154109
O O10 0.117208 0.371649 0.077230
O O11 0.359865 0.350785 0.994435
O O12 0.451874 0.150998 0.185710
O O13 0.640578 0.101987 0.292308
O O14 0.201212 0.250000 0.750000
O O15 0.396909 0.346316 0.816144
#
# Coordination Sequence:
#
# PCOD8216480 Si02
#       7
#     8   8   8   8   8   8   8
#     4  10  23  40  57  92 132 185 228 258 334 410
#     4  10  22  39  64  93 136 179 229 276 333 406
#     4  11  21  39  68 100 131 172 225 294 338 402
#     4  10  22  38  65  92 132 180 235 269 335 406
#     4  11  24  38  60  94 141 178 225 281 338 409
#     4  10  22  39  61  96 131 172 227 286 343 400
#     4  10  22  38  70 100 131 168 226 292 347 398
#
# _framework density 23.990822999999999
#
# number of rings (size 3 to 8) (size 9 to 14) (size 15 to 20)
#    0.000    1.714    1.429    2.143    6.000    6.286 
#    2.571    0.000    0.000    0.857    3.714    0.000 
#    0.000    0.000    0.000    0.000    0.000    0.000 
#
# Total GULP energy -694270.517552 kJ/mol
# GULP energy per Si atom -12397.687813 kJ/mol
# Density = 2.393622 g / cm^3
# Si number density = 23.990823 Si / 1000 Ang^3
#
#
#
# Elastic Constant Matrix: (Units=GPa)
#
#
# Indices 1 2 3 4 5 6 
#
# 1 145.3169 27.1601 32.8784 0.0000 0.0000 0.0000
# 2 27.1601 58.8836 9.3524 0.0000 0.0000 0.0000
# 3 32.8784 9.3524 84.0083 0.0000 0.0000 0.0000
# 4 0.0000 0.0000 0.0000 33.5223 0.0000 0.0000
# 5 0.0000 0.0000 0.0000 0.0000 33.3030 0.0000
# 6 0.0000 0.0000 0.0000 0.0000 0.0000 28.1338
#
#
#
# Elastic Compliance Matrix: (Units=1/GPa)
#
#
# Indices 1 2 3 4 5 6 
#
# 1 0.008137 -0.003306 -0.002816 0.000000 0.000000 0.000000
# 2 -0.003306 0.018631 -0.000780 0.000000 0.000000 0.000000
# 3 -0.002816 -0.000780 0.013093 0.000000 0.000000 0.000000
# 4 0.000000 0.000000 0.000000 0.029831 0.000000 0.000000
# 5 0.000000 0.000000 0.000000 0.000000 0.030027 0.000000
# 6 0.000000 0.000000 0.000000 0.000000 0.000000 0.035544
#
#
# Mechanical properties :
#
#
# Convention : Reuss Voigt Hill
#
# Bulk Modulus (GPa) = 38.37939 47.44339 42.91139
# Shear Modulus (GPa) = 31.69500 33.57967 32.63734
#
# Velocity S-wave (km/s) = 3.63868 3.74530 3.69237
# Velocity P-wave (km/s) = 5.80393 6.20658 6.00863
#
# Compressibility (1/GPa) = 0.02605565
#
# Stress axis : x y z
#
# Youngs Moduli (GPa) = 122.90185 53.67296 76.37825
#
# Poissons Ratio (x) = 0.17743 0.21511
# Poissons Ratio (y) = 0.40627 0.05961
# Poissons Ratio (z) = 0.34614 0.04189
#
# Static dielectric constant tensor:
#      x y z
#    x 4.221620 0.000000 0.000000 
#    y 0.000000 4.222760 0.000000 
#    z 0.000000 0.000000 4.096110 
# 
# 
# High freq. dielectric constant tensor:
#      x y z
#    x 1.954550 0.000000 0.000000 
#    y 0.000000 1.931260 0.000000 
#    z 0.000000 0.000000 1.941790 
# 
# From -- ./inp_files/24980.got.cif
#   From: 2010.06.25/outbox.cif.g09.slc.cpg/sg52_13_cif.got.tgz:24980.got - 2010.06.26 19:32:48.
