data_PCOD8216954
_publ_section_title
;
Structure prediction by ZEFSAII (Michael W. Deem and Ramdas Pophale) SiO2 
 PCOD8216954
Probable space group: P N N A
;
_chemical_formula_sum "Si O2"
_cell_formula_units_Z 44
_cell_length_a 4.965565
_cell_length_b 14.826158
_cell_length_c 26.817059
_cell_angle_alpha 90.000000
_cell_angle_beta 90.000000
_cell_angle_gamma 90.000000
_cell_volume 1974.278621
_symmetry_space_group_name_H-M "P N N A"
_symmetry_group_IT_number 52
_symmetry_cell_setting 'orthorhombic'
loop_
_space_group_symop_operation_xyz
x,y,z
1/2-x,-y,z
x,1/2-y,1/2-z
1/2-x,1/2+y,1/2-z
-x,-y,-z
1/2+x,y,-z
-x,1/2+y,1/2+z
1/2+x,1/2-y,1/2+z
loop_
_atom_site_type_symbol
_atom_site_label
_atom_site_fract_x
_atom_site_fract_y
_atom_site_fract_z
Si Si1 0.250000 0.000000 0.599007
Si Si2 0.882215 0.833281 0.466856
Si Si3 0.190327 0.708190 0.618119
Si Si4 0.185269 0.600591 0.353393
Si Si5 0.589144 0.622621 0.181152
Si Si6 0.428980 0.146945 0.256372
O O1 0.385409 0.926162 0.563843
O O2 0.044556 0.949262 0.636559
O O3 0.690286 0.830405 0.515180
O O4 0.785347 0.747999 0.434669
O O5 0.382787 0.625034 0.631326
O O6 0.214365 0.784847 0.659859
O O7 0.886909 0.669561 0.618554
O O8 0.250000 0.500000 0.371359
O O9 0.198832 0.605218 0.293442
O O10 0.295422 0.638971 0.201616
O O11 0.806342 0.592787 0.223804
O O12 0.514523 0.250000 0.250000
#
# Coordination Sequence:
#
# PCOD8216954 Si02
#       6
#     4   8   8   8   8   8
#     4  10  26  40  66  98 144 166 208 262 324 386
#     4  11  24  44  72  99 126 165 211 264 329 408
#     4  11  22  43  63  89 124 165 206 259 329 379
#     4  12  25  39  63  92 124 170 215 267 317 365
#     4  11  23  38  58  90 127 177 208 256 307 370
#     4  12  22  39  59  86 127 171 226 259 300 359
#
# _framework density 22.286622000000001
#
# number of rings (size 3 to 8) (size 9 to 14) (size 15 to 20)
#    0.000    0.727    3.636    3.818    2.545    5.818 
#    0.000    0.000    0.000   10.909    0.000    0.000 
#    0.000    0.000    0.000    0.000    0.000    0.000 
#
# Total GULP energy -545594.345231 kJ/mol
# GULP energy per Si atom -12399.871483 kJ/mol
# Density = 2.223590 g / cm^3
# Si number density = 22.286622 Si / 1000 Ang^3
#
#
#
# Elastic Constant Matrix: (Units=GPa)
#
#
# Indices 1 2 3 4 5 6 
#
# 1 81.4011 4.1955 11.7967 0.0000 0.0000 0.0000
# 2 4.1955 90.9525 33.3846 0.0000 0.0000 0.0000
# 3 11.7967 33.3846 83.3328 0.0000 0.0000 0.0000
# 4 0.0000 0.0000 0.0000 19.3105 0.0000 0.0000
# 5 0.0000 0.0000 0.0000 0.0000 3.2084 0.0000
# 6 0.0000 0.0000 0.0000 0.0000 0.0000 5.0426
#
#
#
# Elastic Compliance Matrix: (Units=1/GPa)
#
#
# Indices 1 2 3 4 5 6 
#
# 1 0.012543 0.000086 -0.001810 0.000000 0.000000 0.000000
# 2 0.000086 0.012891 -0.005176 0.000000 0.000000 0.000000
# 3 -0.001810 -0.005176 0.014330 0.000000 0.000000 0.000000
# 4 0.000000 0.000000 0.000000 0.051785 0.000000 0.000000
# 5 0.000000 0.000000 0.000000 0.000000 0.311677 0.000000
# 6 0.000000 0.000000 0.000000 0.000000 0.000000 0.198312
#
#
# Mechanical properties :
#
#
# Convention : Reuss Voigt Hill
#
# Bulk Modulus (GPa) = 38.51721 39.38224 38.94972
# Shear Modulus (GPa) = 8.01291 19.26627 13.63959
#
# Velocity S-wave (km/s) = 1.89821 2.94339 2.47656
# Velocity P-wave (km/s) = 4.70366 5.40930 5.06878
#
# Compressibility (1/GPa) = 0.02596242
#
# Stress axis : x y z
#
# Youngs Moduli (GPa) = 79.72749 77.57450 69.78337
#
# Poissons Ratio (x) = -0.00665 0.12630
# Poissons Ratio (y) = -0.00684 0.36123
# Poissons Ratio (z) = 0.14430 0.40156
#
# Static dielectric constant tensor:
#      x y z
#    x 3.822020 0.000000 0.000000 
#    y 0.000000 4.047980 0.000000 
#    z 0.000000 0.000000 4.065220 
# 
# 
# High freq. dielectric constant tensor:
#      x y z
#    x 1.880540 0.000000 0.000000 
#    y 0.000000 1.876430 0.000000 
#    z 0.000000 0.000000 1.871200 
# 
# From -- ./inp_files/41632.got.cif
#   From: 2010.06.25/outbox.cif.g09.slc.cpg/sg52_21_cif.got.tgz:41632.got - 2010.06.26 19:32:48.
