data_PCOD8216972
_publ_section_title
;
Structure prediction by ZEFSAII (Michael W. Deem and Ramdas Pophale) SiO2 
 PCOD8216972
Probable space group: P N N A
;
_chemical_formula_sum "Si O2"
_cell_formula_units_Z 36
_cell_length_a 6.178723
_cell_length_b 10.653793
_cell_length_c 21.604545
_cell_angle_alpha 90.000000
_cell_angle_beta 90.000000
_cell_angle_gamma 90.000000
_cell_volume 1422.158837
_symmetry_space_group_name_H-M "P N N A"
_symmetry_group_IT_number 52
_symmetry_cell_setting 'orthorhombic'
loop_
_space_group_symop_operation_xyz
x,y,z
1/2-x,-y,z
x,1/2-y,1/2-z
1/2-x,1/2+y,1/2-z
-x,-y,-z
1/2+x,y,-z
-x,1/2+y,1/2+z
1/2+x,1/2-y,1/2+z
loop_
_atom_site_type_symbol
_atom_site_label
_atom_site_fract_x
_atom_site_fract_y
_atom_site_fract_z
Si Si1 0.385480 0.114884 0.479804
Si Si2 0.382108 0.621083 0.333151
Si Si3 0.496864 0.779517 0.641420
Si Si4 0.185691 0.866323 0.943317
Si Si5 0.704788 0.750000 0.250000
O O1 0.621897 0.062065 0.513227
O O2 0.451161 0.111516 0.407707
O O3 0.359741 0.256783 0.506238
O O4 0.250000 0.500000 0.313465
O O5 0.221973 0.738258 0.329126
O O6 0.470579 0.613488 0.403077
O O7 0.568049 0.640676 0.282475
O O8 0.379523 0.667806 0.603425
O O9 0.345503 0.823554 0.698046
O O10 0.250000 0.000000 0.975755
#
# Coordination Sequence:
#
# PCOD8216972 Si02
#       5
#     8   8   8   8   4
#     4  12  25  47  74 114 163 203 254 319 402 493
#     4  11  23  46  77 113 150 197 269 331 393 468
#     4  11  24  48  75 111 159 199 263 325 397 471
#     4  11  24  45  77 114 156 204 253 324 399 476
#     4  10  26  48  76 106 150 212 266 330 394 472
#
# _framework density 25.313628000000001
#
# number of rings (size 3 to 8) (size 9 to 14) (size 15 to 20)
#    0.000    0.889    4.444    2.000    0.000    1.778 
#    0.000   22.222    0.000    0.000    0.000    0.000 
#    0.000    0.000    0.000    0.000    0.000    0.000 
#
# Total GULP energy -446185.604628 kJ/mol
# GULP energy per Si atom -12394.044573 kJ/mol
# Density = 2.525601 g / cm^3
# Si number density = 25.313628 Si / 1000 Ang^3
#
#
#
# Elastic Constant Matrix: (Units=GPa)
#
#
# Indices 1 2 3 4 5 6 
#
# 1 156.6796 81.8579 86.9276 0.0000 0.0000 0.0000
# 2 81.8579 164.5458 73.3268 0.0000 0.0000 0.0000
# 3 86.9276 73.3268 173.2904 0.0000 0.0000 0.0000
# 4 0.0000 0.0000 0.0000 17.6596 0.0000 0.0000
# 5 0.0000 0.0000 0.0000 0.0000 35.6049 0.0000
# 6 0.0000 0.0000 0.0000 0.0000 0.0000 42.6222
#
#
#
# Elastic Compliance Matrix: (Units=1/GPa)
#
#
# Indices 1 2 3 4 5 6 
#
# 1 0.010219 -0.003450 -0.003666 0.000000 0.000000 0.000000
# 2 -0.003450 0.008654 -0.001931 0.000000 0.000000 0.000000
# 3 -0.003666 -0.001931 0.008427 0.000000 0.000000 0.000000
# 4 0.000000 0.000000 0.000000 0.056627 0.000000 0.000000
# 5 0.000000 0.000000 0.000000 0.000000 0.028086 0.000000
# 6 0.000000 0.000000 0.000000 0.000000 0.000000 0.023462
#
#
# Mechanical properties :
#
#
# Convention : Reuss Voigt Hill
#
# Bulk Modulus (GPa) = 108.63651 108.74894 108.69272
# Shear Modulus (GPa) = 31.92062 36.00424 33.96243
#
# Velocity S-wave (km/s) = 3.55492 3.77547 3.66685
# Velocity P-wave (km/s) = 7.73688 7.87778 7.80765
#
# Compressibility (1/GPa) = 0.00920501
#
# Stress axis : x y z
#
# Youngs Moduli (GPa) = 97.85711 115.54965 118.66490
#
# Poissons Ratio (x) = 0.39863 0.43507
# Poissons Ratio (y) = 0.33759 0.22920
# Poissons Ratio (z) = 0.35878 0.22318
#
# Static dielectric constant tensor:
#      x y z
#    x 5.841320 0.000000 0.000000 
#    y 0.000000 4.667850 0.000000 
#    z 0.000000 0.000000 4.507660 
# 
# 
# High freq. dielectric constant tensor:
#      x y z
#    x 2.070090 0.000000 0.000000 
#    y 0.000000 2.007480 0.000000 
#    z 0.000000 0.000000 1.996760 
# 
# From -- ./inp_files/34928.got.cif
#   From: 2010.06.25/outbox.cif.g09.slc.cpg/sg52_18_cif.got.tgz:34928.got - 2010.06.26 19:32:48.
