data_PCOD8216769
_publ_section_title
;
Structure prediction by ZEFSAII (Michael W. Deem and Ramdas Pophale) SiO2 
 PCOD8216769
Probable space group: P N N A
;
_chemical_formula_sum "Si O2"
_cell_formula_units_Z 48
_cell_length_a 8.477690
_cell_length_b 14.843182
_cell_length_c 17.009081
_cell_angle_alpha 90.000000
_cell_angle_beta 90.000000
_cell_angle_gamma 90.000000
_cell_volume 2140.352941
_symmetry_space_group_name_H-M "P N N A"
_symmetry_group_IT_number 52
_symmetry_cell_setting 'orthorhombic'
loop_
_space_group_symop_operation_xyz
x,y,z
1/2-x,-y,z
x,1/2-y,1/2-z
1/2-x,1/2+y,1/2-z
-x,-y,-z
1/2+x,y,-z
-x,1/2+y,1/2+z
1/2+x,1/2-y,1/2+z
loop_
_atom_site_type_symbol
_atom_site_label
_atom_site_fract_x
_atom_site_fract_y
_atom_site_fract_z
Si Si1 0.344982 0.378742 0.536074
Si Si2 0.566586 0.479162 0.914263
Si Si3 0.981450 0.399051 0.767314
Si Si4 0.515184 0.774440 0.376162
Si Si5 0.270590 0.750000 0.250000
Si Si6 0.514309 0.446701 0.401395
Si Si7 0.270301 0.750000 0.750000
O O1 0.433376 0.282606 0.547460
O O2 0.360177 0.400439 0.442667
O O3 0.462236 0.450934 0.574591
O O4 0.170271 0.387437 0.573156
O O5 0.750000 0.500000 0.913446
O O6 0.488953 0.540790 0.845357
O O7 0.532088 0.375115 0.898677
O O8 0.500000 0.500000 0.000000
O O9 0.828566 0.336653 0.776811
O O10 0.969483 0.459553 0.689838
O O11 0.128326 0.339113 0.742081
O O12 0.376530 0.726985 0.326102
O O13 0.672864 0.770484 0.326730
#
# Coordination Sequence:
#
# PCOD8216769 Si02
#       7
#     8   8   8   8   4   8   4
#     4  10  23  42  65 104 141 177 233 295 361 449
#     4  12  30  51  72 107 152 208 257 317 378 451
#     4  11  24  47  71 100 144 187 244 303 368 448
#     4  11  24  45  71 105 145 188 253 301 385 451
#     4  10  24  42  68 102 138 182 250 300 366 438
#     4  10  23  42  68 102 140 182 229 295 378 430
#     4  10  24  42  74 112 128 190 242 314 366 438
#
# _framework density 22.426209
#
# number of rings (size 3 to 8) (size 9 to 14) (size 15 to 20)
#    0.000    1.333    3.333    0.000    9.333    4.000 
#    3.000    0.000    0.000    0.000    0.000    0.000 
#    0.000    0.000    0.000    0.000    0.000    0.000 
#
# Total GULP energy -594663.008887 kJ/mol
# GULP energy per Si atom -12388.812685 kJ/mol
# Density = 2.237517 g / cm^3
# Si number density = 22.426209 Si / 1000 Ang^3
#
#
#
# Elastic Constant Matrix: (Units=GPa)
#
#
# Indices 1 2 3 4 5 6 
#
# 1 71.2739 19.5218 16.1669 0.0000 0.0000 0.0000
# 2 19.5218 133.6804 38.8225 0.0000 0.0000 0.0000
# 3 16.1669 38.8225 155.4975 0.0000 0.0000 0.0000
# 4 0.0000 0.0000 0.0000 34.9506 0.0000 0.0000
# 5 0.0000 0.0000 0.0000 0.0000 27.4768 0.0000
# 6 0.0000 0.0000 0.0000 0.0000 0.0000 67.6083
#
#
#
# Elastic Compliance Matrix: (Units=1/GPa)
#
#
# Indices 1 2 3 4 5 6 
#
# 1 0.014780 -0.001846 -0.001076 0.000000 0.000000 0.000000
# 2 -0.001846 0.008296 -0.001879 0.000000 0.000000 0.000000
# 3 -0.001076 -0.001879 0.007012 0.000000 0.000000 0.000000
# 4 0.000000 0.000000 0.000000 0.028612 0.000000 0.000000
# 5 0.000000 0.000000 0.000000 0.000000 0.036394 0.000000
# 6 0.000000 0.000000 0.000000 0.000000 0.000000 0.014791
#
#
# Mechanical properties :
#
#
# Convention : Reuss Voigt Hill
#
# Bulk Modulus (GPa) = 48.81420 56.60825 52.71123
# Shear Modulus (GPa) = 39.58332 45.06983 42.32658
#
# Velocity S-wave (km/s) = 4.20580 4.48783 4.34910
# Velocity P-wave (km/s) = 6.73787 7.22156 6.98390
#
# Compressibility (1/GPa) = 0.02048584
#
# Stress axis : x y z
#
# Youngs Moduli (GPa) = 67.65897 120.54191 142.61236
#
# Poissons Ratio (x) = 0.22251 0.15342
# Poissons Ratio (y) = 0.12490 0.26801
# Poissons Ratio (z) = 0.07279 0.22653
#
# Static dielectric constant tensor:
#      x y z
#    x 4.115510 0.000000 0.000000 
#    y 0.000000 3.676660 0.000000 
#    z 0.000000 0.000000 5.205670 
# 
# 
# High freq. dielectric constant tensor:
#      x y z
#    x 1.891410 0.000000 0.000000 
#    y 0.000000 1.881100 0.000000 
#    z 0.000000 0.000000 1.888480 
# 
# From -- ./inp_files/31296.got.cif
#   From: 2010.06.25/outbox.cif.g09.slc.cpg/sg52_16_cif.got.tgz:31296.got - 2010.06.26 19:32:48.
