data_PCOD8216374
_publ_section_title
;
Structure prediction by ZEFSAII (Michael W. Deem and Ramdas Pophale) SiO2 
 PCOD8216374
Probable space group: P N N A
;
_chemical_formula_sum "Si O2"
_cell_formula_units_Z 32
_cell_length_a 14.939371
_cell_length_b 9.738846
_cell_length_c 7.955634
_cell_angle_alpha 90.000000
_cell_angle_beta 90.000000
_cell_angle_gamma 90.000000
_cell_volume 1157.482960
_symmetry_space_group_name_H-M "P N N A"
_symmetry_group_IT_number 52
_symmetry_cell_setting 'orthorhombic'
loop_
_space_group_symop_operation_xyz
x,y,z
1/2-x,-y,z
x,1/2-y,1/2-z
1/2-x,1/2+y,1/2-z
-x,-y,-z
1/2+x,y,-z
-x,1/2+y,1/2+z
1/2+x,1/2-y,1/2+z
loop_
_atom_site_type_symbol
_atom_site_label
_atom_site_fract_x
_atom_site_fract_y
_atom_site_fract_z
Si Si1 0.125277 0.194762 0.569085
Si Si2 0.600197 0.011687 0.062019
Si Si3 0.042988 0.877675 0.621195
Si Si4 0.804338 0.254317 0.942534
O O1 0.092080 0.250000 0.750000
O O2 0.132576 0.346662 0.479096
O O3 0.230015 0.157656 0.549370
O O4 0.055259 0.095531 0.464469
O O5 0.588524 0.005494 0.271691
O O6 0.672658 0.897766 0.011536
O O7 0.500000 0.000000 0.000000
O O8 0.037981 0.750000 0.750000
O O9 0.105656 0.842224 0.464582
O O10 0.776236 0.250000 0.750000
#
# Coordination Sequence:
#
# PCOD8216374 Si02
#       4
#     8   8   8   8
#     4  12  24  43  69  98 134 178 222 272 335 396
#     4  11  23  42  70  94 133 175 216 273 336 390
#     4  10  21  42  66  96 134 170 221 272 329 394
#     4  11  24  43  66  97 136 173 222 277 330 397
#
# _framework density 27.646196
#
# number of rings (size 3 to 8) (size 9 to 14) (size 15 to 20)
#    0.000    1.000    5.000    4.500    0.000    1.000 
#    0.000    0.000    0.000    0.000    0.000    0.000 
#    0.000    0.000    0.000    0.000    0.000    0.000 
#
# Total GULP energy -396428.219174 kJ/mol
# GULP energy per Si atom -12388.381849 kJ/mol
# Density = 2.758327 g / cm^3
# Si number density = 27.646196 Si / 1000 Ang^3
#
#
#
# Elastic Constant Matrix: (Units=GPa)
#
#
# Indices 1 2 3 4 5 6 
#
# 1 143.0845 18.4136 24.8306 0.0000 0.0000 0.0000
# 2 18.4136 90.2157 8.1737 0.0000 0.0000 0.0000
# 3 24.8306 8.1737 129.2382 0.0000 0.0000 0.0000
# 4 0.0000 0.0000 0.0000 35.8590 0.0000 0.0000
# 5 0.0000 0.0000 0.0000 0.0000 43.7298 0.0000
# 6 0.0000 0.0000 0.0000 0.0000 0.0000 34.7435
#
#
#
# Elastic Compliance Matrix: (Units=1/GPa)
#
#
# Indices 1 2 3 4 5 6 
#
# 1 0.007399 -0.001389 -0.001334 0.000000 0.000000 0.000000
# 2 -0.001389 0.011409 -0.000455 0.000000 0.000000 0.000000
# 3 -0.001334 -0.000455 0.008023 0.000000 0.000000 0.000000
# 4 0.000000 0.000000 0.000000 0.027887 0.000000 0.000000
# 5 0.000000 0.000000 0.000000 0.000000 0.022868 0.000000
# 6 0.000000 0.000000 0.000000 0.000000 0.000000 0.028782
#
#
# Mechanical properties :
#
#
# Convention : Reuss Voigt Hill
#
# Bulk Modulus (GPa) = 48.83858 51.70824 50.27341
# Shear Modulus (GPa) = 41.82389 43.60781 42.71585
#
# Velocity S-wave (km/s) = 3.89373 3.97590 3.93503
# Velocity P-wave (km/s) = 6.15782 6.31040 6.23458
#
# Compressibility (1/GPa) = 0.02047562
#
# Stress axis : x y z
#
# Youngs Moduli (GPa) = 135.15104 87.64766 124.64698
#
# Poissons Ratio (x) = 0.12178 0.16625
# Poissons Ratio (y) = 0.18777 0.05667
# Poissons Ratio (z) = 0.18025 0.03985
#
# Static dielectric constant tensor:
#      x y z
#    x 5.652850 0.000000 0.000000 
#    y 0.000000 6.565110 0.000000 
#    z 0.000000 0.000000 6.913810 
# 
# 
# High freq. dielectric constant tensor:
#      x y z
#    x 2.119700 0.000000 0.000000 
#    y 0.000000 2.157140 0.000000 
#    z 0.000000 0.000000 2.118650 
# 
# From -- ./inp_files/9529.got.cif
#   From: 2010.06.25/outbox.cif.g09.slc.cpg/sg52_5_cif.got.tgz:9529.got - 2010.06.26 19:32:48.
