data_PCOD8216191
_publ_section_title
;
Structure prediction by ZEFSAII (Michael W. Deem and Ramdas Pophale) SiO2 
 PCOD8216191
Probable space group: P N N A
;
_chemical_formula_sum "Si O2"
_cell_formula_units_Z 40
_cell_length_a 8.409470
_cell_length_b 13.738419
_cell_length_c 13.627252
_cell_angle_alpha 90.000000
_cell_angle_beta 90.000000
_cell_angle_gamma 90.000000
_cell_volume 1574.394885
_symmetry_space_group_name_H-M "P N N A"
_symmetry_group_IT_number 52
_symmetry_cell_setting 'orthorhombic'
loop_
_space_group_symop_operation_xyz
x,y,z
1/2-x,-y,z
x,1/2-y,1/2-z
1/2-x,1/2+y,1/2-z
-x,-y,-z
1/2+x,y,-z
-x,1/2+y,1/2+z
1/2+x,1/2-y,1/2+z
loop_
_atom_site_type_symbol
_atom_site_label
_atom_site_fract_x
_atom_site_fract_y
_atom_site_fract_z
Si Si1 0.946199 0.831518 0.362374
Si Si2 0.434184 0.980194 0.298159
Si Si3 0.650697 0.593169 0.035057
Si Si4 0.533925 0.911071 0.107501
Si Si5 0.096711 0.373115 0.588817
O O1 0.971104 0.914814 0.277559
O O2 0.085504 0.852592 0.440267
O O3 0.766444 0.836178 0.403944
O O4 0.962290 0.715462 0.338474
O O5 0.250000 0.000000 0.304073
O O6 0.499060 0.940970 0.401515
O O7 0.470660 0.895384 0.218369
O O8 0.750000 0.500000 0.000909
O O9 0.718478 0.889286 0.103544
O O10 0.496230 0.027713 0.099502
O O11 0.437272 0.847187 0.027443
#
# Coordination Sequence:
#
# PCOD8216191 Si02
#       5
#     8   8   8   8   8
#     4  11  21  40  69  97 133 170 226 272 332 397
#     4  11  24  41  66  99 132 173 221 278 339 400
#     4  10  21  38  65 100 133 172 210 274 342 396
#     4  10  24  43  67  92 131 178 220 267 336 400
#     4  10  23  42  67  90 128 175 223 264 332 397
#
# _framework density 25.406585
#
# number of rings (size 3 to 8) (size 9 to 14) (size 15 to 20)
#    0.000    1.600    0.000    5.400   14.000    0.800 
#    0.000    3.000    8.800    0.000    0.000    0.000 
#    0.000    0.000    0.000    0.000    0.000    0.000 
#
# Total GULP energy -495648.271431 kJ/mol
# GULP energy per Si atom -12391.206786 kJ/mol
# Density = 2.534876 g / cm^3
# Si number density = 25.406585 Si / 1000 Ang^3
#
#
#
# Elastic Constant Matrix: (Units=GPa)
#
#
# Indices 1 2 3 4 5 6 
#
# 1 117.0860 -19.1057 -2.0843 0.0000 0.0000 0.0000
# 2 -19.1057 94.0754 -16.7976 0.0000 0.0000 0.0000
# 3 -2.0843 -16.7976 28.6889 0.0000 0.0000 0.0000
# 4 0.0000 0.0000 0.0000 47.0392 0.0000 0.0000
# 5 0.0000 0.0000 0.0000 0.0000 22.6430 0.0000
# 6 0.0000 0.0000 0.0000 0.0000 0.0000 18.5915
#
#
#
# Elastic Compliance Matrix: (Units=1/GPa)
#
#
# Indices 1 2 3 4 5 6 
#
# 1 0.008926 0.002154 0.001910 0.000000 0.000000 0.000000
# 2 0.002154 0.012390 0.007411 0.000000 0.000000 0.000000
# 3 0.001910 0.007411 0.039335 0.000000 0.000000 0.000000
# 4 0.000000 0.000000 0.000000 0.021259 0.000000 0.000000
# 5 0.000000 0.000000 0.000000 0.000000 0.044164 0.000000
# 6 0.000000 0.000000 0.000000 0.000000 0.000000 0.053788
#
#
# Mechanical properties :
#
#
# Convention : Reuss Voigt Hill
#
# Bulk Modulus (GPa) = 11.96164 18.20833 15.08498
# Shear Modulus (GPa) = 27.05922 36.17726 31.61824
#
# Velocity S-wave (km/s) = 3.26705 3.77760 3.53156
# Velocity P-wave (km/s) = 4.35313 5.11950 4.75179
#
# Compressibility (1/GPa) = 0.08360058
#
# Stress axis : x y z
#
# Youngs Moduli (GPa) = 112.03012 80.70700 25.42279
#
# Poissons Ratio (x) = -0.17382 -0.04855
# Poissons Ratio (y) = -0.24129 -0.18841
# Poissons Ratio (z) = -0.21393 -0.59814
#
# Static dielectric constant tensor:
#      x y z
#    x 4.356080 0.000000 0.000000 
#    y 0.000000 4.981120 0.000000 
#    z 0.000000 0.000000 5.002880 
# 
# 
# High freq. dielectric constant tensor:
#      x y z
#    x 2.008560 0.000000 0.000000 
#    y 0.000000 2.003670 0.000000 
#    z 0.000000 0.000000 2.029560 
# 
# From -- ./inp_files/24408.got.cif
#   From: 2010.06.25/outbox.cif.g09.slc.cpg/sg52_13_cif.got.tgz:24408.got - 2010.06.26 19:32:48.
