data_PCOD8216804
_publ_section_title
;
Structure prediction by ZEFSAII (Michael W. Deem and Ramdas Pophale) SiO2 
 PCOD8216804
Probable space group: P N N A
;
_chemical_formula_sum "Si O2"
_cell_formula_units_Z 40
_cell_length_a 16.466686
_cell_length_b 12.088240
_cell_length_c 9.384865
_cell_angle_alpha 90.000000
_cell_angle_beta 90.000000
_cell_angle_gamma 90.000000
_cell_volume 1868.087901
_symmetry_space_group_name_H-M "P N N A"
_symmetry_group_IT_number 52
_symmetry_cell_setting 'orthorhombic'
loop_
_space_group_symop_operation_xyz
x,y,z
1/2-x,-y,z
x,1/2-y,1/2-z
1/2-x,1/2+y,1/2-z
-x,-y,-z
1/2+x,y,-z
-x,1/2+y,1/2+z
1/2+x,1/2-y,1/2+z
loop_
_atom_site_type_symbol
_atom_site_label
_atom_site_fract_x
_atom_site_fract_y
_atom_site_fract_z
Si Si1 0.703248 0.148807 0.475567
Si Si2 0.250000 0.500000 0.215311
Si Si3 0.846211 0.122671 0.250383
Si Si4 0.564161 0.750000 0.750000
Si Si5 0.809092 0.340548 0.555909
Si Si6 0.956825 0.939447 0.369109
O O1 0.692840 0.070508 0.612284
O O2 0.771543 0.107466 0.361316
O O3 0.726804 0.269974 0.532776
O O4 0.614334 0.147989 0.408237
O O5 0.194536 0.575923 0.313108
O O6 0.875968 0.250000 0.250000
O O7 0.919900 0.041462 0.281757
O O8 0.821779 0.091932 0.089145
O O9 0.617326 0.740229 0.603904
O O10 0.514816 0.864102 0.728457
O O11 0.000000 0.000000 0.500000
#
# Coordination Sequence:
#
# PCOD8216804 Si02
#       6
#     8   4   8   4   8   8
#     4  11  22  44  70  99 130 189 240 274 343 424
#     4  12  20  38  74  94 134 176 240 284 336 392
#     4  10  23  43  74  95 135 184 242 278 337 423
#     4  12  26  44  68 104 150 176 224 298 368 402
#     4  11  25  44  67 103 134 182 232 291 331 427
#     4  12  25  43  71 100 145 183 223 295 362 412
#
# _framework density 21.412268000000001
#
# number of rings (size 3 to 8) (size 9 to 14) (size 15 to 20)
#    0.000    0.800    4.000    3.600    7.000    0.800 
#    0.000    8.000    0.000    0.000    0.000    0.000 
#    0.000    0.000    0.000    0.000    0.000    0.000 
#
# Total GULP energy -495775.746928 kJ/mol
# GULP energy per Si atom -12394.393673 kJ/mol
# Density = 2.136353 g / cm^3
# Si number density = 21.412268 Si / 1000 Ang^3
#
#
#
# Elastic Constant Matrix: (Units=GPa)
#
#
# Indices 1 2 3 4 5 6 
#
# 1 100.0458 54.5124 35.9843 0.0000 0.0000 0.0000
# 2 54.5124 112.6724 50.6819 0.0000 0.0000 0.0000
# 3 35.9843 50.6819 147.9607 0.0000 0.0000 0.0000
# 4 0.0000 0.0000 0.0000 43.2557 0.0000 0.0000
# 5 0.0000 0.0000 0.0000 0.0000 25.8442 0.0000
# 6 0.0000 0.0000 0.0000 0.0000 0.0000 38.5037
#
#
#
# Elastic Compliance Matrix: (Units=1/GPa)
#
#
# Indices 1 2 3 4 5 6 
#
# 1 0.013770 -0.006095 -0.001261 0.000000 0.000000 0.000000
# 2 -0.006095 0.013189 -0.003036 0.000000 0.000000 0.000000
# 3 -0.001261 -0.003036 0.008105 0.000000 0.000000 0.000000
# 4 0.000000 0.000000 0.000000 0.023118 0.000000 0.000000
# 5 0.000000 0.000000 0.000000 0.000000 0.038693 0.000000
# 6 0.000000 0.000000 0.000000 0.000000 0.000000 0.025972
#
#
# Mechanical properties :
#
#
# Convention : Reuss Voigt Hill
#
# Bulk Modulus (GPa) = 70.02144 71.44848 70.73496
# Shear Modulus (GPa) = 33.69469 36.15408 34.92438
#
# Velocity S-wave (km/s) = 3.97119 4.11356 4.04300
# Velocity P-wave (km/s) = 7.33482 7.48347 7.40952
#
# Compressibility (1/GPa) = 0.01428134
#
# Stress axis : x y z
#
# Youngs Moduli (GPa) = 72.62200 75.81790 123.37934
#
# Poissons Ratio (x) = 0.46209 0.15560
# Poissons Ratio (y) = 0.44261 0.37453
# Poissons Ratio (z) = 0.09159 0.23015
#
# Static dielectric constant tensor:
#      x y z
#    x 3.746960 0.000000 0.000000 
#    y 0.000000 4.066130 0.000000 
#    z 0.000000 0.000000 4.181890 
# 
# 
# High freq. dielectric constant tensor:
#      x y z
#    x 1.818720 0.000000 0.000000 
#    y 0.000000 1.851930 0.000000 
#    z 0.000000 0.000000 1.855730 
# 
# From -- ./inp_files/11662.got.cif
#   From: 2010.06.25/outbox.cif.g09.slc.cpg/sg52_6_cif.got.tgz:11662.got - 2010.06.26 19:32:48.
