data_PCOD8216522
_publ_section_title
;
Structure prediction by ZEFSAII (Michael W. Deem and Ramdas Pophale) SiO2 
 PCOD8216522
Probable space group: P N N A
;
_chemical_formula_sum "Si O2"
_cell_formula_units_Z 32
_cell_length_a 9.123771
_cell_length_b 7.807004
_cell_length_c 18.612029
_cell_angle_alpha 90.000000
_cell_angle_beta 90.000000
_cell_angle_gamma 90.000000
_cell_volume 1325.722108
_symmetry_space_group_name_H-M "P N N A"
_symmetry_group_IT_number 52
_symmetry_cell_setting 'orthorhombic'
loop_
_space_group_symop_operation_xyz
x,y,z
1/2-x,-y,z
x,1/2-y,1/2-z
1/2-x,1/2+y,1/2-z
-x,-y,-z
1/2+x,y,-z
-x,1/2+y,1/2+z
1/2+x,1/2-y,1/2+z
loop_
_atom_site_type_symbol
_atom_site_label
_atom_site_fract_x
_atom_site_fract_y
_atom_site_fract_z
Si Si1 0.687107 0.310980 0.558316
Si Si2 0.588310 0.069482 0.209529
Si Si3 0.996863 0.231396 0.579385
Si Si4 0.415103 0.932718 0.331727
O O1 0.750000 0.500000 0.565283
O O2 0.599066 0.273826 0.486761
O O3 0.592743 0.252289 0.628606
O O4 0.832319 0.196960 0.551993
O O5 0.593523 0.250000 0.250000
O O6 0.511233 0.104613 0.132597
O O7 0.750000 0.000000 0.195545
O O8 0.492379 0.928389 0.253460
O O9 0.025575 0.053071 0.620843
O O10 0.250000 0.000000 0.319856
#
# Coordination Sequence:
#
# PCOD8216522 Si02
#       4
#     8   8   8   8
#     4  11  22  37  61  92 126 164 213 274 332 394
#     4  10  22  40  61  89 127 171 223 280 336 398
#     4  10  22  40  60  90 130 171 215 271 335 403
#     4   9  21  41  63  89 126 174 221 271 336 405
#
# _framework density 24.137788
#
# number of rings (size 3 to 8) (size 9 to 14) (size 15 to 20)
#    0.000    2.000    0.000    2.250    0.000    7.000 
#    0.000    7.500    0.000    0.000    0.000    0.000 
#    0.000    0.000    0.000    0.000    0.000    0.250 
#
# Total GULP energy -396463.645270 kJ/mol
# GULP energy per Si atom -12389.488915 kJ/mol
# Density = 2.408285 g / cm^3
# Si number density = 24.137788 Si / 1000 Ang^3
#
#
#
# Elastic Constant Matrix: (Units=GPa)
#
#
# Indices 1 2 3 4 5 6 
#
# 1 115.9870 34.0984 82.1516 0.0000 0.0000 0.0000
# 2 34.0984 54.4709 43.2566 0.0000 0.0000 0.0000
# 3 82.1516 43.2566 169.9930 0.0000 0.0000 0.0000
# 4 0.0000 0.0000 0.0000 23.6653 0.0000 0.0000
# 5 0.0000 0.0000 0.0000 0.0000 4.5123 0.0000
# 6 0.0000 0.0000 0.0000 0.0000 0.0000 38.7066
#
#
#
# Elastic Compliance Matrix: (Units=1/GPa)
#
#
# Indices 1 2 3 4 5 6 
#
# 1 0.013835 -0.004200 -0.005617 0.000000 0.000000 0.000000
# 2 -0.004200 0.024283 -0.004149 0.000000 0.000000 0.000000
# 3 -0.005617 -0.004149 0.009653 0.000000 0.000000 0.000000
# 4 0.000000 0.000000 0.000000 0.042256 0.000000 0.000000
# 5 0.000000 0.000000 0.000000 0.000000 0.221615 0.000000
# 6 0.000000 0.000000 0.000000 0.000000 0.000000 0.025835
#
#
# Mechanical properties :
#
#
# Convention : Reuss Voigt Hill
#
# Bulk Modulus (GPa) = 50.40890 73.27380 61.84135
# Shear Modulus (GPa) = 13.44003 25.43978 19.43991
#
# Velocity S-wave (km/s) = 2.36223 3.24997 2.84099
# Velocity P-wave (km/s) = 5.32629 6.67124 6.03634
#
# Compressibility (1/GPa) = 0.01983777
#
# Stress axis : x y z
#
# Youngs Moduli (GPa) = 72.28085 41.18180 103.59403
#
# Poissons Ratio (x) = 0.17295 0.58191
# Poissons Ratio (y) = 0.30356 0.42985
# Poissons Ratio (z) = 0.40602 0.17088
#
# Static dielectric constant tensor:
#      x y z
#    x 4.546680 0.000000 0.000000 
#    y 0.000000 4.555710 0.000000 
#    z 0.000000 0.000000 4.451180 
# 
# 
# High freq. dielectric constant tensor:
#      x y z
#    x 1.952880 0.000000 0.000000 
#    y 0.000000 1.958910 0.000000 
#    z 0.000000 0.000000 1.967660 
# 
# From -- ./inp_files/35442.got.cif
#   From: 2010.06.25/outbox.cif.g09.slc.cpg/sg52_18_cif.got.tgz:35442.got - 2010.06.26 19:32:48.
