data_PCOD8216464
_publ_section_title
;
Structure prediction by ZEFSAII (Michael W. Deem and Ramdas Pophale) SiO2 
 PCOD8216464
Probable space group: P N N A
;
_chemical_formula_sum "Si O2"
_cell_formula_units_Z 40
_cell_length_a 14.448283
_cell_length_b 8.078282
_cell_length_c 18.196190
_cell_angle_alpha 90.000000
_cell_angle_beta 90.000000
_cell_angle_gamma 90.000000
_cell_volume 2123.810249
_symmetry_space_group_name_H-M "P N N A"
_symmetry_group_IT_number 52
_symmetry_cell_setting 'orthorhombic'
loop_
_space_group_symop_operation_xyz
x,y,z
1/2-x,-y,z
x,1/2-y,1/2-z
1/2-x,1/2+y,1/2-z
-x,-y,-z
1/2+x,y,-z
-x,1/2+y,1/2+z
1/2+x,1/2-y,1/2+z
loop_
_atom_site_type_symbol
_atom_site_label
_atom_site_fract_x
_atom_site_fract_y
_atom_site_fract_z
Si Si1 0.475322 0.645409 0.641181
Si Si2 0.063298 0.016002 0.701257
Si Si3 0.750000 0.000000 0.388915
Si Si4 0.811070 0.833520 0.032778
Si Si5 0.562599 0.250000 0.750000
Si Si6 0.350712 0.931876 0.121009
O O1 0.490827 0.837766 0.659813
O O2 0.430646 0.553388 0.711683
O O3 0.401249 0.625775 0.578213
O O4 0.571921 0.574617 0.610840
O O5 0.162890 0.982675 0.665337
O O6 0.001256 0.853486 0.693607
O O7 0.740983 0.166140 0.439035
O O8 0.750000 0.000000 0.037035
O O9 0.846899 0.808059 0.949058
O O10 0.629752 0.150385 0.801738
O O11 0.250000 0.000000 0.131944
#
# Coordination Sequence:
#
# PCOD8216464 Si02
#       6
#     8   8   4   8   4   8
#     4   9  19  38  59  85 120 156 197 240 301 359
#     4   9  20  35  59  91 119 154 192 246 300 359
#     4  10  22  38  58  96 128 148 198 240 302 376
#     4  10  22  39  60  88 122 162 190 247 304 364
#     4  10  22  38  60  86 114 156 204 248 302 352
#     4  10  22  41  58  82 114 158 207 249 297 347
#
# _framework density 18.834074999999999
#
# number of rings (size 3 to 8) (size 9 to 14) (size 15 to 20)
#    0.000    2.400    0.000    0.600    7.000    4.800 
#    9.000    2.000    0.000    0.000    0.000    0.000 
#    0.000    0.000    0.000    0.000    0.000    0.000 
#
# Total GULP energy -495676.066956 kJ/mol
# GULP energy per Si atom -12391.901674 kJ/mol
# Density = 1.879121 g / cm^3
# Si number density = 18.834075 Si / 1000 Ang^3
#
#
#
# Elastic Constant Matrix: (Units=GPa)
#
#
# Indices 1 2 3 4 5 6 
#
# 1 123.5387 55.6529 64.4679 0.0000 0.0000 0.0000
# 2 55.6529 100.4297 43.1738 0.0000 0.0000 0.0000
# 3 64.4679 43.1738 95.1646 0.0000 0.0000 0.0000
# 4 0.0000 0.0000 0.0000 68.2564 0.0000 0.0000
# 5 0.0000 0.0000 0.0000 0.0000 19.4797 0.0000
# 6 0.0000 0.0000 0.0000 0.0000 0.0000 19.3880
#
#
#
# Elastic Compliance Matrix: (Units=1/GPa)
#
#
# Indices 1 2 3 4 5 6 
#
# 1 0.014037 -0.004585 -0.007429 0.000000 0.000000 0.000000
# 2 -0.004585 0.013867 -0.003185 0.000000 0.000000 0.000000
# 3 -0.007429 -0.003185 0.016986 0.000000 0.000000 0.000000
# 4 0.000000 0.000000 0.000000 0.014651 0.000000 0.000000
# 5 0.000000 0.000000 0.000000 0.000000 0.051335 0.000000
# 6 0.000000 0.000000 0.000000 0.000000 0.000000 0.051578
#
#
# Mechanical properties :
#
#
# Convention : Reuss Voigt Hill
#
# Bulk Modulus (GPa) = 69.00525 71.74692 70.37609
# Shear Modulus (GPa) = 25.29299 31.81405 28.55352
#
# Velocity S-wave (km/s) = 3.66859 4.11442 3.89788
# Velocity P-wave (km/s) = 7.39343 7.79411 7.59641
#
# Compressibility (1/GPa) = 0.01449165
#
# Stress axis : x y z
#
# Youngs Moduli (GPa) = 71.24117 72.11259 58.87240
#
# Poissons Ratio (x) = 0.33062 0.43737
# Poissons Ratio (y) = 0.32663 0.18753
# Poissons Ratio (z) = 0.52925 0.22970
#
# Static dielectric constant tensor:
#      x y z
#    x 3.540660 0.000000 0.000000 
#    y 0.000000 3.646750 0.000000 
#    z 0.000000 0.000000 3.694850 
# 
# 
# High freq. dielectric constant tensor:
#      x y z
#    x 1.734710 0.000000 0.000000 
#    y 0.000000 1.732110 0.000000 
#    z 0.000000 0.000000 1.740740 
# 
# From -- ./inp_files/26953.got.cif
#   From: 2010.06.25/outbox.cif.g09.slc.cpg/sg52_14_cif.got.tgz:26953.got - 2010.06.26 19:32:48.
