data_PCOD8216797
_publ_section_title
;
Structure prediction by ZEFSAII (Michael W. Deem and Ramdas Pophale) SiO2 
 PCOD8216797
Probable space group: P N N A
;
_chemical_formula_sum "Si O2"
_cell_formula_units_Z 36
_cell_length_a 23.314840
_cell_length_b 10.895249
_cell_length_c 6.170513
_cell_angle_alpha 90.000000
_cell_angle_beta 90.000000
_cell_angle_gamma 90.000000
_cell_volume 1567.439804
_symmetry_space_group_name_H-M "P N N A"
_symmetry_group_IT_number 52
_symmetry_cell_setting 'orthorhombic'
loop_
_space_group_symop_operation_xyz
x,y,z
1/2-x,-y,z
x,1/2-y,1/2-z
1/2-x,1/2+y,1/2-z
-x,-y,-z
1/2+x,y,-z
-x,1/2+y,1/2+z
1/2+x,1/2-y,1/2+z
loop_
_atom_site_type_symbol
_atom_site_label
_atom_site_fract_x
_atom_site_fract_y
_atom_site_fract_z
Si Si1 0.744411 0.860485 0.075427
Si Si2 0.031715 0.936794 0.801310
Si Si3 0.080190 0.420457 0.082771
Si Si4 0.381180 0.362057 0.391083
Si Si5 0.330274 0.750000 0.250000
O O1 0.750463 0.750000 0.250000
O O2 0.750000 0.000000 0.175794
O O3 0.684350 0.850516 0.956529
O O4 0.792131 0.844533 0.888626
O O5 0.982500 0.870474 0.659487
O O6 0.069864 0.030867 0.658437
O O7 0.079568 0.846266 0.895332
O O8 0.000000 0.000000 0.000000
O O9 0.105469 0.516906 0.254553
O O10 0.128139 0.315116 0.074172
O O11 0.401122 0.250000 0.250000
#
# Coordination Sequence:
#
# PCOD8216797 Si02
#       5
#     8   8   8   8   4
#     4  12  29  48  73 108 147 199 259 320 388 460
#     4   9  22  42  67 104 144 190 245 297 379 446
#     4  10  23  43  69 101 146 192 241 306 371 458
#     4  11  24  42  69 103 143 186 252 309 373 458
#     4  12  26  46  74 104 148 194 252 310 386 466
#
# _framework density 22.967390999999999
#
# number of rings (size 3 to 8) (size 9 to 14) (size 15 to 20)
#    0.000    1.333    3.333    0.000    6.222    6.222 
#    0.000    0.000    0.000    0.000    0.000    0.000 
#    0.000    0.000    0.000    0.000    0.000    0.000 
#
# Total GULP energy -446113.678649 kJ/mol
# GULP energy per Si atom -12392.046629 kJ/mol
# Density = 2.291512 g / cm^3
# Si number density = 22.967391 Si / 1000 Ang^3
#
#
#
# Elastic Constant Matrix: (Units=GPa)
#
#
# Indices 1 2 3 4 5 6 
#
# 1 180.7813 52.8068 71.2433 0.0000 0.0000 0.0000
# 2 52.8068 111.6976 42.2596 0.0000 0.0000 0.0000
# 3 71.2433 42.2596 125.5841 0.0000 0.0000 0.0000
# 4 0.0000 0.0000 0.0000 42.6594 0.0000 0.0000
# 5 0.0000 0.0000 0.0000 0.0000 -37.3148 0.0000
# 6 0.0000 0.0000 0.0000 0.0000 0.0000 -7.8569
#
#
#
# Elastic Compliance Matrix: (Units=1/GPa)
#
#
# Indices 1 2 3 4 5 6 
#
# 1 0.007585 -0.002244 -0.003548 0.000000 0.000000 0.000000
# 2 -0.002244 0.010922 -0.002403 0.000000 0.000000 0.000000
# 3 -0.003548 -0.002403 0.010784 0.000000 0.000000 0.000000
# 4 0.000000 0.000000 0.000000 0.023441 0.000000 0.000000
# 5 0.000000 0.000000 0.000000 0.000000 -0.026799 0.000000
# 6 0.000000 0.000000 0.000000 0.000000 0.000000 -0.127276
#
#
# Mechanical properties :
#
#
# Convention : Reuss Voigt Hill
#
# Bulk Modulus (GPa) = 77.50100 83.40916 80.45508
# Shear Modulus (GPa) = -61.99439 16.28108 -22.85665
#
# Velocity S-wave (km/s) = -5.20105 2.66537 -3.15807
# Velocity P-wave (km/s) = 1.50025 6.77255 4.66994
#
# Compressibility (1/GPa) = 0.01290306
#
# Stress axis : x y z
#
# Youngs Moduli (GPa) = 131.83663 91.55430 92.72929
#
# Poissons Ratio (x) = 0.20541 0.32901
# Poissons Ratio (y) = 0.29579 0.22280
# Poissons Ratio (z) = 0.46776 0.21997
#
# Static dielectric constant tensor:
#      x y z
#    x 4.714970 0.000000 0.000000 
#    y 0.000000 3.926260 0.000000 
#    z 0.000000 0.000000 4.165900 
# 
# 
# High freq. dielectric constant tensor:
#      x y z
#    x 1.937480 0.000000 0.000000 
#    y 0.000000 1.892630 0.000000 
#    z 0.000000 0.000000 1.906870 
# 
# From -- ./inp_files/4873.got.cif
#   From: 2010.06.25/outbox.cif.g09.slc.cpg/sg52_3_cif.got.tgz:4873.got - 2010.06.26 19:32:48.
