data_PCOD8216136
_publ_section_title
;
Structure prediction by ZEFSAII (Michael W. Deem and Ramdas Pophale) SiO2 
 PCOD8216136
Probable space group: P N N A
;
_chemical_formula_sum "Si O2"
_cell_formula_units_Z 56
_cell_length_a 13.519012
_cell_length_b 17.821006
_cell_length_c 11.873407
_cell_angle_alpha 90.000000
_cell_angle_beta 90.000000
_cell_angle_gamma 90.000000
_cell_volume 2860.569639
_symmetry_space_group_name_H-M "P N N A"
_symmetry_group_IT_number 52
_symmetry_cell_setting 'orthorhombic'
loop_
_space_group_symop_operation_xyz
x,y,z
1/2-x,-y,z
x,1/2-y,1/2-z
1/2-x,1/2+y,1/2-z
-x,-y,-z
1/2+x,y,-z
-x,1/2+y,1/2+z
1/2+x,1/2-y,1/2+z
loop_
_atom_site_type_symbol
_atom_site_label
_atom_site_fract_x
_atom_site_fract_y
_atom_site_fract_z
Si Si1 0.206425 0.419609 0.334086
Si Si2 0.303592 0.845193 0.850674
Si Si3 0.452751 0.580026 0.508687
Si Si4 0.361110 0.681147 0.893913
Si Si5 0.411586 0.194411 0.359292
Si Si6 0.646539 0.669366 0.523179
Si Si7 0.259410 0.585476 0.088659
O O1 0.250000 0.500000 0.371059
O O2 0.102752 0.401646 0.393076
O O3 0.286874 0.358133 0.371977
O O4 0.177036 0.416946 0.203057
O O5 0.348375 0.770134 0.908790
O O6 0.298806 0.843638 0.716358
O O7 0.193718 0.853823 0.902778
O O8 0.372888 0.914331 0.889638
O O9 0.500000 0.500000 0.500000
O O10 0.537229 0.638618 0.534111
O O11 0.476948 0.664616 0.876099
O O12 0.317399 0.635915 0.998909
O O13 0.405095 0.250000 0.250000
O O14 0.369039 0.241381 0.465445
O O15 0.344764 0.119404 0.365127
O O16 0.250000 0.500000 0.041485
#
# Coordination Sequence:
#
# PCOD8216136 Si02
#       7
#     8   8   8   8   8   8   8
#     4  10  21  37  61  92 129 164 207 259 318 380
#     4  10  22  37  65  92 121 163 214 262 309 379
#     4  11  21  37  62  97 128 159 204 267 325 373
#     4  11  22  44  64  90 122 170 221 254 304 392
#     4  12  21  39  72  90 119 173 215 259 318 383
#     4  11  20  37  60  95 122 158 207 263 320 364
#     4  11  26  44  63  94 133 169 213 265 316 387
#
# _framework density 19.576521
#
# number of rings (size 3 to 8) (size 9 to 14) (size 15 to 20)
#    0.000    1.143    7.143    0.000    0.000    0.571 
#    5.143    0.000    0.000    0.000    0.000    0.000 
#    0.000    0.000    0.000    0.000    0.000    0.000 
#
# Total GULP energy -694096.296890 kJ/mol
# GULP energy per Si atom -12394.576730 kJ/mol
# Density = 1.953196 g / cm^3
# Si number density = 19.576521 Si / 1000 Ang^3
#
#
#
# Elastic Constant Matrix: (Units=GPa)
#
#
# Indices 1 2 3 4 5 6 
#
# 1 77.4074 2.4161 32.5703 0.0000 0.0000 0.0000
# 2 2.4161 63.9072 23.4423 0.0000 0.0000 0.0000
# 3 32.5703 23.4423 100.4044 0.0000 0.0000 0.0000
# 4 0.0000 0.0000 0.0000 28.4905 0.0000 0.0000
# 5 0.0000 0.0000 0.0000 0.0000 13.7707 0.0000
# 6 0.0000 0.0000 0.0000 0.0000 0.0000 20.0836
#
#
#
# Elastic Compliance Matrix: (Units=1/GPa)
#
#
# Indices 1 2 3 4 5 6 
#
# 1 0.015065 0.001338 -0.005199 0.000000 0.000000 0.000000
# 2 0.001338 0.017232 -0.004457 0.000000 0.000000 0.000000
# 3 -0.005199 -0.004457 0.012687 0.000000 0.000000 0.000000
# 4 0.000000 0.000000 0.000000 0.035099 0.000000 0.000000
# 5 0.000000 0.000000 0.000000 0.000000 0.072618 0.000000
# 6 0.000000 0.000000 0.000000 0.000000 0.000000 0.049792
#
#
# Mechanical properties :
#
#
# Convention : Reuss Voigt Hill
#
# Bulk Modulus (GPa) = 35.27824 39.84180 37.56002
# Shear Modulus (GPa) = 21.87427 24.68832 23.28130
#
# Velocity S-wave (km/s) = 3.34634 3.55508 3.45229
# Velocity P-wave (km/s) = 5.74373 6.10307 5.92612
#
# Compressibility (1/GPa) = 0.02834609
#
# Stress axis : x y z
#
# Youngs Moduli (GPa) = 66.38123 58.03120 78.82132
#
# Poissons Ratio (x) = -0.07762 0.40980
# Poissons Ratio (y) = -0.08879 0.35132
# Poissons Ratio (z) = 0.34512 0.25866
#
# Static dielectric constant tensor:
#      x y z
#    x 3.633490 0.000000 0.000000 
#    y 0.000000 5.497730 0.000000 
#    z 0.000000 0.000000 3.496830 
# 
# 
# High freq. dielectric constant tensor:
#      x y z
#    x 1.763410 0.000000 0.000000 
#    y 0.000000 1.761150 0.000000 
#    z 0.000000 0.000000 1.755010 
# 
# From -- ./inp_files/18361.got.cif
#   From: 2010.06.25/outbox.cif.g09.slc.cpg/sg52_10_cif.got.tgz:18361.got - 2010.06.26 19:32:48.
