data_PCOD8216056
_publ_section_title
;
Structure prediction by ZEFSAII (Michael W. Deem and Ramdas Pophale) SiO2 
 PCOD8216056
Probable space group: P N N A
;
_chemical_formula_sum "Si O2"
_cell_formula_units_Z 36
_cell_length_a 9.022336
_cell_length_b 13.647151
_cell_length_c 13.467169
_cell_angle_alpha 90.000000
_cell_angle_beta 90.000000
_cell_angle_gamma 90.000000
_cell_volume 1658.201500
_symmetry_space_group_name_H-M "P N N A"
_symmetry_group_IT_number 52
_symmetry_cell_setting 'orthorhombic'
loop_
_space_group_symop_operation_xyz
x,y,z
1/2-x,-y,z
x,1/2-y,1/2-z
1/2-x,1/2+y,1/2-z
-x,-y,-z
1/2+x,y,-z
-x,1/2+y,1/2+z
1/2+x,1/2-y,1/2+z
loop_
_atom_site_type_symbol
_atom_site_label
_atom_site_fract_x
_atom_site_fract_y
_atom_site_fract_z
Si Si1 0.916511 0.397974 0.281317
Si Si2 0.912463 0.202328 0.622274
Si Si3 0.146472 0.250000 0.250000
Si Si4 0.609872 0.931798 0.443987
Si Si5 0.077785 0.381690 0.699164
O O1 0.941577 0.398081 0.163196
O O2 0.947472 0.504711 0.328451
O O3 0.753143 0.358283 0.309346
O O4 0.044018 0.323341 0.316198
O O5 0.751854 0.193949 0.672890
O O6 0.880675 0.166628 0.511000
O O7 0.981484 0.313023 0.624998
O O8 0.027498 0.135877 0.686251
O O9 0.750000 0.000000 0.429917
O O10 0.500000 0.000000 0.500000
#
# Coordination Sequence:
#
# PCOD8216056 Si02
#       5
#     8   8   4   8   8
#     4  11  19  36  58  84 113 162 205 246 291 361
#     4  10  21  34  51  85 125 156 183 248 313 359
#     4  10  22  32  54  82 120 162 204 242 294 368
#     4  12  21  34  58  90 124 151 189 259 314 349
#     4   9  19  35  54  79 117 160 196 237 293 370
#
# _framework density 21.710269
#
# number of rings (size 3 to 8) (size 9 to 14) (size 15 to 20)
#    0.000    1.778    4.444    2.667    0.000    2.667 
#    0.000    0.000    0.000    1.333    0.000    9.333 
#    0.000    1.778    0.000    0.000    0.000    0.000 
#
# Total GULP energy -446100.204123 kJ/mol
# GULP energy per Si atom -12391.672337 kJ/mol
# Density = 2.166086 g / cm^3
# Si number density = 21.710269 Si / 1000 Ang^3
#
#
#
# Elastic Constant Matrix: (Units=GPa)
#
#
# Indices 1 2 3 4 5 6 
#
# 1 119.1310 39.9262 -20.2304 0.0000 0.0000 0.0000
# 2 39.9262 103.7733 -3.4358 0.0000 0.0000 0.0000
# 3 -20.2304 -3.4358 42.2970 0.0000 0.0000 0.0000
# 4 0.0000 0.0000 0.0000 18.2020 0.0000 0.0000
# 5 0.0000 0.0000 0.0000 0.0000 -793.8364 0.0000
# 6 0.0000 0.0000 0.0000 0.0000 0.0000 40.0076
#
#
#
# Elastic Compliance Matrix: (Units=1/GPa)
#
#
# Indices 1 2 3 4 5 6 
#
# 1 0.010494 -0.003882 0.004704 0.000000 0.000000 0.000000
# 2 -0.003882 0.011098 -0.000955 0.000000 0.000000 0.000000
# 3 0.004704 -0.000955 0.025815 0.000000 0.000000 0.000000
# 4 0.000000 0.000000 0.000000 0.054939 0.000000 0.000000
# 5 0.000000 0.000000 0.000000 0.000000 -0.001260 0.000000
# 6 0.000000 0.000000 0.000000 0.000000 0.000000 0.024995
#
#
# Mechanical properties :
#
#
# Convention : Reuss Voigt Hill
#
# Bulk Modulus (GPa) = 21.21309 33.08013 27.14661
# Shear Modulus (GPa) = 35.19623 -130.52926 -47.66652
#
# Velocity S-wave (km/s) = 4.03075 -7.76233 -4.69078
# Velocity P-wave (km/s) = 5.60846 8.06649 4.09960
#
# Compressibility (1/GPa) = 0.04714069
#
# Stress axis : x y z
#
# Youngs Moduli (GPa) = 95.29401 90.10442 38.73785
#
# Poissons Ratio (x) = 0.34976 -0.18222
# Poissons Ratio (y) = 0.36990 0.03700
# Poissons Ratio (z) = -0.44825 0.08606
#
# Static dielectric constant tensor:
#      x y z
#    x 3.798300 0.000000 0.000000 
#    y 0.000000 4.006000 0.000000 
#    z 0.000000 0.000000 4.028620 
# 
# 
# High freq. dielectric constant tensor:
#      x y z
#    x 1.870370 0.000000 0.000000 
#    y 0.000000 1.864300 0.000000 
#    z 0.000000 0.000000 1.803590 
# 
# From -- ./inp_files/24329.got.cif
#   From: 2010.06.25/outbox.cif.g09.slc.cpg/sg52_13_cif.got.tgz:24329.got - 2010.06.26 19:32:48.
