data_PCOD8216455
_publ_section_title
;
Structure prediction by ZEFSAII (Michael W. Deem and Ramdas Pophale) SiO2 
 PCOD8216455
Probable space group: P N N A
;
_chemical_formula_sum "Si O2"
_cell_formula_units_Z 48
_cell_length_a 7.877421
_cell_length_b 12.477406
_cell_length_c 24.979533
_cell_angle_alpha 90.000000
_cell_angle_beta 90.000000
_cell_angle_gamma 90.000000
_cell_volume 2455.232804
_symmetry_space_group_name_H-M "P N N A"
_symmetry_group_IT_number 52
_symmetry_cell_setting 'orthorhombic'
loop_
_space_group_symop_operation_xyz
x,y,z
1/2-x,-y,z
x,1/2-y,1/2-z
1/2-x,1/2+y,1/2-z
-x,-y,-z
1/2+x,y,-z
-x,1/2+y,1/2+z
1/2+x,1/2-y,1/2+z
loop_
_atom_site_type_symbol
_atom_site_label
_atom_site_fract_x
_atom_site_fract_y
_atom_site_fract_z
Si Si1 0.939999 0.964958 0.283839
Si Si2 0.250000 0.500000 0.501943
Si Si3 0.250000 0.000000 0.533529
Si Si4 0.808025 0.750000 0.250000
Si Si5 0.250000 0.500000 0.139222
Si Si6 0.989947 0.128340 0.066120
Si Si7 0.889005 0.412636 0.317753
Si Si8 0.433096 0.626297 0.056272
O O1 0.933840 0.838899 0.273170
O O2 0.750000 0.000000 0.302508
O O3 0.994930 0.033986 0.231300
O O4 0.081942 0.978569 0.327725
O O5 0.110574 0.457317 0.461291
O O6 0.307395 0.401706 0.540635
O O7 0.145480 0.086846 0.499402
O O8 0.388301 0.064910 0.568947
O O9 0.692097 0.698852 0.296927
O O10 0.294854 0.602403 0.102443
O O11 0.037967 0.248296 0.051178
O O12 0.000738 0.114202 0.130430
O O13 0.750000 0.500000 0.335120
#
# Coordination Sequence:
#
# PCOD8216455 Si02
#       8
#     8   4   4   4   4   8   8   8
#     4   9  21  41  59  85 129 157 200 264 304 369
#     4  10  24  39  60  88 130 153 214 258 302 362
#     4   9  20  42  58  86 130 158 194 265 308 378
#     4   8  18  38  62  84 112 170 202 234 318 372
#     4  11  24  39  56 100 120 155 208 259 306 382
#     4  11  21  40  61  91 118 168 204 258 305 373
#     4   9  19  37  62  86 118 162 201 250 314 369
#     4  10  22  37  63  89 121 162 207 247 321 370
#
# _framework density 19.550080999999999
#
# number of rings (size 3 to 8) (size 9 to 14) (size 15 to 20)
#    0.000    2.667    0.833    1.000    5.833    0.667 
#    9.000    1.667    0.000    0.000    0.000    0.000 
#    0.000    0.000    0.000    0.000    0.000    0.000 
#
# Total GULP energy -594853.925435 kJ/mol
# GULP energy per Si atom -12392.790113 kJ/mol
# Density = 1.950558 g / cm^3
# Si number density = 19.550081 Si / 1000 Ang^3
#
#
#
# Elastic Constant Matrix: (Units=GPa)
#
#
# Indices 1 2 3 4 5 6 
#
# 1 77.1900 22.8943 41.8991 0.0000 0.0000 0.0000
# 2 22.8943 125.6481 40.5803 0.0000 0.0000 0.0000
# 3 41.8991 40.5803 105.8803 0.0000 0.0000 0.0000
# 4 0.0000 0.0000 0.0000 9.4086 0.0000 0.0000
# 5 0.0000 0.0000 0.0000 0.0000 27.3331 0.0000
# 6 0.0000 0.0000 0.0000 0.0000 0.0000 24.7177
#
#
#
# Elastic Compliance Matrix: (Units=1/GPa)
#
#
# Indices 1 2 3 4 5 6 
#
# 1 0.016615 -0.001032 -0.006180 0.000000 0.000000 0.000000
# 2 -0.001032 0.009147 -0.003098 0.000000 0.000000 0.000000
# 3 -0.006180 -0.003098 0.013077 0.000000 0.000000 0.000000
# 4 0.000000 0.000000 0.000000 0.106286 0.000000 0.000000
# 5 0.000000 0.000000 0.000000 0.000000 0.036586 0.000000
# 6 0.000000 0.000000 0.000000 0.000000 0.000000 0.040457
#
#
# Mechanical properties :
#
#
# Convention : Reuss Voigt Hill
#
# Bulk Modulus (GPa) = 54.87861 57.71843 56.29852
# Shear Modulus (GPa) = 20.09166 25.84820 22.96993
#
# Velocity S-wave (km/s) = 3.20926 3.64009 3.43144
# Velocity P-wave (km/s) = 6.47025 6.87419 6.67528
#
# Compressibility (1/GPa) = 0.01822204
#
# Stress axis : x y z
#
# Youngs Moduli (GPa) = 60.18523 109.32407 76.46879
#
# Poissons Ratio (x) = 0.11278 0.47255
# Poissons Ratio (y) = 0.06209 0.23686
# Poissons Ratio (z) = 0.37192 0.33864
#
# Static dielectric constant tensor:
#      x y z
#    x 3.576950 0.000000 0.000000 
#    y 0.000000 3.596650 0.000000 
#    z 0.000000 0.000000 3.556960 
# 
# 
# High freq. dielectric constant tensor:
#      x y z
#    x 1.747700 0.000000 0.000000 
#    y 0.000000 1.766370 0.000000 
#    z 0.000000 0.000000 1.761930 
# 
# From -- ./inp_files/39534.got.cif
#   From: 2010.06.25/outbox.cif.g09.slc.cpg/sg52_20_cif.got.tgz:39534.got - 2010.06.26 19:32:48.
