data_PCOD8216468
_publ_section_title
;
Structure prediction by ZEFSAII (Michael W. Deem and Ramdas Pophale) SiO2 
 PCOD8216468
Probable space group: P N N A
;
_chemical_formula_sum "Si O2"
_cell_formula_units_Z 32
_cell_length_a 14.120262
_cell_length_b 5.198134
_cell_length_c 20.672946
_cell_angle_alpha 90.000000
_cell_angle_beta 90.000000
_cell_angle_gamma 90.000000
_cell_volume 1517.373853
_symmetry_space_group_name_H-M "P N N A"
_symmetry_group_IT_number 52
_symmetry_cell_setting 'orthorhombic'
loop_
_space_group_symop_operation_xyz
x,y,z
1/2-x,-y,z
x,1/2-y,1/2-z
1/2-x,1/2+y,1/2-z
-x,-y,-z
1/2+x,y,-z
-x,1/2+y,1/2+z
1/2+x,1/2-y,1/2+z
loop_
_atom_site_type_symbol
_atom_site_label
_atom_site_fract_x
_atom_site_fract_y
_atom_site_fract_z
Si Si1 0.148521 0.892473 0.687652
Si Si2 0.984702 0.653420 0.098981
Si Si3 0.307815 0.243819 0.075627
Si Si4 0.104893 0.836462 0.940161
O O1 0.104688 0.750000 0.750000
O O2 0.162861 0.696605 0.627120
O O3 0.250000 0.000000 0.708220
O O4 0.074396 0.117579 0.666115
O O5 0.975804 0.388226 0.057519
O O6 0.093305 0.723367 0.113942
O O7 0.942646 0.884576 0.055845
O O8 0.250000 0.500000 0.088045
O O9 0.250000 0.000000 0.103805
O O10 0.323881 0.200074 0.999330
#
# Coordination Sequence:
#
# PCOD8216468 Si02
#       4
#     8   8   8   8
#     4  10  25  37  64  90 126 162 210 253 319 379
#     4  10  23  40  59  92 127 165 207 255 315 371
#     4  12  23  37  64  93 128 168 214 257 314 377
#     4  10  22  38  60  88 131 164 200 261 307 384
#
# _framework density 21.089068999999999
#
# number of rings (size 3 to 8) (size 9 to 14) (size 15 to 20)
#    1.500    0.000    0.000    5.250    7.000    0.000 
#    0.000    0.000    0.000    0.000    6.500    0.000 
#    0.000    0.000    0.000    0.000    0.000    0.000 
#
# Total GULP energy -396606.363468 kJ/mol
# GULP energy per Si atom -12393.948858 kJ/mol
# Density = 2.104107 g / cm^3
# Si number density = 21.089069 Si / 1000 Ang^3
#
#
#
# Elastic Constant Matrix: (Units=GPa)
#
#
# Indices 1 2 3 4 5 6 
#
# 1 120.4006 54.2002 26.2280 0.0000 0.0000 0.0000
# 2 54.2002 162.9445 18.4187 0.0000 0.0000 0.0000
# 3 26.2280 18.4187 72.8357 0.0000 0.0000 0.0000
# 4 0.0000 0.0000 0.0000 20.9533 0.0000 0.0000
# 5 0.0000 0.0000 0.0000 0.0000 9.4395 0.0000
# 6 0.0000 0.0000 0.0000 0.0000 0.0000 41.2375
#
#
#
# Elastic Compliance Matrix: (Units=1/GPa)
#
#
# Indices 1 2 3 4 5 6 
#
# 1 0.010345 -0.003109 -0.002939 0.000000 0.000000 0.000000
# 2 -0.003109 0.007252 -0.000714 0.000000 0.000000 0.000000
# 3 -0.002939 -0.000714 0.014969 0.000000 0.000000 0.000000
# 4 0.000000 0.000000 0.000000 0.047725 0.000000 0.000000
# 5 0.000000 0.000000 0.000000 0.000000 0.105938 0.000000
# 6 0.000000 0.000000 0.000000 0.000000 0.000000 0.024250
#
#
# Mechanical properties :
#
#
# Convention : Reuss Voigt Hill
#
# Bulk Modulus (GPa) = 52.51831 61.54162 57.02997
# Shear Modulus (GPa) = 21.70603 31.48165 26.59384
#
# Velocity S-wave (km/s) = 3.21168 3.86786 3.55494
# Velocity P-wave (km/s) = 6.22176 7.01372 6.62958
#
# Compressibility (1/GPa) = 0.01904098
#
# Stress axis : x y z
#
# Youngs Moduli (GPa) = 96.66114 137.89421 66.80662
#
# Poissons Ratio (x) = 0.42871 0.19636
# Poissons Ratio (y) = 0.30052 0.04772
# Poissons Ratio (z) = 0.28410 0.09850
#
# Static dielectric constant tensor:
#      x y z
#    x 3.739630 0.000000 0.000000 
#    y 0.000000 3.970540 0.000000 
#    z 0.000000 0.000000 3.383700 
# 
# 
# High freq. dielectric constant tensor:
#      x y z
#    x 1.817700 0.000000 0.000000 
#    y 0.000000 1.844490 0.000000 
#    z 0.000000 0.000000 1.788060 
# 
# From -- ./inp_files/42463.got.cif
#   From: 2010.06.25/outbox.cif.g09.slc.cpg/sg52_22_cif.got.tgz:42463.got - 2010.06.26 19:32:48.
