data_PCOD8216801
_publ_section_title
;
Structure prediction by ZEFSAII (Michael W. Deem and Ramdas Pophale) SiO2 
 PCOD8216801
Probable space group: P N N A
;
_chemical_formula_sum "Si O2"
_cell_formula_units_Z 32
_cell_length_a 8.944145
_cell_length_b 8.100689
_cell_length_c 19.389867
_cell_angle_alpha 90.000000
_cell_angle_beta 90.000000
_cell_angle_gamma 90.000000
_cell_volume 1404.868324
_symmetry_space_group_name_H-M "P N N A"
_symmetry_group_IT_number 52
_symmetry_cell_setting 'orthorhombic'
loop_
_space_group_symop_operation_xyz
x,y,z
1/2-x,-y,z
x,1/2-y,1/2-z
1/2-x,1/2+y,1/2-z
-x,-y,-z
1/2+x,y,-z
-x,1/2+y,1/2+z
1/2+x,1/2-y,1/2+z
loop_
_atom_site_type_symbol
_atom_site_label
_atom_site_fract_x
_atom_site_fract_y
_atom_site_fract_z
Si Si1 0.375223 0.124304 0.693156
Si Si2 0.906264 0.192637 0.931235
Si Si3 0.114324 0.611793 0.197032
Si Si4 0.449260 0.685171 0.426589
O O1 0.307733 0.250000 0.750000
O O2 0.464772 0.219440 0.633573
O O3 0.250000 0.000000 0.663126
O O4 0.493667 0.007087 0.733326
O O5 0.966098 0.307869 0.869769
O O6 0.727495 0.215444 0.929890
O O7 0.969319 0.010148 0.916302
O O8 0.973682 0.251162 0.003606
O O9 0.250000 0.500000 0.171731
O O10 0.172604 0.750000 0.250000
#
# Coordination Sequence:
#
# PCOD8216801 Si02
#       4
#     8   8   8   8
#     4  12  27  47  67 100 138 183 229 284 346 408
#     4  10  23  43  70 103 135 180 224 281 347 411
#     4  12  25  42  70  99 133 179 231 288 340 404
#     4  10  23  44  70 100 140 178 227 280 345 413
#
# _framework density 22.777936
#
# number of rings (size 3 to 8) (size 9 to 14) (size 15 to 20)
#    0.000    1.000    2.500    3.000    7.000    2.000 
#    4.500    0.000    0.000    0.000    0.000    0.000 
#    0.000    0.000    0.000    0.000    0.000    0.000 
#
# Total GULP energy -396637.395977 kJ/mol
# GULP energy per Si atom -12394.918624 kJ/mol
# Density = 2.272609 g / cm^3
# Si number density = 22.777936 Si / 1000 Ang^3
#
#
#
# Elastic Constant Matrix: (Units=GPa)
#
#
# Indices 1 2 3 4 5 6 
#
# 1 87.7141 45.1302 36.2058 0.0000 0.0000 0.0000
# 2 45.1302 117.0374 71.2586 0.0000 0.0000 0.0000
# 3 36.2058 71.2586 136.9349 0.0000 0.0000 0.0000
# 4 0.0000 0.0000 0.0000 28.6191 0.0000 0.0000
# 5 0.0000 0.0000 0.0000 0.0000 32.7684 0.0000
# 6 0.0000 0.0000 0.0000 0.0000 0.0000 46.6174
#
#
#
# Elastic Compliance Matrix: (Units=1/GPa)
#
#
# Indices 1 2 3 4 5 6 
#
# 1 0.014389 -0.004731 -0.001343 0.000000 0.000000 0.000000
# 2 -0.004731 0.014063 -0.006067 0.000000 0.000000 0.000000
# 3 -0.001343 -0.006067 0.010815 0.000000 0.000000 0.000000
# 4 0.000000 0.000000 0.000000 0.034942 0.000000 0.000000
# 5 0.000000 0.000000 0.000000 0.000000 0.030517 0.000000
# 6 0.000000 0.000000 0.000000 0.000000 0.000000 0.021451
#
#
# Mechanical properties :
#
#
# Convention : Reuss Voigt Hill
#
# Bulk Modulus (GPa) = 66.73235 71.87507 69.30371
# Shear Modulus (GPa) = 32.16410 34.20709 33.18560
#
# Velocity S-wave (km/s) = 3.76183 3.87946 3.82110
# Velocity P-wave (km/s) = 6.94471 7.18959 7.06821
#
# Compressibility (1/GPa) = 0.01498524
#
# Stress axis : x y z
#
# Youngs Moduli (GPa) = 69.49734 71.11102 92.46540
#
# Poissons Ratio (x) = 0.33643 0.12414
# Poissons Ratio (y) = 0.32880 0.56099
# Poissons Ratio (z) = 0.09330 0.43143
#
# Static dielectric constant tensor:
#      x y z
#    x 4.133360 0.000000 0.000000 
#    y 0.000000 4.538050 0.000000 
#    z 0.000000 0.000000 3.990200 
# 
# 
# High freq. dielectric constant tensor:
#      x y z
#    x 1.899410 0.000000 0.000000 
#    y 0.000000 1.918540 0.000000 
#    z 0.000000 0.000000 1.891630 
# 
# From -- ./inp_files/35454.got.cif
#   From: 2010.06.25/outbox.cif.g09.slc.cpg/sg52_18_cif.got.tgz:35454.got - 2010.06.26 19:32:48.
