data_PCOD8216099
_publ_section_title
;
Structure prediction by ZEFSAII (Michael W. Deem and Ramdas Pophale) SiO2 
 PCOD8216099
Probable space group: P N N A
;
_chemical_formula_sum "Si O2"
_cell_formula_units_Z 48
_cell_length_a 23.454716
_cell_length_b 14.413920
_cell_length_c 6.215804
_cell_angle_alpha 90.000000
_cell_angle_beta 90.000000
_cell_angle_gamma 90.000000
_cell_volume 2101.404208
_symmetry_space_group_name_H-M "P N N A"
_symmetry_group_IT_number 52
_symmetry_cell_setting 'orthorhombic'
loop_
_space_group_symop_operation_xyz
x,y,z
1/2-x,-y,z
x,1/2-y,1/2-z
1/2-x,1/2+y,1/2-z
-x,-y,-z
1/2+x,y,-z
-x,1/2+y,1/2+z
1/2+x,1/2-y,1/2+z
loop_
_atom_site_type_symbol
_atom_site_label
_atom_site_fract_x
_atom_site_fract_y
_atom_site_fract_z
Si Si1 0.428277 0.250000 0.750000
Si Si2 0.084673 0.031085 0.656914
Si Si3 0.607249 0.910692 0.971819
Si Si4 0.722150 0.654868 0.638261
Si Si5 0.703651 0.075202 0.508627
Si Si6 0.229052 0.250000 0.750000
Si Si7 0.977223 0.125721 0.586797
O O1 0.388762 0.166884 0.838335
O O2 0.465894 0.221575 0.539980
O O3 0.100209 0.009965 0.907177
O O4 0.041782 0.951403 0.582665
O O5 0.140256 0.032650 0.501929
O O6 0.045240 0.123041 0.639512
O O7 0.667648 0.913069 0.847249
O O8 0.556735 0.887651 0.808715
O O9 0.704236 0.750000 0.750000
O O10 0.734478 0.679812 0.393744
O O11 0.775157 0.602490 0.751741
O O12 0.694453 0.174405 0.387855
O O13 0.750000 0.000000 0.412995
#
# Coordination Sequence:
#
# PCOD8216099 Si02
#       7
#     4   8   8   8   8   4   8
#     4  10  21  36  60  96 126 160 215 264 330 400
#     4  10  23  40  61  90 126 167 215 271 324 403
#     4  11  20  37  65  93 123 164 214 273 327 386
#     4  10  21  37  60  89 126 164 212 275 324 392
#     4  11  23  41  63  93 127 175 223 268 335 396
#     4  10  23  42  58  94 132 164 221 270 328 400
#     4  10  21  40  60  91 126 167 214 268 330 395
#
# _framework density 22.84187
#
# number of rings (size 3 to 8) (size 9 to 14) (size 15 to 20)
#    0.000    1.667    0.000    4.500    0.000    8.667 
#    7.500    0.000    0.000    0.000    0.000    0.000 
#    0.000    0.000    0.000    0.000    0.000    0.000 
#
# Total GULP energy -594680.241043 kJ/mol
# GULP energy per Si atom -12389.171688 kJ/mol
# Density = 2.278988 g / cm^3
# Si number density = 22.841870 Si / 1000 Ang^3
#
#
#
# Elastic Constant Matrix: (Units=GPa)
#
#
# Indices 1 2 3 4 5 6 
#
# 1 158.5791 20.5703 49.6642 0.0000 0.0000 0.0000
# 2 20.5703 61.1304 16.8691 0.0000 0.0000 0.0000
# 3 49.6642 16.8691 112.5726 0.0000 0.0000 0.0000
# 4 0.0000 0.0000 0.0000 37.6847 0.0000 0.0000
# 5 0.0000 0.0000 0.0000 0.0000 15.9780 0.0000
# 6 0.0000 0.0000 0.0000 0.0000 0.0000 27.5727
#
#
#
# Elastic Compliance Matrix: (Units=1/GPa)
#
#
# Indices 1 2 3 4 5 6 
#
# 1 0.007478 -0.001675 -0.003048 0.000000 0.000000 0.000000
# 2 -0.001675 0.017439 -0.001874 0.000000 0.000000 0.000000
# 3 -0.003048 -0.001874 0.010509 0.000000 0.000000 0.000000
# 4 0.000000 0.000000 0.000000 0.026536 0.000000 0.000000
# 5 0.000000 0.000000 0.000000 0.000000 0.062586 0.000000
# 6 0.000000 0.000000 0.000000 0.000000 0.000000 0.036268
#
#
# Mechanical properties :
#
#
# Convention : Reuss Voigt Hill
#
# Bulk Modulus (GPa) = 44.98215 56.27661 50.62938
# Shear Modulus (GPa) = 27.56020 32.59231 30.07625
#
# Velocity S-wave (km/s) = 3.47733 3.78149 3.63259
# Velocity P-wave (km/s) = 5.98816 6.61492 6.30933
#
# Compressibility (1/GPa) = 0.02223104
#
# Stress axis : x y z
#
# Youngs Moduli (GPa) = 133.72746 57.34152 95.15893
#
# Poissons Ratio (x) = 0.09606 0.29005
# Poissons Ratio (y) = 0.22402 0.17835
# Poissons Ratio (z) = 0.40761 0.10747
#
# Static dielectric constant tensor:
#      x y z
#    x 3.951790 0.000000 0.000000 
#    y 0.000000 4.310880 0.000000 
#    z 0.000000 0.000000 4.332510 
# 
# 
# High freq. dielectric constant tensor:
#      x y z
#    x 1.881040 0.000000 0.000000 
#    y 0.000000 1.897080 0.000000 
#    z 0.000000 0.000000 1.906140 
# 
# From -- ./inp_files/5160.got.cif
#   From: 2010.06.25/outbox.cif.g09.slc.cpg/sg52_3_cif.got.tgz:5160.got - 2010.06.26 19:32:48.
