data_PCOD8216544
_publ_section_title
;
Structure prediction by ZEFSAII (Michael W. Deem and Ramdas Pophale) SiO2 
 PCOD8216544
Probable space group: P N N A
;
_chemical_formula_sum "Si O2"
_cell_formula_units_Z 32
_cell_length_a 8.509558
_cell_length_b 7.834271
_cell_length_c 21.467099
_cell_angle_alpha 90.000000
_cell_angle_beta 90.000000
_cell_angle_gamma 90.000000
_cell_volume 1431.129560
_symmetry_space_group_name_H-M "P N N A"
_symmetry_group_IT_number 52
_symmetry_cell_setting 'orthorhombic'
loop_
_space_group_symop_operation_xyz
x,y,z
1/2-x,-y,z
x,1/2-y,1/2-z
1/2-x,1/2+y,1/2-z
-x,-y,-z
1/2+x,y,-z
-x,1/2+y,1/2+z
1/2+x,1/2-y,1/2+z
loop_
_atom_site_type_symbol
_atom_site_label
_atom_site_fract_x
_atom_site_fract_y
_atom_site_fract_z
Si Si1 0.694183 0.694743 0.041868
Si Si2 0.020535 0.715392 0.417127
Si Si3 0.107876 0.250000 0.250000
Si Si4 0.250000 0.500000 0.343700
Si Si5 0.430323 0.458324 0.846904
O O1 0.750000 0.500000 0.032337
O O2 0.566672 0.687462 0.098495
O O3 0.840269 0.816384 0.061897
O O4 0.621115 0.759176 0.978957
O O5 0.096174 0.549940 0.384250
O O6 0.027995 0.877560 0.370741
O O7 0.214343 0.335613 0.302244
O O8 0.003148 0.394286 0.217294
O O9 0.250000 0.500000 0.831725
#
# Coordination Sequence:
#
# PCOD8216544 Si02
#       5
#     8   8   4   4   8
#     4   9  19  38  67  98 126 165 206 266 323 385
#     4  10  22  40  64  96 130 163 216 261 325 379
#     4  12  26  44  62  90 132 176 214 260 314 376
#     4  12  28  40  62  92 130 176 212 266 310 386
#     4   9  21  42  68  93 123 171 216 260 317 381
#
# _framework density 22.359960000000001
#
# number of rings (size 3 to 8) (size 9 to 14) (size 15 to 20)
#    0.000    2.500    0.000    4.500    7.000    5.000 
#    0.000    0.000    0.000    0.000    0.000    0.000 
#    0.000    0.000    0.000    0.000    0.000    0.000 
#
# Total GULP energy -396664.536685 kJ/mol
# GULP energy per Si atom -12395.766771 kJ/mol
# Density = 2.230907 g / cm^3
# Si number density = 22.359960 Si / 1000 Ang^3
#
#
#
# Elastic Constant Matrix: (Units=GPa)
#
#
# Indices 1 2 3 4 5 6 
#
# 1 77.4120 38.6281 28.9862 0.0000 0.0000 0.0000
# 2 38.6281 54.3792 24.1353 0.0000 0.0000 0.0000
# 3 28.9862 24.1353 88.8901 0.0000 0.0000 0.0000
# 4 0.0000 0.0000 0.0000 40.7224 0.0000 0.0000
# 5 0.0000 0.0000 0.0000 0.0000 23.1383 0.0000
# 6 0.0000 0.0000 0.0000 0.0000 0.0000 38.8829
#
#
#
# Elastic Compliance Matrix: (Units=1/GPa)
#
#
# Indices 1 2 3 4 5 6 
#
# 1 0.020756 -0.013349 -0.003144 0.000000 0.000000 0.000000
# 2 -0.013349 0.029494 -0.003655 0.000000 0.000000 0.000000
# 3 -0.003144 -0.003655 0.013268 0.000000 0.000000 0.000000
# 4 0.000000 0.000000 0.000000 0.024557 0.000000 0.000000
# 5 0.000000 0.000000 0.000000 0.000000 0.043218 0.000000
# 6 0.000000 0.000000 0.000000 0.000000 0.000000 0.025718
#
#
# Mechanical properties :
#
#
# Convention : Reuss Voigt Hill
#
# Bulk Modulus (GPa) = 43.06305 44.90894 43.98600
# Shear Modulus (GPa) = 24.38470 29.14416 26.76443
#
# Velocity S-wave (km/s) = 3.30593 3.61419 3.46349
# Velocity P-wave (km/s) = 5.82006 6.12737 5.97569
#
# Compressibility (1/GPa) = 0.02322176
#
# Stress axis : x y z
#
# Youngs Moduli (GPa) = 48.17895 33.90538 75.37196
#
# Poissons Ratio (x) = 0.45259 0.23696
# Poissons Ratio (y) = 0.64312 0.27551
# Poissons Ratio (z) = 0.15147 0.12393
#
# Static dielectric constant tensor:
#      x y z
#    x 4.118920 0.000000 0.000000 
#    y 0.000000 3.741560 0.000000 
#    z 0.000000 0.000000 4.368580 
# 
# 
# High freq. dielectric constant tensor:
#      x y z
#    x 1.879760 0.000000 0.000000 
#    y 0.000000 1.860070 0.000000 
#    z 0.000000 0.000000 1.893950 
# 
# From -- ./inp_files/35496.got.cif
#   From: 2010.06.25/outbox.cif.g09.slc.cpg/sg52_18_cif.got.tgz:35496.got - 2010.06.26 19:32:48.
