data_PCOD8216431
_publ_section_title
;
Structure prediction by ZEFSAII (Michael W. Deem and Ramdas Pophale) SiO2 
 PCOD8216431
Probable space group: P N N A
;
_chemical_formula_sum "Si O2"
_cell_formula_units_Z 40
_cell_length_a 5.326684
_cell_length_b 17.760013
_cell_length_c 18.551545
_cell_angle_alpha 90.000000
_cell_angle_beta 90.000000
_cell_angle_gamma 90.000000
_cell_volume 1755.012835
_symmetry_space_group_name_H-M "P N N A"
_symmetry_group_IT_number 52
_symmetry_cell_setting 'orthorhombic'
loop_
_space_group_symop_operation_xyz
x,y,z
1/2-x,-y,z
x,1/2-y,1/2-z
1/2-x,1/2+y,1/2-z
-x,-y,-z
1/2+x,y,-z
-x,1/2+y,1/2+z
1/2+x,1/2-y,1/2+z
loop_
_atom_site_type_symbol
_atom_site_label
_atom_site_fract_x
_atom_site_fract_y
_atom_site_fract_z
Si Si1 0.692504 0.865251 0.958709
Si Si2 0.090379 0.611405 0.299744
Si Si3 0.043570 0.135304 0.322024
Si Si4 0.721908 0.250000 0.250000
Si Si5 0.299381 0.312479 0.041412
Si Si6 0.750000 0.000000 0.284760
O O1 0.659235 0.905521 0.882075
O O2 0.699394 0.776113 0.947328
O O3 0.457210 0.891270 0.007585
O O4 0.347510 0.622347 0.257234
O O5 0.936190 0.688650 0.293229
O O6 0.948249 0.539991 0.267470
O O7 0.259859 0.146706 0.381557
O O8 0.877717 0.210929 0.315053
O O9 0.878059 0.061021 0.338267
O O10 0.566083 0.338624 0.009139
#
# Coordination Sequence:
#
# PCOD8216431 Si02
#       6
#     8   8   8   4   8   4
#     4  10  23  39  65 101 138 172 213 277 344 400
#     4  11  23  42  66  95 130 175 223 280 326 401
#     4  11  23  42  66  95 130 175 223 280 326 401
#     4  10  22  34  68 100 120 166 232 270 334 390
#     4  10  23  39  65 101 138 172 213 277 344 400
#     4  10  26  42  68  88 132 174 240 266 338 382
#
# _framework density 22.791854000000001
#
# number of rings (size 3 to 8) (size 9 to 14) (size 15 to 20)
#    0.000    1.600    0.000    3.600   19.600    0.000 
#    0.000    2.000    0.000    0.000    0.000    0.000 
#    0.000    0.000    0.000    0.000    0.000    0.000 
#
# Total GULP energy -496088.481889 kJ/mol
# GULP energy per Si atom -12402.212047 kJ/mol
# Density = 2.273998 g / cm^3
# Si number density = 22.791854 Si / 1000 Ang^3
#
#
#
# Elastic Constant Matrix: (Units=GPa)
#
#
# Indices 1 2 3 4 5 6 
#
# 1 100.6798 12.2320 9.3774 0.0000 0.0000 0.0000
# 2 12.2320 79.3284 -5.2818 0.0000 0.0000 0.0000
# 3 9.3774 -5.2818 82.6001 0.0000 0.0000 0.0000
# 4 0.0000 0.0000 0.0000 12.3264 0.0000 0.0000
# 5 0.0000 0.0000 0.0000 0.0000 43.7187 0.0000
# 6 0.0000 0.0000 0.0000 0.0000 0.0000 -3.8198
#
#
#
# Elastic Compliance Matrix: (Units=1/GPa)
#
#
# Indices 1 2 3 4 5 6 
#
# 1 0.010253 -0.001666 -0.001271 0.000000 0.000000 0.000000
# 2 -0.001666 0.012930 0.001016 0.000000 0.000000 0.000000
# 3 -0.001271 0.001016 0.012316 0.000000 0.000000 0.000000
# 4 0.000000 0.000000 0.000000 0.081127 0.000000 0.000000
# 5 0.000000 0.000000 0.000000 0.000000 0.022874 0.000000
# 6 0.000000 0.000000 0.000000 0.000000 0.000000 -0.261792
#
#
# Mechanical properties :
#
#
# Convention : Reuss Voigt Hill
#
# Bulk Modulus (GPa) = 31.58681 32.80707 32.19694
# Shear Modulus (GPa) = -46.33937 26.86376 -9.73781
#
# Velocity S-wave (km/s) = -4.51394 3.43688 -2.06924
# Velocity P-wave (km/s) = 3.64399 5.49318 2.90657
#
# Compressibility (1/GPa) = 0.03165879
#
# Stress axis : x y z
#
# Youngs Moduli (GPa) = 97.53078 77.33780 81.19703
#
# Poissons Ratio (x) = 0.12881 0.10316
# Poissons Ratio (y) = 0.16244 -0.08249
# Poissons Ratio (z) = 0.12392 -0.07857
#
# Static dielectric constant tensor:
#      x y z
#    x 4.396260 0.000000 0.000000 
#    y 0.000000 4.085760 0.000000 
#    z 0.000000 0.000000 3.875920 
# 
# 
# High freq. dielectric constant tensor:
#      x y z
#    x 1.916090 0.000000 0.000000 
#    y 0.000000 1.886460 0.000000 
#    z 0.000000 0.000000 1.886780 
# 
# From -- ./inp_files/3244.got.cif
#   From: 2010.06.25/outbox.cif.g09.slc.cpg/sg52_2_cif.got.tgz:3244.got - 2010.06.26 19:32:48.
