data_PCOD8216357
_publ_section_title
;
Structure prediction by ZEFSAII (Michael W. Deem and Ramdas Pophale) SiO2 
 PCOD8216357
Probable space group: P N N A
;
_chemical_formula_sum "Si O2"
_cell_formula_units_Z 64
_cell_length_a 14.672420
_cell_length_b 17.044796
_cell_length_c 12.051907
_cell_angle_alpha 90.000000
_cell_angle_beta 90.000000
_cell_angle_gamma 90.000000
_cell_volume 3014.042208
_symmetry_space_group_name_H-M "P N N A"
_symmetry_group_IT_number 52
_symmetry_cell_setting 'orthorhombic'
loop_
_space_group_symop_operation_xyz
x,y,z
1/2-x,-y,z
x,1/2-y,1/2-z
1/2-x,1/2+y,1/2-z
-x,-y,-z
1/2+x,y,-z
-x,1/2+y,1/2+z
1/2+x,1/2-y,1/2+z
loop_
_atom_site_type_symbol
_atom_site_label
_atom_site_fract_x
_atom_site_fract_y
_atom_site_fract_z
Si Si1 0.638621 0.828260 0.083668
Si Si2 0.697164 0.924776 0.680865
Si Si3 0.732777 0.410006 0.583238
Si Si4 0.389745 0.794436 0.641291
Si Si5 0.006528 0.068279 0.754963
Si Si6 0.295901 0.340271 0.958964
Si Si7 0.336882 0.053181 0.727509
Si Si8 0.045284 0.146203 0.982502
O O1 0.649691 0.734789 0.086451
O O2 0.674581 0.870724 0.193854
O O3 0.694948 0.855623 0.977382
O O4 0.533260 0.850614 0.073655
O O5 0.755371 0.894103 0.785906
O O6 0.597060 0.951198 0.722443
O O7 0.692654 0.855030 0.590594
O O8 0.750000 0.000000 0.629928
O O9 0.750000 0.500000 0.551753
O O10 0.632439 0.387683 0.544255
O O11 0.350206 0.750000 0.750000
O O12 0.460561 0.861101 0.676685
O O13 0.309976 0.833724 0.571416
O O14 0.440843 0.733596 0.562732
O O15 0.013253 0.089702 0.883871
O O16 0.068527 0.991862 0.740513
O O17 0.335646 0.416927 0.898536
O O18 0.250000 0.000000 0.756339
#
# Coordination Sequence:
#
# PCOD8216357 Si02
#       8
#     8   8   8   8   8   8   8   8
#     4  12  24  42  72 102 137 170 229 292 349 400
#     4  11  27  47  66  98 143 190 226 277 344 423
#     4  11  24  43  67 101 138 173 227 282 343 403
#     4  10  21  41  71  99 136 176 235 280 339 413
#     4  11  23  44  73 101 136 182 235 278 341 424
#     4  12  25  47  66  99 143 183 227 281 344 415
#     4  12  25  42  71 105 132 174 229 294 349 397
#     4  11  23  43  69 106 133 182 225 288 349 414
#
# _framework density 21.233943
#
# number of rings (size 3 to 8) (size 9 to 14) (size 15 to 20)
#    0.000    0.750    3.750    4.125    3.500    2.000 
#    2.250    1.250    0.000    0.000    0.000    0.000 
#    0.000    0.000    0.000    0.000    0.000    0.000 
#
# Total GULP energy -793904.908610 kJ/mol
# GULP energy per Si atom -12404.764197 kJ/mol
# Density = 2.118561 g / cm^3
# Si number density = 21.233943 Si / 1000 Ang^3
#
#
#
# Elastic Constant Matrix: (Units=GPa)
#
#
# Indices 1 2 3 4 5 6 
#
# 1 142.1560 48.9782 44.2735 0.0000 0.0000 0.0000
# 2 48.9782 95.4598 37.3883 0.0000 0.0000 0.0000
# 3 44.2735 37.3883 98.0711 0.0000 0.0000 0.0000
# 4 0.0000 0.0000 0.0000 34.5810 0.0000 0.0000
# 5 0.0000 0.0000 0.0000 0.0000 0.6212 0.0000
# 6 0.0000 0.0000 0.0000 0.0000 0.0000 24.6518
#
#
#
# Elastic Compliance Matrix: (Units=1/GPa)
#
#
# Indices 1 2 3 4 5 6 
#
# 1 0.009134 -0.003611 -0.002747 0.000000 0.000000 0.000000
# 2 -0.003611 0.013742 -0.003609 0.000000 0.000000 0.000000
# 3 -0.002747 -0.003609 0.012813 0.000000 0.000000 0.000000
# 4 0.000000 0.000000 0.000000 0.028918 0.000000 0.000000
# 5 0.000000 0.000000 0.000000 0.000000 1.609855 0.000000
# 6 0.000000 0.000000 0.000000 0.000000 0.000000 0.040565
#
#
# Mechanical properties :
#
#
# Convention : Reuss Voigt Hill
#
# Bulk Modulus (GPa) = 63.47023 66.32966 64.89994
# Shear Modulus (GPa) = 2.87322 25.64058 14.25690
#
# Velocity S-wave (km/s) = 1.16450 3.47872 2.59399
# Velocity P-wave (km/s) = 5.63595 6.88772 6.29304
#
# Compressibility (1/GPa) = 0.01575542
#
# Stress axis : x y z
#
# Youngs Moduli (GPa) = 109.48063 72.77190 78.04794
#
# Poissons Ratio (x) = 0.26275 0.21440
# Poissons Ratio (y) = 0.39529 0.28166
# Poissons Ratio (z) = 0.30075 0.26262
#
# Static dielectric constant tensor:
#      x y z
#    x 3.991560 0.000000 0.000000 
#    y 0.000000 3.943250 0.000000 
#    z 0.000000 0.000000 3.870370 
# 
# 
# High freq. dielectric constant tensor:
#      x y z
#    x 1.838790 0.000000 0.000000 
#    y 0.000000 1.839150 0.000000 
#    z 0.000000 0.000000 1.833090 
# 
# From -- ./inp_files/19862.got.cif
#   From: 2010.06.25/outbox.cif.g09.slc.cpg/sg52_10_cif.got.tgz:19862.got - 2010.06.26 19:32:48.
