data_PCOD8216912
_publ_section_title
;
Structure prediction by ZEFSAII (Michael W. Deem and Ramdas Pophale) SiO2 
 PCOD8216912
Probable space group: P N N A
;
_chemical_formula_sum "Si O2"
_cell_formula_units_Z 24
_cell_length_a 10.320111
_cell_length_b 20.042442
_cell_length_c 5.236535
_cell_angle_alpha 90.000000
_cell_angle_beta 90.000000
_cell_angle_gamma 90.000000
_cell_volume 1083.126084
_symmetry_space_group_name_H-M "P N N A"
_symmetry_group_IT_number 52
_symmetry_cell_setting 'orthorhombic'
loop_
_space_group_symop_operation_xyz
x,y,z
1/2-x,-y,z
x,1/2-y,1/2-z
1/2-x,1/2+y,1/2-z
-x,-y,-z
1/2+x,y,-z
-x,1/2+y,1/2+z
1/2+x,1/2-y,1/2+z
loop_
_atom_site_type_symbol
_atom_site_label
_atom_site_fract_x
_atom_site_fract_y
_atom_site_fract_z
Si Si1 0.951772 0.324797 0.671825
Si Si2 0.420604 0.933452 0.540974
Si Si3 0.310833 0.885844 0.032470
O O1 0.920074 0.250000 0.750000
O O2 0.829815 0.353009 0.514710
O O3 0.078650 0.327993 0.489462
O O4 0.979492 0.371185 0.921287
O O5 0.327224 0.923837 0.299625
O O6 0.500000 0.000000 0.500000
O O7 0.330786 0.937847 0.796757
#
# Coordination Sequence:
#
# PCOD8216912 Si02
#       3
#     8   8   8
#     4  10  26  44  73 101 146 181 239 292 354 418
#     4  10  24  46  69 101 140 182 233 286 355 421
#     4  10  25  44  69 102 133 185 230 286 350 421
#
# _framework density 22.158083999999999
#
# number of rings (size 3 to 8) (size 9 to 14) (size 15 to 20)
#    2.000    0.000    0.000    1.000    9.333    1.333 
#    0.000    0.000    0.000    0.000    0.000    0.000 
#    0.000    0.000    0.000    0.000    0.000    0.000 
#
# Total GULP energy -297387.646974 kJ/mol
# GULP energy per Si atom -12391.151957 kJ/mol
# Density = 2.210765 g / cm^3
# Si number density = 22.158084 Si / 1000 Ang^3
#
#
#
# Elastic Constant Matrix: (Units=GPa)
#
#
# Indices 1 2 3 4 5 6 
#
# 1 102.0363 -0.7458 14.0196 0.0000 0.0000 0.0000
# 2 -0.7458 101.2924 16.5439 0.0000 0.0000 0.0000
# 3 14.0196 16.5439 144.9533 0.0000 0.0000 0.0000
# 4 0.0000 0.0000 0.0000 30.0627 0.0000 0.0000
# 5 0.0000 0.0000 0.0000 0.0000 9.0823 0.0000
# 6 0.0000 0.0000 0.0000 0.0000 0.0000 18.9007
#
#
#
# Elastic Compliance Matrix: (Units=1/GPa)
#
#
# Indices 1 2 3 4 5 6 
#
# 1 0.009938 0.000235 -0.000988 0.000000 0.000000 0.000000
# 2 0.000235 0.010065 -0.001171 0.000000 0.000000 0.000000
# 3 -0.000988 -0.001171 0.007128 0.000000 0.000000 0.000000
# 4 0.000000 0.000000 0.000000 0.033264 0.000000 0.000000
# 5 0.000000 0.000000 0.000000 0.000000 0.110104 0.000000
# 6 0.000000 0.000000 0.000000 0.000000 0.000000 0.052908
#
#
# Mechanical properties :
#
#
# Convention : Reuss Voigt Hill
#
# Bulk Modulus (GPa) = 42.95236 45.32416 44.13826
# Shear Modulus (GPa) = 21.27503 32.84010 27.05756
#
# Velocity S-wave (km/s) = 3.10199 3.85396 3.49824
# Velocity P-wave (km/s) = 5.67947 6.34849 6.02327
#
# Compressibility (1/GPa) = 0.02328161
#
# Stress axis : x y z
#
# Youngs Moduli (GPa) = 100.62498 99.34951 140.29122
#
# Poissons Ratio (x) = -0.02330 0.13860
# Poissons Ratio (y) = -0.02360 0.16435
# Poissons Ratio (z) = 0.09941 0.11639
#
# Static dielectric constant tensor:
#      x y z
#    x 3.893990 0.000000 0.000000 
#    y 0.000000 3.787520 0.000000 
#    z 0.000000 0.000000 4.103730 
# 
# 
# High freq. dielectric constant tensor:
#      x y z
#    x 1.877950 0.000000 0.000000 
#    y 0.000000 1.854170 0.000000 
#    z 0.000000 0.000000 1.869260 
# 
# From -- ./inp_files/294.got.cif
#   From: 2010.06.25/outbox.cif.g09.slc.cpg/sg52_1_cif.got.tgz:294.got - 2010.06.26 19:32:48.
