data_PCOD8216660
_publ_section_title
;
Structure prediction by ZEFSAII (Michael W. Deem and Ramdas Pophale) SiO2 
 PCOD8216660
Probable space group: P N N A
;
_chemical_formula_sum "Si O2"
_cell_formula_units_Z 36
_cell_length_a 10.999484
_cell_length_b 18.706641
_cell_length_c 8.146209
_cell_angle_alpha 90.000000
_cell_angle_beta 90.000000
_cell_angle_gamma 90.000000
_cell_volume 1676.191648
_symmetry_space_group_name_H-M "P N N A"
_symmetry_group_IT_number 52
_symmetry_cell_setting 'orthorhombic'
loop_
_space_group_symop_operation_xyz
x,y,z
1/2-x,-y,z
x,1/2-y,1/2-z
1/2-x,1/2+y,1/2-z
-x,-y,-z
1/2+x,y,-z
-x,1/2+y,1/2+z
1/2+x,1/2-y,1/2+z
loop_
_atom_site_type_symbol
_atom_site_label
_atom_site_fract_x
_atom_site_fract_y
_atom_site_fract_z
Si Si1 0.678275 0.750000 0.750000
Si Si2 0.851654 0.442560 0.446146
Si Si3 0.224488 0.207931 0.915630
Si Si4 0.113582 0.485531 0.884576
Si Si5 0.494378 0.868382 0.808785
O O1 0.757215 0.752173 0.583478
O O2 0.602696 0.823434 0.729067
O O3 0.750000 0.500000 0.504102
O O4 0.801279 0.363442 0.428926
O O5 0.903547 0.462702 0.269675
O O6 0.958297 0.435786 0.581830
O O7 0.262421 0.250000 0.750000
O O8 0.081803 0.188613 0.914563
O O9 0.250000 0.500000 0.960926
O O10 0.097725 0.402910 0.825980
O O11 0.000000 0.500000 0.000000
#
# Coordination Sequence:
#
# PCOD8216660 Si02
#       5
#     4   8   8   8   8
#     4  10  26  44  68 102 130 192 232 284 356 424
#     4  10  22  43  67  97 130 183 228 287 359 416
#     4  11  23  45  68  97 144 176 235 291 348 422
#     4  11  24  42  66 101 137 180 230 293 353 418
#     4  11  22  44  69  97 136 180 235 290 352 433
#
# _framework density 21.477257999999999
#
# number of rings (size 3 to 8) (size 9 to 14) (size 15 to 20)
#    0.000    1.333    5.556    0.667    3.111    0.889 
#   16.000    0.000    0.000    0.000    0.000    0.000 
#    0.000    0.000    0.000    0.000    0.000    0.000 
#
# Total GULP energy -446094.311755 kJ/mol
# GULP energy per Si atom -12391.508660 kJ/mol
# Density = 2.142837 g / cm^3
# Si number density = 21.477258 Si / 1000 Ang^3
#
#
#
# Elastic Constant Matrix: (Units=GPa)
#
#
# Indices 1 2 3 4 5 6 
#
# 1 143.1013 33.4255 69.6355 0.0000 0.0000 0.0000
# 2 33.4255 77.0786 47.3569 0.0000 0.0000 0.0000
# 3 69.6355 47.3569 127.2473 0.0000 0.0000 0.0000
# 4 0.0000 0.0000 0.0000 39.3110 0.0000 0.0000
# 5 0.0000 0.0000 0.0000 0.0000 42.5935 0.0000
# 6 0.0000 0.0000 0.0000 0.0000 0.0000 39.5652
#
#
#
# Elastic Compliance Matrix: (Units=1/GPa)
#
#
# Indices 1 2 3 4 5 6 
#
# 1 0.009611 -0.001214 -0.004808 0.000000 0.000000 0.000000
# 2 -0.001214 0.016973 -0.005652 0.000000 0.000000 0.000000
# 3 -0.004808 -0.005652 0.012593 0.000000 0.000000 0.000000
# 4 0.000000 0.000000 0.000000 0.025438 0.000000 0.000000
# 5 0.000000 0.000000 0.000000 0.000000 0.023478 0.000000
# 6 0.000000 0.000000 0.000000 0.000000 0.000000 0.025275
#
#
# Mechanical properties :
#
#
# Convention : Reuss Voigt Hill
#
# Bulk Modulus (GPa) = 63.17474 72.02924 67.60199
# Shear Modulus (GPa) = 35.21291 37.42789 36.32040
#
# Velocity S-wave (km/s) = 4.05352 4.17907 4.11677
# Velocity P-wave (km/s) = 7.16845 7.54297 7.35809
#
# Compressibility (1/GPa) = 0.01582911
#
# Stress axis : x y z
#
# Youngs Moduli (GPa) = 104.04503 58.91689 79.40641
#
# Poissons Ratio (x) = 0.07152 0.38178
# Poissons Ratio (y) = 0.12631 0.44884
# Poissons Ratio (z) = 0.50024 0.33302
#
# Static dielectric constant tensor:
#      x y z
#    x 5.107290 0.000000 0.000000 
#    y 0.000000 4.083310 0.000000 
#    z 0.000000 0.000000 3.958990 
# 
# 
# High freq. dielectric constant tensor:
#      x y z
#    x 1.849930 0.000000 0.000000 
#    y 0.000000 1.856940 0.000000 
#    z 0.000000 0.000000 1.826340 
# 
# From -- ./inp_files/8651.got.cif
#   From: 2010.06.25/outbox.cif.g09.slc.cpg/sg52_5_cif.got.tgz:8651.got - 2010.06.26 19:32:48.
