data_PCOD8216290
_publ_section_title
;
Structure prediction by ZEFSAII (Michael W. Deem and Ramdas Pophale) SiO2 
 PCOD8216290
Probable space group: P N N A
;
_chemical_formula_sum "Si O2"
_cell_formula_units_Z 60
_cell_length_a 16.381917
_cell_length_b 25.191374
_cell_length_c 6.807951
_cell_angle_alpha 90.000000
_cell_angle_beta 90.000000
_cell_angle_gamma 90.000000
_cell_volume 2809.525629
_symmetry_space_group_name_H-M "P N N A"
_symmetry_group_IT_number 52
_symmetry_cell_setting 'orthorhombic'
loop_
_space_group_symop_operation_xyz
x,y,z
1/2-x,-y,z
x,1/2-y,1/2-z
1/2-x,1/2+y,1/2-z
-x,-y,-z
1/2+x,y,-z
-x,1/2+y,1/2+z
1/2+x,1/2-y,1/2+z
loop_
_atom_site_type_symbol
_atom_site_label
_atom_site_fract_x
_atom_site_fract_y
_atom_site_fract_z
Si Si1 0.587572 0.955826 0.677542
Si Si2 0.152835 0.119349 0.879021
Si Si3 0.729852 0.203532 0.375458
Si Si4 0.362247 0.750000 0.250000
Si Si5 0.129636 0.621373 0.859648
Si Si6 0.796741 0.054932 0.037964
Si Si7 0.412599 0.942937 0.544945
Si Si8 0.958136 0.857565 0.782440
O O1 0.600237 0.900746 0.565944
O O2 0.489979 0.963837 0.673140
O O3 0.626120 0.008600 0.577874
O O4 0.628281 0.948732 0.887893
O O5 0.161956 0.175843 0.766988
O O6 0.231973 0.102867 0.011926
O O7 0.151632 0.074894 0.708437
O O8 0.071074 0.116348 0.011418
O O9 0.770661 0.250000 0.250000
O O10 0.693537 0.229788 0.571294
O O11 0.801646 0.162882 0.420973
O O12 0.419616 0.799394 0.201757
O O13 0.163144 0.570241 0.744457
O O14 0.056075 0.647695 0.732813
O O15 0.750000 0.000000 0.049708
O O16 0.428358 0.892971 0.400715
#
# Coordination Sequence:
#
# PCOD8216290 Si02
#       8
#     8   8   8   4   8   8   8   8
#     4  10  22  39  62  92 130 172 214 266 332 396
#     4  11  22  38  64  92 128 167 217 270 330 391
#     4  11  24  42  63  94 127 168 215 279 329 391
#     4  12  24  42  72  92 124 170 228 272 338 394
#     4  10  25  42  65  94 134 170 219 271 333 390
#     4  11  23  37  61  96 130 173 216 263 327 398
#     4  10  21  40  63  93 130 168 218 272 329 396
#     4  11  23  41  67  95 124 176 218 278 331 405
#
# _framework density 21.355917000000002
#
# number of rings (size 3 to 8) (size 9 to 14) (size 15 to 20)
#    0.000    1.333    2.667    2.400    2.800    2.667 
#    0.000    5.333    1.467    0.000    0.000    0.000 
#    0.000    0.000    0.000    0.000    0.000    0.000 
#
# Total GULP energy -743499.521880 kJ/mol
# GULP energy per Si atom -12391.658698 kJ/mol
# Density = 2.130731 g / cm^3
# Si number density = 21.355917 Si / 1000 Ang^3
#
#
#
# Elastic Constant Matrix: (Units=GPa)
#
#
# Indices 1 2 3 4 5 6 
#
# 1 81.0032 22.6708 31.2570 0.0000 0.0000 0.0000
# 2 22.6708 102.8550 36.7435 0.0000 0.0000 0.0000
# 3 31.2570 36.7435 76.4309 0.0000 0.0000 0.0000
# 4 0.0000 0.0000 0.0000 28.0666 0.0000 0.0000
# 5 0.0000 0.0000 0.0000 0.0000 21.5329 0.0000
# 6 0.0000 0.0000 0.0000 0.0000 0.0000 39.4489
#
#
#
# Elastic Compliance Matrix: (Units=1/GPa)
#
#
# Indices 1 2 3 4 5 6 
#
# 1 0.014807 -0.001329 -0.005417 0.000000 0.000000 0.000000
# 2 -0.001329 0.011858 -0.005157 0.000000 0.000000 0.000000
# 3 -0.005417 -0.005157 0.017778 0.000000 0.000000 0.000000
# 4 0.000000 0.000000 0.000000 0.035630 0.000000 0.000000
# 5 0.000000 0.000000 0.000000 0.000000 0.046441 0.000000
# 6 0.000000 0.000000 0.000000 0.000000 0.000000 0.025349
#
#
# Mechanical properties :
#
#
# Convention : Reuss Voigt Hill
#
# Bulk Modulus (GPa) = 48.45445 49.07021 48.76233
# Shear Modulus (GPa) = 27.39024 29.11753 28.25389
#
# Velocity S-wave (km/s) = 3.58517 3.69649 3.64125
# Velocity P-wave (km/s) = 6.31476 6.42230 6.36876
#
# Compressibility (1/GPa) = 0.02063794
#
# Stress axis : x y z
#
# Youngs Moduli (GPa) = 67.53443 84.33432 56.24874
#
# Poissons Ratio (x) = 0.11205 0.30469
# Poissons Ratio (y) = 0.08973 0.29008
# Poissons Ratio (z) = 0.36582 0.43492
#
# Static dielectric constant tensor:
#      x y z
#    x 3.891990 0.000000 0.000000 
#    y 0.000000 4.026830 0.000000 
#    z 0.000000 0.000000 3.799680 
# 
# 
# High freq. dielectric constant tensor:
#      x y z
#    x 1.833380 0.000000 0.000000 
#    y 0.000000 1.847060 0.000000 
#    z 0.000000 0.000000 1.835750 
# 
# From -- ./inp_files/3618.got.cif
#   From: 2010.06.25/outbox.cif.g09.slc.cpg/sg52_2_cif.got.tgz:3618.got - 2010.06.26 19:32:48.
