data_PCOD8216834
_publ_section_title
;
Structure prediction by ZEFSAII (Michael W. Deem and Ramdas Pophale) SiO2 
 PCOD8216834
Probable space group: P N N A
;
_chemical_formula_sum "Si O2"
_cell_formula_units_Z 56
_cell_length_a 23.387669
_cell_length_b 7.597380
_cell_length_c 14.082769
_cell_angle_alpha 90.000000
_cell_angle_beta 90.000000
_cell_angle_gamma 90.000000
_cell_volume 2502.296932
_symmetry_space_group_name_H-M "P N N A"
_symmetry_group_IT_number 52
_symmetry_cell_setting 'orthorhombic'
loop_
_space_group_symop_operation_xyz
x,y,z
1/2-x,-y,z
x,1/2-y,1/2-z
1/2-x,1/2+y,1/2-z
-x,-y,-z
1/2+x,y,-z
-x,1/2+y,1/2+z
1/2+x,1/2-y,1/2+z
loop_
_atom_site_type_symbol
_atom_site_label
_atom_site_fract_x
_atom_site_fract_y
_atom_site_fract_z
Si Si1 0.010911 0.905480 0.099255
Si Si2 0.196826 0.626878 0.660785
Si Si3 0.399550 0.919216 0.190908
Si Si4 0.385897 0.824286 0.851051
Si Si5 0.226836 0.697857 0.457285
Si Si6 0.652644 0.194196 0.544406
Si Si7 0.618667 0.842136 0.639678
O O1 0.062839 0.762195 0.100703
O O2 0.954175 0.817768 0.138937
O O3 0.032689 0.060723 0.169945
O O4 0.000000 0.000000 0.000000
O O5 0.250000 0.500000 0.682278
O O6 0.186641 0.750000 0.750000
O O7 0.138418 0.520594 0.641741
O O8 0.207193 0.738396 0.565098
O O9 0.383963 0.750000 0.250000
O O10 0.367969 0.882122 0.090361
O O11 0.381081 0.101145 0.246175
O O12 0.366915 0.750000 0.750000
O O13 0.357994 0.703072 0.931949
O O14 0.250000 0.500000 0.447803
O O15 0.279895 0.828430 0.434835
O O16 0.176003 0.734075 0.383733
O O17 0.617835 0.028857 0.585220
#
# Coordination Sequence:
#
# PCOD8216834 Si02
#       7
#     8   8   8   8   8   8   8
#     4  12  24  47  70  98 144 186 233 297 360 415
#     4  11  24  42  67  99 139 191 231 294 365 427
#     4  10  23  47  70  97 140 180 229 291 349 414
#     4  12  25  43  67 103 139 188 237 295 349 430
#     4  11  22  42  70 101 143 182 230 295 363 421
#     4  11  23  45  69 102 148 179 237 298 357 422
#     4  11  25  43  73 103 131 191 236 291 354 435
#
# _framework density 22.379436999999999
#
# number of rings (size 3 to 8) (size 9 to 14) (size 15 to 20)
#    0.000    0.857    4.286    3.857    2.000    1.143 
#    2.571   12.857    0.000    0.000    0.000    0.000 
#    0.000    0.000    0.000    0.000    0.000    0.000 
#
# Total GULP energy -694147.976605 kJ/mol
# GULP energy per Si atom -12395.499582 kJ/mol
# Density = 2.232850 g / cm^3
# Si number density = 22.379437 Si / 1000 Ang^3
#
#
#
# Elastic Constant Matrix: (Units=GPa)
#
#
# Indices 1 2 3 4 5 6 
#
# 1 162.8376 42.6158 43.7988 0.0000 0.0000 0.0000
# 2 42.6158 89.0581 41.8543 0.0000 0.0000 0.0000
# 3 43.7988 41.8543 138.3725 0.0000 0.0000 0.0000
# 4 0.0000 0.0000 0.0000 33.4985 0.0000 0.0000
# 5 0.0000 0.0000 0.0000 0.0000 35.7799 0.0000
# 6 0.0000 0.0000 0.0000 0.0000 0.0000 37.8318
#
#
#
# Elastic Compliance Matrix: (Units=1/GPa)
#
#
# Indices 1 2 3 4 5 6 
#
# 1 0.007263 -0.002792 -0.001454 0.000000 0.000000 0.000000
# 2 -0.002792 0.014163 -0.003400 0.000000 0.000000 0.000000
# 3 -0.001454 -0.003400 0.008716 0.000000 0.000000 0.000000
# 4 0.000000 0.000000 0.000000 0.029852 0.000000 0.000000
# 5 0.000000 0.000000 0.000000 0.000000 0.027949 0.000000
# 6 0.000000 0.000000 0.000000 0.000000 0.000000 0.026433
#
#
# Mechanical properties :
#
#
# Convention : Reuss Voigt Hill
#
# Bulk Modulus (GPa) = 67.34792 71.86732 69.60762
# Shear Modulus (GPa) = 37.14240 38.88866 38.01553
#
# Velocity S-wave (km/s) = 4.07832 4.17309 4.12598
# Velocity P-wave (km/s) = 7.23436 7.44328 7.33956
#
# Compressibility (1/GPa) = 0.01484827
#
# Stress axis : x y z
#
# Youngs Moduli (GPa) = 137.68498 70.60885 114.73555
#
# Poissons Ratio (x) = 0.19713 0.16688
# Poissons Ratio (y) = 0.38440 0.39011
# Poissons Ratio (z) = 0.20026 0.24008
#
# Static dielectric constant tensor:
#      x y z
#    x 4.148150 0.000000 0.000000 
#    y 0.000000 4.195650 0.000000 
#    z 0.000000 0.000000 4.359000 
# 
# 
# High freq. dielectric constant tensor:
#      x y z
#    x 1.882640 0.000000 0.000000 
#    y 0.000000 1.888600 0.000000 
#    z 0.000000 0.000000 1.899340 
# 
# From -- ./inp_files/28783.got.cif
#   From: 2010.06.25/outbox.cif.g09.slc.cpg/sg52_15_cif.got.tgz:28783.got - 2010.06.26 19:32:48.
