data_PCOD8216965
_publ_section_title
;
Structure prediction by ZEFSAII (Michael W. Deem and Ramdas Pophale) SiO2 
 PCOD8216965
Probable space group: P N N A
;
_chemical_formula_sum "Si O2"
_cell_formula_units_Z 44
_cell_length_a 5.108220
_cell_length_b 26.614713
_cell_length_c 14.324851
_cell_angle_alpha 90.000000
_cell_angle_beta 90.000000
_cell_angle_gamma 90.000000
_cell_volume 1947.518060
_symmetry_space_group_name_H-M "P N N A"
_symmetry_group_IT_number 52
_symmetry_cell_setting 'orthorhombic'
loop_
_space_group_symop_operation_xyz
x,y,z
1/2-x,-y,z
x,1/2-y,1/2-z
1/2-x,1/2+y,1/2-z
-x,-y,-z
1/2+x,y,-z
-x,1/2+y,1/2+z
1/2+x,1/2-y,1/2+z
loop_
_atom_site_type_symbol
_atom_site_label
_atom_site_fract_x
_atom_site_fract_y
_atom_site_fract_z
Si Si1 0.776982 0.787399 0.439663
Si Si2 0.750000 0.000000 0.324457
Si Si3 0.750000 0.500000 0.698351
Si Si4 0.791575 0.145058 0.761389
Si Si5 0.777468 0.110821 0.343450
Si Si6 0.715693 0.407664 0.563424
Si Si7 0.974126 0.750000 0.250000
O O1 0.510040 0.772462 0.490710
O O2 0.791050 0.847951 0.422338
O O3 0.793232 0.755072 0.343036
O O4 0.719417 0.947246 0.382925
O O5 0.499759 0.008576 0.261350
O O6 0.697015 0.453198 0.633832
O O7 0.562324 0.123581 0.696776
O O8 0.721924 0.141144 0.870871
O O9 0.829040 0.203598 0.744925
O O10 0.060142 0.115194 0.738298
O O11 0.470136 0.408998 0.498028
#
# Coordination Sequence:
#
# PCOD8216965 Si02
#       7
#     8   4   4   8   8   8   4
#     4  11  25  45  72 105 139 177 228 286 349 419
#     4  12  20  39  68  93 126 178 238 276 338 416
#     4  12  22  37  60  91 128 182 232 278 342 422
#     4  11  23  42  63  93 128 176 235 274 345 412
#     4  11  22  42  67  95 131 174 224 282 333 411
#     4  12  23  37  56  91 135 174 220 287 341 410
#     4  10  26  46  76 100 136 186 228 292 354 412
#
# _framework density 22.592856999999999
#
# number of rings (size 3 to 8) (size 9 to 14) (size 15 to 20)
#    0.000    0.727    3.636    4.909    0.000    8.000 
#    0.000    0.909    0.000    0.000    0.000    0.000 
#    0.000    0.000    0.000    0.000    0.000    0.000 
#
# Total GULP energy -545431.121097 kJ/mol
# GULP energy per Si atom -12396.161843 kJ/mol
# Density = 2.254143 g / cm^3
# Si number density = 22.592857 Si / 1000 Ang^3
#
#
#
# Elastic Constant Matrix: (Units=GPa)
#
#
# Indices 1 2 3 4 5 6 
#
# 1 123.7762 26.7022 28.0307 0.0000 0.0000 0.0000
# 2 26.7022 113.6574 4.2688 0.0000 0.0000 0.0000
# 3 28.0307 4.2688 78.8126 0.0000 0.0000 0.0000
# 4 0.0000 0.0000 0.0000 161.1494 0.0000 0.0000
# 5 0.0000 0.0000 0.0000 0.0000 71.7123 0.0000
# 6 0.0000 0.0000 0.0000 0.0000 0.0000 22.6627
#
#
#
# Elastic Compliance Matrix: (Units=1/GPa)
#
#
# Indices 1 2 3 4 5 6 
#
# 1 0.009241 -0.002052 -0.003175 0.000000 0.000000 0.000000
# 2 -0.002052 0.009272 0.000228 0.000000 0.000000 0.000000
# 3 -0.003175 0.000228 0.013805 0.000000 0.000000 0.000000
# 4 0.000000 0.000000 0.000000 0.006205 0.000000 0.000000
# 5 0.000000 0.000000 0.000000 0.000000 0.013945 0.000000
# 6 0.000000 0.000000 0.000000 0.000000 0.000000 0.044125
#
#
# Mechanical properties :
#
#
# Convention : Reuss Voigt Hill
#
# Bulk Modulus (GPa) = 44.80547 48.24994 46.52771
# Shear Modulus (GPa) = 43.84717 68.25451 56.05084
#
# Velocity S-wave (km/s) = 4.41018 5.50239 4.98628
# Velocity P-wave (km/s) = 6.76813 7.85945 7.33412
#
# Compressibility (1/GPa) = 0.02231870
#
# Stress axis : x y z
#
# Youngs Moduli (GPa) = 108.21516 107.85326 72.43537
#
# Poissons Ratio (x) = 0.22129 0.23002
# Poissons Ratio (y) = 0.22203 -0.01648
# Poissons Ratio (z) = 0.34364 -0.02454
#
# Static dielectric constant tensor:
#      x y z
#    x 4.202360 0.000000 0.000000 
#    y 0.000000 4.509520 0.000000 
#    z 0.000000 0.000000 4.079400 
# 
# 
# High freq. dielectric constant tensor:
#      x y z
#    x 1.910260 0.000000 0.000000 
#    y 0.000000 1.900940 0.000000 
#    z 0.000000 0.000000 1.873090 
# 
# From -- ./inp_files/23686.got.cif
#   From: 2010.06.25/outbox.cif.g09.slc.cpg/sg52_12_cif.got.tgz:23686.got - 2010.06.26 19:32:48.
