data_PCOD8216089
_publ_section_title
;
Structure prediction by ZEFSAII (Michael W. Deem and Ramdas Pophale) SiO2 
 PCOD8216089
Probable space group: P N N A
;
_chemical_formula_sum "Si O2"
_cell_formula_units_Z 64
_cell_length_a 9.362326
_cell_length_b 19.953665
_cell_length_c 16.595338
_cell_angle_alpha 90.000000
_cell_angle_beta 90.000000
_cell_angle_gamma 90.000000
_cell_volume 3100.220175
_symmetry_space_group_name_H-M "P N N A"
_symmetry_group_IT_number 52
_symmetry_cell_setting 'orthorhombic'
loop_
_space_group_symop_operation_xyz
x,y,z
1/2-x,-y,z
x,1/2-y,1/2-z
1/2-x,1/2+y,1/2-z
-x,-y,-z
1/2+x,y,-z
-x,1/2+y,1/2+z
1/2+x,1/2-y,1/2+z
loop_
_atom_site_type_symbol
_atom_site_label
_atom_site_fract_x
_atom_site_fract_y
_atom_site_fract_z
Si Si1 0.238460 0.574718 0.780435
Si Si2 0.761236 0.073590 0.529801
Si Si3 0.944842 0.874802 0.407837
Si Si4 0.700422 0.299864 0.317667
Si Si5 0.941375 0.882706 0.659160
Si Si6 0.442518 0.270257 0.400828
Si Si7 0.045788 0.747267 0.586332
Si Si8 0.662423 0.189248 0.806909
O O1 0.250000 0.500000 0.743384
O O2 0.384575 0.586449 0.830211
O O3 0.228444 0.630976 0.711160
O O4 0.094158 0.580747 0.833445
O O5 0.690709 0.128784 0.469602
O O6 0.671339 0.070991 0.612666
O O7 0.926977 0.087934 0.546045
O O8 0.750000 0.000000 0.489064
O O9 0.006896 0.804432 0.376704
O O10 0.637501 0.250000 0.250000
O O11 0.575180 0.318907 0.380510
O O12 0.812717 0.251423 0.360992
O O13 0.961831 0.816605 0.602522
O O14 0.864093 0.873279 0.746969
O O15 0.407348 0.268303 0.495110
O O16 0.318544 0.298783 0.343694
O O17 0.944664 0.686468 0.616891
O O18 0.614482 0.250000 0.750000
#
# Coordination Sequence:
#
# PCOD8216089 Si02
#       8
#     8   8   8   8   8   8   8   8
#     4  12  25  43  66  94 130 176 223 266 324 394
#     4  12  25  40  58  90 136 183 219 254 312 398
#     4  12  24  39  63  92 134 176 217 263 317 389
#     4  12  22  40  65  93 126 165 214 272 323 383
#     4  11  21  41  64  88 131 176 213 264 328 388
#     4  12  24  35  63  96 130 156 213 274 332 378
#     4  11  20  39  62  91 123 167 206 263 328 389
#     4  10  21  36  57  89 124 164 205 261 322 379
#
# _framework density 20.643695000000001
#
# number of rings (size 3 to 8) (size 9 to 14) (size 15 to 20)
#    0.000    0.500    5.000    5.250    3.500    0.000 
#    0.000    0.000    0.000    0.750    0.000    0.000 
#    0.000    0.000    0.000    0.000    0.000    0.000 
#
# Total GULP energy -793128.779433 kJ/mol
# GULP energy per Si atom -12392.637179 kJ/mol
# Density = 2.059671 g / cm^3
# Si number density = 20.643695 Si / 1000 Ang^3
#
#
#
# Elastic Constant Matrix: (Units=GPa)
#
#
# Indices 1 2 3 4 5 6 
#
# 1 107.4749 6.1640 26.7373 0.0000 0.0000 0.0000
# 2 6.1640 52.7736 25.0039 0.0000 0.0000 0.0000
# 3 26.7373 25.0039 72.2588 0.0000 0.0000 0.0000
# 4 0.0000 0.0000 0.0000 20.0336 0.0000 0.0000
# 5 0.0000 0.0000 0.0000 0.0000 40.4949 0.0000
# 6 0.0000 0.0000 0.0000 0.0000 0.0000 21.7950
#
#
#
# Elastic Compliance Matrix: (Units=1/GPa)
#
#
# Indices 1 2 3 4 5 6 
#
# 1 0.010271 0.000719 -0.004049 0.000000 0.000000 0.000000
# 2 0.000719 0.022715 -0.008126 0.000000 0.000000 0.000000
# 3 -0.004049 -0.008126 0.018149 0.000000 0.000000 0.000000
# 4 0.000000 0.000000 0.000000 0.049916 0.000000 0.000000
# 5 0.000000 0.000000 0.000000 0.000000 0.024694 0.000000
# 6 0.000000 0.000000 0.000000 0.000000 0.000000 0.045882
#
#
# Mechanical properties :
#
#
# Convention : Reuss Voigt Hill
#
# Bulk Modulus (GPa) = 35.43316 38.70199 37.06757
# Shear Modulus (GPa) = 24.51608 28.10484 26.31046
#
# Velocity S-wave (km/s) = 3.44987 3.69375 3.57389
# Velocity P-wave (km/s) = 5.75067 6.08112 5.91820
#
# Compressibility (1/GPa) = 0.02822215
#
# Stress axis : x y z
#
# Youngs Moduli (GPa) = 97.36538 44.02371 55.09857
#
# Poissons Ratio (x) = -0.03164 0.22310
# Poissons Ratio (y) = -0.06999 0.44774
# Poissons Ratio (z) = 0.39424 0.35774
#
# Static dielectric constant tensor:
#      x y z
#    x 3.933740 0.000000 0.000000 
#    y 0.000000 3.472890 0.000000 
#    z 0.000000 0.000000 3.905670 
# 
# 
# High freq. dielectric constant tensor:
#      x y z
#    x 1.831210 0.000000 0.000000 
#    y 0.000000 1.759350 0.000000 
#    z 0.000000 0.000000 1.803020 
# 
# From -- ./inp_files/25152.got.cif
#   From: 2010.06.25/outbox.cif.g09.slc.cpg/sg52_13_cif.got.tgz:25152.got - 2010.06.26 19:32:48.
