data_PCOD8216703
_publ_section_title
;
Structure prediction by ZEFSAII (Michael W. Deem and Ramdas Pophale) SiO2 
 PCOD8216703
Probable space group: P N N A
;
_chemical_formula_sum "Si O2"
_cell_formula_units_Z 24
_cell_length_a 7.416550
_cell_length_b 9.812353
_cell_length_c 14.632491
_cell_angle_alpha 90.000000
_cell_angle_beta 90.000000
_cell_angle_gamma 90.000000
_cell_volume 1064.862071
_symmetry_space_group_name_H-M "P N N A"
_symmetry_group_IT_number 52
_symmetry_cell_setting 'orthorhombic'
loop_
_space_group_symop_operation_xyz
x,y,z
1/2-x,-y,z
x,1/2-y,1/2-z
1/2-x,1/2+y,1/2-z
-x,-y,-z
1/2+x,y,-z
-x,1/2+y,1/2+z
1/2+x,1/2-y,1/2+z
loop_
_atom_site_type_symbol
_atom_site_label
_atom_site_fract_x
_atom_site_fract_y
_atom_site_fract_z
Si Si1 0.250000 0.000000 0.455905
Si Si2 0.454330 0.963260 0.102646
Si Si3 0.750000 0.500000 0.263177
Si Si4 0.425468 0.155296 0.610181
O O1 0.305821 0.129957 0.519090
O O2 0.087715 0.045581 0.390910
O O3 0.494376 0.804619 0.116722
O O4 0.250000 0.000000 0.127263
O O5 0.584393 0.046700 0.171349
O O6 0.500000 0.000000 0.000000
O O7 0.694408 0.627447 0.199732
#
# Coordination Sequence:
#
# PCOD8216703 Si02
#       4
#     4   8   4   8
#     4   9  20  40  77  96 140 192 229 304 356 439
#     4  12  25  46  73 107 146 193 243 303 378 432
#     4  11  26  46  67 106 148 192 247 300 354 437
#     4  10  22  45  67 109 141 185 249 287 369 436
#
# _framework density 22.538132000000001
#
# number of rings (size 3 to 8) (size 9 to 14) (size 15 to 20)
#    0.000    1.333    1.667    3.000    2.333    0.000 
#   18.000    0.000    0.000    0.000    0.000    0.000 
#    0.000    0.000    0.000    0.000    0.000    0.000 
#
# Total GULP energy -297628.990649 kJ/mol
# GULP energy per Si atom -12401.207944 kJ/mol
# Density = 2.248683 g / cm^3
# Si number density = 22.538132 Si / 1000 Ang^3
#
#
#
# Elastic Constant Matrix: (Units=GPa)
#
#
# Indices 1 2 3 4 5 6 
#
# 1 184.9909 57.2965 80.1786 0.0000 0.0000 0.0000
# 2 57.2965 124.7295 61.0787 0.0000 0.0000 0.0000
# 3 80.1786 61.0787 146.5259 0.0000 0.0000 0.0000
# 4 0.0000 0.0000 0.0000 18.0310 0.0000 0.0000
# 5 0.0000 0.0000 0.0000 0.0000 49.8478 0.0000
# 6 0.0000 0.0000 0.0000 0.0000 0.0000 44.7668
#
#
#
# Elastic Compliance Matrix: (Units=1/GPa)
#
#
# Indices 1 2 3 4 5 6 
#
# 1 0.007387 -0.001777 -0.003302 0.000000 0.000000 0.000000
# 2 -0.001777 0.010501 -0.003405 0.000000 0.000000 0.000000
# 3 -0.003302 -0.003405 0.010051 0.000000 0.000000 0.000000
# 4 0.000000 0.000000 0.000000 0.055460 0.000000 0.000000
# 5 0.000000 0.000000 0.000000 0.000000 0.020061 0.000000
# 6 0.000000 0.000000 0.000000 0.000000 0.000000 0.022338
#
#
# Mechanical properties :
#
#
# Convention : Reuss Voigt Hill
#
# Bulk Modulus (GPa) = 91.14043 94.81709 92.97876
# Shear Modulus (GPa) = 34.14805 39.70862 36.92833
#
# Velocity S-wave (km/s) = 3.89668 4.20198 4.05221
# Velocity P-wave (km/s) = 7.79562 8.10575 7.95219
#
# Compressibility (1/GPa) = 0.01097208
#
# Stress axis : x y z
#
# Youngs Moduli (GPa) = 135.37552 95.22996 99.49528
#
# Poissons Ratio (x) = 0.16918 0.32849
# Poissons Ratio (y) = 0.24050 0.33879
# Poissons Ratio (z) = 0.44695 0.32427
#
# Static dielectric constant tensor:
#      x y z
#    x 4.514520 0.000000 0.000000 
#    y 0.000000 3.782090 0.000000 
#    z 0.000000 0.000000 4.284620 
# 
# 
# High freq. dielectric constant tensor:
#      x y z
#    x 1.904910 0.000000 0.000000 
#    y 0.000000 1.869650 0.000000 
#    z 0.000000 0.000000 1.899190 
# 
# From -- ./inp_files/23936.got.cif
#   From: 2010.06.25/outbox.cif.g09.slc.cpg/sg52_12_cif.got.tgz:23936.got - 2010.06.26 19:32:48.
