data_PCOD8216719
_publ_section_title
;
Structure prediction by ZEFSAII (Michael W. Deem and Ramdas Pophale) SiO2 
 PCOD8216719
Probable space group: P N N A
;
_chemical_formula_sum "Si O2"
_cell_formula_units_Z 40
_cell_length_a 15.546686
_cell_length_b 7.391543
_cell_length_c 14.961141
_cell_angle_alpha 90.000000
_cell_angle_beta 90.000000
_cell_angle_gamma 90.000000
_cell_volume 1719.244528
_symmetry_space_group_name_H-M "P N N A"
_symmetry_group_IT_number 52
_symmetry_cell_setting 'orthorhombic'
loop_
_space_group_symop_operation_xyz
x,y,z
1/2-x,-y,z
x,1/2-y,1/2-z
1/2-x,1/2+y,1/2-z
-x,-y,-z
1/2+x,y,-z
-x,1/2+y,1/2+z
1/2+x,1/2-y,1/2+z
loop_
_atom_site_type_symbol
_atom_site_label
_atom_site_fract_x
_atom_site_fract_y
_atom_site_fract_z
Si Si1 0.823736 0.386746 0.676577
Si Si2 0.502392 0.527021 0.604709
Si Si3 0.563443 0.393433 0.065834
Si Si4 0.735881 0.290701 0.994398
Si Si5 0.860472 0.257669 0.150760
O O1 0.750000 0.500000 0.727830
O O2 0.860152 0.250000 0.750000
O O3 0.772728 0.306834 0.591771
O O4 0.902723 0.510800 0.643821
O O5 0.500000 0.500000 0.500000
O O6 0.485740 0.741601 0.624013
O O7 0.436717 0.389111 0.650172
O O8 0.633400 0.273888 0.009837
O O9 0.605781 0.539350 0.131675
O O10 0.500000 0.500000 0.000000
O O11 0.750000 0.500000 0.982002
O O12 0.786334 0.208607 0.080075
O O13 0.820192 0.250000 0.250000
#
# Coordination Sequence:
#
# PCOD8216719 Si02
#       5
#     8   8   8   8   8
#     4  12  27  44  70 104 140 183 236 295 364 435
#     4  12  23  46  72 101 138 187 241 293 356 428
#     4  11  23  43  74 103 138 190 235 291 355 423
#     4  10  22  47  69  99 145 184 231 295 356 421
#     4  11  26  45  69 104 143 187 238 292 357 426
#
# _framework density 23.266034000000001
#
# number of rings (size 3 to 8) (size 9 to 14) (size 15 to 20)
#    0.000    0.800    4.000    3.000    2.800    0.800 
#   10.800    0.000    0.000    0.000    0.000    0.000 
#    0.000    0.000    0.000    0.000    0.000    0.000 
#
# Total GULP energy -495868.166812 kJ/mol
# GULP energy per Si atom -12396.704170 kJ/mol
# Density = 2.321308 g / cm^3
# Si number density = 23.266034 Si / 1000 Ang^3
#
#
#
# Elastic Constant Matrix: (Units=GPa)
#
#
# Indices 1 2 3 4 5 6 
#
# 1 149.6001 27.7322 27.6769 0.0000 0.0000 0.0000
# 2 27.7322 93.2647 11.3886 0.0000 0.0000 0.0000
# 3 27.6769 11.3886 112.0892 0.0000 0.0000 0.0000
# 4 0.0000 0.0000 0.0000 33.4835 0.0000 0.0000
# 5 0.0000 0.0000 0.0000 0.0000 -38.7833 0.0000
# 6 0.0000 0.0000 0.0000 0.0000 0.0000 44.4994
#
#
#
# Elastic Compliance Matrix: (Units=1/GPa)
#
#
# Indices 1 2 3 4 5 6 
#
# 1 0.007352 -0.001989 -0.001613 0.000000 0.000000 0.000000
# 2 -0.001989 0.011395 -0.000667 0.000000 0.000000 0.000000
# 3 -0.001613 -0.000667 0.009388 0.000000 0.000000 0.000000
# 4 0.000000 0.000000 0.000000 0.029865 0.000000 0.000000
# 5 0.000000 0.000000 0.000000 0.000000 -0.025784 0.000000
# 6 0.000000 0.000000 0.000000 0.000000 0.000000 0.022472
#
#
# Mechanical properties :
#
#
# Convention : Reuss Voigt Hill
#
# Bulk Modulus (GPa) = 51.02947 54.28325 52.65636
# Shear Modulus (GPa) = 71.67702 27.05035 49.36369
#
# Velocity S-wave (km/s) = 5.55648 3.41347 4.61120
# Velocity P-wave (km/s) = 7.94648 6.23842 7.14369
#
# Compressibility (1/GPa) = 0.01959652
#
# Stress axis : x y z
#
# Youngs Moduli (GPa) = 136.02389 87.75773 106.52445
#
# Poissons Ratio (x) = 0.17455 0.17184
# Poissons Ratio (y) = 0.27055 0.07101
# Poissons Ratio (z) = 0.21943 0.05850
#
# Static dielectric constant tensor:
#      x y z
#    x 5.477740 0.000000 0.000000 
#    y 0.000000 1.618170 0.000000 
#    z 0.000000 0.000000 4.255890 
# 
# 
# High freq. dielectric constant tensor:
#      x y z
#    x 1.934330 0.000000 0.000000 
#    y 0.000000 1.931450 0.000000 
#    z 0.000000 0.000000 1.906640 
# 
# From -- ./inp_files/26895.got.cif
#   From: 2010.06.25/outbox.cif.g09.slc.cpg/sg52_14_cif.got.tgz:26895.got - 2010.06.26 19:32:48.
