data_PCOD8216530
_publ_section_title
;
Structure prediction by ZEFSAII (Michael W. Deem and Ramdas Pophale) SiO2 
 PCOD8216530
Probable space group: P N N A
;
_chemical_formula_sum "Si O2"
_cell_formula_units_Z 40
_cell_length_a 15.550821
_cell_length_b 22.842625
_cell_length_c 4.844352
_cell_angle_alpha 90.000000
_cell_angle_beta 90.000000
_cell_angle_gamma 90.000000
_cell_volume 1720.818335
_symmetry_space_group_name_H-M "P N N A"
_symmetry_group_IT_number 52
_symmetry_cell_setting 'orthorhombic'
loop_
_space_group_symop_operation_xyz
x,y,z
1/2-x,-y,z
x,1/2-y,1/2-z
1/2-x,1/2+y,1/2-z
-x,-y,-z
1/2+x,y,-z
-x,1/2+y,1/2+z
1/2+x,1/2-y,1/2+z
loop_
_atom_site_type_symbol
_atom_site_label
_atom_site_fract_x
_atom_site_fract_y
_atom_site_fract_z
Si Si1 0.025587 0.905928 0.532170
Si Si2 0.756802 0.355572 0.568489
Si Si3 0.841470 0.307139 0.068225
Si Si4 0.835858 0.026239 0.748376
Si Si5 0.910614 0.581812 0.475097
O O1 0.070931 0.842558 0.510065
O O2 0.088088 0.961181 0.469157
O O3 0.997081 0.914392 0.846191
O O4 0.940255 0.907908 0.339456
O O5 0.773072 0.342076 0.249768
O O6 0.814878 0.412064 0.617034
O O7 0.655014 0.368032 0.584338
O O8 0.790382 0.302891 0.772368
O O9 0.865104 0.250000 0.250000
O O10 0.750000 0.000000 0.599516
O O11 0.866337 0.981486 0.986796
#
# Coordination Sequence:
#
# PCOD8216530 Si02
#       5
#     8   8   8   8   8
#     4  11  22  38  60  92 125 159 202 249 308 366
#     4  10  22  40  62  90 119 160 209 249 298 370
#     4  11  23  43  65  85 116 163 212 256 302 360
#     4   9  20  37  60  90 128 167 201 239 297 375
#     4  11  22  38  61  93 129 157 193 253 312 367
#
# _framework density 23.244755000000001
#
# number of rings (size 3 to 8) (size 9 to 14) (size 15 to 20)
#    0.000    1.600    0.000    5.400    0.000    3.200 
#    0.000   20.000    0.000    0.000    0.000    0.000 
#    0.000    0.000    0.000    0.000    0.000    0.000 
#
# Total GULP energy -495724.166697 kJ/mol
# GULP energy per Si atom -12393.104167 kJ/mol
# Density = 2.319185 g / cm^3
# Si number density = 23.244755 Si / 1000 Ang^3
#
#
#
# Elastic Constant Matrix: (Units=GPa)
#
#
# Indices 1 2 3 4 5 6 
#
# 1 110.4513 36.0882 21.9242 0.0000 0.0000 0.0000
# 2 36.0882 91.7280 0.2296 0.0000 0.0000 0.0000
# 3 21.9242 0.2296 71.6434 0.0000 0.0000 0.0000
# 4 0.0000 0.0000 0.0000 26.9365 0.0000 0.0000
# 5 0.0000 0.0000 0.0000 0.0000 33.1141 0.0000
# 6 0.0000 0.0000 0.0000 0.0000 0.0000 19.0400
#
#
#
# Elastic Compliance Matrix: (Units=1/GPa)
#
#
# Indices 1 2 3 4 5 6 
#
# 1 0.011161 -0.004382 -0.003401 0.000000 0.000000 0.000000
# 2 -0.004382 0.012623 0.001301 0.000000 0.000000 0.000000
# 3 -0.003401 0.001301 0.014995 0.000000 0.000000 0.000000
# 4 0.000000 0.000000 0.000000 0.037124 0.000000 0.000000
# 5 0.000000 0.000000 0.000000 0.000000 0.030199 0.000000
# 6 0.000000 0.000000 0.000000 0.000000 0.000000 0.052521
#
#
# Mechanical properties :
#
#
# Convention : Reuss Voigt Hill
#
# Bulk Modulus (GPa) = 38.74175 43.36741 41.05458
# Shear Modulus (GPa) = 27.74812 30.19018 28.96915
#
# Velocity S-wave (km/s) = 3.45880 3.60779 3.53408
# Velocity P-wave (km/s) = 5.71438 6.00435 5.86116
#
# Compressibility (1/GPa) = 0.02581195
#
# Stress axis : x y z
#
# Youngs Moduli (GPa) = 89.59919 79.22233 66.69007
#
# Poissons Ratio (x) = 0.34719 0.22684
# Poissons Ratio (y) = 0.39266 -0.08674
# Poissons Ratio (z) = 0.30476 -0.10304
#
# Static dielectric constant tensor:
#      x y z
#    x 4.263400 0.000000 0.000000 
#    y 0.000000 4.084130 0.000000 
#    z 0.000000 0.000000 4.144250 
# 
# 
# High freq. dielectric constant tensor:
#      x y z
#    x 1.922870 0.000000 0.000000 
#    y 0.000000 1.903940 0.000000 
#    z 0.000000 0.000000 1.922350 
# 
# From -- ./inp_files/2267.got.cif
#   From: 2010.06.25/outbox.cif.g09.slc.cpg/sg52_2_cif.got.tgz:2267.got - 2010.06.26 19:32:48.
