data_PCOD8216132
_publ_section_title
;
Structure prediction by ZEFSAII (Michael W. Deem and Ramdas Pophale) SiO2 
 PCOD8216132
Probable space group: P N N A
;
_chemical_formula_sum "Si O2"
_cell_formula_units_Z 44
_cell_length_a 16.663891
_cell_length_b 23.002202
_cell_length_c 5.018884
_cell_angle_alpha 90.000000
_cell_angle_beta 90.000000
_cell_angle_gamma 90.000000
_cell_volume 1923.769288
_symmetry_space_group_name_H-M "P N N A"
_symmetry_group_IT_number 52
_symmetry_cell_setting 'orthorhombic'
loop_
_space_group_symop_operation_xyz
x,y,z
1/2-x,-y,z
x,1/2-y,1/2-z
1/2-x,1/2+y,1/2-z
-x,-y,-z
1/2+x,y,-z
-x,1/2+y,1/2+z
1/2+x,1/2-y,1/2+z
loop_
_atom_site_type_symbol
_atom_site_label
_atom_site_fract_x
_atom_site_fract_y
_atom_site_fract_z
Si Si1 0.844707 0.315880 0.213788
Si Si2 0.750000 0.500000 0.596192
Si Si3 0.601693 0.564124 0.386419
Si Si4 0.124254 0.413877 0.260893
Si Si5 0.967787 0.948972 0.275196
Si Si6 0.760215 0.686310 0.713628
O O1 0.882417 0.250000 0.250000
O O2 0.905142 0.369794 0.273738
O O3 0.770241 0.323045 0.414123
O O4 0.814311 0.324813 0.913161
O O5 0.694182 0.542983 0.415753
O O6 0.805934 0.538459 0.788877
O O7 0.551344 0.518798 0.197272
O O8 0.559422 0.561229 0.679512
O O9 0.091899 0.422175 0.557090
O O10 0.162663 0.351471 0.225239
O O11 0.051706 0.417903 0.052300
O O12 0.794814 0.750000 0.750000
#
# Coordination Sequence:
#
# PCOD8216132 Si02
#       6
#     8   4   8   8   8   8
#     4  10  21  37  62  89 118 159 206 267 309 357
#     4  10  22  34  68  88 124 160 218 260 306 374
#     4  10  22  42  59  94 129 168 210 263 313 390
#     4  11  22  40  59  94 117 167 206 255 316 385
#     4  10  25  38  60  87 136 166 197 256 334 369
#     4  10  21  37  60  90 121 153 207 267 310 359
#
# _framework density 22.871763000000001
#
# number of rings (size 3 to 8) (size 9 to 14) (size 15 to 20)
#    0.000    1.818    1.818    1.091    5.091    8.727 
#    0.000    0.909    0.000    0.000    0.000    0.000 
#    0.000    0.000    0.000    0.000    0.000    0.000 
#
# Total GULP energy -545468.643669 kJ/mol
# GULP energy per Si atom -12397.014629 kJ/mol
# Density = 2.281971 g / cm^3
# Si number density = 22.871763 Si / 1000 Ang^3
#
#
#
# Elastic Constant Matrix: (Units=GPa)
#
#
# Indices 1 2 3 4 5 6 
#
# 1 84.8573 47.5750 1.2165 0.0000 0.0000 0.0000
# 2 47.5750 183.5737 29.2506 0.0000 0.0000 0.0000
# 3 1.2165 29.2506 58.7459 0.0000 0.0000 0.0000
# 4 0.0000 0.0000 0.0000 25.9387 0.0000 0.0000
# 5 0.0000 0.0000 0.0000 0.0000 26.3116 0.0000
# 6 0.0000 0.0000 0.0000 0.0000 0.0000 37.7209
#
#
#
# Elastic Compliance Matrix: (Units=1/GPa)
#
#
# Indices 1 2 3 4 5 6 
#
# 1 0.013932 -0.003872 0.001639 0.000000 0.000000 0.000000
# 2 -0.003872 0.006993 -0.003402 0.000000 0.000000 0.000000
# 3 0.001639 -0.003402 0.018682 0.000000 0.000000 0.000000
# 4 0.000000 0.000000 0.000000 0.038552 0.000000 0.000000
# 5 0.000000 0.000000 0.000000 0.000000 0.038006 0.000000
# 6 0.000000 0.000000 0.000000 0.000000 0.000000 0.026511
#
#
# Mechanical properties :
#
#
# Convention : Reuss Voigt Hill
#
# Bulk Modulus (GPa) = 35.28762 53.69568 44.49165
# Shear Modulus (GPa) = 30.60161 34.60322 32.60241
#
# Velocity S-wave (km/s) = 3.66179 3.89385 3.77960
# Velocity P-wave (km/s) = 5.77410 6.61392 6.20823
#
# Compressibility (1/GPa) = 0.02833855
#
# Stress axis : x y z
#
# Youngs Moduli (GPa) = 71.77887 143.00365 53.52671
#
# Poissons Ratio (x) = 0.55367 -0.08775
# Poissons Ratio (y) = 0.27791 0.18208
# Poissons Ratio (z) = -0.11767 0.48645
#
# Static dielectric constant tensor:
#      x y z
#    x 3.982470 0.000000 0.000000 
#    y 0.000000 4.497730 0.000000 
#    z 0.000000 0.000000 4.053160 
# 
# 
# High freq. dielectric constant tensor:
#      x y z
#    x 1.886590 0.000000 0.000000 
#    y 0.000000 1.907640 0.000000 
#    z 0.000000 0.000000 1.906600 
# 
# From -- ./inp_files/3394.got.cif
#   From: 2010.06.25/outbox.cif.g09.slc.cpg/sg52_2_cif.got.tgz:3394.got - 2010.06.26 19:32:48.
