data_PCOD8216574
_publ_section_title
;
Structure prediction by ZEFSAII (Michael W. Deem and Ramdas Pophale) SiO2 
 PCOD8216574
Probable space group: P N N A
;
_chemical_formula_sum "Si O2"
_cell_formula_units_Z 40
_cell_length_a 24.687042
_cell_length_b 15.255317
_cell_length_c 5.105995
_cell_angle_alpha 90.000000
_cell_angle_beta 90.000000
_cell_angle_gamma 90.000000
_cell_volume 1922.961892
_symmetry_space_group_name_H-M "P N N A"
_symmetry_group_IT_number 52
_symmetry_cell_setting 'orthorhombic'
loop_
_space_group_symop_operation_xyz
x,y,z
1/2-x,-y,z
x,1/2-y,1/2-z
1/2-x,1/2+y,1/2-z
-x,-y,-z
1/2+x,y,-z
-x,1/2+y,1/2+z
1/2+x,1/2-y,1/2+z
loop_
_atom_site_type_symbol
_atom_site_label
_atom_site_fract_x
_atom_site_fract_y
_atom_site_fract_z
Si Si1 0.621482 0.465988 0.959541
Si Si2 0.213016 0.921187 0.266070
Si Si3 0.195223 0.307386 0.004578
Si Si4 0.372409 0.188969 0.001703
Si Si5 0.062275 0.980053 0.959771
O O1 0.668614 0.539298 0.964881
O O2 0.645853 0.373186 0.042349
O O3 0.596158 0.462970 0.669197
O O4 0.575937 0.490073 0.167306
O O5 0.248662 0.856007 0.437644
O O6 0.183062 0.867887 0.033880
O O7 0.250000 0.000000 0.143404
O O8 0.177767 0.250000 0.250000
O O9 0.204728 0.250000 0.750000
O O10 0.382336 0.250000 0.250000
O O11 0.367339 0.250000 0.750000
O O12 0.423776 0.123263 0.985405
O O13 0.000000 0.000000 0.000000
#
# Coordination Sequence:
#
# PCOD8216574 Si02
#       5
#     8   8   8   8   8
#     4  10  22  41  62  87 120 159 201 246 299 365
#     4   9  21  39  61  88 125 167 202 238 298 372
#     4  11  23  38  58  90 124 160 199 242 294 356
#     4  11  23  41  63  93 125 157 204 265 307 350
#     4  11  23  43  67  88 117 161 206 251 310 371
#
# _framework density 20.801241999999998
#
# number of rings (size 3 to 8) (size 9 to 14) (size 15 to 20)
#    0.000    1.600    0.000    4.800    0.000    8.000 
#    0.000   22.000    0.000    0.000    0.000    0.000 
#    0.000    0.000    0.000    0.000    0.000    0.000 
#
# Total GULP energy -496091.241571 kJ/mol
# GULP energy per Si atom -12402.281039 kJ/mol
# Density = 2.075390 g / cm^3
# Si number density = 20.801242 Si / 1000 Ang^3
#
#
#
# Elastic Constant Matrix: (Units=GPa)
#
#
# Indices 1 2 3 4 5 6 
#
# 1 130.6294 75.0410 40.6710 0.0000 0.0000 0.0000
# 2 75.0410 148.7088 65.9915 0.0000 0.0000 0.0000
# 3 40.6710 65.9915 130.1457 0.0000 0.0000 0.0000
# 4 0.0000 0.0000 0.0000 34.7623 0.0000 0.0000
# 5 0.0000 0.0000 0.0000 0.0000 30.8411 0.0000
# 6 0.0000 0.0000 0.0000 0.0000 0.0000 35.5514
#
#
#
# Elastic Compliance Matrix: (Units=1/GPa)
#
#
# Indices 1 2 3 4 5 6 
#
# 1 0.010843 -0.005120 -0.000792 0.000000 0.000000 0.000000
# 2 -0.005120 0.011095 -0.004026 0.000000 0.000000 0.000000
# 3 -0.000792 -0.004026 0.009973 0.000000 0.000000 0.000000
# 4 0.000000 0.000000 0.000000 0.028767 0.000000 0.000000
# 5 0.000000 0.000000 0.000000 0.000000 0.032424 0.000000
# 6 0.000000 0.000000 0.000000 0.000000 0.000000 0.028128
#
#
# Mechanical properties :
#
#
# Convention : Reuss Voigt Hill
#
# Bulk Modulus (GPa) = 83.09561 85.87675 84.48618
# Shear Modulus (GPa) = 34.45493 35.41632 34.93563
#
# Velocity S-wave (km/s) = 4.07429 4.13074 4.10261
# Velocity P-wave (km/s) = 7.88462 8.00779 7.94645
#
# Compressibility (1/GPa) = 0.01203433
#
# Stress axis : x y z
#
# Youngs Moduli (GPa) = 92.22380 90.13389 100.27552
#
# Poissons Ratio (x) = 0.46149 0.07946
# Poissons Ratio (y) = 0.47219 0.40367
# Poissons Ratio (z) = 0.07308 0.36284
#
# Static dielectric constant tensor:
#      x y z
#    x 3.699680 0.000000 0.000000 
#    y 0.000000 4.131370 0.000000 
#    z 0.000000 0.000000 3.419740 
# 
# 
# High freq. dielectric constant tensor:
#      x y z
#    x 1.801180 0.000000 0.000000 
#    y 0.000000 1.827310 0.000000 
#    z 0.000000 0.000000 1.820350 
# 
# From -- ./inp_files/5013.got.cif
#   From: 2010.06.25/outbox.cif.g09.slc.cpg/sg52_3_cif.got.tgz:5013.got - 2010.06.26 19:32:48.
