data_PCOD8216867
_publ_section_title
;
Structure prediction by ZEFSAII (Michael W. Deem and Ramdas Pophale) SiO2 
 PCOD8216867
Probable space group: P N N A
;
_chemical_formula_sum "Si O2"
_cell_formula_units_Z 60
_cell_length_a 20.369246
_cell_length_b 11.622604
_cell_length_c 12.213544
_cell_angle_alpha 90.000000
_cell_angle_beta 90.000000
_cell_angle_gamma 90.000000
_cell_volume 2891.479353
_symmetry_space_group_name_H-M "P N N A"
_symmetry_group_IT_number 52
_symmetry_cell_setting 'orthorhombic'
loop_
_space_group_symop_operation_xyz
x,y,z
1/2-x,-y,z
x,1/2-y,1/2-z
1/2-x,1/2+y,1/2-z
-x,-y,-z
1/2+x,y,-z
-x,1/2+y,1/2+z
1/2+x,1/2-y,1/2+z
loop_
_atom_site_type_symbol
_atom_site_label
_atom_site_fract_x
_atom_site_fract_y
_atom_site_fract_z
Si Si1 0.901269 0.723212 0.131570
Si Si2 0.321298 0.509328 0.906896
Si Si3 0.661455 0.568759 0.854396
Si Si4 0.684036 0.442242 0.640207
Si Si5 0.755400 0.750000 0.750000
Si Si6 0.511951 0.954973 0.621960
Si Si7 0.425893 0.971777 0.965559
Si Si8 0.924342 0.388437 0.249155
O O1 0.871644 0.750000 0.250000
O O2 0.847317 0.639948 0.076960
O O3 0.915972 0.839064 0.066031
O O4 0.969005 0.656408 0.146389
O O5 0.250000 0.500000 0.849218
O O6 0.369805 0.430690 0.835971
O O7 0.312295 0.460959 0.027035
O O8 0.672177 0.467758 0.767988
O O9 0.704252 0.673488 0.815341
O O10 0.584177 0.592972 0.860692
O O11 0.750000 0.500000 0.592014
O O12 0.699241 0.306606 0.653931
O O13 0.623180 0.486026 0.567900
O O14 0.500000 0.000000 0.500000
O O15 0.493670 0.057852 0.707496
O O16 0.406721 0.060348 0.868879
O O17 0.500000 0.000000 0.000000
O O18 0.928461 0.250000 0.250000
#
# Coordination Sequence:
#
# PCOD8216867 Si02
#       8
#     8   8   8   8   4   8   8   8
#     4  11  24  45  69  99 142 177 232 285 351 427
#     4  11  24  44  71  99 132 185 235 286 347 416
#     4  11  23  43  67 101 136 175 236 281 343 422
#     4  10  25  44  65 100 139 181 228 285 348 410
#     4  10  24  42  68 102 138 184 232 284 350 418
#     4  11  22  43  69 100 133 176 226 281 350 413
#     4  12  27  46  69 104 144 182 232 289 358 420
#     4  11  26  46  66 104 138 175 233 287 349 424
#
# _framework density 20.750623000000001
#
# number of rings (size 3 to 8) (size 9 to 14) (size 15 to 20)
#    0.000    1.067    5.333    2.000    6.533    4.267 
#    2.400    0.000    0.000    0.000    0.000    0.000 
#    0.000    0.000    0.000    0.000    0.000    0.000 
#
# Total GULP energy -743522.339700 kJ/mol
# GULP energy per Si atom -12392.038995 kJ/mol
# Density = 2.070339 g / cm^3
# Si number density = 20.750623 Si / 1000 Ang^3
#
#
#
# Elastic Constant Matrix: (Units=GPa)
#
#
# Indices 1 2 3 4 5 6 
#
# 1 132.7867 32.1440 35.1015 0.0000 0.0000 0.0000
# 2 32.1440 136.0599 37.4149 0.0000 0.0000 0.0000
# 3 35.1015 37.4149 119.9669 0.0000 0.0000 0.0000
# 4 0.0000 0.0000 0.0000 29.5560 0.0000 0.0000
# 5 0.0000 0.0000 0.0000 0.0000 24.8628 0.0000
# 6 0.0000 0.0000 0.0000 0.0000 0.0000 5.3774
#
#
#
# Elastic Compliance Matrix: (Units=1/GPa)
#
#
# Indices 1 2 3 4 5 6 
#
# 1 0.008410 -0.001433 -0.002014 0.000000 0.000000 0.000000
# 2 -0.001433 0.008283 -0.002164 0.000000 0.000000 0.000000
# 3 -0.002014 -0.002164 0.009600 0.000000 0.000000 0.000000
# 4 0.000000 0.000000 0.000000 0.033834 0.000000 0.000000
# 5 0.000000 0.000000 0.000000 0.000000 0.040221 0.000000
# 6 0.000000 0.000000 0.000000 0.000000 0.000000 0.185963
#
#
# Mechanical properties :
#
#
# Convention : Reuss Voigt Hill
#
# Bulk Modulus (GPa) = 66.35118 66.45937 66.40527
# Shear Modulus (GPa) = 16.52582 30.90279 23.71430
#
# Velocity S-wave (km/s) = 2.82512 3.86326 3.38424
# Velocity P-wave (km/s) = 6.53350 7.21089 6.88054
#
# Compressibility (1/GPa) = 0.01507132
#
# Stress axis : x y z
#
# Youngs Moduli (GPa) = 118.90428 120.72386 104.16906
#
# Poissons Ratio (x) = 0.17301 0.20977
# Poissons Ratio (y) = 0.17040 0.22543
# Poissons Ratio (z) = 0.23945 0.26125
#
# Static dielectric constant tensor:
#      x y z
#    x 3.901550 0.000000 0.000000 
#    y 0.000000 3.873840 0.000000 
#    z 0.000000 0.000000 3.810740 
# 
# 
# High freq. dielectric constant tensor:
#      x y z
#    x 1.823560 0.000000 0.000000 
#    y 0.000000 1.814780 0.000000 
#    z 0.000000 0.000000 1.819020 
# 
# From -- ./inp_files/21770.got.cif
#   From: 2010.06.25/outbox.cif.g09.slc.cpg/sg52_11_cif.got.tgz:21770.got - 2010.06.26 19:32:48.
