data_PCOD8216619
_publ_section_title
;
Structure prediction by ZEFSAII (Michael W. Deem and Ramdas Pophale) SiO2 
 PCOD8216619
Probable space group: P N N A
;
_chemical_formula_sum "Si O2"
_cell_formula_units_Z 32
_cell_length_a 5.059273
_cell_length_b 8.924662
_cell_length_c 30.556778
_cell_angle_alpha 90.000000
_cell_angle_beta 90.000000
_cell_angle_gamma 90.000000
_cell_volume 1379.708853
_symmetry_space_group_name_H-M "P N N A"
_symmetry_group_IT_number 52
_symmetry_cell_setting 'orthorhombic'
loop_
_space_group_symop_operation_xyz
x,y,z
1/2-x,-y,z
x,1/2-y,1/2-z
1/2-x,1/2+y,1/2-z
-x,-y,-z
1/2+x,y,-z
-x,1/2+y,1/2+z
1/2+x,1/2-y,1/2+z
loop_
_atom_site_type_symbol
_atom_site_label
_atom_site_fract_x
_atom_site_fract_y
_atom_site_fract_z
Si Si1 0.424857 0.738588 0.529756
Si Si2 0.750000 0.000000 0.092136
Si Si3 0.869298 0.233549 0.349241
Si Si4 0.250000 0.500000 0.914415
Si Si5 0.845316 0.329939 0.794535
O O1 0.637988 0.731122 0.492126
O O2 0.453515 0.595758 0.562054
O O3 0.441283 0.894472 0.556460
O O4 0.603338 0.886771 0.124232
O O5 0.939102 0.102368 0.383906
O O6 0.585746 0.190401 0.328395
O O7 0.088238 0.254152 0.312361
O O8 0.750000 0.500000 0.786717
O O9 0.934430 0.250000 0.750000
#
# Coordination Sequence:
#
# PCOD8216619 Si02
#       5
#     8   4   8   4   8
#     4  11  24  41  65  95 132 170 221 269 327 385
#     4  10  26  42  69  96 136 178 216 270 329 384
#     4  11  25  44  68  97 136 172 223 265 324 393
#     4  10  22  42  65  96 126 178 214 274 321 384
#     4  12  26  45  70  99 133 171 217 271 326 389
#
# _framework density 23.193299
#
# number of rings (size 3 to 8) (size 9 to 14) (size 15 to 20)
#    0.000    1.000    2.500    2.250    3.500   12.000 
#    0.000    0.000    0.000    0.000    0.000    0.000 
#    0.000    0.000    0.000    0.000    0.000    0.000 
#
# Total GULP energy -396736.801226 kJ/mol
# GULP energy per Si atom -12398.025038 kJ/mol
# Density = 2.314051 g / cm^3
# Si number density = 23.193299 Si / 1000 Ang^3
#
#
#
# Elastic Constant Matrix: (Units=GPa)
#
#
# Indices 1 2 3 4 5 6 
#
# 1 92.7763 32.6221 32.2249 0.0000 0.0000 0.0000
# 2 32.6221 173.4392 77.6583 0.0000 0.0000 0.0000
# 3 32.2249 77.6583 128.6545 0.0000 0.0000 0.0000
# 4 0.0000 0.0000 0.0000 16.2068 0.0000 0.0000
# 5 0.0000 0.0000 0.0000 0.0000 -3.5314 0.0000
# 6 0.0000 0.0000 0.0000 0.0000 0.0000 16.6187
#
#
#
# Elastic Compliance Matrix: (Units=1/GPa)
#
#
# Indices 1 2 3 4 5 6 
#
# 1 0.012000 -0.001249 -0.002252 0.000000 0.000000 0.000000
# 2 -0.001249 0.008031 -0.004535 0.000000 0.000000 0.000000
# 3 -0.002252 -0.004535 0.011074 0.000000 0.000000 0.000000
# 4 0.000000 0.000000 0.000000 0.061703 0.000000 0.000000
# 5 0.000000 0.000000 0.000000 0.000000 -0.283172 0.000000
# 6 0.000000 0.000000 0.000000 0.000000 0.000000 0.060173
#
#
# Mechanical properties :
#
#
# Convention : Reuss Voigt Hill
#
# Bulk Modulus (GPa) = 66.51611 75.54231 71.02921
# Shear Modulus (GPa) = -45.82588 22.68313 -11.57138
#
# Velocity S-wave (km/s) = -4.44985 3.13070 -2.23605
# Velocity P-wave (km/s) = 1.52963 6.76090 4.90151
#
# Compressibility (1/GPa) = 0.01503395
#
# Stress axis : x y z
#
# Youngs Moduli (GPa) = 83.33420 124.51527 90.29993
#
# Poissons Ratio (x) = 0.15549 0.20335
# Poissons Ratio (y) = 0.10406 0.40951
# Poissons Ratio (z) = 0.18766 0.56467
#
# Static dielectric constant tensor:
#      x y z
#    x 3.670230 0.000000 0.000000 
#    y 0.000000 5.106120 0.000000 
#    z 0.000000 0.000000 4.395270 
# 
# 
# High freq. dielectric constant tensor:
#      x y z
#    x 1.887470 0.000000 0.000000 
#    y 0.000000 1.937280 0.000000 
#    z 0.000000 0.000000 1.939360 
# 
# From -- ./inp_files/43475.got.cif
#   From: 2010.06.25/outbox.cif.g09.slc.cpg/sg52_22_cif.got.tgz:43475.got - 2010.06.26 19:32:48.
