data_PCOD8216565
_publ_section_title
;
Structure prediction by ZEFSAII (Michael W. Deem and Ramdas Pophale) SiO2 
 PCOD8216565
Probable space group: P N N A
;
_chemical_formula_sum "Si O2"
_cell_formula_units_Z 48
_cell_length_a 25.757578
_cell_length_b 13.600454
_cell_length_c 6.182407
_cell_angle_alpha 90.000000
_cell_angle_beta 90.000000
_cell_angle_gamma 90.000000
_cell_volume 2165.788392
_symmetry_space_group_name_H-M "P N N A"
_symmetry_group_IT_number 52
_symmetry_cell_setting 'orthorhombic'
loop_
_space_group_symop_operation_xyz
x,y,z
1/2-x,-y,z
x,1/2-y,1/2-z
1/2-x,1/2+y,1/2-z
-x,-y,-z
1/2+x,y,-z
-x,1/2+y,1/2+z
1/2+x,1/2-y,1/2+z
loop_
_atom_site_type_symbol
_atom_site_label
_atom_site_fract_x
_atom_site_fract_y
_atom_site_fract_z
Si Si1 0.736994 0.750000 0.750000
Si Si2 0.794483 0.568740 0.568235
Si Si3 0.932327 0.116750 0.911104
Si Si4 0.385027 0.972823 0.773922
Si Si5 0.026905 0.750000 0.750000
Si Si6 0.480900 0.895808 0.575428
Si Si7 0.661611 0.588266 0.892829
O O1 0.773500 0.678001 0.611757
O O2 0.702760 0.678244 0.905177
O O3 0.750000 0.500000 0.461490
O O4 0.839681 0.585717 0.394034
O O5 0.814213 0.509714 0.781568
O O6 0.885877 0.131001 0.744936
O O7 0.987253 0.128854 0.791082
O O8 0.924521 0.016410 0.045988
O O9 0.932532 0.203319 0.084195
O O10 0.359185 0.059299 0.629494
O O11 0.419260 0.898651 0.628124
O O12 0.988529 0.823325 0.624897
O O13 0.500000 0.000000 0.500000
#
# Coordination Sequence:
#
# PCOD8216565 Si02
#       7
#     4   8   8   8   4   8   8
#     4  10  22  44  75  96 138 180 231 306 340 410
#     4   9  22  45  66 101 136 177 235 296 352 417
#     4  11  23  42  67 103 140 173 230 285 343 417
#     4  11  23  43  73  97 138 191 228 282 360 414
#     4  12  26  38  67 102 148 176 231 282 346 416
#     4  12  24  43  68  99 144 187 224 287 342 416
#     4  10  22  40  71 102 135 179 233 287 358 415
#
# _framework density 22.162828999999999
#
# number of rings (size 3 to 8) (size 9 to 14) (size 15 to 20)
#    0.000    1.333    3.333    1.000    4.667    2.000 
#    0.000   10.833    0.000    2.000    0.000    0.000 
#    0.000    0.000    0.000    0.000    0.000    0.000 
#
# Total GULP energy -595051.694724 kJ/mol
# GULP energy per Si atom -12396.910307 kJ/mol
# Density = 2.211239 g / cm^3
# Si number density = 22.162829 Si / 1000 Ang^3
#
#
#
# Elastic Constant Matrix: (Units=GPa)
#
#
# Indices 1 2 3 4 5 6 
#
# 1 138.1569 69.2726 57.0436 0.0000 0.0000 0.0000
# 2 69.2726 128.6127 56.9666 0.0000 0.0000 0.0000
# 3 57.0436 56.9666 110.4095 0.0000 0.0000 0.0000
# 4 0.0000 0.0000 0.0000 31.8167 0.0000 0.0000
# 5 0.0000 0.0000 0.0000 0.0000 32.4568 0.0000
# 6 0.0000 0.0000 0.0000 0.0000 0.0000 32.1583
#
#
#
# Elastic Compliance Matrix: (Units=1/GPa)
#
#
# Indices 1 2 3 4 5 6 
#
# 1 0.010789 -0.004332 -0.003339 0.000000 0.000000 0.000000
# 2 -0.004332 0.011818 -0.003859 0.000000 0.000000 0.000000
# 3 -0.003339 -0.003859 0.012774 0.000000 0.000000 0.000000
# 4 0.000000 0.000000 0.000000 0.031430 0.000000 0.000000
# 5 0.000000 0.000000 0.000000 0.000000 0.030810 0.000000
# 6 0.000000 0.000000 0.000000 0.000000 0.000000 0.031096
#
#
# Mechanical properties :
#
#
# Convention : Reuss Voigt Hill
#
# Bulk Modulus (GPa) = 81.17158 82.63829 81.90494
# Shear Modulus (GPa) = 32.07504 32.21279 32.14391
#
# Velocity S-wave (km/s) = 3.80839 3.81656 3.81248
# Velocity P-wave (km/s) = 7.48619 7.53587 7.51107
#
# Compressibility (1/GPa) = 0.01231958
#
# Stress axis : x y z
#
# Youngs Moduli (GPa) = 92.68769 84.61610 78.28666
#
# Poissons Ratio (x) = 0.36657 0.26139
# Poissons Ratio (y) = 0.40154 0.30214
# Poissons Ratio (z) = 0.30948 0.32657
#
# Static dielectric constant tensor:
#      x y z
#    x 4.767110 0.000000 0.000000 
#    y 0.000000 2.849120 0.000000 
#    z 0.000000 0.000000 3.860980 
# 
# 
# High freq. dielectric constant tensor:
#      x y z
#    x 1.879220 0.000000 0.000000 
#    y 0.000000 1.862050 0.000000 
#    z 0.000000 0.000000 1.871080 
# 
# From -- ./inp_files/5829.got.cif
#   From: 2010.06.25/outbox.cif.g09.slc.cpg/sg52_3_cif.got.tgz:5829.got - 2010.06.26 19:32:48.
