data_PCOD8216126
_publ_section_title
;
Structure prediction by ZEFSAII (Michael W. Deem and Ramdas Pophale) SiO2 
 PCOD8216126
Probable space group: P N N A
;
_chemical_formula_sum "Si O2"
_cell_formula_units_Z 44
_cell_length_a 9.127111
_cell_length_b 7.600115
_cell_length_c 30.832757
_cell_angle_alpha 90.000000
_cell_angle_beta 90.000000
_cell_angle_gamma 90.000000
_cell_volume 2138.778729
_symmetry_space_group_name_H-M "P N N A"
_symmetry_group_IT_number 52
_symmetry_cell_setting 'orthorhombic'
loop_
_space_group_symop_operation_xyz
x,y,z
1/2-x,-y,z
x,1/2-y,1/2-z
1/2-x,1/2+y,1/2-z
-x,-y,-z
1/2+x,y,-z
-x,1/2+y,1/2+z
1/2+x,1/2-y,1/2+z
loop_
_atom_site_type_symbol
_atom_site_label
_atom_site_fract_x
_atom_site_fract_y
_atom_site_fract_z
Si Si1 0.995441 0.562917 0.939048
Si Si2 0.093727 0.771290 0.116921
Si Si3 0.925197 0.836107 0.876154
Si Si4 0.592007 0.715074 0.202225
Si Si5 0.575238 0.195374 0.297812
Si Si6 0.250000 0.000000 0.498493
O O1 0.977246 0.366672 0.917596
O O2 0.029843 0.705093 0.902585
O O3 0.849403 0.619346 0.966171
O O4 0.133263 0.593721 0.970622
O O5 0.266575 0.741700 0.123223
O O6 0.025356 0.772061 0.164675
O O7 0.071400 0.972841 0.101118
O O8 0.991009 0.837685 0.827931
O O9 0.533246 0.750000 0.250000
O O10 0.573620 0.510814 0.192905
O O11 0.761158 0.773968 0.197443
O O12 0.515008 0.250000 0.250000
#
# Coordination Sequence:
#
# PCOD8216126 Si02
#       6
#     8   8   8   8   8   4
#     4  11  22  46  64  96 124 162 200 262 310 375
#     4  11  23  39  62  90 124 166 206 249 307 368
#     4  11  23  39  62  90 124 166 206 249 307 368
#     4  10  21  37  59  89 125 164 209 256 302 358
#     4  10  21  37  59  89 125 164 209 256 302 358
#     4  10  24  42  74  90 124 160 204 254 326 370
#
# _framework density 20.572489999999998
#
# number of rings (size 3 to 8) (size 9 to 14) (size 15 to 20)
#    0.000    1.455    3.636    1.091    2.545    2.909 
#    0.000    5.455    0.000    0.000    0.000    0.000 
#    0.000    0.000    0.000    0.000    0.000    0.000 
#
# Total GULP energy -545193.626084 kJ/mol
# GULP energy per Si atom -12390.764229 kJ/mol
# Density = 2.052567 g / cm^3
# Si number density = 20.572490 Si / 1000 Ang^3
#
#
#
# Elastic Constant Matrix: (Units=GPa)
#
#
# Indices 1 2 3 4 5 6 
#
# 1 78.4633 20.4339 44.9491 0.0000 0.0000 0.0000
# 2 20.4339 86.6173 34.2402 0.0000 0.0000 0.0000
# 3 44.9491 34.2402 121.6746 0.0000 0.0000 0.0000
# 4 0.0000 0.0000 0.0000 10.8181 0.0000 0.0000
# 5 0.0000 0.0000 0.0000 0.0000 40.7091 0.0000
# 6 0.0000 0.0000 0.0000 0.0000 0.0000 16.2770
#
#
#
# Elastic Compliance Matrix: (Units=1/GPa)
#
#
# Indices 1 2 3 4 5 6 
#
# 1 0.016374 -0.001656 -0.005583 0.000000 0.000000 0.000000
# 2 -0.001656 0.013158 -0.003091 0.000000 0.000000 0.000000
# 3 -0.005583 -0.003091 0.011151 0.000000 0.000000 0.000000
# 4 0.000000 0.000000 0.000000 0.092437 0.000000 0.000000
# 5 0.000000 0.000000 0.000000 0.000000 0.024565 0.000000
# 6 0.000000 0.000000 0.000000 0.000000 0.000000 0.061437
#
#
# Mechanical properties :
#
#
# Convention : Reuss Voigt Hill
#
# Bulk Modulus (GPa) = 49.94216 54.00019 51.97118
# Shear Modulus (GPa) = 20.28764 26.03630 23.16197
#
# Velocity S-wave (km/s) = 3.14372 3.56137 3.35904
# Velocity P-wave (km/s) = 6.12423 6.57395 6.35307
#
# Compressibility (1/GPa) = 0.02002316
#
# Stress axis : x y z
#
# Youngs Moduli (GPa) = 61.07093 76.00207 89.67841
#
# Poissons Ratio (x) = 0.12585 0.50068
# Poissons Ratio (y) = 0.10113 0.27719
# Poissons Ratio (z) = 0.34096 0.23492
#
# Static dielectric constant tensor:
#      x y z
#    x 3.804670 0.000000 0.000000 
#    y 0.000000 3.785710 0.000000 
#    z 0.000000 0.000000 3.940150 
# 
# 
# High freq. dielectric constant tensor:
#      x y z
#    x 1.802010 0.000000 0.000000 
#    y 0.000000 1.792130 0.000000 
#    z 0.000000 0.000000 1.814910 
# 
# From -- ./inp_files/44290.got.cif
#   From: 2010.06.25/outbox.cif.g09.slc.cpg/sg52_23_cif.got.tgz:44290.got - 2010.06.26 19:32:48.
