data_PCOD8216687
_publ_section_title
;
Structure prediction by ZEFSAII (Michael W. Deem and Ramdas Pophale) SiO2 
 PCOD8216687
Probable space group: P N N A
;
_chemical_formula_sum "Si O2"
_cell_formula_units_Z 32
_cell_length_a 12.402543
_cell_length_b 10.144791
_cell_length_c 11.763267
_cell_angle_alpha 90.000000
_cell_angle_beta 90.000000
_cell_angle_gamma 90.000000
_cell_volume 1480.068448
_symmetry_space_group_name_H-M "P N N A"
_symmetry_group_IT_number 52
_symmetry_cell_setting 'orthorhombic'
loop_
_space_group_symop_operation_xyz
x,y,z
1/2-x,-y,z
x,1/2-y,1/2-z
1/2-x,1/2+y,1/2-z
-x,-y,-z
1/2+x,y,-z
-x,1/2+y,1/2+z
1/2+x,1/2-y,1/2+z
loop_
_atom_site_type_symbol
_atom_site_label
_atom_site_fract_x
_atom_site_fract_y
_atom_site_fract_z
Si Si1 0.872205 0.539626 0.764368
Si Si2 0.250000 0.500000 0.807198
Si Si3 0.948319 0.843581 0.350968
Si Si4 0.143903 0.750000 0.750000
Si Si5 0.045063 0.236499 0.093209
O O1 0.750000 0.500000 0.741111
O O2 0.871185 0.656138 0.857356
O O3 0.921745 0.592568 0.643554
O O4 0.942326 0.418244 0.813898
O O5 0.147792 0.447499 0.881001
O O6 0.213987 0.619989 0.726700
O O7 0.909932 0.750000 0.250000
O O8 0.963341 0.745900 0.457903
O O9 0.073059 0.724608 0.861682
#
# Coordination Sequence:
#
# PCOD8216687 Si02
#       5
#     8   4   8   4   8
#     4  10  23  45  68  99 135 175 232 281 342 410
#     4  12  22  44  66 104 132 182 228 284 344 420
#     4  12  26  42  67 101 137 180 228 278 352 414
#     4  10  22  44  68  96 138 172 240 278 348 410
#     4  10  23  45  67  96 132 183 224 287 339 409
#
# _framework density 21.620621
#
# number of rings (size 3 to 8) (size 9 to 14) (size 15 to 20)
#    0.000    1.500    6.250    0.750    5.250    1.000 
#    2.250    0.000    0.000    0.000    0.000    0.000 
#    0.000    0.000    0.000    0.000    0.000    0.000 
#
# Total GULP energy -396523.031148 kJ/mol
# GULP energy per Si atom -12391.344723 kJ/mol
# Density = 2.157141 g / cm^3
# Si number density = 21.620621 Si / 1000 Ang^3
#
#
#
# Elastic Constant Matrix: (Units=GPa)
#
#
# Indices 1 2 3 4 5 6 
#
# 1 136.1531 50.9287 36.2955 0.0000 0.0000 0.0000
# 2 50.9287 101.9729 52.0942 0.0000 0.0000 0.0000
# 3 36.2955 52.0942 161.2024 0.0000 0.0000 0.0000
# 4 0.0000 0.0000 0.0000 34.9817 0.0000 0.0000
# 5 0.0000 0.0000 0.0000 0.0000 3.1010 0.0000
# 6 0.0000 0.0000 0.0000 0.0000 0.0000 43.9291
#
#
#
# Elastic Compliance Matrix: (Units=1/GPa)
#
#
# Indices 1 2 3 4 5 6 
#
# 1 0.009096 -0.004188 -0.000695 0.000000 0.000000 0.000000
# 2 -0.004188 0.013674 -0.003476 0.000000 0.000000 0.000000
# 3 -0.000695 -0.003476 0.007483 0.000000 0.000000 0.000000
# 4 0.000000 0.000000 0.000000 0.028586 0.000000 0.000000
# 5 0.000000 0.000000 0.000000 0.000000 0.322480 0.000000
# 6 0.000000 0.000000 0.000000 0.000000 0.000000 0.022764
#
#
# Mechanical properties :
#
#
# Convention : Reuss Voigt Hill
#
# Bulk Modulus (GPa) = 73.87709 75.32944 74.60327
# Shear Modulus (GPa) = 11.75604 33.73635 22.74619
#
# Velocity S-wave (km/s) = 2.33436 3.95445 3.24707
# Velocity P-wave (km/s) = 6.44279 7.46775 6.97413
#
# Compressibility (1/GPa) = 0.01353600
#
# Stress axis : x y z
#
# Youngs Moduli (GPa) = 109.93272 73.13165 133.63529
#
# Poissons Ratio (x) = 0.30629 0.09283
# Poissons Ratio (y) = 0.46042 0.46450
# Poissons Ratio (z) = 0.07636 0.25420
#
# Static dielectric constant tensor:
#      x y z
#    x 3.927210 0.000000 0.000000 
#    y 0.000000 4.104600 0.000000 
#    z 0.000000 0.000000 3.545760 
# 
# 
# High freq. dielectric constant tensor:
#      x y z
#    x 1.858080 0.000000 0.000000 
#    y 0.000000 1.858720 0.000000 
#    z 0.000000 0.000000 1.813130 
# 
# From -- ./inp_files/17680.got.cif
#   From: 2010.06.25/outbox.cif.g09.slc.cpg/sg52_9_cif.got.tgz:17680.got - 2010.06.26 19:32:48.
