data_PCOD8216704
_publ_section_title
;
Structure prediction by ZEFSAII (Michael W. Deem and Ramdas Pophale) SiO2 
 PCOD8216704
Probable space group: P N N A
;
_chemical_formula_sum "Si O2"
_cell_formula_units_Z 48
_cell_length_a 12.735769
_cell_length_b 25.803659
_cell_length_c 6.524007
_cell_angle_alpha 90.000000
_cell_angle_beta 90.000000
_cell_angle_gamma 90.000000
_cell_volume 2143.980769
_symmetry_space_group_name_H-M "P N N A"
_symmetry_group_IT_number 52
_symmetry_cell_setting 'orthorhombic'
loop_
_space_group_symop_operation_xyz
x,y,z
1/2-x,-y,z
x,1/2-y,1/2-z
1/2-x,1/2+y,1/2-z
-x,-y,-z
1/2+x,y,-z
-x,1/2+y,1/2+z
1/2+x,1/2-y,1/2+z
loop_
_atom_site_type_symbol
_atom_site_label
_atom_site_fract_x
_atom_site_fract_y
_atom_site_fract_z
Si Si1 0.750000 0.500000 0.898808
Si Si2 0.873858 0.834157 0.724629
Si Si3 0.385068 0.091589 0.246274
Si Si4 0.111049 0.424129 0.895802
Si Si5 0.816191 0.188555 0.485930
Si Si6 0.958173 0.250000 0.250000
Si Si7 0.261264 0.131205 0.899685
O O1 0.704799 0.548046 0.770642
O O2 0.852317 0.519869 0.023086
O O3 0.902865 0.882362 0.577967
O O4 0.791162 0.797028 0.602784
O O5 0.824494 0.852929 0.934541
O O6 0.974562 0.801478 0.788328
O O7 0.502208 0.069738 0.272412
O O8 0.367800 0.138511 0.406010
O O9 0.366741 0.110386 0.012462
O O10 0.206738 0.410605 0.745887
O O11 0.893021 0.238352 0.463128
O O12 0.795460 0.178569 0.243827
#
# Coordination Sequence:
#
# PCOD8216704 Si02
#       7
#     4   8   8   8   8   4   8
#     4  12  22  46  66  98 142 174 218 286 348 396
#     4  10  23  45  64  97 138 170 221 284 332 399
#     4  11  23  44  68  96 136 179 219 277 338 400
#     4  11  23  44  68  96 136 179 219 277 338 400
#     4  10  23  45  64  97 138 170 221 284 332 399
#     4  12  24  40  74  96 126 182 224 266 356 398
#     4  10  22  45  67  92 138 171 220 281 326 400
#
# _framework density 22.388261
#
# number of rings (size 3 to 8) (size 9 to 14) (size 15 to 20)
#    0.000    1.333    6.667    0.500    4.667    0.667 
#    0.000    8.333    0.000    0.000    0.000    0.000 
#    0.000    0.000    0.000    0.000    0.000    0.000 
#
# Total GULP energy -594893.839053 kJ/mol
# GULP energy per Si atom -12393.621647 kJ/mol
# Density = 2.233730 g / cm^3
# Si number density = 22.388261 Si / 1000 Ang^3
#
#
#
# Elastic Constant Matrix: (Units=GPa)
#
#
# Indices 1 2 3 4 5 6 
#
# 1 90.7210 22.6794 7.4375 0.0000 0.0000 0.0000
# 2 22.6794 85.1985 24.3232 0.0000 0.0000 0.0000
# 3 7.4375 24.3232 98.4229 0.0000 0.0000 0.0000
# 4 0.0000 0.0000 0.0000 13.8530 0.0000 0.0000
# 5 0.0000 0.0000 0.0000 0.0000 22.4375 0.0000
# 6 0.0000 0.0000 0.0000 0.0000 0.0000 47.1814
#
#
#
# Elastic Compliance Matrix: (Units=1/GPa)
#
#
# Indices 1 2 3 4 5 6 
#
# 1 0.011810 -0.003108 -0.000124 0.000000 0.000000 0.000000
# 2 -0.003108 0.013446 -0.003088 0.000000 0.000000 0.000000
# 3 -0.000124 -0.003088 0.010933 0.000000 0.000000 0.000000
# 4 0.000000 0.000000 0.000000 0.072187 0.000000 0.000000
# 5 0.000000 0.000000 0.000000 0.000000 0.044568 0.000000
# 6 0.000000 0.000000 0.000000 0.000000 0.000000 0.021195
#
#
# Mechanical properties :
#
#
# Convention : Reuss Voigt Hill
#
# Bulk Modulus (GPa) = 42.46685 42.58030 42.52357
# Shear Modulus (GPa) = 25.68985 31.35453 28.52219
#
# Velocity S-wave (km/s) = 3.39111 3.74637 3.57316
# Velocity P-wave (km/s) = 5.86023 6.14606 6.00485
#
# Compressibility (1/GPa) = 0.02354778
#
# Stress axis : x y z
#
# Youngs Moduli (GPa) = 84.67373 74.36980 91.46798
#
# Poissons Ratio (x) = 0.23116 0.01137
# Poissons Ratio (y) = 0.26319 0.28246
# Poissons Ratio (z) = 0.01052 0.22966
#
# Static dielectric constant tensor:
#      x y z
#    x 4.338270 0.000000 0.000000 
#    y 0.000000 3.917470 0.000000 
#    z 0.000000 0.000000 4.075170 
# 
# 
# High freq. dielectric constant tensor:
#      x y z
#    x 1.895160 0.000000 0.000000 
#    y 0.000000 1.870870 0.000000 
#    z 0.000000 0.000000 1.876160 
# 
# From -- ./inp_files/2498.got.cif
#   From: 2010.06.25/outbox.cif.g09.slc.cpg/sg52_2_cif.got.tgz:2498.got - 2010.06.26 19:32:48.
