data_PCOD8216567
_publ_section_title
;
Structure prediction by ZEFSAII (Michael W. Deem and Ramdas Pophale) SiO2 
 PCOD8216567
Probable space group: P N N A
;
_chemical_formula_sum "Si O2"
_cell_formula_units_Z 16
_cell_length_a 8.807428
_cell_length_b 4.934517
_cell_length_c 13.345183
_cell_angle_alpha 90.000000
_cell_angle_beta 90.000000
_cell_angle_gamma 90.000000
_cell_volume 579.987034
_symmetry_space_group_name_H-M "P N N A"
_symmetry_group_IT_number 52
_symmetry_cell_setting 'orthorhombic'
loop_
_space_group_symop_operation_xyz
x,y,z
1/2-x,-y,z
x,1/2-y,1/2-z
1/2-x,1/2+y,1/2-z
-x,-y,-z
1/2+x,y,-z
-x,1/2+y,1/2+z
1/2+x,1/2-y,1/2+z
loop_
_atom_site_type_symbol
_atom_site_label
_atom_site_fract_x
_atom_site_fract_y
_atom_site_fract_z
Si Si1 0.081433 0.906293 0.654886
Si Si2 0.855442 0.256571 0.552978
O O1 0.011938 0.750000 0.750000
O O2 0.069394 0.698766 0.558268
O O3 0.250000 0.000000 0.681998
O O4 0.982016 0.177439 0.634888
O O5 0.750000 0.500000 0.591437
O O6 0.750000 0.000000 0.532108
#
# Coordination Sequence:
#
# PCOD8216567 Si02
#       2
#     8   8
#     4  10  22  40  71 108 146 193 253 307 368 452
#     4  10  23  44  69 102 150 196 237 305 383 445
#
# _framework density 27.586822999999999
#
# number of rings (size 3 to 8) (size 9 to 14) (size 15 to 20)
#    0.000    2.000    0.000    1.500    0.000   22.000 
#    0.000    5.000    0.000    6.000    0.000    0.000 
#    0.000    0.000    0.000    0.000    0.000    0.000 
#
# Total GULP energy -198470.229028 kJ/mol
# GULP energy per Si atom -12404.389314 kJ/mol
# Density = 2.752403 g / cm^3
# Si number density = 27.586823 Si / 1000 Ang^3
#
#
#
# Elastic Constant Matrix: (Units=GPa)
#
#
# Indices 1 2 3 4 5 6 
#
# 1 150.9399 65.3535 75.1857 0.0000 0.0000 0.0000
# 2 65.3535 151.6294 85.8048 0.0000 0.0000 0.0000
# 3 75.1857 85.8048 183.3153 0.0000 0.0000 0.0000
# 4 0.0000 0.0000 0.0000 -31.6574 0.0000 0.0000
# 5 0.0000 0.0000 0.0000 0.0000 678.7023 0.0000
# 6 0.0000 0.0000 0.0000 0.0000 0.0000 48.2543
#
#
#
# Elastic Compliance Matrix: (Units=1/GPa)
#
#
# Indices 1 2 3 4 5 6 
#
# 1 0.008933 -0.002417 -0.002532 0.000000 0.000000 0.000000
# 2 -0.002417 0.009625 -0.003514 0.000000 0.000000 0.000000
# 3 -0.002532 -0.003514 0.008139 0.000000 0.000000 0.000000
# 4 0.000000 0.000000 0.000000 -0.031588 0.000000 0.000000
# 5 0.000000 0.000000 0.000000 0.000000 0.001473 0.000000
# 6 0.000000 0.000000 0.000000 0.000000 0.000000 0.020724
#
#
# Mechanical properties :
#
#
# Convention : Reuss Voigt Hill
#
# Bulk Modulus (GPa) = 102.35579 104.28584 103.32081
# Shear Modulus (GPa) = 133.36958 156.36253 144.86606
#
# Velocity S-wave (km/s) = 6.96063 7.53679 7.25443
# Velocity P-wave (km/s) = 10.08881 10.65938 10.37802
#
# Compressibility (1/GPa) = 0.00976984
#
# Stress axis : x y z
#
# Youngs Moduli (GPa) = 111.94176 103.89226 122.87192
#
# Poissons Ratio (x) = 0.25113 0.31117
# Poissons Ratio (y) = 0.27058 0.43177
# Poissons Ratio (z) = 0.28349 0.36507
#
# Static dielectric constant tensor:
#      x y z
#    x 5.367480 0.000000 0.000000 
#    y 0.000000 15.429350 0.000000 
#    z 0.000000 0.000000 4.941060 
# 
# 
# High freq. dielectric constant tensor:
#      x y z
#    x 2.123340 0.000000 0.000000 
#    y 0.000000 2.111150 0.000000 
#    z 0.000000 0.000000 2.102490 
# 
# From -- ./inp_files/23796.got.cif
#   From: 2010.06.25/outbox.cif.g09.slc.cpg/sg52_12_cif.got.tgz:23796.got - 2010.06.26 19:32:48.
