data_PCOD8216745
_publ_section_title
;
Structure prediction by ZEFSAII (Michael W. Deem and Ramdas Pophale) SiO2 
 PCOD8216745
Probable space group: P N N A
;
_chemical_formula_sum "Si O2"
_cell_formula_units_Z 40
_cell_length_a 17.738881
_cell_length_b 10.652014
_cell_length_c 9.782202
_cell_angle_alpha 90.000000
_cell_angle_beta 90.000000
_cell_angle_gamma 90.000000
_cell_volume 1848.394108
_symmetry_space_group_name_H-M "P N N A"
_symmetry_group_IT_number 52
_symmetry_cell_setting 'orthorhombic'
loop_
_space_group_symop_operation_xyz
x,y,z
1/2-x,-y,z
x,1/2-y,1/2-z
1/2-x,1/2+y,1/2-z
-x,-y,-z
1/2+x,y,-z
-x,1/2+y,1/2+z
1/2+x,1/2-y,1/2+z
loop_
_atom_site_type_symbol
_atom_site_label
_atom_site_fract_x
_atom_site_fract_y
_atom_site_fract_z
Si Si1 0.723453 0.133187 0.006219
Si Si2 0.566400 0.139475 0.568835
Si Si3 0.445825 0.890752 0.943745
Si Si4 0.075875 0.967905 0.680074
Si Si5 0.692610 0.750000 0.250000
Si Si6 0.694130 0.250000 0.750000
O O1 0.634545 0.117396 0.982878
O O2 0.752570 0.231961 0.119358
O O3 0.750000 0.000000 0.056831
O O4 0.749855 0.172808 0.852676
O O5 0.524798 0.250818 0.479733
O O6 0.504490 0.102036 0.681681
O O7 0.642667 0.165267 0.650927
O O8 0.589723 0.024926 0.469685
O O9 0.429739 0.915572 0.784644
O O10 0.500000 0.000000 0.000000
O O11 0.141811 0.872703 0.724132
#
# Coordination Sequence:
#
# PCOD8216745 Si02
#       6
#     8   8   8   8   4   4
#     4  11  25  41  65  99 131 181 222 280 353 412
#     4  10  23  40  67  98 130 180 227 282 346 407
#     4  11  22  41  68  92 134 179 228 279 340 413
#     4  11  22  41  66 101 132 174 229 290 345 414
#     4  12  25  42  70 101 138 176 236 294 354 427
#     4  10  23  42  62  85 134 172 218 272 334 409
#
# _framework density 21.640405999999999
#
# number of rings (size 3 to 8) (size 9 to 14) (size 15 to 20)
#    0.000    1.200    2.000    4.800    5.600    1.600 
#    0.000    0.000    0.000    0.000    0.000    0.000 
#    0.000    0.000    0.000    0.000    0.000    0.000 
#
# Total GULP energy -495603.982771 kJ/mol
# GULP energy per Si atom -12390.099569 kJ/mol
# Density = 2.159115 g / cm^3
# Si number density = 21.640406 Si / 1000 Ang^3
#
#
#
# Elastic Constant Matrix: (Units=GPa)
#
#
# Indices 1 2 3 4 5 6 
#
# 1 59.7547 16.4509 27.0362 0.0000 0.0000 0.0000
# 2 16.4509 87.4278 39.2187 0.0000 0.0000 0.0000
# 3 27.0362 39.2187 125.9239 0.0000 0.0000 0.0000
# 4 0.0000 0.0000 0.0000 45.2192 0.0000 0.0000
# 5 0.0000 0.0000 0.0000 0.0000 9.4943 0.0000
# 6 0.0000 0.0000 0.0000 0.0000 0.0000 12.9958
#
#
#
# Elastic Compliance Matrix: (Units=1/GPa)
#
#
# Indices 1 2 3 4 5 6 
#
# 1 0.018835 -0.002011 -0.003418 0.000000 0.000000 0.000000
# 2 -0.002011 0.013510 -0.003776 0.000000 0.000000 0.000000
# 3 -0.003418 -0.003776 0.009851 0.000000 0.000000 0.000000
# 4 0.000000 0.000000 0.000000 0.022115 0.000000 0.000000
# 5 0.000000 0.000000 0.000000 0.000000 0.105326 0.000000
# 6 0.000000 0.000000 0.000000 0.000000 0.000000 0.076948
#
#
# Mechanical properties :
#
#
# Convention : Reuss Voigt Hill
#
# Bulk Modulus (GPa) = 42.03940 48.72421 45.38180
# Shear Modulus (GPa) = 18.32016 26.23523 22.27770
#
# Velocity S-wave (km/s) = 2.91275 3.48562 3.21198
# Velocity P-wave (km/s) = 5.54803 6.22605 5.89679
#
# Compressibility (1/GPa) = 0.02378721
#
# Stress axis : x y z
#
# Youngs Moduli (GPa) = 53.09249 74.01788 101.51165
#
# Poissons Ratio (x) = 0.14885 0.34693
# Poissons Ratio (y) = 0.10677 0.38330
# Poissons Ratio (z) = 0.18145 0.27949
#
# Static dielectric constant tensor:
#      x y z
#    x 4.055150 0.000000 0.000000 
#    y 0.000000 -20.061760 0.000000 
#    z 0.000000 0.000000 4.211380 
# 
# 
# High freq. dielectric constant tensor:
#      x y z
#    x 1.829710 0.000000 0.000000 
#    y 0.000000 1.855040 0.000000 
#    z 0.000000 0.000000 1.866540 
# 
# From -- ./inp_files/11671.got.cif
#   From: 2010.06.25/outbox.cif.g09.slc.cpg/sg52_6_cif.got.tgz:11671.got - 2010.06.26 19:32:48.
