data_PCOD8216390
_publ_section_title
;
Structure prediction by ZEFSAII (Michael W. Deem and Ramdas Pophale) SiO2 
 PCOD8216390
Probable space group: P N N A
;
_chemical_formula_sum "Si O2"
_cell_formula_units_Z 48
_cell_length_a 8.652636
_cell_length_b 8.642542
_cell_length_c 30.802100
_cell_angle_alpha 90.000000
_cell_angle_beta 90.000000
_cell_angle_gamma 90.000000
_cell_volume 2303.404757
_symmetry_space_group_name_H-M "P N N A"
_symmetry_group_IT_number 52
_symmetry_cell_setting 'orthorhombic'
loop_
_space_group_symop_operation_xyz
x,y,z
1/2-x,-y,z
x,1/2-y,1/2-z
1/2-x,1/2+y,1/2-z
-x,-y,-z
1/2+x,y,-z
-x,1/2+y,1/2+z
1/2+x,1/2-y,1/2+z
loop_
_atom_site_type_symbol
_atom_site_label
_atom_site_fract_x
_atom_site_fract_y
_atom_site_fract_z
Si Si1 0.539013 0.257835 0.700739
Si Si2 0.528491 0.169105 0.480653
Si Si3 0.250000 0.500000 0.166620
Si Si4 0.777470 0.170697 0.138335
Si Si5 0.250000 0.500000 0.342886
Si Si6 0.323091 0.337495 0.540865
Si Si7 0.941132 0.230908 0.614582
O O1 0.480273 0.250000 0.750000
O O2 0.388067 0.233766 0.670598
O O3 0.623791 0.417709 0.687877
O O4 0.662782 0.121363 0.696763
O O5 0.479736 0.300416 0.515393
O O6 0.708568 0.195181 0.470553
O O7 0.432674 0.201567 0.436805
O O8 0.500000 0.000000 0.500000
O O9 0.123409 0.578407 0.136491
O O10 0.863489 0.156205 0.091896
O O11 0.614983 0.255375 0.132265
O O12 0.750000 0.000000 0.157985
O O13 0.161658 0.619819 0.374064
O O14 0.250000 0.500000 0.526174
#
# Coordination Sequence:
#
# PCOD8216390 Si02
#       7
#     8   8   4   8   4   8   8
#     4  11  23  43  70  98 128 166 213 269 325 392
#     4  11  24  38  61  94 128 170 219 269 320 374
#     4  10  25  42  62  98 132 164 208 260 335 386
#     4  10  21  43  66  93 127 169 215 263 325 377
#     4  10  21  42  70  92 136 170 216 266 323 408
#     4  10  23  40  63  89 128 168 216 266 313 386
#     4  10  23  41  64  95 130 176 213 264 326 386
#
# _framework density 20.838716999999999
#
# number of rings (size 3 to 8) (size 9 to 14) (size 15 to 20)
#    0.000    1.667    1.667    1.500    5.833    2.000 
#    3.000    0.833    0.000    0.000    0.000    0.000 
#    0.000    0.000    0.000    0.000    0.000    0.000 
#
# Total GULP energy -595306.266734 kJ/mol
# GULP energy per Si atom -12402.213890 kJ/mol
# Density = 2.079129 g / cm^3
# Si number density = 20.838717 Si / 1000 Ang^3
#
#
#
# Elastic Constant Matrix: (Units=GPa)
#
#
# Indices 1 2 3 4 5 6 
#
# 1 83.3417 21.0892 46.9715 0.0000 0.0000 0.0000
# 2 21.0892 97.0537 38.5219 0.0000 0.0000 0.0000
# 3 46.9715 38.5219 124.6567 0.0000 0.0000 0.0000
# 4 0.0000 0.0000 0.0000 22.3128 0.0000 0.0000
# 5 0.0000 0.0000 0.0000 0.0000 31.8526 0.0000
# 6 0.0000 0.0000 0.0000 0.0000 0.0000 33.3092
#
#
#
# Elastic Compliance Matrix: (Units=1/GPa)
#
#
# Indices 1 2 3 4 5 6 
#
# 1 0.015353 -0.001185 -0.005419 0.000000 0.000000 0.000000
# 2 -0.001185 0.011836 -0.003211 0.000000 0.000000 0.000000
# 3 -0.005419 -0.003211 0.011056 0.000000 0.000000 0.000000
# 4 0.000000 0.000000 0.000000 0.044817 0.000000 0.000000
# 5 0.000000 0.000000 0.000000 0.000000 0.031395 0.000000
# 6 0.000000 0.000000 0.000000 0.000000 0.000000 0.030022
#
#
# Mechanical properties :
#
#
# Convention : Reuss Voigt Hill
#
# Bulk Modulus (GPa) = 53.72117 57.57969 55.65043
# Shear Modulus (GPa) = 29.35778 30.72623 30.04200
#
# Velocity S-wave (km/s) = 3.75748 3.84406 3.80102
# Velocity P-wave (km/s) = 6.68284 6.88429 6.78431
#
# Compressibility (1/GPa) = 0.01861463
#
# Stress axis : x y z
#
# Youngs Moduli (GPa) = 65.13498 84.49122 90.44799
#
# Poissons Ratio (x) = 0.10015 0.49011
# Poissons Ratio (y) = 0.07720 0.29041
# Poissons Ratio (z) = 0.35295 0.27129
#
# Static dielectric constant tensor:
#      x y z
#    x 3.757180 0.000000 0.000000 
#    y 0.000000 3.811540 0.000000 
#    z 0.000000 0.000000 3.667650 
# 
# 
# High freq. dielectric constant tensor:
#      x y z
#    x 1.818970 0.000000 0.000000 
#    y 0.000000 1.820940 0.000000 
#    z 0.000000 0.000000 1.808680 
# 
# From -- ./inp_files/44429.got.cif
#   From: 2010.06.25/outbox.cif.g09.slc.cpg/sg52_23_cif.got.tgz:44429.got - 2010.06.26 19:32:48.
