data_PCOD8216407
_publ_section_title
;
Structure prediction by ZEFSAII (Michael W. Deem and Ramdas Pophale) SiO2 
 PCOD8216407
Probable space group: P N N A
;
_chemical_formula_sum "Si O2"
_cell_formula_units_Z 56
_cell_length_a 5.228731
_cell_length_b 27.656395
_cell_length_c 16.090442
_cell_angle_alpha 90.000000
_cell_angle_beta 90.000000
_cell_angle_gamma 90.000000
_cell_volume 2326.804221
_symmetry_space_group_name_H-M "P N N A"
_symmetry_group_IT_number 52
_symmetry_cell_setting 'orthorhombic'
loop_
_space_group_symop_operation_xyz
x,y,z
1/2-x,-y,z
x,1/2-y,1/2-z
1/2-x,1/2+y,1/2-z
-x,-y,-z
1/2+x,y,-z
-x,1/2+y,1/2+z
1/2+x,1/2-y,1/2+z
loop_
_atom_site_type_symbol
_atom_site_label
_atom_site_fract_x
_atom_site_fract_y
_atom_site_fract_z
Si Si1 0.852670 0.649870 0.287846
Si Si2 0.638078 0.170475 0.686668
Si Si3 0.115889 0.086935 0.445777
Si Si4 0.250000 0.000000 0.057088
Si Si5 0.250000 0.500000 0.159028
Si Si6 0.628274 0.236538 0.543224
Si Si7 0.110199 0.341395 0.527680
Si Si8 0.952656 0.541275 0.307099
O O1 0.591299 0.671384 0.252458
O O2 0.900772 0.674968 0.376917
O O3 0.815226 0.592900 0.304586
O O4 0.091399 0.660972 0.229555
O O5 0.579034 0.130224 0.618339
O O6 0.645319 0.222509 0.640586
O O7 0.396755 0.089989 0.485435
O O8 0.085348 0.036270 0.397484
O O9 0.183324 0.956850 0.123931
O O10 0.500000 0.000000 0.000000
O O11 0.441578 0.468724 0.215291
O O12 0.372605 0.213398 0.503629
O O13 0.628761 0.294353 0.532492
O O14 0.363976 0.372146 0.503480
O O15 0.750000 0.500000 0.333856
#
# Coordination Sequence:
#
# PCOD8216407 Si02
#       8
#     8   8   8   4   4   8   8   8
#     4  12  26  44  72 103 139 186 236 285 355 421
#     4  12  24  44  68 105 138 180 235 287 345 426
#     4  12  25  41  65  96 135 181 228 281 339 404
#     4  11  24  44  66 101 132 180 250 287 346 418
#     4  11  24  42  62  97 140 182 240 281 342 408
#     4  10  21  43  71  96 139 178 221 284 354 412
#     4  10  23  47  70 101 138 177 225 286 358 413
#     4  11  25  44  71  96 147 192 231 306 357 400
#
# _framework density 24.067347000000002
#
# number of rings (size 3 to 8) (size 9 to 14) (size 15 to 20)
#    0.000    0.857    2.143    4.714    4.000    1.143 
#    0.000   17.143    0.000    0.000    0.000    0.000 
#    0.000    0.000    0.000    0.000    0.000    0.000 
#
# Total GULP energy -694181.812762 kJ/mol
# GULP energy per Si atom -12396.103799 kJ/mol
# Density = 2.401257 g / cm^3
# Si number density = 24.067347 Si / 1000 Ang^3
#
#
#
# Elastic Constant Matrix: (Units=GPa)
#
#
# Indices 1 2 3 4 5 6 
#
# 1 161.2723 3.6111 25.0780 0.0000 0.0000 0.0000
# 2 3.6111 53.4246 6.0114 0.0000 0.0000 0.0000
# 3 25.0780 6.0114 93.4568 0.0000 0.0000 0.0000
# 4 0.0000 0.0000 0.0000 27.6876 0.0000 0.0000
# 5 0.0000 0.0000 0.0000 0.0000 51.9692 0.0000
# 6 0.0000 0.0000 0.0000 0.0000 0.0000 9.8678
#
#
#
# Elastic Compliance Matrix: (Units=1/GPa)
#
#
# Indices 1 2 3 4 5 6 
#
# 1 0.006474 -0.000244 -0.001721 0.000000 0.000000 0.000000
# 2 -0.000244 0.018864 -0.001148 0.000000 0.000000 0.000000
# 3 -0.001721 -0.001148 0.011236 0.000000 0.000000 0.000000
# 4 0.000000 0.000000 0.000000 0.036117 0.000000 0.000000
# 5 0.000000 0.000000 0.000000 0.000000 0.019242 0.000000
# 6 0.000000 0.000000 0.000000 0.000000 0.000000 0.101340
#
#
# Mechanical properties :
#
#
# Convention : Reuss Voigt Hill
#
# Bulk Modulus (GPa) = 32.95239 41.95051 37.45145
# Shear Modulus (GPa) = 23.85324 36.13512 29.99418
#
# Velocity S-wave (km/s) = 3.15160 3.87902 3.53407
# Velocity P-wave (km/s) = 5.19277 6.12623 5.67871
#
# Compressibility (1/GPa) = 0.03034681
#
# Stress axis : x y z
#
# Youngs Moduli (GPa) = 154.46764 53.01209 89.00032
#
# Poissons Ratio (x) = 0.01293 0.15321
# Poissons Ratio (y) = 0.03767 0.10216
# Poissons Ratio (z) = 0.26592 0.06085
#
# Static dielectric constant tensor:
#      x y z
#    x 5.565860 0.000000 0.000000 
#    y 0.000000 4.105010 0.000000 
#    z 0.000000 0.000000 4.571050 
# 
# 
# High freq. dielectric constant tensor:
#      x y z
#    x 1.975800 0.000000 0.000000 
#    y 0.000000 1.930730 0.000000 
#    z 0.000000 0.000000 1.973180 
# 
# From -- ./inp_files/23781.got.cif
#   From: 2010.06.25/outbox.cif.g09.slc.cpg/sg52_12_cif.got.tgz:23781.got - 2010.06.26 19:32:48.
