data_PCOD8216416
_publ_section_title
;
Structure prediction by ZEFSAII (Michael W. Deem and Ramdas Pophale) SiO2 
 PCOD8216416
Probable space group: P N N A
;
_chemical_formula_sum "Si O2"
_cell_formula_units_Z 40
_cell_length_a 17.772025
_cell_length_b 11.476043
_cell_length_c 8.919428
_cell_angle_alpha 90.000000
_cell_angle_beta 90.000000
_cell_angle_gamma 90.000000
_cell_volume 1819.139845
_symmetry_space_group_name_H-M "P N N A"
_symmetry_group_IT_number 52
_symmetry_cell_setting 'orthorhombic'
loop_
_space_group_symop_operation_xyz
x,y,z
1/2-x,-y,z
x,1/2-y,1/2-z
1/2-x,1/2+y,1/2-z
-x,-y,-z
1/2+x,y,-z
-x,1/2+y,1/2+z
1/2+x,1/2-y,1/2+z
loop_
_atom_site_type_symbol
_atom_site_label
_atom_site_fract_x
_atom_site_fract_y
_atom_site_fract_z
Si Si1 0.315950 0.828180 0.604747
Si Si2 0.159973 0.920135 0.514636
Si Si3 0.079485 0.186735 0.103225
Si Si4 0.829878 0.035697 0.830788
Si Si5 0.062396 0.726569 0.419056
O O1 0.334762 0.750000 0.750000
O O2 0.226584 0.844544 0.589240
O O3 0.351685 0.760871 0.464606
O O4 0.352837 0.959120 0.606841
O O5 0.184617 0.943023 0.344087
O O6 0.083353 0.844526 0.511092
O O7 0.048814 0.250000 0.250000
O O8 0.107487 0.060776 0.147886
O O9 0.009274 0.167402 0.993831
O O10 0.861982 0.148416 0.916921
O O11 0.750000 0.000000 0.905309
O O12 0.036414 0.750000 0.250000
#
# Coordination Sequence:
#
# PCOD8216416 Si02
#       5
#     8   8   8   8   8
#     4  11  23  43  69  97 135 178 233 281 346 407
#     4  10  21  45  68  96 133 180 226 285 345 408
#     4  12  23  42  66 101 139 184 224 282 344 416
#     4  11  20  42  73 100 132 176 235 284 338 412
#     4  10  24  42  66  99 138 184 226 280 345 411
#
# _framework density 21.988412
#
# number of rings (size 3 to 8) (size 9 to 14) (size 15 to 20)
#    0.000    1.200    4.000    2.400    0.000    3.200 
#   18.000    0.000    0.000    0.000    0.000    0.000 
#    0.000    0.000    0.000    0.000    0.000    0.000 
#
# Total GULP energy -495930.445493 kJ/mol
# GULP energy per Si atom -12398.261137 kJ/mol
# Density = 2.193837 g / cm^3
# Si number density = 21.988412 Si / 1000 Ang^3
#
#
#
# Elastic Constant Matrix: (Units=GPa)
#
#
# Indices 1 2 3 4 5 6 
#
# 1 72.9854 27.6412 27.7673 0.0000 0.0000 0.0000
# 2 27.6412 108.7627 41.6463 0.0000 0.0000 0.0000
# 3 27.7673 41.6463 80.3853 0.0000 0.0000 0.0000
# 4 0.0000 0.0000 0.0000 39.5318 0.0000 0.0000
# 5 0.0000 0.0000 0.0000 0.0000 24.4285 0.0000
# 6 0.0000 0.0000 0.0000 0.0000 0.0000 8.3587
#
#
#
# Elastic Compliance Matrix: (Units=1/GPa)
#
#
# Indices 1 2 3 4 5 6 
#
# 1 0.016292 -0.002477 -0.004345 0.000000 0.000000 0.000000
# 2 -0.002477 0.011846 -0.005282 0.000000 0.000000 0.000000
# 3 -0.004345 -0.005282 0.016677 0.000000 0.000000 0.000000
# 4 0.000000 0.000000 0.000000 0.025296 0.000000 0.000000
# 5 0.000000 0.000000 0.000000 0.000000 0.040936 0.000000
# 6 0.000000 0.000000 0.000000 0.000000 0.000000 0.119636
#
#
# Mechanical properties :
#
#
# Convention : Reuss Voigt Hill
#
# Bulk Modulus (GPa) = 48.52189 50.69368 49.60778
# Shear Modulus (GPa) = 19.10146 25.46903 22.28525
#
# Velocity S-wave (km/s) = 2.95058 3.40706 3.18700
# Velocity P-wave (km/s) = 5.80714 6.21146 6.01270
#
# Compressibility (1/GPa) = 0.02060926
#
# Stress axis : x y z
#
# Youngs Moduli (GPa) = 61.37848 84.41475 59.96217
#
# Poissons Ratio (x) = 0.20910 0.26051
# Poissons Ratio (y) = 0.15204 0.31670
# Poissons Ratio (z) = 0.26666 0.44586
#
# Static dielectric constant tensor:
#      x y z
#    x 3.760150 0.000000 0.000000 
#    y 0.000000 4.271470 0.000000 
#    z 0.000000 0.000000 3.769360 
# 
# 
# High freq. dielectric constant tensor:
#      x y z
#    x 1.863150 0.000000 0.000000 
#    y 0.000000 1.879180 0.000000 
#    z 0.000000 0.000000 1.846510 
# 
# From -- ./inp_files/11605.got.cif
#   From: 2010.06.25/outbox.cif.g09.slc.cpg/sg52_6_cif.got.tgz:11605.got - 2010.06.26 19:32:48.
