data_PCOD8216041
_publ_section_title
;
Structure prediction by ZEFSAII (Michael W. Deem and Ramdas Pophale) SiO2 
 PCOD8216041
Probable space group: P N N A
;
_chemical_formula_sum "Si O2"
_cell_formula_units_Z 36
_cell_length_a 9.037023
_cell_length_b 8.447621
_cell_length_c 21.905894
_cell_angle_alpha 90.000000
_cell_angle_beta 90.000000
_cell_angle_gamma 90.000000
_cell_volume 1672.325417
_symmetry_space_group_name_H-M "P N N A"
_symmetry_group_IT_number 52
_symmetry_cell_setting 'orthorhombic'
loop_
_space_group_symop_operation_xyz
x,y,z
1/2-x,-y,z
x,1/2-y,1/2-z
1/2-x,1/2+y,1/2-z
-x,-y,-z
1/2+x,y,-z
-x,1/2+y,1/2+z
1/2+x,1/2-y,1/2+z
loop_
_atom_site_type_symbol
_atom_site_label
_atom_site_fract_x
_atom_site_fract_y
_atom_site_fract_z
Si Si1 0.606225 0.750000 0.750000
Si Si2 0.731450 0.681883 0.527769
Si Si3 0.578223 0.008986 0.319405
Si Si4 0.052375 0.137972 0.545105
Si Si5 0.680306 0.176493 0.649101
O O1 0.500473 0.897535 0.735804
O O2 0.715564 0.718302 0.692959
O O3 0.750000 0.500000 0.510528
O O4 0.560531 0.715933 0.540028
O O5 0.786917 0.794399 0.472633
O O6 0.831457 0.729275 0.586023
O O7 0.560384 0.090995 0.384795
O O8 0.750000 0.000000 0.301670
O O9 0.487756 0.842634 0.324488
O O10 0.000000 0.000000 0.500000
O O11 0.750000 0.000000 0.639565
#
# Coordination Sequence:
#
# PCOD8216041 Si02
#       5
#     4   8   8   8   8
#     4  10  22  42  66  98 132 170 244 288 328 428
#     4  12  24  39  64 106 142 176 227 300 359 411
#     4  11  23  42  71 101 132 180 246 286 352 420
#     4  12  22  43  70  99 137 188 235 283 343 443
#     4  10  20  43  68  93 130 187 236 268 346 445
#
# _framework density 21.526910000000001
#
# number of rings (size 3 to 8) (size 9 to 14) (size 15 to 20)
#    0.000    0.889    6.667    2.667    0.000    3.556 
#    0.000    1.111    0.000    0.000    0.000    0.000 
#    0.000    0.000    0.000    0.000    0.000    0.000 
#
# Total GULP energy -446245.789514 kJ/mol
# GULP energy per Si atom -12395.716375 kJ/mol
# Density = 2.147791 g / cm^3
# Si number density = 21.526910 Si / 1000 Ang^3
#
#
#
# Elastic Constant Matrix: (Units=GPa)
#
#
# Indices 1 2 3 4 5 6 
#
# 1 145.2610 15.1601 22.2652 0.0000 0.0000 0.0000
# 2 15.1601 69.7860 30.1681 0.0000 0.0000 0.0000
# 3 22.2652 30.1681 87.3983 0.0000 0.0000 0.0000
# 4 0.0000 0.0000 0.0000 26.4365 0.0000 0.0000
# 5 0.0000 0.0000 0.0000 0.0000 35.9022 0.0000
# 6 0.0000 0.0000 0.0000 0.0000 0.0000 38.1549
#
#
#
# Elastic Compliance Matrix: (Units=1/GPa)
#
#
# Indices 1 2 3 4 5 6 
#
# 1 0.007213 -0.000908 -0.001524 0.000000 0.000000 0.000000
# 2 -0.000908 0.016957 -0.005622 0.000000 0.000000 0.000000
# 3 -0.001524 -0.005622 0.013771 0.000000 0.000000 0.000000
# 4 0.000000 0.000000 0.000000 0.037827 0.000000 0.000000
# 5 0.000000 0.000000 0.000000 0.000000 0.027853 0.000000
# 6 0.000000 0.000000 0.000000 0.000000 0.000000 0.026209
#
#
# Mechanical properties :
#
#
# Convention : Reuss Voigt Hill
#
# Bulk Modulus (GPa) = 45.80340 48.62580 47.21460
# Shear Modulus (GPa) = 32.63396 35.75550 34.19473
#
# Velocity S-wave (km/s) = 3.89776 4.07992 3.98988
# Velocity P-wave (km/s) = 6.44827 6.69565 6.57312
#
# Compressibility (1/GPa) = 0.02183244
#
# Stress axis : x y z
#
# Youngs Moduli (GPa) = 138.64778 58.97236 72.61801
#
# Poissons Ratio (x) = 0.05355 0.11067
# Poissons Ratio (y) = 0.12589 0.40825
# Poissons Ratio (z) = 0.21130 0.33154
#
# Static dielectric constant tensor:
#      x y z
#    x 4.548980 0.000000 0.000000 
#    y 0.000000 3.622930 0.000000 
#    z 0.000000 0.000000 3.927210 
# 
# 
# High freq. dielectric constant tensor:
#      x y z
#    x 1.859860 0.000000 0.000000 
#    y 0.000000 1.814050 0.000000 
#    z 0.000000 0.000000 1.843550 
# 
# From -- ./inp_files/35549.got.cif
#   From: 2010.06.25/outbox.cif.g09.slc.cpg/sg52_18_cif.got.tgz:35549.got - 2010.06.26 19:32:48.
