data_PCOD8216822
_publ_section_title
;
Structure prediction by ZEFSAII (Michael W. Deem and Ramdas Pophale) SiO2 
 PCOD8216822
Probable space group: P N N A
;
_chemical_formula_sum "Si O2"
_cell_formula_units_Z 40
_cell_length_a 15.437746
_cell_length_b 7.901730
_cell_length_c 14.723534
_cell_angle_alpha 90.000000
_cell_angle_beta 90.000000
_cell_angle_gamma 90.000000
_cell_volume 1796.048833
_symmetry_space_group_name_H-M "P N N A"
_symmetry_group_IT_number 52
_symmetry_cell_setting 'orthorhombic'
loop_
_space_group_symop_operation_xyz
x,y,z
1/2-x,-y,z
x,1/2-y,1/2-z
1/2-x,1/2+y,1/2-z
-x,-y,-z
1/2+x,y,-z
-x,1/2+y,1/2+z
1/2+x,1/2-y,1/2+z
loop_
_atom_site_type_symbol
_atom_site_label
_atom_site_fract_x
_atom_site_fract_y
_atom_site_fract_z
Si Si1 0.023533 0.826969 0.397027
Si Si2 0.191429 0.345451 0.331971
Si Si3 0.127716 0.097066 0.480790
Si Si4 0.750000 0.500000 0.134518
Si Si5 0.488784 0.506301 0.289293
Si Si6 0.366327 0.250000 0.750000
O O1 0.028462 0.632123 0.367771
O O2 0.964946 0.832406 0.487430
O O3 0.114393 0.914820 0.429423
O O4 0.988391 0.930656 0.309854
O O5 0.250000 0.500000 0.365963
O O6 0.242679 0.250000 0.250000
O O7 0.177437 0.225519 0.416851
O O8 0.100557 0.394281 0.285561
O O9 0.182062 0.094798 0.571982
O O10 0.698409 0.637136 0.192050
O O11 0.569938 0.631033 0.311933
#
# Coordination Sequence:
#
# PCOD8216822 Si02
#       6
#     8   8   8   4   8   4
#     4  10  23  44  76  99 140 193 239 299 373 436
#     4  12  28  44  72 106 148 195 242 306 368 443
#     4  11  25  47  65 108 145 185 246 305 364 434
#     4  12  30  44  76 102 150 190 242 320 358 446
#     4  11  23  47  74 103 139 196 241 293 379 449
#     4  12  26  50  72 106 144 196 250 302 384 438
#
# _framework density 22.271108000000002
#
# number of rings (size 3 to 8) (size 9 to 14) (size 15 to 20)
#    0.000    0.800    5.000    0.000   12.600    2.400 
#    0.000    0.000    0.000    0.000    0.000    0.000 
#    0.000    0.000    0.000    0.000    0.000    0.000 
#
# Total GULP energy -495784.913707 kJ/mol
# GULP energy per Si atom -12394.622843 kJ/mol
# Density = 2.222042 g / cm^3
# Si number density = 22.271108 Si / 1000 Ang^3
#
#
#
# Elastic Constant Matrix: (Units=GPa)
#
#
# Indices 1 2 3 4 5 6 
#
# 1 109.6961 70.0791 45.6628 0.0000 0.0000 0.0000
# 2 70.0791 159.6675 64.9681 0.0000 0.0000 0.0000
# 3 45.6628 64.9681 113.1884 0.0000 0.0000 0.0000
# 4 0.0000 0.0000 0.0000 40.4482 0.0000 0.0000
# 5 0.0000 0.0000 0.0000 0.0000 -4.2958 0.0000
# 6 0.0000 0.0000 0.0000 0.0000 0.0000 43.2741
#
#
#
# Elastic Compliance Matrix: (Units=1/GPa)
#
#
# Indices 1 2 3 4 5 6 
#
# 1 0.013237 -0.004745 -0.002616 0.000000 0.000000 0.000000
# 2 -0.004745 0.009872 -0.003752 0.000000 0.000000 0.000000
# 3 -0.002616 -0.003752 0.012044 0.000000 0.000000 0.000000
# 4 0.000000 0.000000 0.000000 0.024723 0.000000 0.000000
# 5 0.000000 0.000000 0.000000 0.000000 -0.232785 0.000000
# 6 0.000000 0.000000 0.000000 0.000000 0.000000 0.023109
#
#
# Mechanical properties :
#
#
# Convention : Reuss Voigt Hill
#
# Bulk Modulus (GPa) = 77.36574 82.66357 80.01465
# Shear Modulus (GPa) = -40.56339 29.34143 -5.61098
#
# Velocity S-wave (km/s) = -4.27235 3.63363 -1.58898
# Velocity P-wave (km/s) = 3.23670 7.40283 5.71306
#
# Compressibility (1/GPa) = 0.01292562
#
# Stress axis : x y z
#
# Youngs Moduli (GPa) = 75.54844 101.29196 83.02805
#
# Poissons Ratio (x) = 0.48063 0.21723
# Poissons Ratio (y) = 0.35848 0.31155
# Poissons Ratio (z) = 0.19766 0.38008
#
# Static dielectric constant tensor:
#      x y z
#    x 4.161020 0.000000 0.000000 
#    y 0.000000 4.107830 0.000000 
#    z 0.000000 0.000000 4.111760 
# 
# 
# High freq. dielectric constant tensor:
#      x y z
#    x 1.877990 0.000000 0.000000 
#    y 0.000000 1.884510 0.000000 
#    z 0.000000 0.000000 1.876720 
# 
# From -- ./inp_files/26964.got.cif
#   From: 2010.06.25/outbox.cif.g09.slc.cpg/sg52_14_cif.got.tgz:26964.got - 2010.06.26 19:32:48.
