data_PCOD8216294
_publ_section_title
;
Structure prediction by ZEFSAII (Michael W. Deem and Ramdas Pophale) SiO2 
 PCOD8216294
Probable space group: P N N A
;
_chemical_formula_sum "Si O2"
_cell_formula_units_Z 36
_cell_length_a 15.441812
_cell_length_b 5.029385
_cell_length_c 21.228274
_cell_angle_alpha 90.000000
_cell_angle_beta 90.000000
_cell_angle_gamma 90.000000
_cell_volume 1648.647573
_symmetry_space_group_name_H-M "P N N A"
_symmetry_group_IT_number 52
_symmetry_cell_setting 'orthorhombic'
loop_
_space_group_symop_operation_xyz
x,y,z
1/2-x,-y,z
x,1/2-y,1/2-z
1/2-x,1/2+y,1/2-z
-x,-y,-z
1/2+x,y,-z
-x,1/2+y,1/2+z
1/2+x,1/2-y,1/2+z
loop_
_atom_site_type_symbol
_atom_site_label
_atom_site_fract_x
_atom_site_fract_y
_atom_site_fract_z
Si Si1 0.191727 0.757707 0.483794
Si Si2 0.691791 0.755850 0.373316
Si Si3 0.250000 0.500000 0.210935
Si Si4 0.492313 0.181847 0.821095
Si Si5 0.586733 0.668508 0.867468
O O1 0.250000 0.500000 0.477009
O O2 0.159296 0.805353 0.555084
O O3 0.107767 0.741169 0.438868
O O4 0.250000 0.000000 0.459879
O O5 0.750000 0.500000 0.370507
O O6 0.610562 0.708540 0.328417
O O7 0.750000 0.000000 0.348729
O O8 0.289697 0.750000 0.250000
O O9 0.324344 0.360166 0.170460
O O10 0.518236 0.250000 0.750000
O O11 0.537580 0.387978 0.868621
O O12 0.524028 0.885059 0.835819
#
# Coordination Sequence:
#
# PCOD8216294 Si02
#       5
#     8   8   4   8   8
#     4  10  21  40  64  93 123 160 212 254 300 371
#     4  10  23  44  69  91 120 162 207 263 321 370
#     4  12  24  38  60  88 126 178 218 236 298 376
#     4  12  26  42  61  95 130 160 210 262 304 368
#     4  12  24  40  63  91 130 168 204 257 304 361
#
# _framework density 21.836082000000001
#
# number of rings (size 3 to 8) (size 9 to 14) (size 15 to 20)
#    0.000    0.889    1.111    6.667    1.556    2.667 
#    0.000    0.000    0.000    0.000    0.000    0.000 
#    0.000    0.000    0.000    0.000    0.000    0.000 
#
# Total GULP energy -446586.287627 kJ/mol
# GULP energy per Si atom -12405.174656 kJ/mol
# Density = 2.178638 g / cm^3
# Si number density = 21.836082 Si / 1000 Ang^3
#
#
#
# Elastic Constant Matrix: (Units=GPa)
#
#
# Indices 1 2 3 4 5 6 
#
# 1 105.6187 28.2217 19.8898 0.0000 0.0000 0.0000
# 2 28.2217 123.6912 11.9577 0.0000 0.0000 0.0000
# 3 19.8898 11.9577 45.5077 0.0000 0.0000 0.0000
# 4 0.0000 0.0000 0.0000 25.5566 0.0000 0.0000
# 5 0.0000 0.0000 0.0000 0.0000 31.1920 0.0000
# 6 0.0000 0.0000 0.0000 0.0000 0.0000 39.6189
#
#
#
# Elastic Compliance Matrix: (Units=1/GPa)
#
#
# Indices 1 2 3 4 5 6 
#
# 1 0.010806 -0.002061 -0.004181 0.000000 0.000000 0.000000
# 2 -0.002061 0.008689 -0.001382 0.000000 0.000000 0.000000
# 3 -0.004181 -0.001382 0.024165 0.000000 0.000000 0.000000
# 4 0.000000 0.000000 0.000000 0.039129 0.000000 0.000000
# 5 0.000000 0.000000 0.000000 0.000000 0.032059 0.000000
# 6 0.000000 0.000000 0.000000 0.000000 0.000000 0.025241
#
#
# Mechanical properties :
#
#
# Convention : Reuss Voigt Hill
#
# Bulk Modulus (GPa) = 35.19864 43.88399 39.54131
# Shear Modulus (GPa) = 30.33828 33.59006 31.96417
#
# Velocity S-wave (km/s) = 3.73146 3.92635 3.83015
# Velocity P-wave (km/s) = 5.89233 6.37931 6.14065
#
# Compressibility (1/GPa) = 0.02841019
#
# Stress axis : x y z
#
# Youngs Moduli (GPa) = 92.53906 115.09351 41.38221
#
# Poissons Ratio (x) = 0.23725 0.17303
# Poissons Ratio (y) = 0.19076 0.05719
# Poissons Ratio (z) = 0.38694 0.15907
#
# Static dielectric constant tensor:
#      x y z
#    x 3.729890 0.000000 0.000000 
#    y 0.000000 4.061180 0.000000 
#    z 0.000000 0.000000 4.075130 
# 
# 
# High freq. dielectric constant tensor:
#      x y z
#    x 1.851340 0.000000 0.000000 
#    y 0.000000 1.878570 0.000000 
#    z 0.000000 0.000000 1.853990 
# 
# From -- ./inp_files/37054.got.cif
#   From: 2010.06.25/outbox.cif.g09.slc.cpg/sg52_19_cif.got.tgz:37054.got - 2010.06.26 19:32:48.
