data_PCOD8216712
_publ_section_title
;
Structure prediction by ZEFSAII (Michael W. Deem and Ramdas Pophale) SiO2 
 PCOD8216712
Probable space group: P N N A
;
_chemical_formula_sum "Si O2"
_cell_formula_units_Z 40
_cell_length_a 12.887294
_cell_length_b 23.056789
_cell_length_c 6.337449
_cell_angle_alpha 90.000000
_cell_angle_beta 90.000000
_cell_angle_gamma 90.000000
_cell_volume 1883.107178
_symmetry_space_group_name_H-M "P N N A"
_symmetry_group_IT_number 52
_symmetry_cell_setting 'orthorhombic'
loop_
_space_group_symop_operation_xyz
x,y,z
1/2-x,-y,z
x,1/2-y,1/2-z
1/2-x,1/2+y,1/2-z
-x,-y,-z
1/2+x,y,-z
-x,1/2+y,1/2+z
1/2+x,1/2-y,1/2+z
loop_
_atom_site_type_symbol
_atom_site_label
_atom_site_fract_x
_atom_site_fract_y
_atom_site_fract_z
Si Si1 0.583890 0.956773 0.909905
Si Si2 0.696649 0.598669 0.199452
Si Si3 0.184512 0.750000 0.250000
Si Si4 0.750000 0.500000 0.903964
Si Si5 0.457319 0.146677 0.368152
Si Si6 0.167566 0.299359 0.893990
O O1 0.522059 0.904009 0.801451
O O2 0.648469 0.993108 0.738929
O O3 0.662649 0.932758 0.086644
O O4 0.500000 0.000000 0.000000
O O5 0.767014 0.654776 0.245426
O O6 0.764866 0.555906 0.052856
O O7 0.597932 0.620461 0.071069
O O8 0.109952 0.806151 0.234654
O O9 0.260988 0.765234 0.440975
O O10 0.563198 0.169766 0.475991
O O11 0.120290 0.250000 0.750000
#
# Coordination Sequence:
#
# PCOD8216712 Si02
#       6
#     8   8   4   4   8   8
#     4  11  25  41  67  95 131 174 222 271 329 403
#     4  10  24  42  64  94 135 170 221 273 326 394
#     4  10  22  46  60  98 132 164 222 272 324 402
#     4  10  24  42  64  94 132 172 220 266 328 392
#     4  10  23  42  63  99 131 170 220 272 330 400
#     4  11  23  41  71  92 129 174 212 271 334 386
#
# _framework density 21.241489999999999
#
# number of rings (size 3 to 8) (size 9 to 14) (size 15 to 20)
#    0.000    1.600    1.000    1.800    8.400    3.200 
#    7.200    0.000    0.000    0.000    0.000    0.000 
#    0.000    0.000    0.000    0.000    0.000    0.000 
#
# Total GULP energy -495685.042162 kJ/mol
# GULP energy per Si atom -12392.126054 kJ/mol
# Density = 2.119314 g / cm^3
# Si number density = 21.241490 Si / 1000 Ang^3
#
#
#
# Elastic Constant Matrix: (Units=GPa)
#
#
# Indices 1 2 3 4 5 6 
#
# 1 83.6432 35.9809 19.1659 0.0000 0.0000 0.0000
# 2 35.9809 105.6064 29.0868 0.0000 0.0000 0.0000
# 3 19.1659 29.0868 60.3986 0.0000 0.0000 0.0000
# 4 0.0000 0.0000 0.0000 31.8069 0.0000 0.0000
# 5 0.0000 0.0000 0.0000 0.0000 11.3504 0.0000
# 6 0.0000 0.0000 0.0000 0.0000 0.0000 35.8284
#
#
#
# Elastic Compliance Matrix: (Units=1/GPa)
#
#
# Indices 1 2 3 4 5 6 
#
# 1 0.014337 -0.004187 -0.002533 0.000000 0.000000 0.000000
# 2 -0.004187 0.012140 -0.004518 0.000000 0.000000 0.000000
# 3 -0.002533 -0.004518 0.019536 0.000000 0.000000 0.000000
# 4 0.000000 0.000000 0.000000 0.031440 0.000000 0.000000
# 5 0.000000 0.000000 0.000000 0.000000 0.088103 0.000000
# 6 0.000000 0.000000 0.000000 0.000000 0.000000 0.027911
#
#
# Mechanical properties :
#
#
# Convention : Reuss Voigt Hill
#
# Bulk Modulus (GPa) = 42.48546 46.45726 44.47136
# Shear Modulus (GPa) = 22.34253 26.82477 24.58365
#
# Velocity S-wave (km/s) = 3.24672 3.55751 3.40566
# Velocity P-wave (km/s) = 5.83948 6.22840 6.03707
#
# Compressibility (1/GPa) = 0.02353746
#
# Stress axis : x y z
#
# Youngs Moduli (GPa) = 69.74895 82.37229 51.18717
#
# Poissons Ratio (x) = 0.34490 0.12966
# Poissons Ratio (y) = 0.29205 0.23125
# Poissons Ratio (z) = 0.17668 0.37214
#
# Static dielectric constant tensor:
#      x y z
#    x 3.762710 0.000000 0.000000 
#    y 0.000000 4.272110 0.000000 
#    z 0.000000 0.000000 3.756830 
# 
# 
# High freq. dielectric constant tensor:
#      x y z
#    x 1.837340 0.000000 0.000000 
#    y 0.000000 1.859160 0.000000 
#    z 0.000000 0.000000 1.816700 
# 
# From -- ./inp_files/1401.got.cif
#   From: 2010.06.25/outbox.cif.g09.slc.cpg/sg52_1_cif.got.tgz:1401.got - 2010.06.26 19:32:48.
