data_PCOD8216782
_publ_section_title
;
Structure prediction by ZEFSAII (Michael W. Deem and Ramdas Pophale) SiO2 
 PCOD8216782
Probable space group: P N N A
;
_chemical_formula_sum "Si O2"
_cell_formula_units_Z 40
_cell_length_a 16.138202
_cell_length_b 9.023311
_cell_length_c 12.823516
_cell_angle_alpha 90.000000
_cell_angle_beta 90.000000
_cell_angle_gamma 90.000000
_cell_volume 1867.360600
_symmetry_space_group_name_H-M "P N N A"
_symmetry_group_IT_number 52
_symmetry_cell_setting 'orthorhombic'
loop_
_space_group_symop_operation_xyz
x,y,z
1/2-x,-y,z
x,1/2-y,1/2-z
1/2-x,1/2+y,1/2-z
-x,-y,-z
1/2+x,y,-z
-x,1/2+y,1/2+z
1/2+x,1/2-y,1/2+z
loop_
_atom_site_type_symbol
_atom_site_label
_atom_site_fract_x
_atom_site_fract_y
_atom_site_fract_z
Si Si1 0.322759 0.382306 0.444754
Si Si2 0.955596 0.900229 0.585971
Si Si3 0.085155 0.838671 0.851400
Si Si4 0.028778 0.584572 0.288248
Si Si5 0.287028 0.846214 0.347737
O O1 0.250000 0.500000 0.431400
O O2 0.341709 0.356536 0.566202
O O3 0.404566 0.426817 0.380713
O O4 0.292740 0.226358 0.400762
O O5 0.859867 0.855529 0.563306
O O6 0.008594 0.752461 0.599928
O O7 0.939303 0.990544 0.691323
O O8 0.000000 0.000000 0.500000
O O9 0.118858 0.750000 0.750000
O O10 0.055785 0.005845 0.825825
O O11 0.008166 0.750000 0.250000
O O12 0.319777 0.750000 0.250000
O O13 0.250000 0.000000 0.305152
#
# Coordination Sequence:
#
# PCOD8216782 Si02
#       5
#     8   8   8   8   8
#     4  12  24  40  63  92 125 162 207 262 317 373
#     4  11  22  39  61  89 124 164 205 252 309 374
#     4  10  23  43  62  85 122 164 208 254 307 375
#     4  11  22  38  64  93 121 158 206 258 312 379
#     4  12  23  38  62  95 129 162 203 258 319 373
#
# _framework density 21.420607
#
# number of rings (size 3 to 8) (size 9 to 14) (size 15 to 20)
#    0.000    0.800    0.000   10.800    0.000    1.600 
#    0.000    6.000    0.000    0.000    0.000    0.000 
#    0.000    0.000    0.000    0.000    0.000    0.000 
#
# Total GULP energy -495974.822056 kJ/mol
# GULP energy per Si atom -12399.370551 kJ/mol
# Density = 2.137185 g / cm^3
# Si number density = 21.420607 Si / 1000 Ang^3
#
#
#
# Elastic Constant Matrix: (Units=GPa)
#
#
# Indices 1 2 3 4 5 6 
#
# 1 68.3457 34.0312 49.8240 0.0000 0.0000 0.0000
# 2 34.0312 139.0579 36.3121 0.0000 0.0000 0.0000
# 3 49.8240 36.3121 122.8301 0.0000 0.0000 0.0000
# 4 0.0000 0.0000 0.0000 25.2594 0.0000 0.0000
# 5 0.0000 0.0000 0.0000 0.0000 39.5564 0.0000
# 6 0.0000 0.0000 0.0000 0.0000 0.0000 19.3494
#
#
#
# Elastic Compliance Matrix: (Units=1/GPa)
#
#
# Indices 1 2 3 4 5 6 
#
# 1 0.022108 -0.003325 -0.007985 0.000000 0.000000 0.000000
# 2 -0.003325 0.008293 -0.001103 0.000000 0.000000 0.000000
# 3 -0.007985 -0.001103 0.011706 0.000000 0.000000 0.000000
# 4 0.000000 0.000000 0.000000 0.039589 0.000000 0.000000
# 5 0.000000 0.000000 0.000000 0.000000 0.025280 0.000000
# 6 0.000000 0.000000 0.000000 0.000000 0.000000 0.051681
#
#
# Mechanical properties :
#
#
# Convention : Reuss Voigt Hill
#
# Bulk Modulus (GPa) = 57.86497 63.39648 60.63073
# Shear Modulus (GPa) = 26.42085 30.83748 28.62916
#
# Velocity S-wave (km/s) = 3.51583 3.79835 3.65982
# Velocity P-wave (km/s) = 6.59953 6.99263 6.79892
#
# Compressibility (1/GPa) = 0.01728161
#
# Stress axis : x y z
#
# Youngs Moduli (GPa) = 45.23213 120.58319 85.42475
#
# Poissons Ratio (x) = 0.40099 0.68209
# Poissons Ratio (y) = 0.15042 0.09420
# Poissons Ratio (z) = 0.36117 0.13297
#
# Static dielectric constant tensor:
#      x y z
#    x 3.797590 0.000000 0.000000 
#    y 0.000000 3.458680 0.000000 
#    z 0.000000 0.000000 3.951770 
# 
# 
# High freq. dielectric constant tensor:
#      x y z
#    x 1.828860 0.000000 0.000000 
#    y 0.000000 1.862840 0.000000 
#    z 0.000000 0.000000 1.830460 
# 
# From -- ./inp_files/20331.got.cif
#   From: 2010.06.25/outbox.cif.g09.slc.cpg/sg52_11_cif.got.tgz:20331.got - 2010.06.26 19:32:48.
