data_PCOD8216032
_publ_section_title
;
Structure prediction by ZEFSAII (Michael W. Deem and Ramdas Pophale) SiO2 
 PCOD8216032
Probable space group: P N N A
;
_chemical_formula_sum "Si O2"
_cell_formula_units_Z 44
_cell_length_a 8.777346
_cell_length_b 13.772064
_cell_length_c 17.374330
_cell_angle_alpha 90.000000
_cell_angle_beta 90.000000
_cell_angle_gamma 90.000000
_cell_volume 2100.246728
_symmetry_space_group_name_H-M "P N N A"
_symmetry_group_IT_number 52
_symmetry_cell_setting 'orthorhombic'
loop_
_space_group_symop_operation_xyz
x,y,z
1/2-x,-y,z
x,1/2-y,1/2-z
1/2-x,1/2+y,1/2-z
-x,-y,-z
1/2+x,y,-z
-x,1/2+y,1/2+z
1/2+x,1/2-y,1/2+z
loop_
_atom_site_type_symbol
_atom_site_label
_atom_site_fract_x
_atom_site_fract_y
_atom_site_fract_z
Si Si1 0.234941 0.134425 0.106204
Si Si2 0.076090 0.999475 0.671258
Si Si3 0.507165 0.982724 0.842521
Si Si4 0.250000 0.500000 0.534482
Si Si5 0.602815 0.341587 0.918299
Si Si6 0.076905 0.908045 0.456794
O O1 0.405433 0.119400 0.140816
O O2 0.180749 0.244735 0.113487
O O3 0.125589 0.071008 0.160014
O O4 0.235239 0.095952 0.018315
O O5 0.988856 0.898567 0.649202
O O6 0.250000 0.000000 0.642185
O O7 0.990596 0.089782 0.629704
O O8 0.078317 0.020669 0.761704
O O9 0.396418 0.007562 0.912330
O O10 0.740452 0.408448 0.951382
O O11 0.486390 0.318941 0.989953
O O12 0.000000 0.000000 0.500000
#
# Coordination Sequence:
#
# PCOD8216032 Si02
#       6
#     8   8   8   4   8   8
#     4  10  23  39  68  95 127 163 219 267 320 377
#     4  11  22  43  64  90 129 176 212 259 329 389
#     4  10  22  41  67  91 131 174 205 261 335 383
#     4  10  20  42  68  92 126 166 214 262 324 376
#     4  11  24  39  70  96 129 165 223 268 311 391
#     4  10  21  39  64  92 124 168 210 260 320 378
#
# _framework density 20.949919000000001
#
# number of rings (size 3 to 8) (size 9 to 14) (size 15 to 20)
#    0.000    1.818    0.909    6.545   10.182    0.727 
#    0.000    0.000    4.000    0.000    0.000    0.000 
#    0.000    0.000    0.000    0.000    0.000    0.000 
#
# Total GULP energy -545153.640650 kJ/mol
# GULP energy per Si atom -12389.855469 kJ/mol
# Density = 2.090224 g / cm^3
# Si number density = 20.949919 Si / 1000 Ang^3
#
#
#
# Elastic Constant Matrix: (Units=GPa)
#
#
# Indices 1 2 3 4 5 6 
#
# 1 132.4728 26.3958 30.4867 0.0000 0.0000 0.0000
# 2 26.3958 101.9860 12.5930 0.0000 0.0000 0.0000
# 3 30.4867 12.5930 111.7456 0.0000 0.0000 0.0000
# 4 0.0000 0.0000 0.0000 12.7728 0.0000 0.0000
# 5 0.0000 0.0000 0.0000 0.0000 35.3343 0.0000
# 6 0.0000 0.0000 0.0000 0.0000 0.0000 23.4757
#
#
#
# Elastic Compliance Matrix: (Units=1/GPa)
#
#
# Indices 1 2 3 4 5 6 
#
# 1 0.008409 -0.001920 -0.002078 0.000000 0.000000 0.000000
# 2 -0.001920 0.010382 -0.000646 0.000000 0.000000 0.000000
# 3 -0.002078 -0.000646 0.009589 0.000000 0.000000 0.000000
# 4 0.000000 0.000000 0.000000 0.078291 0.000000 0.000000
# 5 0.000000 0.000000 0.000000 0.000000 0.028301 0.000000
# 6 0.000000 0.000000 0.000000 0.000000 0.000000 0.042597
#
#
# Mechanical properties :
#
#
# Convention : Reuss Voigt Hill
#
# Bulk Modulus (GPa) = 52.37804 53.90616 53.14210
# Shear Modulus (GPa) = 25.87701 32.76516 29.32109
#
# Velocity S-wave (km/s) = 3.51833 3.95900 3.74515
# Velocity P-wave (km/s) = 6.44676 6.83265 6.64251
#
# Compressibility (1/GPa) = 0.01909197
#
# Stress axis : x y z
#
# Youngs Moduli (GPa) = 118.91346 96.32085 104.29027
#
# Poissons Ratio (x) = 0.18493 0.21671
# Poissons Ratio (y) = 0.22831 0.06739
# Poissons Ratio (z) = 0.24709 0.06224
#
# Static dielectric constant tensor:
#      x y z
#    x 4.249300 0.000000 0.000000 
#    y 0.000000 3.572670 0.000000 
#    z 0.000000 0.000000 3.943850 
# 
# 
# High freq. dielectric constant tensor:
#      x y z
#    x 1.846160 0.000000 0.000000 
#    y 0.000000 1.782840 0.000000 
#    z 0.000000 0.000000 1.821080 
# 
# From -- ./inp_files/31160.got.cif
#   From: 2010.06.25/outbox.cif.g09.slc.cpg/sg52_16_cif.got.tgz:31160.got - 2010.06.26 19:32:48.
