data_PCOD8216337
_publ_section_title
;
Structure prediction by ZEFSAII (Michael W. Deem and Ramdas Pophale) SiO2 
 PCOD8216337
Probable space group: P N N A
;
_chemical_formula_sum "Si O2"
_cell_formula_units_Z 48
_cell_length_a 24.915357
_cell_length_b 20.071080
_cell_length_c 4.935527
_cell_angle_alpha 90.000000
_cell_angle_beta 90.000000
_cell_angle_gamma 90.000000
_cell_volume 2468.149081
_symmetry_space_group_name_H-M "P N N A"
_symmetry_group_IT_number 52
_symmetry_cell_setting 'orthorhombic'
loop_
_space_group_symop_operation_xyz
x,y,z
1/2-x,-y,z
x,1/2-y,1/2-z
1/2-x,1/2+y,1/2-z
-x,-y,-z
1/2+x,y,-z
-x,1/2+y,1/2+z
1/2+x,1/2-y,1/2+z
loop_
_atom_site_type_symbol
_atom_site_label
_atom_site_fract_x
_atom_site_fract_y
_atom_site_fract_z
Si Si1 0.737741 0.676235 0.292082
Si Si2 0.687938 0.494759 0.884815
Si Si3 0.415910 0.250000 0.250000
Si Si4 0.589646 0.294073 0.516609
Si Si5 0.511287 0.750000 0.250000
Si Si6 0.171436 0.643469 0.207265
Si Si7 0.165295 0.088052 0.864749
O O1 0.759885 0.750000 0.250000
O O2 0.720580 0.663607 0.600225
O O3 0.787470 0.629521 0.221535
O O4 0.686966 0.663553 0.098079
O O5 0.750000 0.500000 0.982054
O O6 0.661621 0.564344 0.789467
O O7 0.686887 0.445838 0.632992
O O8 0.651475 0.466845 0.134157
O O9 0.451345 0.227289 0.504407
O O10 0.380183 0.315445 0.310261
O O11 0.621037 0.250000 0.750000
O O12 0.529275 0.308116 0.637289
O O13 0.615867 0.364807 0.447084
O O14 0.585071 0.250000 0.250000
#
# Coordination Sequence:
#
# PCOD8216337 Si02
#       7
#     8   8   4   8   4   8   8
#     4  12  21  36  55  90 126 162 195 259 289 363
#     4  12  23  40  57  87 132 182 205 236 292 380
#     4  12  22  42  65  90 113 164 200 282 316 354
#     4  10  21  41  64  98 117 152 207 266 320 379
#     4  10  22  42  69  88 119 148 208 280 334 362
#     4  12  24  38  59  88 126 162 214 236 305 376
#     4  12  23  37  65  86 132 170 201 246 313 366
#
# _framework density 19.447769999999998
#
# number of rings (size 3 to 8) (size 9 to 14) (size 15 to 20)
#    0.500    0.000    5.833    4.000    0.000    1.333 
#    0.000    0.000    0.000    6.000    0.000    0.000 
#    0.000    0.000    0.000    0.000    0.000    0.000 
#
# Total GULP energy -594990.671838 kJ/mol
# GULP energy per Si atom -12395.638997 kJ/mol
# Density = 1.940351 g / cm^3
# Si number density = 19.447770 Si / 1000 Ang^3
#
#
#
# Elastic Constant Matrix: (Units=GPa)
#
#
# Indices 1 2 3 4 5 6 
#
# 1 82.2006 51.6433 28.4999 0.0000 0.0000 0.0000
# 2 51.6433 115.4909 33.7531 0.0000 0.0000 0.0000
# 3 28.4999 33.7531 113.3141 0.0000 0.0000 0.0000
# 4 0.0000 0.0000 0.0000 38.5468 0.0000 0.0000
# 5 0.0000 0.0000 0.0000 0.0000 17.6323 0.0000
# 6 0.0000 0.0000 0.0000 0.0000 0.0000 7.7471
#
#
#
# Elastic Compliance Matrix: (Units=1/GPa)
#
#
# Indices 1 2 3 4 5 6 
#
# 1 0.017431 -0.007134 -0.002259 0.000000 0.000000 0.000000
# 2 -0.007134 0.012404 -0.001901 0.000000 0.000000 0.000000
# 3 -0.002259 -0.001901 0.009959 0.000000 0.000000 0.000000
# 4 0.000000 0.000000 0.000000 0.025942 0.000000 0.000000
# 5 0.000000 0.000000 0.000000 0.000000 0.056714 0.000000
# 6 0.000000 0.000000 0.000000 0.000000 0.000000 0.129081
#
#
# Mechanical properties :
#
#
# Convention : Reuss Voigt Hill
#
# Bulk Modulus (GPa) = 58.11623 59.86646 58.99135
# Shear Modulus (GPa) = 17.86642 25.92585 21.89614
#
# Velocity S-wave (km/s) = 3.03427 3.65513 3.35908
# Velocity P-wave (km/s) = 6.49799 6.97591 6.74119
#
# Compressibility (1/GPa) = 0.01720690
#
# Stress axis : x y z
#
# Youngs Moduli (GPa) = 57.37007 80.61729 100.40859
#
# Poissons Ratio (x) = 0.57514 0.22682
# Poissons Ratio (y) = 0.40929 0.19083
# Poissons Ratio (z) = 0.12960 0.15322
#
# Static dielectric constant tensor:
#      x y z
#    x 3.335390 0.000000 0.000000 
#    y 0.000000 3.768030 0.000000 
#    z 0.000000 0.000000 3.764370 
# 
# 
# High freq. dielectric constant tensor:
#      x y z
#    x 1.721570 0.000000 0.000000 
#    y 0.000000 1.750210 0.000000 
#    z 0.000000 0.000000 1.785210 
# 
# From -- ./inp_files/5147.got.cif
#   From: 2010.06.25/outbox.cif.g09.slc.cpg/sg52_3_cif.got.tgz:5147.got - 2010.06.26 19:32:48.
