data_PCOD8216380
_publ_section_title
;
Structure prediction by ZEFSAII (Michael W. Deem and Ramdas Pophale) SiO2 
 PCOD8216380
Probable space group: P N N A
;
_chemical_formula_sum "Si O2"
_cell_formula_units_Z 64
_cell_length_a 23.484596
_cell_length_b 8.208104
_cell_length_c 14.841589
_cell_angle_alpha 90.000000
_cell_angle_beta 90.000000
_cell_angle_gamma 90.000000
_cell_volume 2860.924156
_symmetry_space_group_name_H-M "P N N A"
_symmetry_group_IT_number 52
_symmetry_cell_setting 'orthorhombic'
loop_
_space_group_symop_operation_xyz
x,y,z
1/2-x,-y,z
x,1/2-y,1/2-z
1/2-x,1/2+y,1/2-z
-x,-y,-z
1/2+x,y,-z
-x,1/2+y,1/2+z
1/2+x,1/2-y,1/2+z
loop_
_atom_site_type_symbol
_atom_site_label
_atom_site_fract_x
_atom_site_fract_y
_atom_site_fract_z
Si Si1 0.234570 0.812667 0.152176
Si Si2 0.049930 0.302614 0.148368
Si Si3 0.951099 0.249423 0.476488
Si Si4 0.994643 0.161189 0.659387
Si Si5 0.108787 0.038638 0.603703
Si Si6 0.791298 0.152327 0.338940
Si Si7 0.332054 0.120512 0.989820
Si Si8 0.662658 0.258692 0.538236
O O1 0.217637 0.750000 0.250000
O O2 0.286857 0.709421 0.107619
O O3 0.250000 0.000000 0.162771
O O4 0.179464 0.795952 0.087348
O O5 0.056279 0.250000 0.250000
O O6 0.104665 0.240908 0.094401
O O7 0.996117 0.212407 0.102454
O O8 0.040888 0.495902 0.148004
O O9 0.898355 0.370696 0.464482
O O10 0.980206 0.274259 0.573606
O O11 0.928640 0.063593 0.467955
O O12 0.974860 0.250000 0.750000
O O13 0.063514 0.140244 0.662421
O O14 0.155306 0.141138 0.547470
O O15 0.144557 0.920645 0.669962
O O16 0.773463 0.250000 0.250000
O O17 0.790981 0.284349 0.419882
O O18 0.750000 0.000000 0.356748
O O19 0.317706 0.930255 0.994805
#
# Coordination Sequence:
#
# PCOD8216380 Si02
#       8
#     8   8   8   8   8   8   8   8
#     4  10  23  42  62  94 129 168 220 272 334 406
#     4  11  23  40  64  96 133 179 225 286 349 409
#     4  10  21  43  61  90 135 179 227 280 346 416
#     4  11  23  39  62  94 135 182 231 279 340 412
#     4  10  21  42  68  89 135 181 223 277 348 402
#     4  11  26  46  70 103 134 176 229 284 339 407
#     4  10  25  42  68  97 134 176 228 281 344 408
#     4  11  21  41  69  95 136 177 224 280 346 417
#
# _framework density 22.370393
#
# number of rings (size 3 to 8) (size 9 to 14) (size 15 to 20)
#    0.000    1.500    2.500    1.875    1.750   13.000 
#    2.250    0.000    0.000    0.000    0.000    0.000 
#    0.000    0.000    0.000    0.000    0.000    0.000 
#
# Total GULP energy -793433.055001 kJ/mol
# GULP energy per Si atom -12397.391484 kJ/mol
# Density = 2.231948 g / cm^3
# Si number density = 22.370393 Si / 1000 Ang^3
#
#
#
# Elastic Constant Matrix: (Units=GPa)
#
#
# Indices 1 2 3 4 5 6 
#
# 1 79.5713 17.6890 14.2950 0.0000 0.0000 0.0000
# 2 17.6890 53.0343 40.7148 0.0000 0.0000 0.0000
# 3 14.2950 40.7148 107.1204 0.0000 0.0000 0.0000
# 4 0.0000 0.0000 0.0000 34.8753 0.0000 0.0000
# 5 0.0000 0.0000 0.0000 0.0000 31.7355 0.0000
# 6 0.0000 0.0000 0.0000 0.0000 0.0000 31.2773
#
#
#
# Elastic Compliance Matrix: (Units=1/GPa)
#
#
# Indices 1 2 3 4 5 6 
#
# 1 0.013575 -0.004430 -0.000128 0.000000 0.000000 0.000000
# 2 -0.004430 0.028070 -0.010078 0.000000 0.000000 0.000000
# 3 -0.000128 -0.010078 0.013183 0.000000 0.000000 0.000000
# 4 0.000000 0.000000 0.000000 0.028674 0.000000 0.000000
# 5 0.000000 0.000000 0.000000 0.000000 0.031510 0.000000
# 6 0.000000 0.000000 0.000000 0.000000 0.000000 0.031972
#
#
# Mechanical properties :
#
#
# Convention : Reuss Voigt Hill
#
# Bulk Modulus (GPa) = 39.12810 42.79151 40.95981
# Shear Modulus (GPa) = 27.06016 30.71279 28.88648
#
# Velocity S-wave (km/s) = 3.48176 3.70932 3.59734
# Velocity P-wave (km/s) = 5.80453 6.12499 5.96691
#
# Compressibility (1/GPa) = 0.02555708
#
# Stress axis : x y z
#
# Youngs Moduli (GPa) = 73.66463 35.62529 75.85654
#
# Poissons Ratio (x) = 0.15780 0.00971
# Poissons Ratio (y) = 0.32630 0.76447
# Poissons Ratio (z) = 0.00943 0.35903
#
# Static dielectric constant tensor:
#      x y z
#    x 4.139270 0.000000 0.000000 
#    y 0.000000 3.874640 0.000000 
#    z 0.000000 0.000000 4.073920 
# 
# 
# High freq. dielectric constant tensor:
#      x y z
#    x 1.889980 0.000000 0.000000 
#    y 0.000000 1.868280 0.000000 
#    z 0.000000 0.000000 1.880610 
# 
# From -- ./inp_files/29221.got.cif
#   From: 2010.06.25/outbox.cif.g09.slc.cpg/sg52_15_cif.got.tgz:29221.got - 2010.06.26 19:32:48.
