data_PCOD8216170
_publ_section_title
;
Structure prediction by ZEFSAII (Michael W. Deem and Ramdas Pophale) SiO2 
 PCOD8216170
Probable space group: P N N A
;
_chemical_formula_sum "Si O2"
_cell_formula_units_Z 56
_cell_length_a 25.258972
_cell_length_b 18.466173
_cell_length_c 6.374147
_cell_angle_alpha 90.000000
_cell_angle_beta 90.000000
_cell_angle_gamma 90.000000
_cell_volume 2973.135115
_symmetry_space_group_name_H-M "P N N A"
_symmetry_group_IT_number 52
_symmetry_cell_setting 'orthorhombic'
loop_
_space_group_symop_operation_xyz
x,y,z
1/2-x,-y,z
x,1/2-y,1/2-z
1/2-x,1/2+y,1/2-z
-x,-y,-z
1/2+x,y,-z
-x,1/2+y,1/2+z
1/2+x,1/2-y,1/2+z
loop_
_atom_site_type_symbol
_atom_site_label
_atom_site_fract_x
_atom_site_fract_y
_atom_site_fract_z
Si Si1 0.250000 0.000000 0.504381
Si Si2 0.192422 0.436789 0.343066
Si Si3 0.435399 0.564161 0.938667
Si Si4 0.860824 0.813054 0.602683
Si Si5 0.879816 0.036116 0.102038
Si Si6 0.275541 0.389946 0.653951
Si Si7 0.284370 0.750000 0.750000
Si Si8 0.968640 0.467483 0.690461
O O1 0.197955 0.011384 0.360087
O O2 0.254209 0.072313 0.637232
O O3 0.171552 0.359413 0.270572
O O4 0.151807 0.467935 0.510324
O O5 0.250544 0.428290 0.449069
O O6 0.407315 0.499321 0.806700
O O7 0.491764 0.583977 0.825017
O O8 0.403321 0.638598 0.972384
O O9 0.446319 0.532529 0.167994
O O10 0.887228 0.750000 0.750000
O O11 0.821057 0.780130 0.433412
O O12 0.839287 0.101235 0.154861
O O13 0.919156 0.071038 0.926723
O O14 0.256258 0.308174 0.656191
O O15 0.000000 0.500000 0.500000
#
# Coordination Sequence:
#
# PCOD8216170 Si02
#       8
#     4   8   8   8   8   8   4   8
#     4  12  20  34  58  82 120 158 204 256 282 344
#     4  12  21  35  55  90 121 153 209 247 293 366
#     4  10  21  38  60  94 117 148 204 260 316 356
#     4  12  24  36  58  85 127 169 196 246 315 378
#     4  11  20  35  60  90 117 156 202 256 307 358
#     4  12  23  35  54  87 122 164 204 243 296 367
#     4  12  26  40  52  90 132 166 204 242 302 378
#     4   9  20  37  63  93 114 139 193 274 308 357
#
# _framework density 18.835336999999999
#
# number of rings (size 3 to 8) (size 9 to 14) (size 15 to 20)
#    0.000    0.857    7.143    1.714    0.000    0.000 
#    0.000    0.000    0.000    0.000   31.571    0.000 
#    0.000    0.000    0.000    0.000    0.000    0.000 
#
# Total GULP energy -693876.152960 kJ/mol
# GULP energy per Si atom -12390.645589 kJ/mol
# Density = 1.879247 g / cm^3
# Si number density = 18.835337 Si / 1000 Ang^3
#
#
#
# Elastic Constant Matrix: (Units=GPa)
#
#
# Indices 1 2 3 4 5 6 
#
# 1 112.9520 47.7655 45.7554 0.0000 0.0000 0.0000
# 2 47.7655 92.2020 36.9909 0.0000 0.0000 0.0000
# 3 45.7554 36.9909 95.3381 0.0000 0.0000 0.0000
# 4 0.0000 0.0000 0.0000 30.4117 0.0000 0.0000
# 5 0.0000 0.0000 0.0000 0.0000 44.4322 0.0000
# 6 0.0000 0.0000 0.0000 0.0000 0.0000 26.2535
#
#
#
# Elastic Compliance Matrix: (Units=1/GPa)
#
#
# Indices 1 2 3 4 5 6 
#
# 1 0.012591 -0.004854 -0.004159 0.000000 0.000000 0.000000
# 2 -0.004854 0.014717 -0.003380 0.000000 0.000000 0.000000
# 3 -0.004159 -0.003380 0.013797 0.000000 0.000000 0.000000
# 4 0.000000 0.000000 0.000000 0.032882 0.000000 0.000000
# 5 0.000000 0.000000 0.000000 0.000000 0.022506 0.000000
# 6 0.000000 0.000000 0.000000 0.000000 0.000000 0.038090
#
#
# Mechanical properties :
#
#
# Convention : Reuss Voigt Hill
#
# Bulk Modulus (GPa) = 61.28713 62.39064 61.83888
# Shear Modulus (GPa) = 30.33808 31.55148 30.94478
#
# Velocity S-wave (km/s) = 4.01771 4.09727 4.05768
# Velocity P-wave (km/s) = 7.35742 7.45517 7.40646
#
# Compressibility (1/GPa) = 0.01631664
#
# Stress axis : x y z
#
# Youngs Moduli (GPa) = 79.42234 67.95045 72.48064
#
# Poissons Ratio (x) = 0.32983 0.30147
# Poissons Ratio (y) = 0.38552 0.24501
# Poissons Ratio (z) = 0.33035 0.22970
#
# Static dielectric constant tensor:
#      x y z
#    x 3.947910 0.000000 0.000000 
#    y 0.000000 3.213240 0.000000 
#    z 0.000000 0.000000 3.874050 
# 
# 
# High freq. dielectric constant tensor:
#      x y z
#    x 1.733580 0.000000 0.000000 
#    y 0.000000 1.690780 0.000000 
#    z 0.000000 0.000000 1.761850 
# 
# From -- ./inp_files/5995.got.cif
#   From: 2010.06.25/outbox.cif.g09.slc.cpg/sg52_3_cif.got.tgz:5995.got - 2010.06.26 19:32:48.
