data_PCOD8216324
_publ_section_title
;
Structure prediction by ZEFSAII (Michael W. Deem and Ramdas Pophale) SiO2 
 PCOD8216324
Probable space group: P N N A
;
_chemical_formula_sum "Si O2"
_cell_formula_units_Z 60
_cell_length_a 16.649809
_cell_length_b 9.315263
_cell_length_c 18.463078
_cell_angle_alpha 90.000000
_cell_angle_beta 90.000000
_cell_angle_gamma 90.000000
_cell_volume 2863.574466
_symmetry_space_group_name_H-M "P N N A"
_symmetry_group_IT_number 52
_symmetry_cell_setting 'orthorhombic'
loop_
_space_group_symop_operation_xyz
x,y,z
1/2-x,-y,z
x,1/2-y,1/2-z
1/2-x,1/2+y,1/2-z
-x,-y,-z
1/2+x,y,-z
-x,1/2+y,1/2+z
1/2+x,1/2-y,1/2+z
loop_
_atom_site_type_symbol
_atom_site_label
_atom_site_fract_x
_atom_site_fract_y
_atom_site_fract_z
Si Si1 0.655424 0.690690 0.049635
Si Si2 0.610216 0.000711 0.321750
Si Si3 0.831013 0.068373 0.860206
Si Si4 0.250000 0.000000 0.783409
Si Si5 0.673607 0.603822 0.891515
Si Si6 0.053713 0.584629 0.233299
Si Si7 0.594827 0.994680 0.011034
Si Si8 0.179795 0.274702 0.608243
O O1 0.606874 0.605644 0.110467
O O2 0.619275 0.850123 0.052243
O O3 0.751765 0.693947 0.061772
O O4 0.641134 0.608910 0.973795
O O5 0.678713 0.946031 0.267859
O O6 0.528621 0.997732 0.275764
O O7 0.623990 0.161323 0.351137
O O8 0.807902 0.235116 0.865928
O O9 0.899142 0.026639 0.802830
O O10 0.750000 0.000000 0.831206
O O11 0.858110 0.999651 0.935675
O O12 0.275578 0.867013 0.831636
O O13 0.750000 0.500000 0.883374
O O14 0.602543 0.550001 0.839874
O O15 0.035193 0.750000 0.250000
O O16 0.622559 0.130913 0.057439
O O17 0.500000 0.000000 0.000000
#
# Coordination Sequence:
#
# PCOD8216324 Si02
#       8
#     8   8   8   4   8   8   8   8
#     4  11  23  45  63 101 134 174 226 271 328 409
#     4  12  26  41  68 100 134 178 221 278 337 398
#     4  10  22  43  69  95 129 172 225 271 331 401
#     4  12  24  40  70  96 132 176 226 260 338 410
#     4  10  21  40  70  94 128 173 219 271 329 396
#     4  10  23  42  66  94 132 175 221 269 335 395
#     4  11  25  42  70 100 132 175 222 281 337 401
#     4  12  23  43  70  94 134 181 222 270 336 408
#
# _framework density 20.952832999999998
#
# number of rings (size 3 to 8) (size 9 to 14) (size 15 to 20)
#    0.000    1.067    2.667    4.000    7.467    0.533 
#    4.800    0.000    0.000    0.000    0.000    0.000 
#    0.000    0.000    0.000    0.000    0.000    0.000 
#
# Total GULP energy -744228.282123 kJ/mol
# GULP energy per Si atom -12403.804702 kJ/mol
# Density = 2.090514 g / cm^3
# Si number density = 20.952833 Si / 1000 Ang^3
#
#
#
# Elastic Constant Matrix: (Units=GPa)
#
#
# Indices 1 2 3 4 5 6 
#
# 1 138.0031 39.3590 50.1967 0.0000 0.0000 0.0000
# 2 39.3590 68.9519 44.9353 0.0000 0.0000 0.0000
# 3 50.1967 44.9353 134.1415 0.0000 0.0000 0.0000
# 4 0.0000 0.0000 0.0000 21.1421 0.0000 0.0000
# 5 0.0000 0.0000 0.0000 0.0000 38.1912 0.0000
# 6 0.0000 0.0000 0.0000 0.0000 0.0000 30.6033
#
#
#
# Elastic Compliance Matrix: (Units=1/GPa)
#
#
# Indices 1 2 3 4 5 6 
#
# 1 0.009108 -0.003810 -0.002132 0.000000 0.000000 0.000000
# 2 -0.003810 0.020147 -0.005323 0.000000 0.000000 0.000000
# 3 -0.002132 -0.005323 0.010036 0.000000 0.000000 0.000000
# 4 0.000000 0.000000 0.000000 0.047299 0.000000 0.000000
# 5 0.000000 0.000000 0.000000 0.000000 0.026184 0.000000
# 6 0.000000 0.000000 0.000000 0.000000 0.000000 0.032676
#
#
# Mechanical properties :
#
#
# Convention : Reuss Voigt Hill
#
# Bulk Modulus (GPa) = 59.66357 67.78652 63.72504
# Shear Modulus (GPa) = 28.80734 31.76102 30.28418
#
# Velocity S-wave (km/s) = 3.71194 3.89760 3.80590
# Velocity P-wave (km/s) = 6.84897 7.25791 7.05640
#
# Compressibility (1/GPa) = 0.01676065
#
# Stress axis : x y z
#
# Youngs Moduli (GPa) = 109.78992 49.63633 99.64244
#
# Poissons Ratio (x) = 0.18910 0.21246
# Poissons Ratio (y) = 0.41826 0.53041
# Poissons Ratio (z) = 0.23410 0.26422
#
# Static dielectric constant tensor:
#      x y z
#    x 3.765920 0.000000 0.000000 
#    y 0.000000 3.756150 0.000000 
#    z 0.000000 0.000000 4.103770 
# 
# 
# High freq. dielectric constant tensor:
#      x y z
#    x 1.820200 0.000000 0.000000 
#    y 0.000000 1.813170 0.000000 
#    z 0.000000 0.000000 1.840840 
# 
# From -- ./inp_files/33769.got.cif
#   From: 2010.06.25/outbox.cif.g09.slc.cpg/sg52_17_cif.got.tgz:33769.got - 2010.06.26 19:32:48.
