data_PCOD8216531
_publ_section_title
;
Structure prediction by ZEFSAII (Michael W. Deem and Ramdas Pophale) SiO2 
 PCOD8216531
Probable space group: P N N A
;
_chemical_formula_sum "Si O2"
_cell_formula_units_Z 32
_cell_length_a 18.659594
_cell_length_b 7.325599
_cell_length_c 11.047888
_cell_angle_alpha 90.000000
_cell_angle_beta 90.000000
_cell_angle_gamma 90.000000
_cell_volume 1510.165675
_symmetry_space_group_name_H-M "P N N A"
_symmetry_group_IT_number 52
_symmetry_cell_setting 'orthorhombic'
loop_
_space_group_symop_operation_xyz
x,y,z
1/2-x,-y,z
x,1/2-y,1/2-z
1/2-x,1/2+y,1/2-z
-x,-y,-z
1/2+x,y,-z
-x,1/2+y,1/2+z
1/2+x,1/2-y,1/2+z
loop_
_atom_site_type_symbol
_atom_site_label
_atom_site_fract_x
_atom_site_fract_y
_atom_site_fract_z
Si Si1 0.667061 0.478153 0.482599
Si Si2 0.917464 0.342579 0.007163
Si Si3 0.067843 0.197378 0.387200
Si Si4 0.827783 0.042143 0.284690
O O1 0.750000 0.500000 0.515867
O O2 0.632331 0.670901 0.518906
O O3 0.633116 0.315327 0.559518
O O4 0.657543 0.427917 0.339126
O O5 0.889805 0.477892 0.115584
O O6 0.995921 0.263621 0.036294
O O7 0.916659 0.479180 0.892269
O O8 0.053634 0.250000 0.250000
O O9 0.826946 0.250000 0.250000
O O10 0.750000 0.000000 0.342112
#
# Coordination Sequence:
#
# PCOD8216531 Si02
#       4
#     8   8   8   8
#     4  10  22  40  62  92 123 162 209 262 312 370
#     4  10  23  40  65  91 124 163 205 266 314 362
#     4  11  24  42  61  91 128 169 211 249 309 384
#     4   9  19  34  60  93 118 147 201 264 316 360
#
# _framework density 21.189727000000001
#
# number of rings (size 3 to 8) (size 9 to 14) (size 15 to 20)
#    0.000    2.000    0.000    3.000   10.500    1.000 
#    4.500    5.000    0.000    0.000    0.000    0.000 
#    0.000    0.000    0.000    0.000    0.000    0.000 
#
# Total GULP energy -396698.688019 kJ/mol
# GULP energy per Si atom -12396.834001 kJ/mol
# Density = 2.114150 g / cm^3
# Si number density = 21.189727 Si / 1000 Ang^3
#
#
#
# Elastic Constant Matrix: (Units=GPa)
#
#
# Indices 1 2 3 4 5 6 
#
# 1 129.0071 49.4530 19.9795 0.0000 0.0000 0.0000
# 2 49.4530 76.2227 38.9158 0.0000 0.0000 0.0000
# 3 19.9795 38.9158 57.9943 0.0000 0.0000 0.0000
# 4 0.0000 0.0000 0.0000 35.8073 0.0000 0.0000
# 5 0.0000 0.0000 0.0000 0.0000 21.5853 0.0000
# 6 0.0000 0.0000 0.0000 0.0000 0.0000 39.6238
#
#
#
# Elastic Compliance Matrix: (Units=1/GPa)
#
#
# Indices 1 2 3 4 5 6 
#
# 1 0.010396 -0.007478 0.001437 0.000000 0.000000 0.000000
# 2 -0.007478 0.025336 -0.014425 0.000000 0.000000 0.000000
# 3 0.001437 -0.014425 0.026428 0.000000 0.000000 0.000000
# 4 0.000000 0.000000 0.000000 0.027927 0.000000 0.000000
# 5 0.000000 0.000000 0.000000 0.000000 0.046328 0.000000
# 6 0.000000 0.000000 0.000000 0.000000 0.000000 0.025237
#
#
# Mechanical properties :
#
#
# Convention : Reuss Voigt Hill
#
# Bulk Modulus (GPa) = 47.11088 53.32453 50.21770
# Shear Modulus (GPa) = 23.84818 29.72833 26.78825
#
# Velocity S-wave (km/s) = 3.35843 3.74967 3.55943
# Velocity P-wave (km/s) = 6.10900 6.63073 6.37521
#
# Compressibility (1/GPa) = 0.02122652
#
# Stress axis : x y z
#
# Youngs Moduli (GPa) = 96.19400 39.46973 37.83932
#
# Poissons Ratio (x) = 0.29516 -0.05436
# Poissons Ratio (y) = 0.71935 0.54582
# Poissons Ratio (z) = -0.13820 0.56934
#
# Static dielectric constant tensor:
#      x y z
#    x 3.819440 0.000000 0.000000 
#    y 0.000000 3.876920 0.000000 
#    z 0.000000 0.000000 4.474790 
# 
# 
# High freq. dielectric constant tensor:
#      x y z
#    x 1.840760 0.000000 0.000000 
#    y 0.000000 1.838330 0.000000 
#    z 0.000000 0.000000 1.803310 
# 
# From -- ./inp_files/20217.got.cif
#   From: 2010.06.25/outbox.cif.g09.slc.cpg/sg52_11_cif.got.tgz:20217.got - 2010.06.26 19:32:48.
