data_PCOD8216460
_publ_section_title
;
Structure prediction by ZEFSAII (Michael W. Deem and Ramdas Pophale) SiO2 
 PCOD8216460
Probable space group: P N N A
;
_chemical_formula_sum "Si O2"
_cell_formula_units_Z 44
_cell_length_a 13.213755
_cell_length_b 8.553929
_cell_length_c 19.518976
_cell_angle_alpha 90.000000
_cell_angle_beta 90.000000
_cell_angle_gamma 90.000000
_cell_volume 2206.220529
_symmetry_space_group_name_H-M "P N N A"
_symmetry_group_IT_number 52
_symmetry_cell_setting 'orthorhombic'
loop_
_space_group_symop_operation_xyz
x,y,z
1/2-x,-y,z
x,1/2-y,1/2-z
1/2-x,1/2+y,1/2-z
-x,-y,-z
1/2+x,y,-z
-x,1/2+y,1/2+z
1/2+x,1/2-y,1/2+z
loop_
_atom_site_type_symbol
_atom_site_label
_atom_site_fract_x
_atom_site_fract_y
_atom_site_fract_z
Si Si1 0.637883 0.799596 0.064090
Si Si2 0.361403 0.023253 0.653993
Si Si3 0.985892 0.250000 0.250000
Si Si4 0.947521 0.574565 0.620827
Si Si5 0.562695 0.300163 0.319408
Si Si6 0.250000 0.500000 0.454576
Si Si7 0.750000 0.000000 0.173759
O O1 0.644500 0.614072 0.080282
O O2 0.519384 0.847783 0.062515
O O3 0.684150 0.879683 0.130596
O O4 0.699695 0.858896 0.998238
O O5 0.418715 0.118503 0.713298
O O6 0.250000 0.000000 0.685392
O O7 0.409995 0.854607 0.636872
O O8 0.055005 0.330995 0.307700
O O9 0.834341 0.577661 0.592740
O O10 0.987921 0.398769 0.632892
O O11 0.504552 0.250000 0.250000
O O12 0.662449 0.395126 0.290176
#
# Coordination Sequence:
#
# PCOD8216460 Si02
#       7
#     8   8   4   8   8   4   4
#     4   9  20  37  60  85 117 153 211 247 294 361
#     4  11  21  32  59  92 129 156 194 256 316 368
#     4  10  22  38  56  92 126 162 198 258 308 372
#     4  10  22  40  63  89 118 162 207 255 309 362
#     4  11  21  31  55  91 127 154 193 248 318 375
#     4  11  22  44  68  82 114 180 211 246 302 375
#     4   9  18  30  50  86 116 158 185 236 300 365
#
# _framework density 19.94361
#
# number of rings (size 3 to 8) (size 9 to 14) (size 15 to 20)
#    0.000    1.818    3.636    0.545    2.545    0.000 
#    4.909    0.909    4.000    0.000    0.000    0.000 
#    0.000    0.000    0.000    0.000    0.000    0.000 
#
# Total GULP energy -545237.633414 kJ/mol
# GULP energy per Si atom -12391.764396 kJ/mol
# Density = 1.989822 g / cm^3
# Si number density = 19.943610 Si / 1000 Ang^3
#
#
#
# Elastic Constant Matrix: (Units=GPa)
#
#
# Indices 1 2 3 4 5 6 
#
# 1 122.3224 43.5006 56.6761 0.0000 0.0000 0.0000
# 2 43.5006 140.9029 48.8078 0.0000 0.0000 0.0000
# 3 56.6761 48.8078 90.2799 0.0000 0.0000 0.0000
# 4 0.0000 0.0000 0.0000 20.8873 0.0000 0.0000
# 5 0.0000 0.0000 0.0000 0.0000 -112.6805 0.0000
# 6 0.0000 0.0000 0.0000 0.0000 0.0000 13.8996
#
#
#
# Elastic Compliance Matrix: (Units=1/GPa)
#
#
# Indices 1 2 3 4 5 6 
#
# 1 0.011724 -0.001317 -0.006648 0.000000 0.000000 0.000000
# 2 -0.001317 0.008880 -0.003974 0.000000 0.000000 0.000000
# 3 -0.006648 -0.003974 0.017399 0.000000 0.000000 0.000000
# 4 0.000000 0.000000 0.000000 0.047876 0.000000 0.000000
# 5 0.000000 0.000000 0.000000 0.000000 -0.008875 0.000000
# 6 0.000000 0.000000 0.000000 0.000000 0.000000 0.071945
#
#
# Mechanical properties :
#
#
# Convention : Reuss Voigt Hill
#
# Bulk Modulus (GPa) = 70.79826 72.38602 71.59214
# Shear Modulus (GPa) = 28.16345 -1.94401 13.10972
#
# Velocity S-wave (km/s) = 3.76194 -0.98837 2.56664
# Velocity P-wave (km/s) = 7.37875 5.92213 6.69020
#
# Compressibility (1/GPa) = 0.01412464
#
# Stress axis : x y z
#
# Youngs Moduli (GPa) = 85.29803 112.60952 57.47490
#
# Poissons Ratio (x) = 0.14825 0.38210
# Poissons Ratio (y) = 0.11230 0.22843
# Poissons Ratio (z) = 0.56707 0.44756
#
# Static dielectric constant tensor:
#      x y z
#    x 3.393860 0.000000 0.000000 
#    y 0.000000 4.131630 0.000000 
#    z 0.000000 0.000000 3.353130 
# 
# 
# High freq. dielectric constant tensor:
#      x y z
#    x 1.747740 0.000000 0.000000 
#    y 0.000000 1.792900 0.000000 
#    z 0.000000 0.000000 1.755310 
# 
# From -- ./inp_files/32989.got.cif
#   From: 2010.06.25/outbox.cif.g09.slc.cpg/sg52_17_cif.got.tgz:32989.got - 2010.06.26 19:32:48.
