data_PCOD8216461
_publ_section_title
;
Structure prediction by ZEFSAII (Michael W. Deem and Ramdas Pophale) SiO2 
 PCOD8216461
Probable space group: P N N A
;
_chemical_formula_sum "Si O2"
_cell_formula_units_Z 40
_cell_length_a 5.023118
_cell_length_b 18.124000
_cell_length_c 18.872496
_cell_angle_alpha 90.000000
_cell_angle_beta 90.000000
_cell_angle_gamma 90.000000
_cell_volume 1718.132987
_symmetry_space_group_name_H-M "P N N A"
_symmetry_group_IT_number 52
_symmetry_cell_setting 'orthorhombic'
loop_
_space_group_symop_operation_xyz
x,y,z
1/2-x,-y,z
x,1/2-y,1/2-z
1/2-x,1/2+y,1/2-z
-x,-y,-z
1/2+x,y,-z
-x,1/2+y,1/2+z
1/2+x,1/2-y,1/2+z
loop_
_atom_site_type_symbol
_atom_site_label
_atom_site_fract_x
_atom_site_fract_y
_atom_site_fract_z
Si Si1 0.713003 0.916504 0.866052
Si Si2 0.648057 0.295652 0.151169
Si Si3 0.272183 0.273992 0.452090
Si Si4 0.214537 0.854544 0.802626
Si Si5 0.728621 0.581831 0.048417
O O1 0.734071 0.860890 0.932458
O O2 0.418827 0.913284 0.834317
O O3 0.926232 0.893648 0.803913
O O4 0.750000 0.000000 0.893022
O O5 0.354337 0.275822 0.117753
O O6 0.813972 0.218670 0.147527
O O7 0.647970 0.326826 0.230538
O O8 0.798964 0.359727 0.110263
O O9 0.490236 0.253914 0.512942
O O10 0.750000 0.500000 0.082091
O O11 0.481560 0.595341 0.999080
#
# Coordination Sequence:
#
# PCOD8216461 Si02
#       5
#     8   8   8   8   8
#     4  11  24  43  63  92 131 165 211 267 316 380
#     4  10  22  41  64  90 126 160 209 264 308 375
#     4  11  23  39  64  95 124 167 214 256 319 378
#     4  10  24  40  64  93 120 167 213 256 322 377
#     4  10  22  38  58  87 121 158 199 249 310 369
#
# _framework density 23.281084
#
# number of rings (size 3 to 8) (size 9 to 14) (size 15 to 20)
#    0.000    1.600    0.000    4.200    0.000   15.200 
#    0.000    2.000    0.000    0.000    0.000    0.000 
#    0.000    0.000    0.000    0.000    0.000    0.000 
#
# Total GULP energy -495684.531805 kJ/mol
# GULP energy per Si atom -12392.113295 kJ/mol
# Density = 2.322810 g / cm^3
# Si number density = 23.281084 Si / 1000 Ang^3
#
#
#
# Elastic Constant Matrix: (Units=GPa)
#
#
# Indices 1 2 3 4 5 6 
#
# 1 99.3181 18.8489 17.7294 0.0000 0.0000 0.0000
# 2 18.8489 141.2810 43.5166 0.0000 0.0000 0.0000
# 3 17.7294 43.5166 79.3574 0.0000 0.0000 0.0000
# 4 0.0000 0.0000 0.0000 33.1608 0.0000 0.0000
# 5 0.0000 0.0000 0.0000 0.0000 26.3597 0.0000
# 6 0.0000 0.0000 0.0000 0.0000 0.0000 30.8286
#
#
#
# Elastic Compliance Matrix: (Units=1/GPa)
#
#
# Indices 1 2 3 4 5 6 
#
# 1 0.010565 -0.000821 -0.001910 0.000000 0.000000 0.000000
# 2 -0.000821 0.008580 -0.004522 0.000000 0.000000 0.000000
# 3 -0.001910 -0.004522 0.015507 0.000000 0.000000 0.000000
# 4 0.000000 0.000000 0.000000 0.030156 0.000000 0.000000
# 5 0.000000 0.000000 0.000000 0.000000 0.037937 0.000000
# 6 0.000000 0.000000 0.000000 0.000000 0.000000 0.032437
#
#
# Mechanical properties :
#
#
# Convention : Reuss Voigt Hill
#
# Bulk Modulus (GPa) = 49.63452 53.34960 51.49206
# Shear Modulus (GPa) = 31.96821 34.06061 33.01441
#
# Velocity S-wave (km/s) = 3.70961 3.82909 3.76982
# Velocity P-wave (km/s) = 6.30192 6.52031 6.41205
#
# Compressibility (1/GPa) = 0.02014727
#
# Stress axis : x y z
#
# Youngs Moduli (GPa) = 94.64775 116.54463 64.48502
#
# Poissons Ratio (x) = 0.09571 0.12317
# Poissons Ratio (y) = 0.07773 0.29158
# Poissons Ratio (z) = 0.18079 0.52698
#
# Static dielectric constant tensor:
#      x y z
#    x 4.121650 0.000000 0.000000 
#    y 0.000000 4.485160 0.000000 
#    z 0.000000 0.000000 4.197660 
# 
# 
# High freq. dielectric constant tensor:
#      x y z
#    x 1.925640 0.000000 0.000000 
#    y 0.000000 1.933360 0.000000 
#    z 0.000000 0.000000 1.904740 
# 
# From -- ./inp_files/30135.got.cif
#   From: 2010.06.25/outbox.cif.g09.slc.cpg/sg52_16_cif.got.tgz:30135.got - 2010.06.26 19:32:48.
