data_PCOD8216814
_publ_section_title
;
Structure prediction by ZEFSAII (Michael W. Deem and Ramdas Pophale) SiO2 
 PCOD8216814
Probable space group: P N N A
;
_chemical_formula_sum "Si O2"
_cell_formula_units_Z 32
_cell_length_a 14.471606
_cell_length_b 8.869421
_cell_length_c 12.205409
_cell_angle_alpha 90.000000
_cell_angle_beta 90.000000
_cell_angle_gamma 90.000000
_cell_volume 1566.622418
_symmetry_space_group_name_H-M "P N N A"
_symmetry_group_IT_number 52
_symmetry_cell_setting 'orthorhombic'
loop_
_space_group_symop_operation_xyz
x,y,z
1/2-x,-y,z
x,1/2-y,1/2-z
1/2-x,1/2+y,1/2-z
-x,-y,-z
1/2+x,y,-z
-x,1/2+y,1/2+z
1/2+x,1/2-y,1/2+z
loop_
_atom_site_type_symbol
_atom_site_label
_atom_site_fract_x
_atom_site_fract_y
_atom_site_fract_z
Si Si1 0.861644 0.676284 0.363553
Si Si2 0.750000 0.000000 0.868252
Si Si3 0.161077 0.854259 0.933179
Si Si4 0.516651 0.165903 0.544556
Si Si5 0.633689 0.250000 0.750000
O O1 0.892708 0.750000 0.250000
O O2 0.868472 0.494523 0.355427
O O3 0.756287 0.722376 0.392252
O O4 0.930804 0.733112 0.456364
O O5 0.698699 0.119377 0.793917
O O6 0.825933 0.082138 0.944085
O O7 0.084455 0.728278 0.930566
O O8 0.572497 0.169489 0.657515
O O9 0.500000 0.000000 0.500000
#
# Coordination Sequence:
#
# PCOD8216814 Si02
#       5
#     8   4   8   8   4
#     4  10  23  44  68  95 127 182 223 273 349 398
#     4  10  24  46  72  92 138 186 230 284 340 420
#     4  10  23  48  65  94 140 183 221 285 340 415
#     4  12  28  40  67 105 139 176 233 286 340 417
#     4  12  26  46  70 106 134 188 236 284 352 408
#
# _framework density 20.426109
#
# number of rings (size 3 to 8) (size 9 to 14) (size 15 to 20)
#    0.000    1.500    5.000    0.750    8.750    3.000 
#    0.000    0.000    0.000    0.000    0.000    0.000 
#    0.000    0.000    0.000    0.000    0.000    0.000 
#
# Total GULP energy -396866.776158 kJ/mol
# GULP energy per Si atom -12402.086755 kJ/mol
# Density = 2.037962 g / cm^3
# Si number density = 20.426109 Si / 1000 Ang^3
#
#
#
# Elastic Constant Matrix: (Units=GPa)
#
#
# Indices 1 2 3 4 5 6 
#
# 1 83.7909 49.7271 15.4957 0.0000 0.0000 0.0000
# 2 49.7271 102.1984 31.5559 0.0000 0.0000 0.0000
# 3 15.4957 31.5559 112.4878 0.0000 0.0000 0.0000
# 4 0.0000 0.0000 0.0000 36.6738 0.0000 0.0000
# 5 0.0000 0.0000 0.0000 0.0000 -1.8626 0.0000
# 6 0.0000 0.0000 0.0000 0.0000 0.0000 31.5478
#
#
#
# Elastic Compliance Matrix: (Units=1/GPa)
#
#
# Indices 1 2 3 4 5 6 
#
# 1 0.016780 -0.008158 -0.000023 0.000000 0.000000 0.000000
# 2 -0.008158 0.014679 -0.002994 0.000000 0.000000 0.000000
# 3 -0.000023 -0.002994 0.009733 0.000000 0.000000 0.000000
# 4 0.000000 0.000000 0.000000 0.027267 0.000000 0.000000
# 5 0.000000 0.000000 0.000000 0.000000 -0.536875 0.000000
# 6 0.000000 0.000000 0.000000 0.000000 0.000000 0.031698
#
#
# Mechanical properties :
#
#
# Convention : Reuss Voigt Hill
#
# Bulk Modulus (GPa) = 53.07244 54.67052 53.87148
# Shear Modulus (GPa) = -12.25227 26.71835 7.23304
#
# Velocity S-wave (km/s) = -2.45181 3.62062 1.88382
# Velocity P-wave (km/s) = 4.24546 6.65595 5.58236
#
# Compressibility (1/GPa) = 0.01884217
#
# Stress axis : x y z
#
# Youngs Moduli (GPa) = 59.59479 68.12631 102.74393
#
# Poissons Ratio (x) = 0.55575 0.00237
# Poissons Ratio (y) = 0.48615 0.30762
# Poissons Ratio (z) = 0.00138 0.20397
#
# Static dielectric constant tensor:
#      x y z
#    x 3.852690 0.000000 0.000000 
#    y 0.000000 3.638090 0.000000 
#    z 0.000000 0.000000 3.830160 
# 
# 
# High freq. dielectric constant tensor:
#      x y z
#    x 1.807990 0.000000 0.000000 
#    y 0.000000 1.798780 0.000000 
#    z 0.000000 0.000000 1.805540 
# 
# From -- ./inp_files/18902.got.cif
#   From: 2010.06.25/outbox.cif.g09.slc.cpg/sg52_10_cif.got.tgz:18902.got - 2010.06.26 19:32:48.
