data_PCOD8216406
_publ_section_title
;
Structure prediction by ZEFSAII (Michael W. Deem and Ramdas Pophale) SiO2 
 PCOD8216406
Probable space group: P N N A
;
_chemical_formula_sum "Si O2"
_cell_formula_units_Z 40
_cell_length_a 7.356502
_cell_length_b 14.877652
_cell_length_c 15.267074
_cell_angle_alpha 90.000000
_cell_angle_beta 90.000000
_cell_angle_gamma 90.000000
_cell_volume 1670.942726
_symmetry_space_group_name_H-M "P N N A"
_symmetry_group_IT_number 52
_symmetry_cell_setting 'orthorhombic'
loop_
_space_group_symop_operation_xyz
x,y,z
1/2-x,-y,z
x,1/2-y,1/2-z
1/2-x,1/2+y,1/2-z
-x,-y,-z
1/2+x,y,-z
-x,1/2+y,1/2+z
1/2+x,1/2-y,1/2+z
loop_
_atom_site_type_symbol
_atom_site_label
_atom_site_fract_x
_atom_site_fract_y
_atom_site_fract_z
Si Si1 0.991658 0.439014 0.386546
Si Si2 0.385590 0.378621 0.435531
Si Si3 0.279026 0.897458 0.568042
Si Si4 0.151658 0.678677 0.106125
Si Si5 0.000273 0.154819 0.286958
O O1 0.196276 0.407522 0.396584
O O2 0.965525 0.546374 0.403778
O O3 0.944090 0.418589 0.286044
O O4 0.876302 0.381587 0.457941
O O5 0.427657 0.280296 0.397188
O O6 0.271254 0.837912 0.480567
O O7 0.476602 0.886055 0.613005
O O8 0.115810 0.866837 0.628639
O O9 0.250000 0.000000 0.540749
O O10 0.284239 0.658434 0.188356
O O11 0.938749 0.250000 0.250000
#
# Coordination Sequence:
#
# PCOD8216406 Si02
#       5
#     8   8   8   8   8
#     4  10  22  43  70 104 146 184 241 307 364 444
#     4  10  21  43  71 101 139 192 232 296 387 434
#     4  12  28  49  75 109 146 203 250 307 378 448
#     4  12  24  47  79 102 148 200 246 303 387 435
#     4  12  26  49  72 111 150 189 257 312 357 450
#
# _framework density 23.938580000000002
#
# number of rings (size 3 to 8) (size 9 to 14) (size 15 to 20)
#    0.000    0.800    4.000    3.000    0.000    4.000 
#   14.400    0.000    0.000    0.000    0.000    0.000 
#    0.000    0.000    0.000    0.000    0.000    0.000 
#
# Total GULP energy -495996.197927 kJ/mol
# GULP energy per Si atom -12399.904948 kJ/mol
# Density = 2.388410 g / cm^3
# Si number density = 23.938580 Si / 1000 Ang^3
#
#
#
# Elastic Constant Matrix: (Units=GPa)
#
#
# Indices 1 2 3 4 5 6 
#
# 1 58.6761 12.1065 8.4685 0.0000 0.0000 0.0000
# 2 12.1065 120.5876 39.6957 0.0000 0.0000 0.0000
# 3 8.4685 39.6957 106.3337 0.0000 0.0000 0.0000
# 4 0.0000 0.0000 0.0000 26.6261 0.0000 0.0000
# 5 0.0000 0.0000 0.0000 0.0000 1.6478 0.0000
# 6 0.0000 0.0000 0.0000 0.0000 0.0000 -2.1570
#
#
#
# Elastic Compliance Matrix: (Units=1/GPa)
#
#
# Indices 1 2 3 4 5 6 
#
# 1 0.017469 -0.001477 -0.000840 0.000000 0.000000 0.000000
# 2 -0.001477 0.009580 -0.003458 0.000000 0.000000 0.000000
# 3 -0.000840 -0.003458 0.010762 0.000000 0.000000 0.000000
# 4 0.000000 0.000000 0.000000 0.037557 0.000000 0.000000
# 5 0.000000 0.000000 0.000000 0.000000 0.606881 0.000000
# 6 0.000000 0.000000 0.000000 0.000000 0.000000 -0.463608
#
#
# Mechanical properties :
#
#
# Convention : Reuss Voigt Hill
#
# Bulk Modulus (GPa) = 38.08154 45.12654 41.60404
# Shear Modulus (GPa) = 20.92528 20.24516 20.58522
#
# Velocity S-wave (km/s) = 2.95977 2.91127 2.93562
# Velocity P-wave (km/s) = 5.25574 5.49477 5.37659
#
# Compressibility (1/GPa) = 0.02625944
#
# Stress axis : x y z
#
# Youngs Moduli (GPa) = 57.24517 104.38923 92.91667
#
# Poissons Ratio (x) = 0.15422 0.07802
# Poissons Ratio (y) = 0.08457 0.32135
# Poissons Ratio (z) = 0.04807 0.36103
#
# Static dielectric constant tensor:
#      x y z
#    x 4.182800 0.000000 0.000000 
#    y 0.000000 5.596690 0.000000 
#    z 0.000000 0.000000 4.326130 
# 
# 
# High freq. dielectric constant tensor:
#      x y z
#    x 1.946220 0.000000 0.000000 
#    y 0.000000 1.953660 0.000000 
#    z 0.000000 0.000000 1.945730 
# 
# From -- ./inp_files/24405.got.cif
#   From: 2010.06.25/outbox.cif.g09.slc.cpg/sg52_13_cif.got.tgz:24405.got - 2010.06.26 19:32:48.
