data_PCOD8216134
_publ_section_title
;
Structure prediction by ZEFSAII (Michael W. Deem and Ramdas Pophale) SiO2 
 PCOD8216134
Probable space group: P N N A
;
_chemical_formula_sum "Si O2"
_cell_formula_units_Z 40
_cell_length_a 9.052280
_cell_length_b 20.664608
_cell_length_c 10.326047
_cell_angle_alpha 90.000000
_cell_angle_beta 90.000000
_cell_angle_gamma 90.000000
_cell_volume 1931.609122
_symmetry_space_group_name_H-M "P N N A"
_symmetry_group_IT_number 52
_symmetry_cell_setting 'orthorhombic'
loop_
_space_group_symop_operation_xyz
x,y,z
1/2-x,-y,z
x,1/2-y,1/2-z
1/2-x,1/2+y,1/2-z
-x,-y,-z
1/2+x,y,-z
-x,1/2+y,1/2+z
1/2+x,1/2-y,1/2+z
loop_
_atom_site_type_symbol
_atom_site_label
_atom_site_fract_x
_atom_site_fract_y
_atom_site_fract_z
Si Si1 0.559064 0.059839 0.912730
Si Si2 0.749296 0.077107 0.141600
Si Si3 0.065011 0.640889 0.014216
Si Si4 0.819643 0.563501 0.868937
Si Si5 0.694021 0.185918 0.331791
O O1 0.417293 0.102430 0.874121
O O2 0.644967 0.044459 0.779989
O O3 0.671585 0.096349 0.006673
O O4 0.500000 0.000000 0.000000
O O5 0.672664 0.118503 0.253477
O O6 0.750000 0.000000 0.175335
O O7 0.186735 0.615473 0.117634
O O8 0.952357 0.690609 0.081182
O O9 0.153012 0.682420 0.908823
O O10 0.967968 0.584526 0.944762
O O11 0.750000 0.500000 0.936420
O O12 0.703300 0.250000 0.250000
#
# Coordination Sequence:
#
# PCOD8216134 Si02
#       5
#     8   8   8   8   8
#     4  10  21  37  60  97 132 172 216 264 326 380
#     4  10  22  38  64  95 131 167 218 272 322 382
#     4  10  25  43  63  98 126 173 226 260 338 398
#     4  11  21  39  66  98 138 171 212 275 326 393
#     4  11  25  47  67  92 134 171 222 272 327 397
#
# _framework density 20.708124000000002
#
# number of rings (size 3 to 8) (size 9 to 14) (size 15 to 20)
#    0.000    1.600    2.000    2.400    8.400    4.800 
#    0.000    2.000    0.000    0.000    0.000    0.000 
#    0.000    0.000    0.000    0.000    0.000    0.000 
#
# Total GULP energy -495593.400811 kJ/mol
# GULP energy per Si atom -12389.835020 kJ/mol
# Density = 2.066099 g / cm^3
# Si number density = 20.708124 Si / 1000 Ang^3
#
#
#
# Elastic Constant Matrix: (Units=GPa)
#
#
# Indices 1 2 3 4 5 6 
#
# 1 152.9456 40.7537 62.0521 0.0000 0.0000 0.0000
# 2 40.7537 91.9567 52.6956 0.0000 0.0000 0.0000
# 3 62.0521 52.6956 126.1585 0.0000 0.0000 0.0000
# 4 0.0000 0.0000 0.0000 28.3726 0.0000 0.0000
# 5 0.0000 0.0000 0.0000 0.0000 40.6251 0.0000
# 6 0.0000 0.0000 0.0000 0.0000 0.0000 16.5781
#
#
#
# Elastic Compliance Matrix: (Units=1/GPa)
#
#
# Indices 1 2 3 4 5 6 
#
# 1 0.008384 -0.001778 -0.003381 0.000000 0.000000 0.000000
# 2 -0.001778 0.014674 -0.005255 0.000000 0.000000 0.000000
# 3 -0.003381 -0.005255 0.011784 0.000000 0.000000 0.000000
# 4 0.000000 0.000000 0.000000 0.035245 0.000000 0.000000
# 5 0.000000 0.000000 0.000000 0.000000 0.024615 0.000000
# 6 0.000000 0.000000 0.000000 0.000000 0.000000 0.060321
#
#
# Mechanical properties :
#
#
# Convention : Reuss Voigt Hill
#
# Bulk Modulus (GPa) = 71.35398 75.78486 73.56942
# Shear Modulus (GPa) = 27.69747 31.48577 29.59162
#
# Velocity S-wave (km/s) = 3.66118 3.90353 3.78429
# Velocity P-wave (km/s) = 7.23907 7.54936 7.39584
#
# Compressibility (1/GPa) = 0.01401463
#
# Stress axis : x y z
#
# Youngs Moduli (GPa) = 119.27839 68.14841 84.85879
#
# Poissons Ratio (x) = 0.12118 0.28690
# Poissons Ratio (y) = 0.21209 0.44590
# Poissons Ratio (z) = 0.40327 0.35809
#
# Static dielectric constant tensor:
#      x y z
#    x 4.386630 0.000000 0.000000 
#    y 0.000000 3.208850 0.000000 
#    z 0.000000 0.000000 3.920690 
# 
# 
# High freq. dielectric constant tensor:
#      x y z
#    x 1.843590 0.000000 0.000000 
#    y 0.000000 1.757590 0.000000 
#    z 0.000000 0.000000 1.818190 
# 
# From -- ./inp_files/7441.got.cif
#   From: 2010.06.25/outbox.cif.g09.slc.cpg/sg52_4_cif.got.tgz:7441.got - 2010.06.26 19:32:48.
