data_PCOD8216520
_publ_section_title
;
Structure prediction by ZEFSAII (Michael W. Deem and Ramdas Pophale) SiO2 
 PCOD8216520
Probable space group: P N N A
;
_chemical_formula_sum "Si O2"
_cell_formula_units_Z 36
_cell_length_a 12.523703
_cell_length_b 25.586218
_cell_length_c 5.100274
_cell_angle_alpha 90.000000
_cell_angle_beta 90.000000
_cell_angle_gamma 90.000000
_cell_volume 1634.302194
_symmetry_space_group_name_H-M "P N N A"
_symmetry_group_IT_number 52
_symmetry_cell_setting 'orthorhombic'
loop_
_space_group_symop_operation_xyz
x,y,z
1/2-x,-y,z
x,1/2-y,1/2-z
1/2-x,1/2+y,1/2-z
-x,-y,-z
1/2+x,y,-z
-x,1/2+y,1/2+z
1/2+x,1/2-y,1/2+z
loop_
_atom_site_type_symbol
_atom_site_label
_atom_site_fract_x
_atom_site_fract_y
_atom_site_fract_z
Si Si1 0.847260 0.250000 0.750000
Si Si2 0.040091 0.530190 0.248983
Si Si3 0.668367 0.166433 0.838763
Si Si4 0.750000 0.000000 0.528181
Si Si5 0.490371 0.250000 0.750000
Si Si6 0.361308 0.900781 0.667466
O O1 0.774973 0.199599 0.800689
O O2 0.918407 0.235447 0.498930
O O3 0.168185 0.530471 0.223532
O O4 0.000000 0.500000 0.500000
O O5 0.986581 0.588106 0.238899
O O6 0.000000 0.500000 0.000000
O O7 0.563342 0.201933 0.839900
O O8 0.652721 0.123451 0.617346
O O9 0.685192 0.138303 0.117008
O O10 0.801591 0.956783 0.335254
#
# Coordination Sequence:
#
# PCOD8216520 Si02
#       6
#     4   8   8   4   4   8
#     4  11  24  45  72  98 126 169 214 263 336 402
#     4  10  22  40  60  88 127 170 215 262 313 370
#     4  11  25  43  66 100 132 162 218 274 323 397
#     4  10  24  42  66  94 134 180 224 268 316 382
#     4  11  24  45  68  94 132 169 206 271 336 394
#     4  11  23  41  65  96 133 173 216 271 325 381
#
# _framework density 22.027750000000001
#
# number of rings (size 3 to 8) (size 9 to 14) (size 15 to 20)
#    0.000    1.333    0.000    5.333    0.000   16.889 
#    0.000    2.222    0.000    0.000    0.000    0.000 
#    0.000    0.000    0.000    0.000    0.000    0.000 
#
# Total GULP energy -446359.784340 kJ/mol
# GULP energy per Si atom -12398.882898 kJ/mol
# Density = 2.197761 g / cm^3
# Si number density = 22.027750 Si / 1000 Ang^3
#
#
#
# Elastic Constant Matrix: (Units=GPa)
#
#
# Indices 1 2 3 4 5 6 
#
# 1 137.3778 46.3468 40.7561 0.0000 0.0000 0.0000
# 2 46.3468 103.4739 19.2633 0.0000 0.0000 0.0000
# 3 40.7561 19.2633 119.0458 0.0000 0.0000 0.0000
# 4 0.0000 0.0000 0.0000 46.6008 0.0000 0.0000
# 5 0.0000 0.0000 0.0000 0.0000 26.1827 0.0000
# 6 0.0000 0.0000 0.0000 0.0000 0.0000 10.2241
#
#
#
# Elastic Compliance Matrix: (Units=1/GPa)
#
#
# Indices 1 2 3 4 5 6 
#
# 1 0.009287 -0.003679 -0.002584 0.000000 0.000000 0.000000
# 2 -0.003679 0.011422 -0.000589 0.000000 0.000000 0.000000
# 3 -0.002584 -0.000589 0.009380 0.000000 0.000000 0.000000
# 4 0.000000 0.000000 0.000000 0.021459 0.000000 0.000000
# 5 0.000000 0.000000 0.000000 0.000000 0.038193 0.000000
# 6 0.000000 0.000000 0.000000 0.000000 0.000000 0.097808
#
#
# Mechanical properties :
#
#
# Convention : Reuss Voigt Hill
#
# Bulk Modulus (GPa) = 61.02973 63.62556 62.32764
# Shear Modulus (GPa) = 24.18804 33.50361 28.84583
#
# Velocity S-wave (km/s) = 3.31731 3.90420 3.62266
# Velocity P-wave (km/s) = 6.51450 7.01930 6.77161
#
# Compressibility (1/GPa) = 0.01638546
#
# Stress axis : x y z
#
# Youngs Moduli (GPa) = 107.67872 87.55375 106.60856
#
# Poissons Ratio (x) = 0.32207 0.27550
# Poissons Ratio (y) = 0.39611 0.06277
# Poissons Ratio (z) = 0.27826 0.05155
#
# Static dielectric constant tensor:
#      x y z
#    x 5.161450 0.000000 0.000000 
#    y 0.000000 5.122570 0.000000 
#    z 0.000000 0.000000 4.030710 
# 
# 
# High freq. dielectric constant tensor:
#      x y z
#    x 1.879880 0.000000 0.000000 
#    y 0.000000 1.866350 0.000000 
#    z 0.000000 0.000000 1.878630 
# 
# From -- ./inp_files/1280.got.cif
#   From: 2010.06.25/outbox.cif.g09.slc.cpg/sg52_1_cif.got.tgz:1280.got - 2010.06.26 19:32:48.
