data_PCOD8216218
_publ_section_title
;
Structure prediction by ZEFSAII (Michael W. Deem and Ramdas Pophale) SiO2 
 PCOD8216218
Probable space group: P N N A
;
_chemical_formula_sum "Si O2"
_cell_formula_units_Z 48
_cell_length_a 17.141490
_cell_length_b 13.522874
_cell_length_c 9.476649
_cell_angle_alpha 90.000000
_cell_angle_beta 90.000000
_cell_angle_gamma 90.000000
_cell_volume 2196.708176
_symmetry_space_group_name_H-M "P N N A"
_symmetry_group_IT_number 52
_symmetry_cell_setting 'orthorhombic'
loop_
_space_group_symop_operation_xyz
x,y,z
1/2-x,-y,z
x,1/2-y,1/2-z
1/2-x,1/2+y,1/2-z
-x,-y,-z
1/2+x,y,-z
-x,1/2+y,1/2+z
1/2+x,1/2-y,1/2+z
loop_
_atom_site_type_symbol
_atom_site_label
_atom_site_fract_x
_atom_site_fract_y
_atom_site_fract_z
Si Si1 0.852906 0.876553 0.995802
Si Si2 0.658988 0.981007 0.761012
Si Si3 0.904625 0.113582 0.498998
Si Si4 0.839663 0.526083 0.214221
Si Si5 0.440012 0.699416 0.892696
Si Si6 0.198087 0.708989 0.397141
O O1 0.766037 0.831031 0.997724
O O2 0.875986 0.927937 0.848747
O O3 0.855341 0.959168 0.119495
O O4 0.913551 0.788373 0.008202
O O5 0.617926 0.972663 0.610139
O O6 0.642310 0.881770 0.851794
O O7 0.750000 0.000000 0.736854
O O8 0.850888 0.210018 0.517566
O O9 0.994464 0.139405 0.523431
O O10 0.891644 0.065745 0.344285
O O11 0.750000 0.500000 0.179873
O O12 0.866179 0.628522 0.139736
O O13 0.473577 0.750000 0.750000
O O14 0.234269 0.750000 0.250000
#
# Coordination Sequence:
#
# PCOD8216218 Si02
#       6
#     8   8   8   8   8   8
#     4  10  21  39  61  87 121 156 194 245 302 353
#     4   9  18  35  61  90 115 149 199 251 293 342
#     4  11  21  38  62  88 117 155 202 245 294 357
#     4  11  22  38  61  89 122 159 195 242 300 361
#     4  10  22  39  58  83 120 163 199 243 300 356
#     4   9  18  35  63  91 115 150 200 250 289 345
#
# _framework density 21.850877000000001
#
# number of rings (size 3 to 8) (size 9 to 14) (size 15 to 20)
#    0.000    2.000    0.000    5.000    0.000    2.667 
#    0.000   11.667    0.000    8.000    0.000    0.000 
#    0.000    0.000    0.000    0.000    0.000    0.000 
#
# Total GULP energy -595128.014684 kJ/mol
# GULP energy per Si atom -12398.500306 kJ/mol
# Density = 2.180114 g / cm^3
# Si number density = 21.850877 Si / 1000 Ang^3
#
#
#
# Elastic Constant Matrix: (Units=GPa)
#
#
# Indices 1 2 3 4 5 6 
#
# 1 84.1464 36.6742 40.5019 0.0000 0.0000 0.0000
# 2 36.6742 92.0379 32.3587 0.0000 0.0000 0.0000
# 3 40.5019 32.3587 65.6260 0.0000 0.0000 0.0000
# 4 0.0000 0.0000 0.0000 41.8531 0.0000 0.0000
# 5 0.0000 0.0000 0.0000 0.0000 20.2760 0.0000
# 6 0.0000 0.0000 0.0000 0.0000 0.0000 29.7287
#
#
#
# Elastic Compliance Matrix: (Units=1/GPa)
#
#
# Indices 1 2 3 4 5 6 
#
# 1 0.018024 -0.003957 -0.009172 0.000000 0.000000 0.000000
# 2 -0.003957 0.014012 -0.004467 0.000000 0.000000 0.000000
# 3 -0.009172 -0.004467 0.023101 0.000000 0.000000 0.000000
# 4 0.000000 0.000000 0.000000 0.023893 0.000000 0.000000
# 5 0.000000 0.000000 0.000000 0.000000 0.049319 0.000000
# 6 0.000000 0.000000 0.000000 0.000000 0.000000 0.033638
#
#
# Mechanical properties :
#
#
# Convention : Reuss Voigt Hill
#
# Bulk Modulus (GPa) = 50.13946 51.20889 50.67418
# Shear Modulus (GPa) = 24.53047 27.18993 25.86020
#
# Velocity S-wave (km/s) = 3.35420 3.53135 3.44391
# Velocity P-wave (km/s) = 6.16416 6.33354 6.24943
#
# Compressibility (1/GPa) = 0.01994437
#
# Stress axis : x y z
#
# Youngs Moduli (GPa) = 55.48296 71.36554 43.28762
#
# Poissons Ratio (x) = 0.28239 0.39705
# Poissons Ratio (y) = 0.21955 0.19337
# Poissons Ratio (z) = 0.50891 0.31880
#
# Static dielectric constant tensor:
#      x y z
#    x 3.602470 0.000000 0.000000 
#    y 0.000000 4.252930 0.000000 
#    z 0.000000 0.000000 3.905220 
# 
# 
# High freq. dielectric constant tensor:
#      x y z
#    x 1.833750 0.000000 0.000000 
#    y 0.000000 1.877190 0.000000 
#    z 0.000000 0.000000 1.847110 
# 
# From -- ./inp_files/12100.got.cif
#   From: 2010.06.25/outbox.cif.g09.slc.cpg/sg52_7_cif.got.tgz:12100.got - 2010.06.26 19:32:48.
