data_PCOD8216625
_publ_section_title
;
Structure prediction by ZEFSAII (Michael W. Deem and Ramdas Pophale) SiO2 
 PCOD8216625
Probable space group: P N N A
;
_chemical_formula_sum "Si O2"
_cell_formula_units_Z 60
_cell_length_a 23.854435
_cell_length_b 20.390778
_cell_length_c 5.214521
_cell_angle_alpha 90.000000
_cell_angle_beta 90.000000
_cell_angle_gamma 90.000000
_cell_volume 2536.397706
_symmetry_space_group_name_H-M "P N N A"
_symmetry_group_IT_number 52
_symmetry_cell_setting 'orthorhombic'
loop_
_space_group_symop_operation_xyz
x,y,z
1/2-x,-y,z
x,1/2-y,1/2-z
1/2-x,1/2+y,1/2-z
-x,-y,-z
1/2+x,y,-z
-x,1/2+y,1/2+z
1/2+x,1/2-y,1/2+z
loop_
_atom_site_type_symbol
_atom_site_label
_atom_site_fract_x
_atom_site_fract_y
_atom_site_fract_z
Si Si1 0.800084 0.872010 0.949354
Si Si2 0.467572 0.788418 0.502980
Si Si3 0.358153 0.068265 0.893893
Si Si4 0.531692 0.907658 0.371720
Si Si5 0.064134 0.490453 0.229954
Si Si6 0.750000 0.000000 0.055112
Si Si7 0.692158 0.706950 0.504717
Si Si8 0.370404 0.616437 0.959575
O O1 0.758071 0.811043 0.981291
O O2 0.827800 0.886869 0.224845
O O3 0.769289 0.940229 0.872318
O O4 0.842629 0.856810 0.721821
O O5 0.447894 0.750000 0.250000
O O6 0.520001 0.831793 0.412520
O O7 0.416529 0.830245 0.614409
O O8 0.490137 0.750000 0.750000
O O9 0.402582 0.086216 0.680039
O O10 0.342161 0.138430 0.019757
O O11 0.302477 0.031082 0.781913
O O12 0.389674 0.015023 0.071649
O O13 0.484681 0.938507 0.172351
O O14 0.526625 0.948466 0.634779
O O15 0.099558 0.453597 0.005100
O O16 0.680327 0.750000 0.250000
O O17 0.674765 0.750000 0.750000
#
# Coordination Sequence:
#
# PCOD8216625 Si02
#       8
#     8   8   8   8   8   4   8   8
#     4  11  23  42  70 100 141 184 232 295 353 417
#     4  11  26  46  68 103 144 184 242 291 345 425
#     4  11  23  44  71  98 141 183 228 300 351 423
#     4  10  24  43  69 101 134 186 226 296 357 433
#     4  10  22  42  70 103 138 172 237 287 371 426
#     4  10  22  42  66 110 136 176 232 294 360 422
#     4  11  27  47  66  99 142 191 246 281 338 425
#     4  11  23  42  72 105 138 184 232 300 359 417
#
# _framework density 23.655595000000002
#
# number of rings (size 3 to 8) (size 9 to 14) (size 15 to 20)
#    0.000    1.333    1.333    2.800    3.733    4.267 
#    2.400    0.000    0.000    0.000    0.000    0.000 
#    0.000    0.000    0.000    0.000    0.000    0.000 
#
# Total GULP energy -743289.561538 kJ/mol
# GULP energy per Si atom -12388.159359 kJ/mol
# Density = 2.360175 g / cm^3
# Si number density = 23.655595 Si / 1000 Ang^3
#
#
#
# Elastic Constant Matrix: (Units=GPa)
#
#
# Indices 1 2 3 4 5 6 
#
# 1 141.1215 46.2515 24.1152 0.0000 0.0000 0.0000
# 2 46.2515 124.9099 35.0890 0.0000 0.0000 0.0000
# 3 24.1152 35.0890 102.0436 0.0000 0.0000 0.0000
# 4 0.0000 0.0000 0.0000 22.5121 0.0000 0.0000
# 5 0.0000 0.0000 0.0000 0.0000 25.7004 0.0000
# 6 0.0000 0.0000 0.0000 0.0000 0.0000 -198.5363
#
#
#
# Elastic Compliance Matrix: (Units=1/GPa)
#
#
# Indices 1 2 3 4 5 6 
#
# 1 0.008153 -0.002743 -0.000984 0.000000 0.000000 0.000000
# 2 -0.002743 0.009784 -0.002716 0.000000 0.000000 0.000000
# 3 -0.000984 -0.002716 0.010966 0.000000 0.000000 0.000000
# 4 0.000000 0.000000 0.000000 0.044421 0.000000 0.000000
# 5 0.000000 0.000000 0.000000 0.000000 0.038910 0.000000
# 6 0.000000 0.000000 0.000000 0.000000 0.000000 -0.005037
#
#
# Mechanical properties :
#
#
# Convention : Reuss Voigt Hill
#
# Bulk Modulus (GPa) = 62.42800 64.33182 63.37991
# Shear Modulus (GPa) = 39.86541 -12.55682 13.65429
#
# Velocity S-wave (km/s) = 4.10962 -2.30645 2.40513
# Velocity P-wave (km/s) = 6.99760 4.49013 5.87910
#
# Compressibility (1/GPa) = 0.01601845
#
# Stress axis : x y z
#
# Youngs Moduli (GPa) = 122.65364 102.20412 91.18885
#
# Poissons Ratio (x) = 0.28030 0.08970
# Poissons Ratio (y) = 0.33639 0.24770
# Poissons Ratio (z) = 0.12065 0.27762
#
# Static dielectric constant tensor:
#      x y z
#    x 4.607320 0.000000 0.000000 
#    y 0.000000 4.491550 0.000000 
#    z 0.000000 0.000000 3.734630 
# 
# 
# High freq. dielectric constant tensor:
#      x y z
#    x 1.953680 0.000000 0.000000 
#    y 0.000000 1.954820 0.000000 
#    z 0.000000 0.000000 1.901830 
# 
# From -- ./inp_files/5269.got.cif
#   From: 2010.06.25/outbox.cif.g09.slc.cpg/sg52_3_cif.got.tgz:5269.got - 2010.06.26 19:32:48.
