data_PCOD8216059
_publ_section_title
;
Structure prediction by ZEFSAII (Michael W. Deem and Ramdas Pophale) SiO2 
 PCOD8216059
Probable space group: P N N A
;
_chemical_formula_sum "Si O2"
_cell_formula_units_Z 56
_cell_length_a 11.569266
_cell_length_b 20.044017
_cell_length_c 12.942302
_cell_angle_alpha 90.000000
_cell_angle_beta 90.000000
_cell_angle_gamma 90.000000
_cell_volume 3001.249484
_symmetry_space_group_name_H-M "P N N A"
_symmetry_group_IT_number 52
_symmetry_cell_setting 'orthorhombic'
loop_
_space_group_symop_operation_xyz
x,y,z
1/2-x,-y,z
x,1/2-y,1/2-z
1/2-x,1/2+y,1/2-z
-x,-y,-z
1/2+x,y,-z
-x,1/2+y,1/2+z
1/2+x,1/2-y,1/2+z
loop_
_atom_site_type_symbol
_atom_site_label
_atom_site_fract_x
_atom_site_fract_y
_atom_site_fract_z
Si Si1 0.451915 0.930902 0.963517
Si Si2 0.386465 0.831567 0.134845
Si Si3 0.586467 0.823166 0.281896
Si Si4 0.936570 0.684409 0.201158
Si Si5 0.879803 0.330562 0.633100
Si Si6 0.482417 0.275055 0.988471
Si Si7 0.722007 0.074455 0.218957
O O1 0.559526 0.898109 0.904428
O O2 0.333944 0.933482 0.895115
O O3 0.419359 0.894284 0.067250
O O4 0.500000 0.000000 0.000000
O O5 0.456146 0.834079 0.242021
O O6 0.252784 0.837318 0.162100
O O7 0.418544 0.764158 0.074143
O O8 0.633545 0.750000 0.250000
O O9 0.584062 0.824693 0.408065
O O10 0.662605 0.880536 0.226631
O O11 0.868711 0.750000 0.250000
O O12 0.871276 0.614572 0.213993
O O13 0.058651 0.688056 0.259942
O O14 0.952884 0.685305 0.078481
O O15 0.892846 0.275910 0.541986
O O16 0.750000 0.000000 0.262081
#
# Coordination Sequence:
#
# PCOD8216059 Si02
#       7
#     8   8   8   8   8   8   8
#     4  10  22  36  56  82 113 153 189 228 296 352
#     4  10  21  34  55  85 120 141 185 239 285 342
#     4  10  22  37  56  91 120 148 187 241 289 343
#     4   9  19  39  58  87 113 150 193 237 287 340
#     4   9  20  36  56  84 117 145 187 242 282 346
#     4   9  20  34  57  86 112 153 187 230 297 333
#     4  11  23  37  59  83 117 150 194 239 287 346
#
# _framework density 18.658897
#
# number of rings (size 3 to 8) (size 9 to 14) (size 15 to 20)
#    0.000    2.286    0.000    2.143   10.000    5.143 
#    0.000    0.714    0.000    0.000    0.000    0.000 
#    0.000    0.000    0.000    0.000    0.000    0.000 
#
# Total GULP energy -693793.207182 kJ/mol
# GULP energy per Si atom -12389.164414 kJ/mol
# Density = 1.861643 g / cm^3
# Si number density = 18.658897 Si / 1000 Ang^3
#
#
#
# Elastic Constant Matrix: (Units=GPa)
#
#
# Indices 1 2 3 4 5 6 
#
# 1 133.3004 47.3708 40.9120 0.0000 0.0000 0.0000
# 2 47.3708 128.8113 43.8017 0.0000 0.0000 0.0000
# 3 40.9120 43.8017 127.8458 0.0000 0.0000 0.0000
# 4 0.0000 0.0000 0.0000 23.8074 0.0000 0.0000
# 5 0.0000 0.0000 0.0000 0.0000 14.2261 0.0000
# 6 0.0000 0.0000 0.0000 0.0000 0.0000 24.7625
#
#
#
# Elastic Compliance Matrix: (Units=1/GPa)
#
#
# Indices 1 2 3 4 5 6 
#
# 1 0.009055 -0.002654 -0.001989 0.000000 0.000000 0.000000
# 2 -0.002654 0.009565 -0.002428 0.000000 0.000000 0.000000
# 3 -0.001989 -0.002428 0.009290 0.000000 0.000000 0.000000
# 4 0.000000 0.000000 0.000000 0.042004 0.000000 0.000000
# 5 0.000000 0.000000 0.000000 0.000000 0.070294 0.000000
# 6 0.000000 0.000000 0.000000 0.000000 0.000000 0.040384
#
#
# Mechanical properties :
#
#
# Convention : Reuss Voigt Hill
#
# Bulk Modulus (GPa) = 72.62286 72.68073 72.65179
# Shear Modulus (GPa) = 25.08512 29.75073 27.41793
#
# Velocity S-wave (km/s) = 3.67059 3.99739 3.83747
# Velocity P-wave (km/s) = 7.54785 7.76804 7.65874
#
# Compressibility (1/GPa) = 0.01376977
#
# Stress axis : x y z
#
# Youngs Moduli (GPa) = 110.43280 104.54973 107.64208
#
# Poissons Ratio (x) = 0.27747 0.21405
# Poissons Ratio (y) = 0.29308 0.26133
# Poissons Ratio (z) = 0.21960 0.25382
#
# Static dielectric constant tensor:
#      x y z
#    x 3.399830 0.000000 0.000000 
#    y 0.000000 3.012680 0.000000 
#    z 0.000000 0.000000 4.087570 
# 
# 
# High freq. dielectric constant tensor:
#      x y z
#    x 1.722550 0.000000 0.000000 
#    y 0.000000 1.710880 0.000000 
#    z 0.000000 0.000000 1.720140 
# 
# From -- ./inp_files/18359.got.cif
#   From: 2010.06.25/outbox.cif.g09.slc.cpg/sg52_10_cif.got.tgz:18359.got - 2010.06.26 19:32:48.
