data_PCOD8216686
_publ_section_title
;
Structure prediction by ZEFSAII (Michael W. Deem and Ramdas Pophale) SiO2 
 PCOD8216686
Probable space group: P N N A
;
_chemical_formula_sum "Si O2"
_cell_formula_units_Z 44
_cell_length_a 13.874712
_cell_length_b 24.332246
_cell_length_c 6.152598
_cell_angle_alpha 90.000000
_cell_angle_beta 90.000000
_cell_angle_gamma 90.000000
_cell_volume 2077.134962
_symmetry_space_group_name_H-M "P N N A"
_symmetry_group_IT_number 52
_symmetry_cell_setting 'orthorhombic'
loop_
_space_group_symop_operation_xyz
x,y,z
1/2-x,-y,z
x,1/2-y,1/2-z
1/2-x,1/2+y,1/2-z
-x,-y,-z
1/2+x,y,-z
-x,1/2+y,1/2+z
1/2+x,1/2-y,1/2+z
loop_
_atom_site_type_symbol
_atom_site_label
_atom_site_fract_x
_atom_site_fract_y
_atom_site_fract_z
Si Si1 0.912374 0.292003 0.081247
Si Si2 0.213202 0.938632 0.661343
Si Si3 0.854790 0.861749 0.068019
Si Si4 0.564273 0.250000 0.250000
Si Si5 0.299905 0.361486 0.224221
Si Si6 0.054755 0.885715 0.904639
O O1 0.864562 0.250000 0.250000
O O2 0.957876 0.343188 0.208138
O O3 0.998873 0.262690 0.957172
O O4 0.823244 0.310246 0.931644
O O5 0.290023 0.898560 0.774544
O O6 0.199836 0.918264 0.413553
O O7 0.112414 0.937507 0.798928
O O8 0.250000 0.000000 0.657248
O O9 0.873726 0.803785 0.187450
O O10 0.801488 0.850903 0.839744
O O11 0.949891 0.897458 0.006606
O O12 0.384616 0.360961 0.398861
#
# Coordination Sequence:
#
# PCOD8216686 Si02
#       6
#     8   8   8   4   8   8
#     4  11  20  40  65  93 137 181 215 270 335 403
#     4  10  25  46  70 100 136 179 236 296 345 400
#     4  11  24  44  68 104 135 182 235 276 345 423
#     4  12  24  42  68 100 138 178 220 282 338 412
#     4  10  23  44  62  97 137 178 227 277 340 401
#     4  10  22  44  68  96 134 175 225 278 338 407
#
# _framework density 21.183026000000002
#
# number of rings (size 3 to 8) (size 9 to 14) (size 15 to 20)
#    0.000    1.455    3.636    0.000    2.545    3.636 
#   27.818    1.818    0.000    0.000    0.000    0.000 
#    0.000    0.000    0.000    0.000    0.000    0.000 
#
# Total GULP energy -545470.946515 kJ/mol
# GULP energy per Si atom -12397.066966 kJ/mol
# Density = 2.113481 g / cm^3
# Si number density = 21.183026 Si / 1000 Ang^3
#
#
#
# Elastic Constant Matrix: (Units=GPa)
#
#
# Indices 1 2 3 4 5 6 
#
# 1 118.2708 29.6933 41.9172 0.0000 0.0000 0.0000
# 2 29.6933 111.3078 40.7077 0.0000 0.0000 0.0000
# 3 41.9172 40.7077 116.9786 0.0000 0.0000 0.0000
# 4 0.0000 0.0000 0.0000 22.4305 0.0000 0.0000
# 5 0.0000 0.0000 0.0000 0.0000 28.1286 0.0000
# 6 0.0000 0.0000 0.0000 0.0000 0.0000 28.1362
#
#
#
# Elastic Compliance Matrix: (Units=1/GPa)
#
#
# Indices 1 2 3 4 5 6 
#
# 1 0.009911 -0.001541 -0.003015 0.000000 0.000000 0.000000
# 2 -0.001541 0.010534 -0.003113 0.000000 0.000000 0.000000
# 3 -0.003015 -0.003113 0.010712 0.000000 0.000000 0.000000
# 4 0.000000 0.000000 0.000000 0.044582 0.000000 0.000000
# 5 0.000000 0.000000 0.000000 0.000000 0.035551 0.000000
# 6 0.000000 0.000000 0.000000 0.000000 0.000000 0.035541
#
#
# Mechanical properties :
#
#
# Convention : Reuss Voigt Hill
#
# Bulk Modulus (GPa) = 63.22040 63.46597 63.34318
# Shear Modulus (GPa) = 29.86083 31.35498 30.60790
#
# Velocity S-wave (km/s) = 3.75861 3.85150 3.80534
# Velocity P-wave (km/s) = 6.98182 7.05724 7.01963
#
# Compressibility (1/GPa) = 0.01581768
#
# Stress axis : x y z
#
# Youngs Moduli (GPa) = 100.90137 94.93159 93.34982
#
# Poissons Ratio (x) = 0.14631 0.28145
# Poissons Ratio (y) = 0.15551 0.29064
# Poissons Ratio (z) = 0.30422 0.29557
#
# Static dielectric constant tensor:
#      x y z
#    x 3.944610 0.000000 0.000000 
#    y 0.000000 3.590700 0.000000 
#    z 0.000000 0.000000 4.333820 
# 
# 
# High freq. dielectric constant tensor:
#      x y z
#    x 1.831790 0.000000 0.000000 
#    y 0.000000 1.804850 0.000000 
#    z 0.000000 0.000000 1.856730 
# 
# From -- ./inp_files/2404.got.cif
#   From: 2010.06.25/outbox.cif.g09.slc.cpg/sg52_2_cif.got.tgz:2404.got - 2010.06.26 19:32:48.
