data_PCOD8216230
_publ_section_title
;
Structure prediction by ZEFSAII (Michael W. Deem and Ramdas Pophale) SiO2 
 PCOD8216230
Probable space group: P N N A
;
_chemical_formula_sum "Si O2"
_cell_formula_units_Z 48
_cell_length_a 30.800530
_cell_length_b 5.129885
_cell_length_c 14.357740
_cell_angle_alpha 90.000000
_cell_angle_beta 90.000000
_cell_angle_gamma 90.000000
_cell_volume 2268.568532
_symmetry_space_group_name_H-M "P N N A"
_symmetry_group_IT_number 52
_symmetry_cell_setting 'orthorhombic'
loop_
_space_group_symop_operation_xyz
x,y,z
1/2-x,-y,z
x,1/2-y,1/2-z
1/2-x,1/2+y,1/2-z
-x,-y,-z
1/2+x,y,-z
-x,1/2+y,1/2+z
1/2+x,1/2-y,1/2+z
loop_
_atom_site_type_symbol
_atom_site_label
_atom_site_fract_x
_atom_site_fract_y
_atom_site_fract_z
Si Si1 0.017873 0.284728 0.569734
Si Si2 0.105849 0.257076 0.644578
Si Si3 0.720984 0.742294 0.936468
Si Si4 0.435360 0.029670 0.411946
Si Si5 0.830678 0.250000 0.750000
Si Si6 0.889400 0.750000 0.750000
Si Si7 0.133250 0.750197 0.536577
O O1 0.055224 0.356241 0.643813
O O2 0.044136 0.078031 0.507105
O O3 0.000000 0.500000 0.500000
O O4 0.976523 0.185814 0.630495
O O5 0.122407 0.250000 0.750000
O O6 0.130023 0.465329 0.580617
O O7 0.117465 0.971279 0.607197
O O8 0.750000 0.500000 0.962989
O O9 0.700590 0.695702 0.835629
O O10 0.750000 0.000000 0.939816
O O11 0.683692 0.736601 0.013480
O O12 0.419538 0.810716 0.339533
O O13 0.395281 0.218997 0.440965
O O14 0.860358 0.499797 0.727021
#
# Coordination Sequence:
#
# PCOD8216230 Si02
#       7
#     8   8   8   8   4   4   8
#     4  10  21  39  63  90 133 175 229 280 328 378
#     4  11  24  42  69  97 131 175 228 282 339 396
#     4  12  25  44  71 101 134 173 218 270 337 412
#     4  10  23  40  59  93 132 184 220 277 322 392
#     4  12  26  43  66 102 142 174 222 268 328 399
#     4  12  26  39  66  96 138 184 226 258 332 403
#     4  11  23  44  69  93 134 173 222 272 344 405
#
# _framework density 21.158718
#
# number of rings (size 3 to 8) (size 9 to 14) (size 15 to 20)
#    0.000    1.000    3.333    3.000    7.000    1.333 
#    0.000    0.000    0.000   10.000    0.000    0.000 
#    0.000    0.000    0.000    0.000    0.000    0.000 
#
# Total GULP energy -594878.957307 kJ/mol
# GULP energy per Si atom -12393.311611 kJ/mol
# Density = 2.111056 g / cm^3
# Si number density = 21.158718 Si / 1000 Ang^3
#
#
#
# Elastic Constant Matrix: (Units=GPa)
#
#
# Indices 1 2 3 4 5 6 
#
# 1 149.4932 29.7593 28.7798 0.0000 0.0000 0.0000
# 2 29.7593 79.4897 -2.7767 0.0000 0.0000 0.0000
# 3 28.7798 -2.7767 63.5792 0.0000 0.0000 0.0000
# 4 0.0000 0.0000 0.0000 36.5918 0.0000 0.0000
# 5 0.0000 0.0000 0.0000 0.0000 7.4901 0.0000
# 6 0.0000 0.0000 0.0000 0.0000 0.0000 40.6375
#
#
#
# Elastic Compliance Matrix: (Units=1/GPa)
#
#
# Indices 1 2 3 4 5 6 
#
# 1 0.008042 -0.003143 -0.003778 0.000000 0.000000 0.000000
# 2 -0.003143 0.013828 0.002027 0.000000 0.000000 0.000000
# 3 -0.003778 0.002027 0.017527 0.000000 0.000000 0.000000
# 4 0.000000 0.000000 0.000000 0.027329 0.000000 0.000000
# 5 0.000000 0.000000 0.000000 0.000000 0.133509 0.000000
# 6 0.000000 0.000000 0.000000 0.000000 0.000000 0.024608
#
#
# Mechanical properties :
#
#
# Convention : Reuss Voigt Hill
#
# Bulk Modulus (GPa) = 33.77362 44.89855 39.33608
# Shear Modulus (GPa) = 20.44993 32.73053 26.59023
#
# Velocity S-wave (km/s) = 3.11223 3.93734 3.54885
# Velocity P-wave (km/s) = 5.37693 6.47581 5.95178
#
# Compressibility (1/GPa) = 0.02960891
#
# Stress axis : x y z
#
# Youngs Moduli (GPa) = 124.34485 72.31898 57.05510
#
# Poissons Ratio (x) = 0.22728 0.21553
# Poissons Ratio (y) = 0.39079 -0.11562
# Poissons Ratio (z) = 0.46973 -0.14656
#
# Static dielectric constant tensor:
#      x y z
#    x 4.393910 0.000000 0.000000 
#    y 0.000000 3.870210 0.000000 
#    z 0.000000 0.000000 3.637090 
# 
# 
# High freq. dielectric constant tensor:
#      x y z
#    x 1.844450 0.000000 0.000000 
#    y 0.000000 1.836820 0.000000 
#    z 0.000000 0.000000 1.811290 
# 
# From -- ./inp_files/29455.got.cif
#   From: 2010.06.25/outbox.cif.g09.slc.cpg/sg52_15_cif.got.tgz:29455.got - 2010.06.26 19:32:48.
