data_PCOD8216096
_publ_section_title
;
Structure prediction by ZEFSAII (Michael W. Deem and Ramdas Pophale) SiO2 
 PCOD8216096
Probable space group: P N N A
;
_chemical_formula_sum "Si O2"
_cell_formula_units_Z 56
_cell_length_a 14.235292
_cell_length_b 8.999191
_cell_length_c 20.348536
_cell_angle_alpha 90.000000
_cell_angle_beta 90.000000
_cell_angle_gamma 90.000000
_cell_volume 2606.771825
_symmetry_space_group_name_H-M "P N N A"
_symmetry_group_IT_number 52
_symmetry_cell_setting 'orthorhombic'
loop_
_space_group_symop_operation_xyz
x,y,z
1/2-x,-y,z
x,1/2-y,1/2-z
1/2-x,1/2+y,1/2-z
-x,-y,-z
1/2+x,y,-z
-x,1/2+y,1/2+z
1/2+x,1/2-y,1/2+z
loop_
_atom_site_type_symbol
_atom_site_label
_atom_site_fract_x
_atom_site_fract_y
_atom_site_fract_z
Si Si1 0.656637 0.062812 0.659757
Si Si2 0.161985 0.399990 0.362094
Si Si3 0.722679 0.156446 0.000972
Si Si4 0.384948 0.382844 0.031680
Si Si5 0.492082 0.578078 0.263381
Si Si6 0.657645 0.094347 0.282285
Si Si7 0.590565 0.374902 0.072960
O O1 0.674227 0.236605 0.666063
O O2 0.567254 0.013595 0.701969
O O3 0.750000 0.000000 0.693218
O O4 0.647127 0.005904 0.584849
O O5 0.250000 0.500000 0.339794
O O6 0.154916 0.391202 0.440792
O O7 0.064181 0.457897 0.330835
O O8 0.813235 0.245229 0.972438
O O9 0.750000 0.000000 0.035832
O O10 0.667253 0.253743 0.052772
O O11 0.486802 0.319314 0.052170
O O12 0.388809 0.466181 0.961545
O O13 0.514521 0.750000 0.250000
O O14 0.589949 0.490903 0.268791
O O15 0.686279 0.250000 0.250000
O O16 0.599475 0.108391 0.349487
O O17 0.750000 0.000000 0.296270
#
# Coordination Sequence:
#
# PCOD8216096 Si02
#       7
#     8   8   8   8   8   8   8
#     4  11  18  35  62  93 131 169 216 254 309 395
#     4  10  21  36  59  97 139 172 200 263 336 394
#     4  11  23  40  65  99 140 170 209 278 343 397
#     4  11  21  40  71 100 129 171 225 273 322 407
#     4  10  23  40  63  96 130 174 215 265 322 394
#     4  12  27  47  69  92 127 175 229 283 326 390
#     4  11  24  44  71  98 125 175 228 276 332 388
#
# _framework density 21.482509
#
# number of rings (size 3 to 8) (size 9 to 14) (size 15 to 20)
#    0.000    1.143    4.286    2.143    0.000    4.571 
#    0.000    2.857    0.000    0.000    0.000    0.000 
#    0.000    0.000    0.000    0.000    0.000    0.000 
#
# Total GULP energy -694368.062019 kJ/mol
# GULP energy per Si atom -12399.429679 kJ/mol
# Density = 2.143361 g / cm^3
# Si number density = 21.482509 Si / 1000 Ang^3
#
#
#
# Elastic Constant Matrix: (Units=GPa)
#
#
# Indices 1 2 3 4 5 6 
#
# 1 123.1195 51.4254 23.8257 0.0000 0.0000 0.0000
# 2 51.4254 96.6467 21.7001 0.0000 0.0000 0.0000
# 3 23.8257 21.7001 70.7860 0.0000 0.0000 0.0000
# 4 0.0000 0.0000 0.0000 19.0605 0.0000 0.0000
# 5 0.0000 0.0000 0.0000 0.0000 21.7604 0.0000
# 6 0.0000 0.0000 0.0000 0.0000 0.0000 27.3323
#
#
#
# Elastic Compliance Matrix: (Units=1/GPa)
#
#
# Indices 1 2 3 4 5 6 
#
# 1 0.010699 -0.005245 -0.001993 0.000000 0.000000 0.000000
# 2 -0.005245 0.013683 -0.002429 0.000000 0.000000 0.000000
# 3 -0.001993 -0.002429 0.015543 0.000000 0.000000 0.000000
# 4 0.000000 0.000000 0.000000 0.052464 0.000000 0.000000
# 5 0.000000 0.000000 0.000000 0.000000 0.045955 0.000000
# 6 0.000000 0.000000 0.000000 0.000000 0.000000 0.036587
#
#
# Mechanical properties :
#
#
# Convention : Reuss Voigt Hill
#
# Bulk Modulus (GPa) = 48.56834 53.82830 51.19832
# Shear Modulus (GPa) = 24.85960 26.53738 25.69849
#
# Velocity S-wave (km/s) = 3.40546 3.51850 3.46244
# Velocity P-wave (km/s) = 6.17416 6.45117 6.31419
#
# Compressibility (1/GPa) = 0.02058954
#
# Stress axis : x y z
#
# Youngs Moduli (GPa) = 93.46875 73.08125 64.33909
#
# Poissons Ratio (x) = 0.38333 0.12823
# Poissons Ratio (y) = 0.49027 0.15630
# Poissons Ratio (z) = 0.18629 0.17753
#
# Static dielectric constant tensor:
#      x y z
#    x 4.019650 0.000000 0.000000 
#    y 0.000000 3.898910 0.000000 
#    z 0.000000 0.000000 3.756780 
# 
# 
# High freq. dielectric constant tensor:
#      x y z
#    x 1.848380 0.000000 0.000000 
#    y 0.000000 1.841350 0.000000 
#    z 0.000000 0.000000 1.832660 
# 
# From -- ./inp_files/37345.got.cif
#   From: 2010.06.25/outbox.cif.g09.slc.cpg/sg52_19_cif.got.tgz:37345.got - 2010.06.26 19:32:48.
