data_PCOD8216459
_publ_section_title
;
Structure prediction by ZEFSAII (Michael W. Deem and Ramdas Pophale) SiO2 
 PCOD8216459
Probable space group: P N N A
;
_chemical_formula_sum "Si O2"
_cell_formula_units_Z 64
_cell_length_a 18.601445
_cell_length_b 19.273026
_cell_length_c 9.727011
_cell_angle_alpha 90.000000
_cell_angle_beta 90.000000
_cell_angle_gamma 90.000000
_cell_volume 3487.193100
_symmetry_space_group_name_H-M "P N N A"
_symmetry_group_IT_number 52
_symmetry_cell_setting 'orthorhombic'
loop_
_space_group_symop_operation_xyz
x,y,z
1/2-x,-y,z
x,1/2-y,1/2-z
1/2-x,1/2+y,1/2-z
-x,-y,-z
1/2+x,y,-z
-x,1/2+y,1/2+z
1/2+x,1/2-y,1/2+z
loop_
_atom_site_type_symbol
_atom_site_label
_atom_site_fract_x
_atom_site_fract_y
_atom_site_fract_z
Si Si1 0.167348 0.669702 0.618242
Si Si2 0.299391 0.682826 0.428829
Si Si3 0.359671 0.179734 0.568241
Si Si4 0.671283 0.474338 0.843720
Si Si5 0.069949 0.542451 0.948989
Si Si6 0.725819 0.332595 0.879143
Si Si7 0.428070 0.044751 0.860822
Si Si8 0.086419 0.432347 0.413351
O O1 0.246524 0.664678 0.553687
O O2 0.123274 0.737614 0.561796
O O3 0.176336 0.668531 0.782556
O O4 0.125029 0.601181 0.573938
O O5 0.259291 0.666979 0.284995
O O6 0.317545 0.764819 0.430903
O O7 0.373172 0.639967 0.443811
O O8 0.429611 0.128413 0.548327
O O9 0.302444 0.160511 0.451593
O O10 0.750000 0.500000 0.804793
O O11 0.674282 0.397614 0.910774
O O12 0.626489 0.476558 0.703205
O O13 0.636762 0.523448 0.956497
O O14 0.088528 0.520719 0.794166
O O15 0.000000 0.500000 0.000000
O O16 0.506110 0.081295 0.860677
O O17 0.419862 0.975208 0.947041
#
# Coordination Sequence:
#
# PCOD8216459 Si02
#       8
#     8   8   8   8   8   8   8   8
#     4   9  19  34  56  81 105 144 181 225 273 331
#     4   9  19  35  56  82 108 140 186 227 276 319
#     4   9  18  35  54  80 110 141 180 222 276 331
#     4  11  21  35  59  85 110 146 186 227 278 326
#     4  11  21  38  55  81 113 148 184 228 275 330
#     4   9  18  34  54  84 108 140 180 232 273 323
#     4  10  22  38  55  79 113 147 184 223 283 332
#     4  10  22  38  55  80 112 146 181 232 274 330
#
# _framework density 18.352868999999998
#
# number of rings (size 3 to 8) (size 9 to 14) (size 15 to 20)
#    0.000    2.250    2.500    0.000    3.500    1.000 
#    2.250    2.500    0.000    0.000    0.000    0.000 
#    0.000    0.000    0.000    0.000    0.000    0.000 
#
# Total GULP energy -793105.372579 kJ/mol
# GULP energy per Si atom -12392.271447 kJ/mol
# Density = 1.831110 g / cm^3
# Si number density = 18.352869 Si / 1000 Ang^3
#
#
#
# Elastic Constant Matrix: (Units=GPa)
#
#
# Indices 1 2 3 4 5 6 
#
# 1 65.6916 32.7493 21.8059 0.0000 0.0000 0.0000
# 2 32.7493 91.2345 26.0366 0.0000 0.0000 0.0000
# 3 21.8059 26.0366 65.1490 0.0000 0.0000 0.0000
# 4 0.0000 0.0000 0.0000 20.1679 0.0000 0.0000
# 5 0.0000 0.0000 0.0000 0.0000 23.7019 0.0000
# 6 0.0000 0.0000 0.0000 0.0000 0.0000 36.3387
#
#
#
# Elastic Compliance Matrix: (Units=1/GPa)
#
#
# Indices 1 2 3 4 5 6 
#
# 1 0.019514 -0.005802 -0.004212 0.000000 0.000000 0.000000
# 2 -0.005802 0.014097 -0.003692 0.000000 0.000000 0.000000
# 3 -0.004212 -0.003692 0.018235 0.000000 0.000000 0.000000
# 4 0.000000 0.000000 0.000000 0.049584 0.000000 0.000000
# 5 0.000000 0.000000 0.000000 0.000000 0.042191 0.000000
# 6 0.000000 0.000000 0.000000 0.000000 0.000000 0.027519
#
#
# Mechanical properties :
#
#
# Convention : Reuss Voigt Hill
#
# Bulk Modulus (GPa) = 40.92944 42.58429 41.75686
# Shear Modulus (GPa) = 24.19008 25.47392 24.83200
#
# Velocity S-wave (km/s) = 3.63444 3.72964 3.68235
# Velocity P-wave (km/s) = 6.32155 6.46532 6.39384
#
# Compressibility (1/GPa) = 0.02443229
#
# Stress axis : x y z
#
# Youngs Moduli (GPa) = 51.24625 70.93632 54.84029
#
# Poissons Ratio (x) = 0.41160 0.23101
# Poissons Ratio (y) = 0.29735 0.20246
# Poissons Ratio (z) = 0.21587 0.26188
#
# Static dielectric constant tensor:
#      x y z
#    x 3.180920 0.000000 0.000000 
#    y 0.000000 3.761850 0.000000 
#    z 0.000000 0.000000 3.410100 
# 
# 
# High freq. dielectric constant tensor:
#      x y z
#    x 1.684200 0.000000 0.000000 
#    y 0.000000 1.724740 0.000000 
#    z 0.000000 0.000000 1.717200 
# 
# From -- ./inp_files/12594.got.cif
#   From: 2010.06.25/outbox.cif.g09.slc.cpg/sg52_7_cif.got.tgz:12594.got - 2010.06.26 19:32:48.
