data_PCOD8216361
_publ_section_title
;
Structure prediction by ZEFSAII (Michael W. Deem and Ramdas Pophale) SiO2 
 PCOD8216361
Probable space group: P N N A
;
_chemical_formula_sum "Si O2"
_cell_formula_units_Z 32
_cell_length_a 9.300947
_cell_length_b 14.825592
_cell_length_c 11.685294
_cell_angle_alpha 90.000000
_cell_angle_beta 90.000000
_cell_angle_gamma 90.000000
_cell_volume 1611.309091
_symmetry_space_group_name_H-M "P N N A"
_symmetry_group_IT_number 52
_symmetry_cell_setting 'orthorhombic'
loop_
_space_group_symop_operation_xyz
x,y,z
1/2-x,-y,z
x,1/2-y,1/2-z
1/2-x,1/2+y,1/2-z
-x,-y,-z
1/2+x,y,-z
-x,1/2+y,1/2+z
1/2+x,1/2-y,1/2+z
loop_
_atom_site_type_symbol
_atom_site_label
_atom_site_fract_x
_atom_site_fract_y
_atom_site_fract_z
Si Si1 0.250000 0.000000 0.224736
Si Si2 0.420281 0.928525 0.423639
Si Si3 0.623410 0.250000 0.250000
Si Si4 0.150824 0.687061 0.350833
Si Si5 0.308902 0.319153 0.950139
O O1 0.387907 0.972341 0.300872
O O2 0.209842 0.914503 0.146789
O O3 0.267168 0.898352 0.476777
O O4 0.528355 0.843865 0.415046
O O5 0.500000 0.000000 0.500000
O O6 0.521135 0.315584 0.326048
O O7 0.721113 0.308192 0.166181
O O8 0.222673 0.750000 0.250000
O O9 0.184951 0.728353 0.474766
#
# Coordination Sequence:
#
# PCOD8216361 Si02
#       5
#     4   8   4   8   8
#     4  12  22  38  70  96 130 180 224 276 344 396
#     4  12  20  37  64  98 121 166 228 275 317 392
#     4  10  22  42  64  92 134 176 218 278 328 402
#     4  10  21  42  63  93 138 169 216 290 335 387
#     4  12  22  39  68  90 134 173 215 274 343 386
#
# _framework density 19.859627
#
# number of rings (size 3 to 8) (size 9 to 14) (size 15 to 20)
#    0.750    0.000    7.500    1.500    0.000    2.000 
#    0.000    1.250    5.500    0.000    0.000    0.000 
#    0.000    0.000    0.000    0.000    0.000    0.000 
#
# Total GULP energy -396731.212345 kJ/mol
# GULP energy per Si atom -12397.850386 kJ/mol
# Density = 1.981443 g / cm^3
# Si number density = 19.859627 Si / 1000 Ang^3
#
#
#
# Elastic Constant Matrix: (Units=GPa)
#
#
# Indices 1 2 3 4 5 6 
#
# 1 96.5785 30.4701 23.1000 0.0000 0.0000 0.0000
# 2 30.4701 118.6524 31.4920 0.0000 0.0000 0.0000
# 3 23.1000 31.4920 61.7961 0.0000 0.0000 0.0000
# 4 0.0000 0.0000 0.0000 37.9428 0.0000 0.0000
# 5 0.0000 0.0000 0.0000 0.0000 17.7817 0.0000
# 6 0.0000 0.0000 0.0000 0.0000 0.0000 26.1583
#
#
#
# Elastic Compliance Matrix: (Units=1/GPa)
#
#
# Indices 1 2 3 4 5 6 
#
# 1 0.011829 -0.002156 -0.003323 0.000000 0.000000 0.000000
# 2 -0.002156 0.010139 -0.004361 0.000000 0.000000 0.000000
# 3 -0.003323 -0.004361 0.019647 0.000000 0.000000 0.000000
# 4 0.000000 0.000000 0.000000 0.026355 0.000000 0.000000
# 5 0.000000 0.000000 0.000000 0.000000 0.056238 0.000000
# 6 0.000000 0.000000 0.000000 0.000000 0.000000 0.038229
#
#
# Mechanical properties :
#
#
# Convention : Reuss Voigt Hill
#
# Bulk Modulus (GPa) = 45.58926 49.68347 47.63637
# Shear Modulus (GPa) = 26.39505 29.17420 27.78463
#
# Velocity S-wave (km/s) = 3.64961 3.83694 3.74445
# Velocity P-wave (km/s) = 6.38476 6.68589 6.53706
#
# Compressibility (1/GPa) = 0.02193499
#
# Stress axis : x y z
#
# Youngs Moduli (GPa) = 84.53605 98.62822 50.89828
#
# Poissons Ratio (x) = 0.21261 0.16915
# Poissons Ratio (y) = 0.18224 0.22198
# Poissons Ratio (z) = 0.28094 0.43013
#
# Static dielectric constant tensor:
#      x y z
#    x 4.611850 0.000000 0.000000 
#    y 0.000000 3.322770 0.000000 
#    z 0.000000 0.000000 3.371280 
# 
# 
# High freq. dielectric constant tensor:
#      x y z
#    x 1.780480 0.000000 0.000000 
#    y 0.000000 1.765720 0.000000 
#    z 0.000000 0.000000 1.750220 
# 
# From -- ./inp_files/16447.got.cif
#   From: 2010.06.25/outbox.cif.g09.slc.cpg/sg52_9_cif.got.tgz:16447.got - 2010.06.26 19:32:48.
