data_PCOD8216004
_publ_section_title
;
Structure prediction by ZEFSAII (Michael W. Deem and Ramdas Pophale) SiO2 
 PCOD8216004
Probable space group: P N N A
;
_chemical_formula_sum "Si O2"
_cell_formula_units_Z 60
_cell_length_a 8.471058
_cell_length_b 12.477461
_cell_length_c 28.106364
_cell_angle_alpha 90.000000
_cell_angle_beta 90.000000
_cell_angle_gamma 90.000000
_cell_volume 2970.766670
_symmetry_space_group_name_H-M "P N N A"
_symmetry_group_IT_number 52
_symmetry_cell_setting 'orthorhombic'
loop_
_space_group_symop_operation_xyz
x,y,z
1/2-x,-y,z
x,1/2-y,1/2-z
1/2-x,1/2+y,1/2-z
-x,-y,-z
1/2+x,y,-z
-x,1/2+y,1/2+z
1/2+x,1/2-y,1/2+z
loop_
_atom_site_type_symbol
_atom_site_label
_atom_site_fract_x
_atom_site_fract_y
_atom_site_fract_z
Si Si1 0.750000 0.000000 0.087402
Si Si2 0.356354 0.406723 0.904296
Si Si3 0.082505 0.560133 0.365740
Si Si4 0.660133 0.336057 0.182708
Si Si5 0.257753 0.778948 0.964814
Si Si6 0.108004 0.940726 0.374609
Si Si7 0.360744 0.902349 0.789684
Si Si8 0.109355 0.748490 0.062875
O O1 0.581822 0.005112 0.115662
O O2 0.767008 0.102473 0.054176
O O3 0.250000 0.500000 0.927880
O O4 0.296711 0.381963 0.850524
O O5 0.360327 0.301994 0.937378
O O6 0.526999 0.456024 0.898296
O O7 0.250000 0.500000 0.369360
O O8 0.113554 0.667837 0.394266
O O9 0.039840 0.579719 0.309645
O O10 0.492542 0.363731 0.159225
O O11 0.694443 0.209361 0.186333
O O12 0.652612 0.393997 0.233334
O O13 0.432610 0.735609 0.956586
O O14 0.224378 0.784501 0.020772
O O15 0.168258 0.865688 0.417627
O O16 0.250000 0.000000 0.346492
O O17 0.250000 0.000000 0.807093
#
# Coordination Sequence:
#
# PCOD8216004 Si02
#       8
#     4   8   8   8   8   8   8   8
#     4  10  24  44  64  94 132 184 216 280 344 394
#     4  10  20  41  62  88 123 169 211 271 323 395
#     4  11  24  41  66  95 139 171 221 277 338 404
#     4  10  21  43  68  97 132 169 219 273 336 407
#     4  11  24  40  66  89 130 169 229 270 333 399
#     4  11  23  40  62  88 132 171 215 270 339 389
#     4  11  21  40  72 100 128 174 220 273 341 403
#     4  11  25  42  59  97 125 173 219 276 333 389
#
# _framework density 20.196808000000001
#
# number of rings (size 3 to 8) (size 9 to 14) (size 15 to 20)
#    0.000    1.333    4.667    2.000    4.667    2.667 
#    0.000    0.000    0.000    1.600    0.000    0.000 
#    0.000    0.000    0.000    0.000    0.000    0.000 
#
# Total GULP energy -743300.391518 kJ/mol
# GULP energy per Si atom -12388.339859 kJ/mol
# Density = 2.015084 g / cm^3
# Si number density = 20.196808 Si / 1000 Ang^3
#
#
#
# Elastic Constant Matrix: (Units=GPa)
#
#
# Indices 1 2 3 4 5 6 
#
# 1 86.6460 50.0076 25.4610 0.0000 0.0000 0.0000
# 2 50.0076 138.0702 53.1869 0.0000 0.0000 0.0000
# 3 25.4610 53.1869 90.4919 0.0000 0.0000 0.0000
# 4 0.0000 0.0000 0.0000 14.9023 0.0000 0.0000
# 5 0.0000 0.0000 0.0000 0.0000 21.6765 0.0000
# 6 0.0000 0.0000 0.0000 0.0000 0.0000 28.3590
#
#
#
# Elastic Compliance Matrix: (Units=1/GPa)
#
#
# Indices 1 2 3 4 5 6 
#
# 1 0.014709 -0.004826 -0.001302 0.000000 0.000000 0.000000
# 2 -0.004826 0.010946 -0.005076 0.000000 0.000000 0.000000
# 3 -0.001302 -0.005076 0.014400 0.000000 0.000000 0.000000
# 4 0.000000 0.000000 0.000000 0.067104 0.000000 0.000000
# 5 0.000000 0.000000 0.000000 0.000000 0.046133 0.000000
# 6 0.000000 0.000000 0.000000 0.000000 0.000000 0.035262
#
#
# Mechanical properties :
#
#
# Convention : Reuss Voigt Hill
#
# Bulk Modulus (GPa) = 56.66395 63.61322 60.13858
# Shear Modulus (GPa) = 23.05806 25.42440 24.24123
#
# Velocity S-wave (km/s) = 3.38252 3.55185 3.46822
# Velocity P-wave (km/s) = 6.58575 6.95600 6.77340
#
# Compressibility (1/GPa) = 0.01764790
#
# Stress axis : x y z
#
# Youngs Moduli (GPa) = 67.98513 91.35952 69.44310
#
# Poissons Ratio (x) = 0.44089 0.09043
# Poissons Ratio (y) = 0.32809 0.35246
# Poissons Ratio (z) = 0.08853 0.46370
#
# Static dielectric constant tensor:
#      x y z
#    x 3.765950 0.000000 0.000000 
#    y 0.000000 3.903710 0.000000 
#    z 0.000000 0.000000 3.774630 
# 
# 
# High freq. dielectric constant tensor:
#      x y z
#    x 1.775210 0.000000 0.000000 
#    y 0.000000 1.808380 0.000000 
#    z 0.000000 0.000000 1.786520 
# 
# From -- ./inp_files/42341.got.cif
#   From: 2010.06.25/outbox.cif.g09.slc.cpg/sg52_22_cif.got.tgz:42341.got - 2010.06.26 19:32:48.
