data_PCOD8216967
_publ_section_title
;
Structure prediction by ZEFSAII (Michael W. Deem and Ramdas Pophale) SiO2 
 PCOD8216967
Probable space group: P N N A
;
_chemical_formula_sum "Si O2"
_cell_formula_units_Z 60
_cell_length_a 12.256413
_cell_length_b 9.632165
_cell_length_c 23.647573
_cell_angle_alpha 90.000000
_cell_angle_beta 90.000000
_cell_angle_gamma 90.000000
_cell_volume 2791.732967
_symmetry_space_group_name_H-M "P N N A"
_symmetry_group_IT_number 52
_symmetry_cell_setting 'orthorhombic'
loop_
_space_group_symop_operation_xyz
x,y,z
1/2-x,-y,z
x,1/2-y,1/2-z
1/2-x,1/2+y,1/2-z
-x,-y,-z
1/2+x,y,-z
-x,1/2+y,1/2+z
1/2+x,1/2-y,1/2+z
loop_
_atom_site_type_symbol
_atom_site_label
_atom_site_fract_x
_atom_site_fract_y
_atom_site_fract_z
Si Si1 0.054018 0.239261 0.813998
Si Si2 0.089149 0.016693 0.045283
Si Si3 0.931189 0.500511 0.840278
Si Si4 0.237468 0.654833 0.613261
Si Si5 0.996444 0.314239 0.349081
Si Si6 0.766996 0.281384 0.510522
Si Si7 0.250000 0.500000 0.071307
Si Si8 0.374937 0.485243 0.284980
O O1 0.099084 0.250000 0.750000
O O2 0.150580 0.186536 0.854027
O O3 0.030033 0.391298 0.839314
O O4 0.943422 0.143215 0.813004
O O5 0.047125 0.081788 0.103612
O O6 0.161705 0.126258 0.013219
O O7 0.143711 0.862433 0.050048
O O8 0.000000 0.000000 0.000000
O O9 0.974233 0.653865 0.853762
O O10 0.853548 0.462244 0.891384
O O11 0.864900 0.475108 0.782379
O O12 0.250000 0.500000 0.591228
O O13 0.206606 0.740572 0.556405
O O14 0.134235 0.672156 0.655283
O O15 0.054600 0.374236 0.293320
O O16 0.733653 0.131976 0.532427
O O17 0.250000 0.500000 0.309672
#
# Coordination Sequence:
#
# PCOD8216967 Si02
#       8
#     8   8   8   8   8   8   4   8
#     4  10  26  47  71 103 140 190 227 287 360 416
#     4  11  22  43  65  97 134 175 237 287 342 419
#     4  11  26  45  64 104 147 181 225 295 351 423
#     4  12  23  49  73 100 137 184 243 292 336 425
#     4  12  25  41  72 105 134 187 236 288 350 411
#     4  11  25  42  71  99 136 184 230 294 355 416
#     4  12  26  44  66 104 150 182 226 290 368 420
#     4  11  25  43  73 105 138 183 238 284 352 420
#
# _framework density 21.492025999999999
#
# number of rings (size 3 to 8) (size 9 to 14) (size 15 to 20)
#    0.000    0.800    6.000    0.400    5.600    3.733 
#    0.000    2.000    0.000    0.000    0.000    0.000 
#    0.000    0.000    0.000    0.000    0.000    0.000 
#
# Total GULP energy -743391.785814 kJ/mol
# GULP energy per Si atom -12389.863097 kJ/mol
# Density = 2.144311 g / cm^3
# Si number density = 21.492026 Si / 1000 Ang^3
#
#
#
# Elastic Constant Matrix: (Units=GPa)
#
#
# Indices 1 2 3 4 5 6 
#
# 1 115.4099 29.1376 35.7968 0.0000 0.0000 0.0000
# 2 29.1376 95.6166 42.9903 0.0000 0.0000 0.0000
# 3 35.7968 42.9903 87.4498 0.0000 0.0000 0.0000
# 4 0.0000 0.0000 0.0000 26.3140 0.0000 0.0000
# 5 0.0000 0.0000 0.0000 0.0000 421.7965 0.0000
# 6 0.0000 0.0000 0.0000 0.0000 0.0000 19.1360
#
#
#
# Elastic Compliance Matrix: (Units=1/GPa)
#
#
# Indices 1 2 3 4 5 6 
#
# 1 0.010104 -0.001565 -0.003366 0.000000 0.000000 0.000000
# 2 -0.001565 0.013668 -0.006079 0.000000 0.000000 0.000000
# 3 -0.003366 -0.006079 0.015801 0.000000 0.000000 0.000000
# 4 0.000000 0.000000 0.000000 0.038003 0.000000 0.000000
# 5 0.000000 0.000000 0.000000 0.000000 0.002371 0.000000
# 6 0.000000 0.000000 0.000000 0.000000 0.000000 0.052258
#
#
# Mechanical properties :
#
#
# Convention : Reuss Voigt Hill
#
# Bulk Modulus (GPa) = 56.97041 57.14729 57.05885
# Shear Modulus (GPa) = 31.23492 106.15273 68.69383
#
# Velocity S-wave (km/s) = 3.81639 7.03555 5.65967
# Velocity P-wave (km/s) = 6.78122 9.62529 8.32560
#
# Compressibility (1/GPa) = 0.01755297
#
# Stress axis : x y z
#
# Youngs Moduli (GPa) = 98.96889 73.16092 63.28546
#
# Poissons Ratio (x) = 0.11453 0.21305
# Poissons Ratio (y) = 0.15493 0.38469
# Poissons Ratio (z) = 0.33318 0.44472
#
# Static dielectric constant tensor:
#      x y z
#    x 3.527260 0.000000 0.000000 
#    y 0.000000 4.067750 0.000000 
#    z 0.000000 0.000000 3.795380 
# 
# 
# High freq. dielectric constant tensor:
#      x y z
#    x 1.846480 0.000000 0.000000 
#    y 0.000000 1.849620 0.000000 
#    z 0.000000 0.000000 1.847030 
# 
# From -- ./inp_files/42777.got.cif
#   From: 2010.06.25/outbox.cif.g09.slc.cpg/sg52_22_cif.got.tgz:42777.got - 2010.06.26 19:32:48.
