data_PCOD8216093
_publ_section_title
;
Structure prediction by ZEFSAII (Michael W. Deem and Ramdas Pophale) SiO2 
 PCOD8216093
Probable space group: P N N A
;
_chemical_formula_sum "Si O2"
_cell_formula_units_Z 60
_cell_length_a 14.284474
_cell_length_b 11.706481
_cell_length_c 18.513156
_cell_angle_alpha 90.000000
_cell_angle_beta 90.000000
_cell_angle_gamma 90.000000
_cell_volume 3095.787043
_symmetry_space_group_name_H-M "P N N A"
_symmetry_group_IT_number 52
_symmetry_cell_setting 'orthorhombic'
loop_
_space_group_symop_operation_xyz
x,y,z
1/2-x,-y,z
x,1/2-y,1/2-z
1/2-x,1/2+y,1/2-z
-x,-y,-z
1/2+x,y,-z
-x,1/2+y,1/2+z
1/2+x,1/2-y,1/2+z
loop_
_atom_site_type_symbol
_atom_site_label
_atom_site_fract_x
_atom_site_fract_y
_atom_site_fract_z
Si Si1 0.800640 0.165161 0.138358
Si Si2 0.106609 0.367981 0.710149
Si Si3 0.047433 0.907874 0.448914
Si Si4 0.012558 0.156756 0.936678
Si Si5 0.048648 0.750000 0.750000
Si Si6 0.816729 0.106095 0.434046
Si Si7 0.525336 0.536172 0.175144
Si Si8 0.852486 0.479633 0.495697
O O1 0.711830 0.116034 0.181103
O O2 0.884855 0.190601 0.191702
O O3 0.767372 0.277295 0.092858
O O4 0.839722 0.069855 0.084555
O O5 0.096321 0.250000 0.750000
O O6 0.031084 0.372485 0.646386
O O7 0.084997 0.467081 0.766603
O O8 0.150379 0.881813 0.481908
O O9 0.985388 0.792671 0.449413
O O10 0.000000 0.000000 0.500000
O O11 0.052578 0.959071 0.366611
O O12 0.091304 0.099353 0.988213
O O13 0.909911 0.107456 0.954540
O O14 0.983730 0.650183 0.785360
O O15 0.906341 0.084849 0.385260
O O16 0.750000 0.000000 0.424807
O O17 0.750000 0.500000 0.531085
#
# Coordination Sequence:
#
# PCOD8216093 Si02
#       8
#     8   8   8   8   4   8   8   8
#     4  11  21  35  53  89 126 159 193 241 305 375
#     4  12  21  35  60  90 126 156 192 241 310 377
#     4  10  21  39  57  80 121 160 205 252 296 364
#     4  11  23  39  59  90 119 164 208 248 309 367
#     4  10  22  32  50  82 124 158 192 228 300 372
#     4  10  21  36  59  85 119 161 207 249 303 360
#     4  10  22  36  55  84 119 159 195 243 304 367
#     4  11  23  39  61  84 123 164 209 257 299 365
#
# _framework density 19.381178999999999
#
# number of rings (size 3 to 8) (size 9 to 14) (size 15 to 20)
#    0.000    1.333    4.667    1.600    3.733    0.000 
#    0.000    0.000    0.000    0.800    0.000    0.000 
#    0.000    0.000    0.000    0.000    0.000    0.000 
#
# Total GULP energy -743691.219585 kJ/mol
# GULP energy per Si atom -12394.853660 kJ/mol
# Density = 1.933707 g / cm^3
# Si number density = 19.381179 Si / 1000 Ang^3
#
#
#
# Elastic Constant Matrix: (Units=GPa)
#
#
# Indices 1 2 3 4 5 6 
#
# 1 55.0509 20.8960 25.2788 0.0000 0.0000 0.0000
# 2 20.8960 128.3390 40.8492 0.0000 0.0000 0.0000
# 3 25.2788 40.8492 84.0097 0.0000 0.0000 0.0000
# 4 0.0000 0.0000 0.0000 31.2610 0.0000 0.0000
# 5 0.0000 0.0000 0.0000 0.0000 -84.9721 0.0000
# 6 0.0000 0.0000 0.0000 0.0000 0.0000 12.4033
#
#
#
# Elastic Compliance Matrix: (Units=1/GPa)
#
#
# Indices 1 2 3 4 5 6 
#
# 1 0.021385 -0.001696 -0.005610 0.000000 0.000000 0.000000
# 2 -0.001696 0.009353 -0.004038 0.000000 0.000000 0.000000
# 3 -0.005610 -0.004038 0.015555 0.000000 0.000000 0.000000
# 4 0.000000 0.000000 0.000000 0.031989 0.000000 0.000000
# 5 0.000000 0.000000 0.000000 0.000000 -0.011769 0.000000
# 6 0.000000 0.000000 0.000000 0.000000 0.000000 0.080624
#
#
# Mechanical properties :
#
#
# Convention : Reuss Voigt Hill
#
# Bulk Modulus (GPa) = 42.36350 49.04973 45.70662
# Shear Modulus (GPa) = 28.13849 3.76348 15.95099
#
# Velocity S-wave (km/s) = 3.81444 1.39500 2.87193
# Velocity P-wave (km/s) = 6.42693 5.28749 5.88486
#
# Compressibility (1/GPa) = 0.02360522
#
# Stress axis : x y z
#
# Youngs Moduli (GPa) = 46.76188 106.91583 64.28933
#
# Poissons Ratio (x) = 0.18136 0.36066
# Poissons Ratio (y) = 0.07932 0.25957
# Poissons Ratio (z) = 0.26234 0.43167
#
# Static dielectric constant tensor:
#      x y z
#    x 3.208380 0.000000 0.000000 
#    y 0.000000 4.035700 0.000000 
#    z 0.000000 0.000000 4.145480 
# 
# 
# High freq. dielectric constant tensor:
#      x y z
#    x 1.703370 0.000000 0.000000 
#    y 0.000000 1.787420 0.000000 
#    z 0.000000 0.000000 1.751270 
# 
# From -- ./inp_files/33249.got.cif
#   From: 2010.06.25/outbox.cif.g09.slc.cpg/sg52_17_cif.got.tgz:33249.got - 2010.06.26 19:32:48.
