data_PCOD8216425
_publ_section_title
;
Structure prediction by ZEFSAII (Michael W. Deem and Ramdas Pophale) SiO2 
 PCOD8216425
Probable space group: P N N A
;
_chemical_formula_sum "Si O2"
_cell_formula_units_Z 60
_cell_length_a 8.841245
_cell_length_b 16.728461
_cell_length_c 18.710941
_cell_angle_alpha 90.000000
_cell_angle_beta 90.000000
_cell_angle_gamma 90.000000
_cell_volume 2767.356073
_symmetry_space_group_name_H-M "P N N A"
_symmetry_group_IT_number 52
_symmetry_cell_setting 'orthorhombic'
loop_
_space_group_symop_operation_xyz
x,y,z
1/2-x,-y,z
x,1/2-y,1/2-z
1/2-x,1/2+y,1/2-z
-x,-y,-z
1/2+x,y,-z
-x,1/2+y,1/2+z
1/2+x,1/2-y,1/2+z
loop_
_atom_site_type_symbol
_atom_site_label
_atom_site_fract_x
_atom_site_fract_y
_atom_site_fract_z
Si Si1 0.920396 0.511652 0.714416
Si Si2 0.448268 0.333766 0.784385
Si Si3 0.287727 0.665237 0.508044
Si Si4 0.518429 0.101823 0.442109
Si Si5 0.541415 0.940696 0.938689
Si Si6 0.250000 0.000000 0.475523
Si Si7 0.971903 0.272192 0.058874
Si Si8 0.658692 0.079239 0.302114
O O1 0.750000 0.500000 0.739701
O O2 0.939503 0.496939 0.630179
O O3 0.953931 0.600423 0.742875
O O4 0.032674 0.445642 0.745934
O O5 0.489173 0.250000 0.750000
O O6 0.481510 0.327094 0.869810
O O7 0.274745 0.357329 0.768859
O O8 0.403457 0.623263 0.563919
O O9 0.198285 0.603138 0.457674
O O10 0.376733 0.720128 0.450740
O O11 0.175658 0.715612 0.559296
O O12 0.669613 0.066433 0.476829
O O13 0.453874 0.173295 0.488854
O O14 0.573859 0.127956 0.364500
O O15 0.383025 0.038656 0.428169
O O16 0.500000 0.000000 0.000000
O O17 0.750000 0.000000 0.329391
#
# Coordination Sequence:
#
# PCOD8216425 Si02
#       8
#     8   8   8   8   8   4   8   8
#     4  11  27  45  70 106 136 179 233 287 343 410
#     4  11  27  45  70  95 143 185 223 281 355 418
#     4  10  24  42  74 102 134 173 227 294 342 407
#     4  11  21  39  62  97 132 177 226 278 322 411
#     4  11  24  44  74 100 131 171 235 289 338 398
#     4  10  22  30  66  90 132 176 226 270 324 372
#     4  11  24  43  67 101 138 177 227 273 360 406
#     4  10  23  44  65  98 135 182 230 276 332 419
#
# _framework density 21.681345
#
# number of rings (size 3 to 8) (size 9 to 14) (size 15 to 20)
#    0.000    1.333    0.667    3.600   14.000    3.200 
#    0.000    0.667    0.000    0.000    0.000    0.000 
#    0.000    0.000    0.000    0.000    0.000    0.000 
#
# Total GULP energy -743772.054552 kJ/mol
# GULP energy per Si atom -12396.200909 kJ/mol
# Density = 2.163200 g / cm^3
# Si number density = 21.681345 Si / 1000 Ang^3
#
#
#
# Elastic Constant Matrix: (Units=GPa)
#
#
# Indices 1 2 3 4 5 6 
#
# 1 142.8961 46.5974 44.6309 0.0000 0.0000 0.0000
# 2 46.5974 107.4665 52.0523 0.0000 0.0000 0.0000
# 3 44.6309 52.0523 105.5452 0.0000 0.0000 0.0000
# 4 0.0000 0.0000 0.0000 42.4279 0.0000 0.0000
# 5 0.0000 0.0000 0.0000 0.0000 25.4432 0.0000
# 6 0.0000 0.0000 0.0000 0.0000 0.0000 28.4620
#
#
#
# Elastic Compliance Matrix: (Units=1/GPa)
#
#
# Indices 1 2 3 4 5 6 
#
# 1 0.008574 -0.002577 -0.002355 0.000000 0.000000 0.000000
# 2 -0.002577 0.013000 -0.005322 0.000000 0.000000 0.000000
# 3 -0.002355 -0.005322 0.013095 0.000000 0.000000 0.000000
# 4 0.000000 0.000000 0.000000 0.023569 0.000000 0.000000
# 5 0.000000 0.000000 0.000000 0.000000 0.039303 0.000000
# 6 0.000000 0.000000 0.000000 0.000000 0.000000 0.035135
#
#
# Mechanical properties :
#
#
# Convention : Reuss Voigt Hill
#
# Bulk Modulus (GPa) = 70.61058 71.38547 70.99802
# Shear Modulus (GPa) = 31.66492 33.44178 32.55335
#
# Velocity S-wave (km/s) = 3.82575 3.93163 3.87905
# Velocity P-wave (km/s) = 7.22173 7.32165 7.27186
#
# Compressibility (1/GPa) = 0.01416218
#
# Stress axis : x y z
#
# Youngs Moduli (GPa) = 116.63315 76.92150 76.36643
#
# Poissons Ratio (x) = 0.19824 0.17981
# Poissons Ratio (y) = 0.30058 0.40639
# Poissons Ratio (z) = 0.27462 0.40935
#
# Static dielectric constant tensor:
#      x y z
#    x 4.083210 0.000000 0.000000 
#    y 0.000000 5.155890 0.000000 
#    z 0.000000 0.000000 3.513320 
# 
# 
# High freq. dielectric constant tensor:
#      x y z
#    x 1.873210 0.000000 0.000000 
#    y 0.000000 1.852600 0.000000 
#    z 0.000000 0.000000 1.834190 
# 
# From -- ./inp_files/31481.got.cif
#   From: 2010.06.25/outbox.cif.g09.slc.cpg/sg52_16_cif.got.tgz:31481.got - 2010.06.26 19:32:48.
