data_PCOD8216074
_publ_section_title
;
Structure prediction by ZEFSAII (Michael W. Deem and Ramdas Pophale) SiO2 
 PCOD8216074
Probable space group: P N N A
;
_chemical_formula_sum "Si O2"
_cell_formula_units_Z 52
_cell_length_a 9.341264
_cell_length_b 13.109978
_cell_length_c 22.983630
_cell_angle_alpha 90.000000
_cell_angle_beta 90.000000
_cell_angle_gamma 90.000000
_cell_volume 2814.661875
_symmetry_space_group_name_H-M "P N N A"
_symmetry_group_IT_number 52
_symmetry_cell_setting 'orthorhombic'
loop_
_space_group_symop_operation_xyz
x,y,z
1/2-x,-y,z
x,1/2-y,1/2-z
1/2-x,1/2+y,1/2-z
-x,-y,-z
1/2+x,y,-z
-x,1/2+y,1/2+z
1/2+x,1/2-y,1/2+z
loop_
_atom_site_type_symbol
_atom_site_label
_atom_site_fract_x
_atom_site_fract_y
_atom_site_fract_z
Si Si1 0.165254 0.707356 0.841414
Si Si2 0.109384 0.131813 0.798927
Si Si3 0.750000 0.000000 0.298396
Si Si4 0.750000 0.000000 0.107530
Si Si5 0.928342 0.750000 0.750000
Si Si6 0.269049 0.622334 0.441810
Si Si7 0.283338 0.117633 0.187712
Si Si8 0.591554 0.827547 0.045975
O O1 0.298031 0.764097 0.807847
O O2 0.177739 0.584444 0.840060
O O3 0.144346 0.740851 0.908388
O O4 0.022154 0.734531 0.807095
O O5 0.941680 0.153959 0.794301
O O6 0.144520 0.065099 0.742170
O O7 0.138123 0.063580 0.854942
O O8 0.853088 0.064494 0.067878
O O9 0.826480 0.844832 0.763347
O O10 0.250000 0.500000 0.447903
O O11 0.244715 0.662080 0.376460
O O12 0.423106 0.662798 0.461771
O O13 0.159108 0.686668 0.482086
O O14 0.250000 0.000000 0.185132
#
# Coordination Sequence:
#
# PCOD8216074 Si02
#       8
#     8   8   4   4   4   8   8   8
#     4  11  23  39  59  85 117 157 199 242 293 353
#     4  10  21  35  59  89 113 152 197 237 286 358
#     4  11  20  38  64  78 114 156 203 236 292 344
#     4   9  18  32  56  78 124 146 189 232 280 358
#     4  12  22  42  56  86 130 154 188 242 300 352
#     4  11  22  35  57  84 120 152 190 234 298 352
#     4  11  24  37  58  89 124 153 188 238 299 349
#     4  11  22  36  53  87 114 157 192 234 297 353
#
# _framework density 18.474688
#
# number of rings (size 3 to 8) (size 9 to 14) (size 15 to 20)
#    0.000    1.231    3.846    3.231    8.615    0.000 
#    0.000    0.000    0.000    0.923    2.000    0.000 
#    0.000    0.000    0.000    0.000    0.000    0.000 
#
# Total GULP energy -644489.727061 kJ/mol
# GULP energy per Si atom -12394.033213 kJ/mol
# Density = 1.843264 g / cm^3
# Si number density = 18.474688 Si / 1000 Ang^3
#
#
#
# Elastic Constant Matrix: (Units=GPa)
#
#
# Indices 1 2 3 4 5 6 
#
# 1 135.4178 30.6948 24.3992 0.0000 0.0000 0.0000
# 2 30.6948 82.4332 23.0557 0.0000 0.0000 0.0000
# 3 24.3992 23.0557 72.2956 0.0000 0.0000 0.0000
# 4 0.0000 0.0000 0.0000 40.4109 0.0000 0.0000
# 5 0.0000 0.0000 0.0000 0.0000 56.6026 0.0000
# 6 0.0000 0.0000 0.0000 0.0000 0.0000 18.8590
#
#
#
# Elastic Compliance Matrix: (Units=1/GPa)
#
#
# Indices 1 2 3 4 5 6 
#
# 1 0.008320 -0.002539 -0.001998 0.000000 0.000000 0.000000
# 2 -0.002539 0.014094 -0.003638 0.000000 0.000000 0.000000
# 3 -0.001998 -0.003638 0.015667 0.000000 0.000000 0.000000
# 4 0.000000 0.000000 0.000000 0.024746 0.000000 0.000000
# 5 0.000000 0.000000 0.000000 0.000000 0.017667 0.000000
# 6 0.000000 0.000000 0.000000 0.000000 0.000000 0.053025
#
#
# Mechanical properties :
#
#
# Convention : Reuss Voigt Hill
#
# Bulk Modulus (GPa) = 46.01849 49.60512 47.81180
# Shear Modulus (GPa) = 31.82434 37.30763 34.56599
#
# Velocity S-wave (km/s) = 4.15491 4.49864 4.33019
# Velocity P-wave (km/s) = 6.92681 7.34114 7.13698
#
# Compressibility (1/GPa) = 0.02173040
#
# Stress axis : x y z
#
# Youngs Moduli (GPa) = 120.19025 70.95237 63.83016
#
# Poissons Ratio (x) = 0.18016 0.12755
# Poissons Ratio (y) = 0.30519 0.23220
# Poissons Ratio (z) = 0.24017 0.25811
#
# Static dielectric constant tensor:
#      x y z
#    x 3.608090 0.000000 0.000000 
#    y 0.000000 3.225280 0.000000 
#    z 0.000000 0.000000 3.608970 
# 
# 
# High freq. dielectric constant tensor:
#      x y z
#    x 1.726940 0.000000 0.000000 
#    y 0.000000 1.687610 0.000000 
#    z 0.000000 0.000000 1.717640 
# 
# From -- ./inp_files/35993.got.cif
#   From: 2010.06.25/outbox.cif.g09.slc.cpg/sg52_18_cif.got.tgz:35993.got - 2010.06.26 19:32:48.
