data_PCOD8216165
_publ_section_title
;
Structure prediction by ZEFSAII (Michael W. Deem and Ramdas Pophale) SiO2 
 PCOD8216165
Probable space group: P N N A
;
_chemical_formula_sum "Si O2"
_cell_formula_units_Z 48
_cell_length_a 7.554144
_cell_length_b 25.037277
_cell_length_c 11.341984
_cell_angle_alpha 90.000000
_cell_angle_beta 90.000000
_cell_angle_gamma 90.000000
_cell_volume 2145.168365
_symmetry_space_group_name_H-M "P N N A"
_symmetry_group_IT_number 52
_symmetry_cell_setting 'orthorhombic'
loop_
_space_group_symop_operation_xyz
x,y,z
1/2-x,-y,z
x,1/2-y,1/2-z
1/2-x,1/2+y,1/2-z
-x,-y,-z
1/2+x,y,-z
-x,1/2+y,1/2+z
1/2+x,1/2-y,1/2+z
loop_
_atom_site_type_symbol
_atom_site_label
_atom_site_fract_x
_atom_site_fract_y
_atom_site_fract_z
Si Si1 0.353786 0.188632 0.232644
Si Si2 0.081346 0.462015 0.284434
Si Si3 0.849914 0.556622 0.333279
Si Si4 0.060440 0.130141 0.381624
Si Si5 0.804551 0.397763 0.556890
Si Si6 0.672174 0.139383 0.353265
O O1 0.304555 0.250000 0.250000
O O2 0.223693 0.157270 0.317757
O O3 0.328593 0.165079 0.097788
O O4 0.555921 0.180041 0.274709
O O5 0.250000 0.500000 0.264387
O O6 0.047283 0.431095 0.162246
O O7 0.119992 0.419877 0.388654
O O8 0.887942 0.490578 0.320795
O O9 0.710500 0.588543 0.418426
O O10 0.831548 0.580597 0.204007
O O11 0.043600 0.568309 0.383396
O O12 0.088633 0.131802 0.519826
O O13 0.874302 0.160569 0.356657
#
# Coordination Sequence:
#
# PCOD8216165 Si02
#       6
#     8   8   8   8   8   8
#     4  10  23  47  69  96 127 170 220 283 343 402
#     4   9  20  38  62  92 134 181 221 267 330 397
#     4  10  21  38  59  95 127 174 218 261 327 400
#     4  11  23  44  68  94 137 175 219 281 333 390
#     4   9  20  38  61  86 134 163 211 277 323 388
#     4  11  24  43  67  94 133 172 222 274 331 398
#
# _framework density 22.375868000000001
#
# number of rings (size 3 to 8) (size 9 to 14) (size 15 to 20)
#    0.000    2.000    1.667    1.500    4.667    2.000 
#    6.000    0.000    0.000    0.000    0.000    0.000 
#    0.000    0.000    0.000    0.000    0.000    0.000 
#
# Total GULP energy -594666.002836 kJ/mol
# GULP energy per Si atom -12388.875059 kJ/mol
# Density = 2.232494 g / cm^3
# Si number density = 22.375868 Si / 1000 Ang^3
#
#
#
# Elastic Constant Matrix: (Units=GPa)
#
#
# Indices 1 2 3 4 5 6 
#
# 1 131.8174 8.1013 12.0008 0.0000 0.0000 0.0000
# 2 8.1013 115.0024 27.4092 0.0000 0.0000 0.0000
# 3 12.0008 27.4092 69.7165 0.0000 0.0000 0.0000
# 4 0.0000 0.0000 0.0000 18.8994 0.0000 0.0000
# 5 0.0000 0.0000 0.0000 0.0000 22.8538 0.0000
# 6 0.0000 0.0000 0.0000 0.0000 0.0000 17.5229
#
#
#
# Elastic Compliance Matrix: (Units=1/GPa)
#
#
# Indices 1 2 3 4 5 6 
#
# 1 0.007714 -0.000250 -0.001229 0.000000 0.000000 0.000000
# 2 -0.000250 0.009603 -0.003732 0.000000 0.000000 0.000000
# 3 -0.001229 -0.003732 0.016023 0.000000 0.000000 0.000000
# 4 0.000000 0.000000 0.000000 0.052912 0.000000 0.000000
# 5 0.000000 0.000000 0.000000 0.000000 0.043756 0.000000
# 6 0.000000 0.000000 0.000000 0.000000 0.000000 0.057068
#
#
# Mechanical properties :
#
#
# Convention : Reuss Voigt Hill
#
# Bulk Modulus (GPa) = 43.63939 45.72877 44.68408
# Shear Modulus (GPa) = 24.37389 29.79021 27.08205
#
# Velocity S-wave (km/s) = 3.30403 3.65273 3.48275
# Velocity P-wave (km/s) = 5.83958 6.18635 6.01546
#
# Compressibility (1/GPa) = 0.02291507
#
# Stress axis : x y z
#
# Youngs Moduli (GPa) = 129.64184 104.13815 62.41123
#
# Poissons Ratio (x) = 0.02607 0.07673
# Poissons Ratio (y) = 0.03246 0.23293
# Poissons Ratio (z) = 0.15938 0.38866
#
# Static dielectric constant tensor:
#      x y z
#    x 4.801130 0.000000 0.000000 
#    y 0.000000 4.082320 0.000000 
#    z 0.000000 0.000000 4.119070 
# 
# 
# High freq. dielectric constant tensor:
#      x y z
#    x 1.938170 0.000000 0.000000 
#    y 0.000000 1.845140 0.000000 
#    z 0.000000 0.000000 1.871540 
# 
# From -- ./inp_files/16975.got.cif
#   From: 2010.06.25/outbox.cif.g09.slc.cpg/sg52_9_cif.got.tgz:16975.got - 2010.06.26 19:32:48.
