data_PCOD8216265
_publ_section_title
;
Structure prediction by ZEFSAII (Michael W. Deem and Ramdas Pophale) SiO2 
 PCOD8216265
Probable space group: P N N A
;
_chemical_formula_sum "Si O2"
_cell_formula_units_Z 36
_cell_length_a 17.046781
_cell_length_b 8.082980
_cell_length_c 12.933101
_cell_angle_alpha 90.000000
_cell_angle_beta 90.000000
_cell_angle_gamma 90.000000
_cell_volume 1782.036336
_symmetry_space_group_name_H-M "P N N A"
_symmetry_group_IT_number 52
_symmetry_cell_setting 'orthorhombic'
loop_
_space_group_symop_operation_xyz
x,y,z
1/2-x,-y,z
x,1/2-y,1/2-z
1/2-x,1/2+y,1/2-z
-x,-y,-z
1/2+x,y,-z
-x,1/2+y,1/2+z
1/2+x,1/2-y,1/2+z
loop_
_atom_site_type_symbol
_atom_site_label
_atom_site_fract_x
_atom_site_fract_y
_atom_site_fract_z
Si Si1 0.913865 0.750000 0.750000
Si Si2 0.386766 0.549343 0.065640
Si Si3 0.677941 0.750000 0.250000
Si Si4 0.452819 0.448669 0.641966
Si Si5 0.750000 0.000000 0.404951
Si Si6 0.483381 0.248702 0.049599
O O1 0.858995 0.651122 0.832242
O O2 0.968600 0.616602 0.694711
O O3 0.416055 0.365590 0.099330
O O4 0.321567 0.546414 0.978346
O O5 0.461757 0.641393 0.021502
O O6 0.624042 0.600098 0.292766
O O7 0.731502 0.662962 0.163325
O O8 0.439457 0.380301 0.526140
O O9 0.465727 0.647911 0.635072
#
# Coordination Sequence:
#
# PCOD8216265 Si02
#       6
#     4   8   4   8   4   8
#     4   9  20  38  62  86 115 154 216 258 315 360
#     4  10  21  40  58  89 122 170 203 267 313 387
#     4  11  24  40  60  96 125 174 208 262 333 398
#     4   9  18  37  62  93 118 149 215 270 304 380
#     4  12  26  42  60  88 142 168 208 258 330 398
#     4   9  18  36  64  87 122 157 205 268 318 356
#
# _framework density 20.201609000000001
#
# number of rings (size 3 to 8) (size 9 to 14) (size 15 to 20)
#    0.000    2.222    2.222    0.000    6.222    0.889 
#    0.000    2.222    0.000    0.000    0.000    0.000 
#    0.000    0.000    0.000    0.000    0.000    0.000 
#
# Total GULP energy -446133.114905 kJ/mol
# GULP energy per Si atom -12392.586525 kJ/mol
# Density = 2.015563 g / cm^3
# Si number density = 20.201609 Si / 1000 Ang^3
#
#
#
# Elastic Constant Matrix: (Units=GPa)
#
#
# Indices 1 2 3 4 5 6 
#
# 1 62.2125 43.0708 37.9821 0.0000 0.0000 0.0000
# 2 43.0708 124.8261 66.6142 0.0000 0.0000 0.0000
# 3 37.9821 66.6142 110.6405 0.0000 0.0000 0.0000
# 4 0.0000 0.0000 0.0000 42.1533 0.0000 0.0000
# 5 0.0000 0.0000 0.0000 0.0000 32.3833 0.0000
# 6 0.0000 0.0000 0.0000 0.0000 0.0000 19.2431
#
#
#
# Elastic Compliance Matrix: (Units=1/GPa)
#
#
# Indices 1 2 3 4 5 6 
#
# 1 0.022545 -0.005376 -0.004503 0.000000 0.000000 0.000000
# 2 -0.005376 0.013086 -0.006033 0.000000 0.000000 0.000000
# 3 -0.004503 -0.006033 0.014216 0.000000 0.000000 0.000000
# 4 0.000000 0.000000 0.000000 0.023723 0.000000 0.000000
# 5 0.000000 0.000000 0.000000 0.000000 0.030880 0.000000
# 6 0.000000 0.000000 0.000000 0.000000 0.000000 0.051967
#
#
# Mechanical properties :
#
#
# Convention : Reuss Voigt Hill
#
# Bulk Modulus (GPa) = 55.48366 65.89035 60.68701
# Shear Modulus (GPa) = 25.74028 28.75676 27.24852
#
# Velocity S-wave (km/s) = 3.57342 3.77701 3.67663
# Velocity P-wave (km/s) = 6.67461 7.19084 6.93753
#
# Compressibility (1/GPa) = 0.01802332
#
# Stress axis : x y z
#
# Youngs Moduli (GPa) = 44.35592 76.41913 70.34152
#
# Poissons Ratio (x) = 0.41084 0.31672
# Poissons Ratio (y) = 0.23847 0.42437
# Poissons Ratio (z) = 0.19972 0.46104
#
# Static dielectric constant tensor:
#      x y z
#    x 3.415380 0.000000 0.000000 
#    y 0.000000 3.889890 0.000000 
#    z 0.000000 0.000000 3.883700 
# 
# 
# High freq. dielectric constant tensor:
#      x y z
#    x 1.747410 0.000000 0.000000 
#    y 0.000000 1.799560 0.000000 
#    z 0.000000 0.000000 1.790640 
# 
# From -- ./inp_files/26822.got.cif
#   From: 2010.06.25/outbox.cif.g09.slc.cpg/sg52_14_cif.got.tgz:26822.got - 2010.06.26 19:32:48.
