data_PCOD8216220
_publ_section_title
;
Structure prediction by ZEFSAII (Michael W. Deem and Ramdas Pophale) SiO2 
 PCOD8216220
Probable space group: P N N A
;
_chemical_formula_sum "Si O2"
_cell_formula_units_Z 52
_cell_length_a 5.590422
_cell_length_b 22.517656
_cell_length_c 21.040705
_cell_angle_alpha 90.000000
_cell_angle_beta 90.000000
_cell_angle_gamma 90.000000
_cell_volume 2648.671265
_symmetry_space_group_name_H-M "P N N A"
_symmetry_group_IT_number 52
_symmetry_cell_setting 'orthorhombic'
loop_
_space_group_symop_operation_xyz
x,y,z
1/2-x,-y,z
x,1/2-y,1/2-z
1/2-x,1/2+y,1/2-z
-x,-y,-z
1/2+x,y,-z
-x,1/2+y,1/2+z
1/2+x,1/2-y,1/2+z
loop_
_atom_site_type_symbol
_atom_site_label
_atom_site_fract_x
_atom_site_fract_y
_atom_site_fract_z
Si Si1 0.211333 0.063471 0.712688
Si Si2 0.013926 0.878521 0.036913
Si Si3 0.526656 0.674803 0.837300
Si Si4 0.027220 0.741785 0.035739
Si Si5 0.396825 0.060381 0.163572
Si Si6 0.402951 0.645364 0.260147
Si Si7 0.793882 0.250000 0.250000
O O1 0.468323 0.091078 0.725367
O O2 0.061302 0.106281 0.666395
O O3 0.088538 0.052131 0.780872
O O4 0.250000 0.000000 0.678436
O O5 0.024284 0.809950 0.058827
O O6 0.982338 0.922319 0.096993
O O7 0.271488 0.892130 0.003364
O O8 0.572283 0.694588 0.908513
O O9 0.342725 0.720871 0.807886
O O10 0.760196 0.679929 0.794504
O O11 0.262689 0.729178 0.992811
O O12 0.240299 0.118340 0.181115
O O13 0.250000 0.000000 0.155423
O O14 0.570276 0.697157 0.287460
#
# Coordination Sequence:
#
# PCOD8216220 Si02
#       7
#     8   8   8   8   8   8   4
#     4  10  21  39  61  92 126 162 201 255 327 379
#     4  10  25  42  60  88 121 172 223 271 315 366
#     4  10  23  37  60  97 118 165 208 261 323 387
#     4  10  24  43  65  90 129 170 212 266 323 384
#     4  11  23  38  62  87 124 170 214 263 312 380
#     4  10  22  36  59  91 125 159 197 262 321 384
#     4  10  22  34  58  94 126 156 200 272 318 390
#
# _framework density 19.632487000000001
#
# number of rings (size 3 to 8) (size 9 to 14) (size 15 to 20)
#    0.000    1.846    1.538    0.462   15.077    1.846 
#    0.000    0.000    0.000    0.923    0.000    0.000 
#    0.000    0.000    0.000    0.000    0.000    0.000 
#
# Total GULP energy -644360.452020 kJ/mol
# GULP energy per Si atom -12391.547154 kJ/mol
# Density = 1.958780 g / cm^3
# Si number density = 19.632487 Si / 1000 Ang^3
#
#
#
# Elastic Constant Matrix: (Units=GPa)
#
#
# Indices 1 2 3 4 5 6 
#
# 1 102.6469 34.3763 22.6733 0.0000 0.0000 0.0000
# 2 34.3763 120.9131 46.3924 0.0000 0.0000 0.0000
# 3 22.6733 46.3924 84.8727 0.0000 0.0000 0.0000
# 4 0.0000 0.0000 0.0000 26.2279 0.0000 0.0000
# 5 0.0000 0.0000 0.0000 0.0000 2.1521 0.0000
# 6 0.0000 0.0000 0.0000 0.0000 0.0000 -65.9377
#
#
#
# Elastic Compliance Matrix: (Units=1/GPa)
#
#
# Indices 1 2 3 4 5 6 
#
# 1 0.010925 -0.002513 -0.001545 0.000000 0.000000 0.000000
# 2 -0.002513 0.011043 -0.005365 0.000000 0.000000 0.000000
# 3 -0.001545 -0.005365 0.015128 0.000000 0.000000 0.000000
# 4 0.000000 0.000000 0.000000 0.038127 0.000000 0.000000
# 5 0.000000 0.000000 0.000000 0.000000 0.464666 0.000000
# 6 0.000000 0.000000 0.000000 0.000000 0.000000 -0.015166
#
#
# Mechanical properties :
#
#
# Convention : Reuss Voigt Hill
#
# Bulk Modulus (GPa) = 54.79502 57.25741 56.02621
# Shear Modulus (GPa) = 9.09664 6.15449 7.62557
#
# Velocity S-wave (km/s) = 2.15488 1.77247 1.97296
# Velocity P-wave (km/s) = 5.84486 5.78073 5.81288
#
# Compressibility (1/GPa) = 0.01824983
#
# Stress axis : x y z
#
# Youngs Moduli (GPa) = 91.53253 90.55139 66.10423
#
# Poissons Ratio (x) = 0.22759 0.10211
# Poissons Ratio (y) = 0.23006 0.35465
# Poissons Ratio (z) = 0.14139 0.48581
#
# Static dielectric constant tensor:
#      x y z
#    x 3.905500 0.000000 0.000000 
#    y 0.000000 2.703210 0.000000 
#    z 0.000000 0.000000 3.219470 
# 
# 
# High freq. dielectric constant tensor:
#      x y z
#    x 1.784180 0.000000 0.000000 
#    y 0.000000 1.777430 0.000000 
#    z 0.000000 0.000000 1.726910 
# 
# From -- ./inp_files/35176.got.cif
#   From: 2010.06.25/outbox.cif.g09.slc.cpg/sg52_18_cif.got.tgz:35176.got - 2010.06.26 19:32:48.
