data_PCOD8216229
_publ_section_title
;
Structure prediction by ZEFSAII (Michael W. Deem and Ramdas Pophale) SiO2 
 PCOD8216229
Probable space group: P N N A
;
_chemical_formula_sum "Si O2"
_cell_formula_units_Z 40
_cell_length_a 22.562436
_cell_length_b 9.367086
_cell_length_c 8.752885
_cell_angle_alpha 90.000000
_cell_angle_beta 90.000000
_cell_angle_gamma 90.000000
_cell_volume 1849.872164
_symmetry_space_group_name_H-M "P N N A"
_symmetry_group_IT_number 52
_symmetry_cell_setting 'orthorhombic'
loop_
_space_group_symop_operation_xyz
x,y,z
1/2-x,-y,z
x,1/2-y,1/2-z
1/2-x,1/2+y,1/2-z
-x,-y,-z
1/2+x,y,-z
-x,1/2+y,1/2+z
1/2+x,1/2-y,1/2+z
loop_
_atom_site_type_symbol
_atom_site_label
_atom_site_fract_x
_atom_site_fract_y
_atom_site_fract_z
Si Si1 0.394068 0.949171 0.424186
Si Si2 0.159581 0.719172 0.926171
Si Si3 0.083788 0.940197 0.085225
Si Si4 0.768510 0.654190 0.891033
Si Si5 0.539134 0.211591 0.079886
O O1 0.338270 0.840154 0.427485
O O2 0.449950 0.854328 0.478781
O O3 0.380300 0.081016 0.535380
O O4 0.408269 0.010190 0.258120
O O5 0.149908 0.750000 0.750000
O O6 0.140934 0.855016 0.027741
O O7 0.229186 0.694197 0.960585
O O8 0.029623 0.829308 0.070949
O O9 0.077002 0.077913 0.978665
O O10 0.750000 0.500000 0.832521
O O11 0.750822 0.750000 0.750000
O O12 0.559674 0.250000 0.250000
#
# Coordination Sequence:
#
# PCOD8216229 Si02
#       5
#     8   8   8   8   8
#     4  11  23  43  64  90 128 169 214 260 319 390
#     4  11  23  40  64  93 126 163 210 269 325 378
#     4  11  24  42  66  93 127 174 216 259 319 387
#     4  10  21  39  63  89 120 163 210 259 318 389
#     4  11  24  40  63  95 127 164 212 265 315 367
#
# _framework density 21.623114999999999
#
# number of rings (size 3 to 8) (size 9 to 14) (size 15 to 20)
#    0.000    1.200    0.000    7.200    0.000    7.200 
#    0.000   11.000    0.000    0.000    0.000    0.000 
#    0.000    0.000    0.000    0.000    0.000    0.000 
#
# Total GULP energy -496084.557854 kJ/mol
# GULP energy per Si atom -12402.113946 kJ/mol
# Density = 2.157390 g / cm^3
# Si number density = 21.623115 Si / 1000 Ang^3
#
#
#
# Elastic Constant Matrix: (Units=GPa)
#
#
# Indices 1 2 3 4 5 6 
#
# 1 95.9575 57.1685 50.8929 0.0000 0.0000 0.0000
# 2 57.1685 119.2489 87.9927 0.0000 0.0000 0.0000
# 3 50.8929 87.9927 169.0250 0.0000 0.0000 0.0000
# 4 0.0000 0.0000 0.0000 48.4341 0.0000 0.0000
# 5 0.0000 0.0000 0.0000 0.0000 50.1267 0.0000
# 6 0.0000 0.0000 0.0000 0.0000 0.0000 32.8153
#
#
#
# Elastic Compliance Matrix: (Units=1/GPa)
#
#
# Indices 1 2 3 4 5 6 
#
# 1 0.014744 -0.006158 -0.001234 0.000000 0.000000 0.000000
# 2 -0.006158 0.016189 -0.006573 0.000000 0.000000 0.000000
# 3 -0.001234 -0.006573 0.009710 0.000000 0.000000 0.000000
# 4 0.000000 0.000000 0.000000 0.020647 0.000000 0.000000
# 5 0.000000 0.000000 0.000000 0.000000 0.019949 0.000000
# 6 0.000000 0.000000 0.000000 0.000000 0.000000 0.030474
#
#
# Mechanical properties :
#
#
# Convention : Reuss Voigt Hill
#
# Bulk Modulus (GPa) = 78.66409 86.25997 82.46203
# Shear Modulus (GPa) = 34.75111 38.82037 36.78574
#
# Velocity S-wave (km/s) = 4.01325 4.24172 4.12906
# Velocity P-wave (km/s) = 7.61141 7.99804 7.80712
#
# Compressibility (1/GPa) = 0.01271228
#
# Stress axis : x y z
#
# Youngs Moduli (GPa) = 67.82206 61.77195 102.98960
#
# Poissons Ratio (x) = 0.38041 0.12704
# Poissons Ratio (y) = 0.41767 0.67699
# Poissons Ratio (z) = 0.08366 0.40605
#
# Static dielectric constant tensor:
#      x y z
#    x 4.088410 0.000000 0.000000 
#    y 0.000000 4.097480 0.000000 
#    z 0.000000 0.000000 3.756670 
# 
# 
# High freq. dielectric constant tensor:
#      x y z
#    x 1.848390 0.000000 0.000000 
#    y 0.000000 1.870590 0.000000 
#    z 0.000000 0.000000 1.846350 
# 
# From -- ./inp_files/13953.got.cif
#   From: 2010.06.25/outbox.cif.g09.slc.cpg/sg52_7_cif.got.tgz:13953.got - 2010.06.26 19:32:48.
