data_PCOD8216870
_publ_section_title
;
Structure prediction by ZEFSAII (Michael W. Deem and Ramdas Pophale) SiO2 
 PCOD8216870
Probable space group: P N N A
;
_chemical_formula_sum "Si O2"
_cell_formula_units_Z 60
_cell_length_a 9.144375
_cell_length_b 24.749326
_cell_length_c 10.544159
_cell_angle_alpha 90.000000
_cell_angle_beta 90.000000
_cell_angle_gamma 90.000000
_cell_volume 2386.323676
_symmetry_space_group_name_H-M "P N N A"
_symmetry_group_IT_number 52
_symmetry_cell_setting 'orthorhombic'
loop_
_space_group_symop_operation_xyz
x,y,z
1/2-x,-y,z
x,1/2-y,1/2-z
1/2-x,1/2+y,1/2-z
-x,-y,-z
1/2+x,y,-z
-x,1/2+y,1/2+z
1/2+x,1/2-y,1/2+z
loop_
_atom_site_type_symbol
_atom_site_label
_atom_site_fract_x
_atom_site_fract_y
_atom_site_fract_z
Si Si1 0.005958 0.199006 0.029504
Si Si2 0.310152 0.610587 0.876463
Si Si3 0.192622 0.326738 0.226825
Si Si4 0.250000 0.500000 0.536419
Si Si5 0.037614 0.483730 0.340600
Si Si6 0.011861 0.416318 0.108658
Si Si7 0.262603 0.771235 0.522543
Si Si8 0.040228 0.609721 0.330918
O O1 0.122647 0.190926 0.141364
O O2 0.090647 0.239697 0.934099
O O3 0.965591 0.142510 0.963425
O O4 0.865799 0.232761 0.074691
O O5 0.382078 0.612730 0.737907
O O6 0.162158 0.576116 0.883994
O O7 0.426169 0.578774 0.966329
O O8 0.261716 0.670358 0.915429
O O9 0.061377 0.357921 0.156900
O O10 0.241775 0.278184 0.132614
O O11 0.333748 0.364807 0.243757
O O12 0.150431 0.459398 0.447193
O O13 0.368277 0.469053 0.625910
O O14 0.078411 0.462173 0.201818
O O15 0.073333 0.547238 0.354927
#
# Coordination Sequence:
#
# PCOD8216870 Si02
#       8
#     8   8   8   4   8   8   8   8
#     4  12  26  42  72 105 145 195 246 302 377 446
#     4  11  25  47  77 108 151 192 261 306 376 451
#     4  11  25  47  71 107 151 192 254 307 376 452
#     4  10  24  42  70 102 142 194 246 306 374 452
#     4  11  25  45  73 104 150 199 243 311 387 437
#     4  11  25  48  76 109 147 201 246 313 373 456
#     4  11  24  47  71 101 146 198 239 312 370 437
#     4  12  27  44  72 110 150 198 250 316 368 460
#
# _framework density 25.143277999999999
#
# number of rings (size 3 to 8) (size 9 to 14) (size 15 to 20)
#    0.000    0.800    1.333    6.000    7.467    2.133 
#    0.000    2.667    0.000    0.000    0.000    0.000 
#    0.000    0.000    0.000    0.000    0.000    0.000 
#
# Total GULP energy -743591.517699 kJ/mol
# GULP energy per Si atom -12393.191962 kJ/mol
# Density = 2.508605 g / cm^3
# Si number density = 25.143278 Si / 1000 Ang^3
#
#
#
# Elastic Constant Matrix: (Units=GPa)
#
#
# Indices 1 2 3 4 5 6 
#
# 1 130.3395 2.7167 -8.5932 0.0000 0.0000 0.0000
# 2 2.7167 91.4517 14.9268 0.0000 0.0000 0.0000
# 3 -8.5932 14.9268 39.1534 0.0000 0.0000 0.0000
# 4 0.0000 0.0000 0.0000 25.5919 0.0000 0.0000
# 5 0.0000 0.0000 0.0000 0.0000 44.9606 0.0000
# 6 0.0000 0.0000 0.0000 0.0000 0.0000 26.9450
#
#
#
# Elastic Compliance Matrix: (Units=1/GPa)
#
#
# Indices 1 2 3 4 5 6 
#
# 1 0.007810 -0.000546 0.001922 0.000000 0.000000 0.000000
# 2 -0.000546 0.011698 -0.004580 0.000000 0.000000 0.000000
# 3 0.001922 -0.004580 0.027708 0.000000 0.000000 0.000000
# 4 0.000000 0.000000 0.000000 0.039075 0.000000 0.000000
# 5 0.000000 0.000000 0.000000 0.000000 0.022242 0.000000
# 6 0.000000 0.000000 0.000000 0.000000 0.000000 0.037113
#
#
# Mechanical properties :
#
#
# Convention : Reuss Voigt Hill
#
# Bulk Modulus (GPa) = 24.50331 31.00502 27.75416
# Shear Modulus (GPa) = 30.18295 36.29245 33.23770
#
# Velocity S-wave (km/s) = 3.46849 3.80337 3.63978
# Velocity P-wave (km/s) = 5.08008 5.62544 5.35970
#
# Compressibility (1/GPa) = 0.04081081
#
# Stress axis : x y z
#
# Youngs Moduli (GPa) = 128.03471 85.48145 36.09018
#
# Poissons Ratio (x) = 0.04665 -0.06937
# Poissons Ratio (y) = 0.06988 0.16528
# Poissons Ratio (z) = -0.24611 0.39148
#
# Static dielectric constant tensor:
#      x y z
#    x 4.760780 0.000000 0.000000 
#    y 0.000000 4.285300 0.000000 
#    z 0.000000 0.000000 4.542980 
# 
# 
# High freq. dielectric constant tensor:
#      x y z
#    x 2.022690 0.000000 0.000000 
#    y 0.000000 1.992040 0.000000 
#    z 0.000000 0.000000 1.996520 
# 
# From -- ./inp_files/17135.got.cif
#   From: 2010.06.25/outbox.cif.g09.slc.cpg/sg52_9_cif.got.tgz:17135.got - 2010.06.26 19:32:48.
