data_PCOD8216616
_publ_section_title
;
Structure prediction by ZEFSAII (Michael W. Deem and Ramdas Pophale) SiO2 
 PCOD8216616
Probable space group: P N N A
;
_chemical_formula_sum "Si O2"
_cell_formula_units_Z 60
_cell_length_a 12.407107
_cell_length_b 11.608675
_cell_length_c 20.562300
_cell_angle_alpha 90.000000
_cell_angle_beta 90.000000
_cell_angle_gamma 90.000000
_cell_volume 2961.589567
_symmetry_space_group_name_H-M "P N N A"
_symmetry_group_IT_number 52
_symmetry_cell_setting 'orthorhombic'
loop_
_space_group_symop_operation_xyz
x,y,z
1/2-x,-y,z
x,1/2-y,1/2-z
1/2-x,1/2+y,1/2-z
-x,-y,-z
1/2+x,y,-z
-x,1/2+y,1/2+z
1/2+x,1/2-y,1/2+z
loop_
_atom_site_type_symbol
_atom_site_label
_atom_site_fract_x
_atom_site_fract_y
_atom_site_fract_z
Si Si1 0.886875 0.101189 0.350692
Si Si2 0.337737 0.672822 0.503713
Si Si3 0.779209 0.367748 0.614798
Si Si4 0.750000 0.000000 0.102043
Si Si5 0.156754 0.348218 0.891153
Si Si6 0.914773 0.053893 0.201598
Si Si7 0.939338 0.786659 0.875870
Si Si8 0.006223 0.807812 0.185661
O O1 0.779438 0.171185 0.368066
O O2 0.881741 0.091985 0.273188
O O3 0.995766 0.166587 0.373191
O O4 0.882235 0.980191 0.388652
O O5 0.225703 0.652528 0.463751
O O6 0.335168 0.576774 0.560651
O O7 0.347567 0.799775 0.535178
O O8 0.436525 0.662296 0.450832
O O9 0.750000 0.500000 0.632471
O O10 0.687933 0.279740 0.644737
O O11 0.897447 0.335163 0.636809
O O12 0.680004 0.918954 0.149795
O O13 0.077012 0.278495 0.845917
O O14 0.015811 0.125084 0.176711
O O15 0.941188 0.920266 0.205324
O O16 0.056043 0.750000 0.250000
#
# Coordination Sequence:
#
# PCOD8216616 Si02
#       8
#     8   8   8   4   8   8   8   8
#     4  11  25  46  66  98 137 177 226 268 337 406
#     4  10  22  42  64  98 129 177 223 267 342 387
#     4  10  22  47  64  97 136 169 226 285 325 395
#     4  12  22  36  66 104 132 168 206 290 346 390
#     4  11  24  43  66  98 139 174 214 285 331 403
#     4  12  24  40  70 101 133 168 219 283 344 395
#     4  10  24  43  67  97 128 184 220 275 326 398
#     4  12  24  41  67 101 131 172 220 276 342 391
#
# _framework density 20.259391000000001
#
# number of rings (size 3 to 8) (size 9 to 14) (size 15 to 20)
#    0.800    0.267    4.667    2.000    0.000    4.267 
#    0.000    2.000    0.000    0.000    0.000    0.000 
#    0.000    0.000    0.000    0.000    0.000    0.000 
#
# Total GULP energy -743347.058903 kJ/mol
# GULP energy per Si atom -12389.117648 kJ/mol
# Density = 2.021328 g / cm^3
# Si number density = 20.259391 Si / 1000 Ang^3
#
#
#
# Elastic Constant Matrix: (Units=GPa)
#
#
# Indices 1 2 3 4 5 6 
#
# 1 64.4586 35.5251 6.9950 0.0000 0.0000 0.0000
# 2 35.5251 97.3482 24.0857 0.0000 0.0000 0.0000
# 3 6.9950 24.0857 87.5371 0.0000 0.0000 0.0000
# 4 0.0000 0.0000 0.0000 36.5047 0.0000 0.0000
# 5 0.0000 0.0000 0.0000 0.0000 30.0660 0.0000
# 6 0.0000 0.0000 0.0000 0.0000 0.0000 30.3626
#
#
#
# Elastic Compliance Matrix: (Units=1/GPa)
#
#
# Indices 1 2 3 4 5 6 
#
# 1 0.019434 -0.007198 0.000428 0.000000 0.000000 0.000000
# 2 -0.007198 0.013689 -0.003191 0.000000 0.000000 0.000000
# 3 0.000428 -0.003191 0.012268 0.000000 0.000000 0.000000
# 4 0.000000 0.000000 0.000000 0.027394 0.000000 0.000000
# 5 0.000000 0.000000 0.000000 0.000000 0.033260 0.000000
# 6 0.000000 0.000000 0.000000 0.000000 0.000000 0.032935
#
#
# Mechanical properties :
#
#
# Convention : Reuss Voigt Hill
#
# Bulk Modulus (GPa) = 39.26583 42.50615 40.88599
# Shear Modulus (GPa) = 29.86993 31.56920 30.71957
#
# Velocity S-wave (km/s) = 3.84392 3.95175 3.89821
# Velocity P-wave (km/s) = 6.25497 6.46902 6.36290
#
# Compressibility (1/GPa) = 0.02546743
#
# Stress axis : x y z
#
# Youngs Moduli (GPa) = 51.45506 73.05295 81.51534
#
# Poissons Ratio (x) = 0.52583 -0.03485
# Poissons Ratio (y) = 0.37037 0.26014
# Poissons Ratio (z) = -0.02200 0.23313
#
# Static dielectric constant tensor:
#      x y z
#    x 3.636320 0.000000 0.000000 
#    y 0.000000 3.822750 0.000000 
#    z 0.000000 0.000000 3.797910 
# 
# 
# High freq. dielectric constant tensor:
#      x y z
#    x 1.785410 0.000000 0.000000 
#    y 0.000000 1.788620 0.000000 
#    z 0.000000 0.000000 1.794900 
# 
# From -- ./inp_files/36871.got.cif
#   From: 2010.06.25/outbox.cif.g09.slc.cpg/sg52_19_cif.got.tgz:36871.got - 2010.06.26 19:32:48.
