data_PCOD8216430
_publ_section_title
;
Structure prediction by ZEFSAII (Michael W. Deem and Ramdas Pophale) SiO2 
 PCOD8216430
Probable space group: P N N A
;
_chemical_formula_sum "Si O2"
_cell_formula_units_Z 44
_cell_length_a 5.035295
_cell_length_b 15.016143
_cell_length_c 28.867728
_cell_angle_alpha 90.000000
_cell_angle_beta 90.000000
_cell_angle_gamma 90.000000
_cell_volume 2182.709403
_symmetry_space_group_name_H-M "P N N A"
_symmetry_group_IT_number 52
_symmetry_cell_setting 'orthorhombic'
loop_
_space_group_symop_operation_xyz
x,y,z
1/2-x,-y,z
x,1/2-y,1/2-z
1/2-x,1/2+y,1/2-z
-x,-y,-z
1/2+x,y,-z
-x,1/2+y,1/2+z
1/2+x,1/2-y,1/2+z
loop_
_atom_site_type_symbol
_atom_site_label
_atom_site_fract_x
_atom_site_fract_y
_atom_site_fract_z
Si Si1 0.534406 0.165948 0.380850
Si Si2 0.772152 0.102693 0.470390
Si Si3 0.235611 0.104136 0.804461
Si Si4 0.750000 0.000000 0.652079
Si Si5 0.075740 0.862566 0.701662
Si Si6 0.221639 0.204665 0.168051
O O1 0.720200 0.165727 0.426031
O O2 0.364707 0.074968 0.381950
O O3 0.701751 0.173038 0.333553
O O4 0.337547 0.252087 0.379879
O O5 0.564613 0.124933 0.511230
O O6 0.750000 0.000000 0.455006
O O7 0.315215 0.130555 0.752828
O O8 0.446333 0.150723 0.839617
O O9 0.935905 0.137091 0.810804
O O10 0.250000 0.000000 0.813658
O O11 0.976042 0.959738 0.685463
O O12 0.835661 0.790603 0.701207
#
# Coordination Sequence:
#
# PCOD8216430 Si02
#       6
#     8   8   8   4   8   8
#     4  11  23  40  58  86 124 161 209 242 302 348
#     4  10  23  37  59  87 122 160 200 244 294 356
#     4  12  26  42  59  86 119 158 209 253 307 345
#     4  10  22  34  58  88 114 172 202 248 282 360
#     4  11  24  38  60  83 123 158 210 245 296 346
#     4  11  26  40  61  84 115 162 202 253 295 353
#
# _framework density 20.158432999999999
#
# number of rings (size 3 to 8) (size 9 to 14) (size 15 to 20)
#    0.000    1.091    1.818    3.818   19.091    0.000 
#    0.000    0.000    0.000    0.000    0.000    0.000 
#    0.000   14.545    0.000    0.000    0.000    0.000 
#
# Total GULP energy -545570.496771 kJ/mol
# GULP energy per Si atom -12399.329472 kJ/mol
# Density = 2.011255 g / cm^3
# Si number density = 20.158433 Si / 1000 Ang^3
#
#
#
# Elastic Constant Matrix: (Units=GPa)
#
#
# Indices 1 2 3 4 5 6 
#
# 1 87.0038 24.0077 10.4870 0.0000 0.0000 0.0000
# 2 24.0077 100.0920 21.0020 0.0000 0.0000 0.0000
# 3 10.4870 21.0020 57.1991 0.0000 0.0000 0.0000
# 4 0.0000 0.0000 0.0000 11.0051 0.0000 0.0000
# 5 0.0000 0.0000 0.0000 0.0000 18.5254 0.0000
# 6 0.0000 0.0000 0.0000 0.0000 0.0000 45.5490
#
#
#
# Elastic Compliance Matrix: (Units=1/GPa)
#
#
# Indices 1 2 3 4 5 6 
#
# 1 0.012394 -0.002704 -0.001279 0.000000 0.000000 0.000000
# 2 -0.002704 0.011415 -0.003695 0.000000 0.000000 0.000000
# 3 -0.001279 -0.003695 0.019074 0.000000 0.000000 0.000000
# 4 0.000000 0.000000 0.000000 0.090867 0.000000 0.000000
# 5 0.000000 0.000000 0.000000 0.000000 0.053980 0.000000
# 6 0.000000 0.000000 0.000000 0.000000 0.000000 0.021954
#
#
# Mechanical properties :
#
#
# Convention : Reuss Voigt Hill
#
# Bulk Modulus (GPa) = 36.33072 39.47647 37.90360
# Shear Modulus (GPa) = 21.34765 27.60245 24.47505
#
# Velocity S-wave (km/s) = 3.25775 3.70439 3.48822
# Velocity P-wave (km/s) = 5.67559 6.15811 5.92176
#
# Compressibility (1/GPa) = 0.02752491
#
# Stress axis : x y z
#
# Youngs Moduli (GPa) = 80.68284 87.60509 52.42683
#
# Poissons Ratio (x) = 0.23692 0.06707
# Poissons Ratio (y) = 0.21820 0.19374
# Poissons Ratio (z) = 0.10323 0.32374
#
# Static dielectric constant tensor:
#      x y z
#    x 4.095590 0.000000 0.000000 
#    y 0.000000 3.775150 0.000000 
#    z 0.000000 0.000000 3.264650 
# 
# 
# High freq. dielectric constant tensor:
#      x y z
#    x 1.817260 0.000000 0.000000 
#    y 0.000000 1.770890 0.000000 
#    z 0.000000 0.000000 1.738320 
# 
# From -- ./inp_files/41644.got.cif
#   From: 2010.06.25/outbox.cif.g09.slc.cpg/sg52_21_cif.got.tgz:41644.got - 2010.06.26 19:32:48.
