data_PCOD8216621
_publ_section_title
;
Structure prediction by ZEFSAII (Michael W. Deem and Ramdas Pophale) SiO2 
 PCOD8216621
Probable space group: P N N A
;
_chemical_formula_sum "Si O2"
_cell_formula_units_Z 40
_cell_length_a 9.597090
_cell_length_b 7.805657
_cell_length_c 23.531861
_cell_angle_alpha 90.000000
_cell_angle_beta 90.000000
_cell_angle_gamma 90.000000
_cell_volume 1762.809188
_symmetry_space_group_name_H-M "P N N A"
_symmetry_group_IT_number 52
_symmetry_cell_setting 'orthorhombic'
loop_
_space_group_symop_operation_xyz
x,y,z
1/2-x,-y,z
x,1/2-y,1/2-z
1/2-x,1/2+y,1/2-z
-x,-y,-z
1/2+x,y,-z
-x,1/2+y,1/2+z
1/2+x,1/2-y,1/2+z
loop_
_atom_site_type_symbol
_atom_site_label
_atom_site_fract_x
_atom_site_fract_y
_atom_site_fract_z
Si Si1 0.494277 0.224279 0.119855
Si Si2 0.296792 0.192880 0.601964
Si Si3 0.407403 0.066588 0.280266
Si Si4 0.624098 0.626883 0.507413
Si Si5 0.906631 0.067939 0.191003
O O1 0.652922 0.203870 0.098650
O O2 0.461642 0.397507 0.155443
O O3 0.483364 0.052147 0.157117
O O4 0.388439 0.227655 0.067012
O O5 0.374818 0.230999 0.542702
O O6 0.391049 0.254787 0.655769
O O7 0.250000 0.000000 0.609681
O O8 0.417588 0.250000 0.250000
O O9 0.250000 0.000000 0.280827
O O10 0.512482 0.924435 0.251915
O O11 0.750000 0.500000 0.508249
O O12 0.500000 0.500000 0.500000
O O13 0.750000 0.000000 0.202577
#
# Coordination Sequence:
#
# PCOD8216621 Si02
#       5
#     8   8   8   8   8
#     4  10  22  42  65  96 136 180 234 281 351 431
#     4  11  23  40  66 104 137 173 237 296 344 422
#     4  10  23  42  64  95 136 179 232 291 356 432
#     4  12  22  44  73  96 133 189 230 282 360 429
#     4   9  19  42  70  91 130 189 233 281 350 427
#
# _framework density 22.691057000000001
#
# number of rings (size 3 to 8) (size 9 to 14) (size 15 to 20)
#    0.000    1.600    4.000    0.600    0.000    7.200 
#    3.600    5.000    0.000    0.000    0.000    0.000 
#    0.000    0.000    0.000    0.000    0.000    0.000 
#
# Total GULP energy -495550.613727 kJ/mol
# GULP energy per Si atom -12388.765343 kJ/mol
# Density = 2.263941 g / cm^3
# Si number density = 22.691057 Si / 1000 Ang^3
#
#
#
# Elastic Constant Matrix: (Units=GPa)
#
#
# Indices 1 2 3 4 5 6 
#
# 1 116.7717 34.2789 64.6250 0.0000 0.0000 0.0000
# 2 34.2789 109.4275 76.1876 0.0000 0.0000 0.0000
# 3 64.6250 76.1876 175.0855 0.0000 0.0000 0.0000
# 4 0.0000 0.0000 0.0000 35.5550 0.0000 0.0000
# 5 0.0000 0.0000 0.0000 0.0000 32.9279 0.0000
# 6 0.0000 0.0000 0.0000 0.0000 0.0000 32.7467
#
#
#
# Elastic Compliance Matrix: (Units=1/GPa)
#
#
# Indices 1 2 3 4 5 6 
#
# 1 0.010820 -0.000874 -0.003614 0.000000 0.000000 0.000000
# 2 -0.000874 0.013181 -0.005413 0.000000 0.000000 0.000000
# 3 -0.003614 -0.005413 0.009401 0.000000 0.000000 0.000000
# 4 0.000000 0.000000 0.000000 0.028125 0.000000 0.000000
# 5 0.000000 0.000000 0.000000 0.000000 0.030369 0.000000
# 6 0.000000 0.000000 0.000000 0.000000 0.000000 0.030537
#
#
# Mechanical properties :
#
#
# Convention : Reuss Voigt Hill
#
# Bulk Modulus (GPa) = 73.52321 83.49640 78.50981
# Shear Modulus (GPa) = 34.06725 35.32548 34.69636
#
# Velocity S-wave (km/s) = 3.87893 3.94991 3.91458
# Velocity P-wave (km/s) = 7.24801 7.59469 7.42338
#
# Compressibility (1/GPa) = 0.01360115
#
# Stress axis : x y z
#
# Youngs Moduli (GPa) = 92.42117 75.86679 106.37344
#
# Poissons Ratio (x) = 0.06627 0.38439
# Poissons Ratio (y) = 0.08073 0.57582
# Poissons Ratio (z) = 0.33398 0.41068
#
# Static dielectric constant tensor:
#      x y z
#    x 4.829210 0.000000 0.000000 
#    y 0.000000 4.192820 0.000000 
#    z 0.000000 0.000000 4.462340 
# 
# 
# High freq. dielectric constant tensor:
#      x y z
#    x 1.888040 0.000000 0.000000 
#    y 0.000000 1.882770 0.000000 
#    z 0.000000 0.000000 1.908380 
# 
# From -- ./inp_files/39186.got.cif
#   From: 2010.06.25/outbox.cif.g09.slc.cpg/sg52_20_cif.got.tgz:39186.got - 2010.06.26 19:32:48.
