data_PCOD8216817
_publ_section_title
;
Structure prediction by ZEFSAII (Michael W. Deem and Ramdas Pophale) SiO2 
 PCOD8216817
Probable space group: P N N A
;
_chemical_formula_sum "Si O2"
_cell_formula_units_Z 28
_cell_length_a 8.825353
_cell_length_b 5.013100
_cell_length_c 29.242179
_cell_angle_alpha 90.000000
_cell_angle_beta 90.000000
_cell_angle_gamma 90.000000
_cell_volume 1293.743511
_symmetry_space_group_name_H-M "P N N A"
_symmetry_group_IT_number 52
_symmetry_cell_setting 'orthorhombic'
loop_
_space_group_symop_operation_xyz
x,y,z
1/2-x,-y,z
x,1/2-y,1/2-z
1/2-x,1/2+y,1/2-z
-x,-y,-z
1/2+x,y,-z
-x,1/2+y,1/2+z
1/2+x,1/2-y,1/2+z
loop_
_atom_site_type_symbol
_atom_site_label
_atom_site_fract_x
_atom_site_fract_y
_atom_site_fract_z
Si Si1 0.750000 0.000000 0.994625
Si Si2 0.026392 0.850906 0.936069
Si Si3 0.914159 0.627255 0.122387
Si Si4 0.148020 0.748015 0.197129
O O1 0.657692 0.788328 0.026527
O O2 0.867440 0.855845 0.961734
O O3 0.996045 0.614955 0.900581
O O4 0.083325 0.123384 0.911931
O O5 0.750000 0.500000 0.133545
O O6 0.992628 0.728988 0.168854
O O7 0.250000 0.500000 0.184571
O O8 0.099697 0.750000 0.250000
O O9 0.250000 0.000000 0.183375
#
# Coordination Sequence:
#
# PCOD8216817 Si02
#       4
#     4   8   8   8
#     4  10  24  44  62  94 130 178 220 270 326 374
#     4  11  25  41  65  93 133 172 220 271 320 386
#     4  12  24  43  65 100 132 170 215 272 326 392
#     4  10  23  44  70  99 129 167 217 271 327 400
#
# _framework density 21.642620999999998
#
# number of rings (size 3 to 8) (size 9 to 14) (size 15 to 20)
#    0.000    1.143    2.857    1.714    6.000    6.857 
#    0.000    7.143    0.000    0.000    0.000    0.000 
#    0.000    0.000    0.000    0.000    0.000    0.000 
#
# Total GULP energy -347017.460681 kJ/mol
# GULP energy per Si atom -12393.480739 kJ/mol
# Density = 2.159336 g / cm^3
# Si number density = 21.642621 Si / 1000 Ang^3
#
#
#
# Elastic Constant Matrix: (Units=GPa)
#
#
# Indices 1 2 3 4 5 6 
#
# 1 159.7806 48.4709 91.2863 0.0000 0.0000 0.0000
# 2 48.4709 147.2684 54.2731 0.0000 0.0000 0.0000
# 3 91.2863 54.2731 127.5504 0.0000 0.0000 0.0000
# 4 0.0000 0.0000 0.0000 8.2423 0.0000 0.0000
# 5 0.0000 0.0000 0.0000 0.0000 87.2553 0.0000
# 6 0.0000 0.0000 0.0000 0.0000 0.0000 -27.8362
#
#
#
# Elastic Compliance Matrix: (Units=1/GPa)
#
#
# Indices 1 2 3 4 5 6 
#
# 1 0.010672 -0.000827 -0.007286 0.000000 0.000000 0.000000
# 2 -0.000827 0.008117 -0.002862 0.000000 0.000000 0.000000
# 3 -0.007286 -0.002862 0.014272 0.000000 0.000000 0.000000
# 4 0.000000 0.000000 0.000000 0.121326 0.000000 0.000000
# 5 0.000000 0.000000 0.000000 0.000000 0.011461 0.000000
# 6 0.000000 0.000000 0.000000 0.000000 0.000000 -0.035924
#
#
# Mechanical properties :
#
#
# Convention : Reuss Voigt Hill
#
# Bulk Modulus (GPa) = 89.99705 91.40666 90.70186
# Shear Modulus (GPa) = 32.13831 29.57021 30.85426
#
# Velocity S-wave (km/s) = 3.85769 3.70035 3.77984
# Velocity P-wave (km/s) = 7.84321 7.78351 7.81342
#
# Compressibility (1/GPa) = 0.01111148
#
# Stress axis : x y z
#
# Youngs Moduli (GPa) = 93.70148 123.19348 70.06670
#
# Poissons Ratio (x) = 0.10194 0.51050
# Poissons Ratio (y) = 0.07754 0.20051
# Poissons Ratio (z) = 0.68270 0.35254
#
# Static dielectric constant tensor:
#      x y z
#    x 3.706450 0.000000 0.000000 
#    y 0.000000 3.853140 0.000000 
#    z 0.000000 0.000000 4.565070 
# 
# 
# High freq. dielectric constant tensor:
#      x y z
#    x 1.858610 0.000000 0.000000 
#    y 0.000000 1.849120 0.000000 
#    z 0.000000 0.000000 1.855620 
# 
# From -- ./inp_files/41964.got.cif
#   From: 2010.06.25/outbox.cif.g09.slc.cpg/sg52_21_cif.got.tgz:41964.got - 2010.06.26 19:32:48.
