data_PCOD8216875
_publ_section_title
;
Structure prediction by ZEFSAII (Michael W. Deem and Ramdas Pophale) SiO2 
 PCOD8216875
Probable space group: P N N A
;
_chemical_formula_sum "Si O2"
_cell_formula_units_Z 32
_cell_length_a 27.922888
_cell_length_b 5.456323
_cell_length_c 8.882833
_cell_angle_alpha 90.000000
_cell_angle_beta 90.000000
_cell_angle_gamma 90.000000
_cell_volume 1353.355534
_symmetry_space_group_name_H-M "P N N A"
_symmetry_group_IT_number 52
_symmetry_cell_setting 'orthorhombic'
loop_
_space_group_symop_operation_xyz
x,y,z
1/2-x,-y,z
x,1/2-y,1/2-z
1/2-x,1/2+y,1/2-z
-x,-y,-z
1/2+x,y,-z
-x,1/2+y,1/2+z
1/2+x,1/2-y,1/2+z
loop_
_atom_site_type_symbol
_atom_site_label
_atom_site_fract_x
_atom_site_fract_y
_atom_site_fract_z
Si Si1 0.381731 0.419461 0.996103
Si Si2 0.479827 0.252396 0.427609
Si Si3 0.805345 0.027129 0.003414
Si Si4 0.651661 0.250000 0.750000
Si Si5 0.863672 0.750000 0.250000
O O1 0.422877 0.226017 0.037479
O O2 0.382436 0.616471 0.130483
O O3 0.328875 0.296710 0.979174
O O4 0.395450 0.543188 0.833950
O O5 0.490172 0.250000 0.250000
O O6 0.500000 0.500000 0.500000
O O7 0.500000 0.000000 0.500000
O O8 0.750000 0.000000 0.043274
O O9 0.830890 0.846747 0.117298
O O10 0.813847 0.943916 0.832100
#
# Coordination Sequence:
#
# PCOD8216875 Si02
#       5
#     8   8   8   4   4
#     4  11  26  49  75 107 152 197 259 311 395 459
#     4  12  30  51  85 120 161 208 266 331 404 485
#     4  11  25  41  71 103 148 193 251 310 382 457
#     4  10  24  42  74 104 144 194 246 316 376 456
#     4  10  26  42  74 104 148 194 246 316 380 452
#
# _framework density 23.644931
#
# number of rings (size 3 to 8) (size 9 to 14) (size 15 to 20)
#    0.000    1.000    0.000    3.750   19.250    4.000 
#    0.000    0.000    0.000    0.000    0.000    0.000 
#    0.000    0.000    0.000    0.000    0.000    0.000 
#
# Total GULP energy -396715.479641 kJ/mol
# GULP energy per Si atom -12397.358739 kJ/mol
# Density = 2.359111 g / cm^3
# Si number density = 23.644931 Si / 1000 Ang^3
#
#
#
# Elastic Constant Matrix: (Units=GPa)
#
#
# Indices 1 2 3 4 5 6 
#
# 1 117.0852 48.0130 36.4639 0.0000 0.0000 0.0000
# 2 48.0130 147.6043 63.3302 0.0000 0.0000 0.0000
# 3 36.4639 63.3302 167.9026 0.0000 0.0000 0.0000
# 4 0.0000 0.0000 0.0000 44.3771 0.0000 0.0000
# 5 0.0000 0.0000 0.0000 0.0000 15.5762 0.0000
# 6 0.0000 0.0000 0.0000 0.0000 0.0000 29.7819
#
#
#
# Elastic Compliance Matrix: (Units=1/GPa)
#
#
# Indices 1 2 3 4 5 6 
#
# 1 0.010032 -0.002778 -0.001131 0.000000 0.000000 0.000000
# 2 -0.002778 0.008852 -0.002736 0.000000 0.000000 0.000000
# 3 -0.001131 -0.002736 0.007233 0.000000 0.000000 0.000000
# 4 0.000000 0.000000 0.000000 0.022534 0.000000 0.000000
# 5 0.000000 0.000000 0.000000 0.000000 0.064200 0.000000
# 6 0.000000 0.000000 0.000000 0.000000 0.000000 0.033577
#
#
# Mechanical properties :
#
#
# Convention : Reuss Voigt Hill
#
# Bulk Modulus (GPa) = 77.95096 80.91179 79.43138
# Shear Modulus (GPa) = 30.48874 36.93273 33.71073
#
# Velocity S-wave (km/s) = 3.59477 3.95647 3.77995
# Velocity P-wave (km/s) = 7.09005 7.42733 7.26065
#
# Compressibility (1/GPa) = 0.01282858
#
# Stress axis : x y z
#
# Youngs Moduli (GPa) = 99.67926 112.96564 138.25029
#
# Poissons Ratio (x) = 0.31383 0.15634
# Poissons Ratio (y) = 0.27692 0.37820
# Poissons Ratio (z) = 0.11272 0.30903
#
# Static dielectric constant tensor:
#      x y z
#    x 4.133110 0.000000 0.000000 
#    y 0.000000 4.511260 0.000000 
#    z 0.000000 0.000000 4.733790 
# 
# 
# High freq. dielectric constant tensor:
#      x y z
#    x 1.920840 0.000000 0.000000 
#    y 0.000000 1.946000 0.000000 
#    z 0.000000 0.000000 1.963450 
# 
# From -- ./inp_files/15211.got.cif
#   From: 2010.06.25/outbox.cif.g09.slc.cpg/sg52_8_cif.got.tgz:15211.got - 2010.06.26 19:32:48.
