data_PCOD8216609
_publ_section_title
;
Structure prediction by ZEFSAII (Michael W. Deem and Ramdas Pophale) SiO2 
 PCOD8216609
Probable space group: P N N A
;
_chemical_formula_sum "Si O2"
_cell_formula_units_Z 24
_cell_length_a 9.670601
_cell_length_b 10.606173
_cell_length_c 9.386511
_cell_angle_alpha 90.000000
_cell_angle_beta 90.000000
_cell_angle_gamma 90.000000
_cell_volume 962.756291
_symmetry_space_group_name_H-M "P N N A"
_symmetry_group_IT_number 52
_symmetry_cell_setting 'orthorhombic'
loop_
_space_group_symop_operation_xyz
x,y,z
1/2-x,-y,z
x,1/2-y,1/2-z
1/2-x,1/2+y,1/2-z
-x,-y,-z
1/2+x,y,-z
-x,1/2+y,1/2+z
1/2+x,1/2-y,1/2+z
loop_
_atom_site_type_symbol
_atom_site_label
_atom_site_fract_x
_atom_site_fract_y
_atom_site_fract_z
Si Si1 0.471512 0.795081 0.446815
Si Si2 0.201804 0.870919 0.014607
Si Si3 0.602378 0.964388 0.681777
O O1 0.323949 0.727017 0.456013
O O2 0.588905 0.692261 0.412608
O O3 0.512863 0.862570 0.595796
O O4 0.473807 0.898573 0.319979
O O5 0.125857 0.912150 0.160878
O O6 0.250000 0.000000 0.937409
O O7 0.750000 0.000000 0.607475
#
# Coordination Sequence:
#
# PCOD8216609 Si02
#       3
#     8   8   8
#     4  11  22  42  73 104 146 189 251 302 356 444
#     4  11  24  42  73 104 147 196 242 300 371 432
#     4  10  22  41  75 101 141 203 236 296 372 421
#
# _framework density 24.928426999999999
#
# number of rings (size 3 to 8) (size 9 to 14) (size 15 to 20)
#    0.000    1.333    3.333    2.000    4.667    0.000 
#    0.000    0.000   58.667    0.000    0.000    0.000 
#    0.000    0.000    0.000    0.000    0.000    0.000 
#
# Total GULP energy -297407.178374 kJ/mol
# GULP energy per Si atom -12391.965766 kJ/mol
# Density = 2.487169 g / cm^3
# Si number density = 24.928427 Si / 1000 Ang^3
#
#
#
# Elastic Constant Matrix: (Units=GPa)
#
#
# Indices 1 2 3 4 5 6 
#
# 1 123.5537 71.5916 58.0155 0.0000 0.0000 0.0000
# 2 71.5916 194.5250 48.7908 0.0000 0.0000 0.0000
# 3 58.0155 48.7908 51.6055 0.0000 0.0000 0.0000
# 4 0.0000 0.0000 0.0000 18.6109 0.0000 0.0000
# 5 0.0000 0.0000 0.0000 0.0000 37.8191 0.0000
# 6 0.0000 0.0000 0.0000 0.0000 0.0000 70.8465
#
#
#
# Elastic Compliance Matrix: (Units=1/GPa)
#
#
# Indices 1 2 3 4 5 6 
#
# 1 0.017717 -0.001999 -0.018028 0.000000 0.000000 0.000000
# 2 -0.001999 0.006964 -0.004337 0.000000 0.000000 0.000000
# 3 -0.018028 -0.004337 0.043746 0.000000 0.000000 0.000000
# 4 0.000000 0.000000 0.000000 0.053732 0.000000 0.000000
# 5 0.000000 0.000000 0.000000 0.000000 0.026442 0.000000
# 6 0.000000 0.000000 0.000000 0.000000 0.000000 0.014115
#
#
# Mechanical properties :
#
#
# Convention : Reuss Voigt Hill
#
# Bulk Modulus (GPa) = 50.76418 80.71998 65.74208
# Shear Modulus (GPa) = 22.93476 38.20773 30.57125
#
# Velocity S-wave (km/s) = 3.03648 3.91921 3.50574
# Velocity P-wave (km/s) = 5.71855 7.27539 6.54344
#
# Compressibility (1/GPa) = 0.01969893
#
# Stress axis : x y z
#
# Youngs Moduli (GPa) = 56.44348 143.59117 22.85933
#
# Poissons Ratio (x) = 0.28699 0.41210
# Poissons Ratio (y) = 0.11281 0.09915
# Poissons Ratio (z) = 1.01755 0.62282
#
# Static dielectric constant tensor:
#      x y z
#    x 4.843900 0.000000 0.000000 
#    y 0.000000 5.445670 0.000000 
#    z 0.000000 0.000000 3.835750 
# 
# 
# High freq. dielectric constant tensor:
#      x y z
#    x 1.997470 0.000000 0.000000 
#    y 0.000000 2.039940 0.000000 
#    z 0.000000 0.000000 1.946340 
# 
# From -- ./inp_files/16243.got.cif
#   From: 2010.06.25/outbox.cif.g09.slc.cpg/sg52_9_cif.got.tgz:16243.got - 2010.06.26 19:32:48.
