data_PCOD8216203
_publ_section_title
;
Structure prediction by ZEFSAII (Michael W. Deem and Ramdas Pophale) SiO2 
 PCOD8216203
Probable space group: P N N A
;
_chemical_formula_sum "Si O2"
_cell_formula_units_Z 60
_cell_length_a 18.152469
_cell_length_b 12.424278
_cell_length_c 13.198145
_cell_angle_alpha 90.000000
_cell_angle_beta 90.000000
_cell_angle_gamma 90.000000
_cell_volume 2976.595080
_symmetry_space_group_name_H-M "P N N A"
_symmetry_group_IT_number 52
_symmetry_cell_setting 'orthorhombic'
loop_
_space_group_symop_operation_xyz
x,y,z
1/2-x,-y,z
x,1/2-y,1/2-z
1/2-x,1/2+y,1/2-z
-x,-y,-z
1/2+x,y,-z
-x,1/2+y,1/2+z
1/2+x,1/2-y,1/2+z
loop_
_atom_site_type_symbol
_atom_site_label
_atom_site_fract_x
_atom_site_fract_y
_atom_site_fract_z
Si Si1 0.828596 0.151592 0.679275
Si Si2 0.250000 0.000000 0.173976
Si Si3 0.455263 0.658228 0.992760
Si Si4 0.654471 0.296637 0.360907
Si Si5 0.040937 0.513143 0.140152
Si Si6 0.234649 0.809400 0.036396
Si Si7 0.564614 0.653798 0.495872
Si Si8 0.534923 0.475019 0.350631
O O1 0.853153 0.250000 0.750000
O O2 0.809263 0.049547 0.749574
O O3 0.899571 0.107877 0.621384
O O4 0.765514 0.195043 0.599448
O O5 0.277751 0.901416 0.102071
O O6 0.430275 0.603155 0.099220
O O7 0.391004 0.722380 0.937600
O O8 0.471052 0.555829 0.922118
O O9 0.526286 0.731150 0.016421
O O10 0.673196 0.250000 0.250000
O O11 0.730435 0.309941 0.423966
O O12 0.609280 0.405002 0.337766
O O13 0.012337 0.500593 0.252541
O O14 0.148905 0.838116 0.029073
O O15 0.560378 0.590749 0.390316
O O16 0.522429 0.585174 0.578899
#
# Coordination Sequence:
#
# PCOD8216203 Si02
#       8
#     8   4   8   8   8   8   8   8
#     4  10  22  37  66  95 119 167 206 256 327 388
#     4  10  22  38  60  92 126 152 206 260 320 380
#     4  10  23  39  63  90 122 155 213 262 312 362
#     4  11  23  41  63  91 126 175 210 258 314 389
#     4  11  21  39  64  91 118 159 205 270 312 365
#     4  11  22  41  62  89 133 169 207 258 318 389
#     4  10  21  41  63  93 120 171 208 256 308 382
#     4  10  21  38  69  92 120 160 220 257 315 375
#
# _framework density 20.157259
#
# number of rings (size 3 to 8) (size 9 to 14) (size 15 to 20)
#    0.000    1.600    2.667    2.400    3.733    2.667 
#    2.400    0.000    2.933    0.000    0.000    0.000 
#    0.000    0.000    0.000    0.000    0.000    0.000 
#
# Total GULP energy -743336.131594 kJ/mol
# GULP energy per Si atom -12388.935527 kJ/mol
# Density = 2.011138 g / cm^3
# Si number density = 20.157259 Si / 1000 Ang^3
#
#
#
# Elastic Constant Matrix: (Units=GPa)
#
#
# Indices 1 2 3 4 5 6 
#
# 1 69.9822 25.9257 29.6112 0.0000 0.0000 0.0000
# 2 25.9257 95.9487 56.0991 0.0000 0.0000 0.0000
# 3 29.6112 56.0991 117.4785 0.0000 0.0000 0.0000
# 4 0.0000 0.0000 0.0000 38.7081 0.0000 0.0000
# 5 0.0000 0.0000 0.0000 0.0000 30.5300 0.0000
# 6 0.0000 0.0000 0.0000 0.0000 0.0000 17.4429
#
#
#
# Elastic Compliance Matrix: (Units=1/GPa)
#
#
# Indices 1 2 3 4 5 6 
#
# 1 0.016526 -0.002816 -0.002821 0.000000 0.000000 0.000000
# 2 -0.002816 0.014939 -0.006424 0.000000 0.000000 0.000000
# 3 -0.002821 -0.006424 0.012291 0.000000 0.000000 0.000000
# 4 0.000000 0.000000 0.000000 0.025834 0.000000 0.000000
# 5 0.000000 0.000000 0.000000 0.000000 0.032755 0.000000
# 6 0.000000 0.000000 0.000000 0.000000 0.000000 0.057330
#
#
# Mechanical properties :
#
#
# Convention : Reuss Voigt Hill
#
# Bulk Modulus (GPa) = 50.93136 56.29794 53.61465
# Shear Modulus (GPa) = 26.26855 28.78775 27.52815
#
# Velocity S-wave (km/s) = 3.61388 3.78320 3.69951
# Velocity P-wave (km/s) = 6.53723 6.86101 6.70107
#
# Compressibility (1/GPa) = 0.01963427
#
# Stress axis : x y z
#
# Youngs Moduli (GPa) = 60.51007 66.93816 81.36166
#
# Poissons Ratio (x) = 0.18851 0.22950
# Poissons Ratio (y) = 0.17041 0.52267
# Poissons Ratio (z) = 0.17068 0.43001
#
# Static dielectric constant tensor:
#      x y z
#    x 3.417880 0.000000 0.000000 
#    y 0.000000 4.010130 0.000000 
#    z 0.000000 0.000000 3.859490 
# 
# 
# High freq. dielectric constant tensor:
#      x y z
#    x 1.767200 0.000000 0.000000 
#    y 0.000000 1.793310 0.000000 
#    z 0.000000 0.000000 1.793950 
# 
# From -- ./inp_files/28287.got.cif
#   From: 2010.06.25/outbox.cif.g09.slc.cpg/sg52_15_cif.got.tgz:28287.got - 2010.06.26 19:32:48.
