data_PCOD8216244
_publ_section_title
;
Structure prediction by ZEFSAII (Michael W. Deem and Ramdas Pophale) SiO2 
 PCOD8216244
Probable space group: P N N A
;
_chemical_formula_sum "Si O2"
_cell_formula_units_Z 56
_cell_length_a 19.491553
_cell_length_b 8.895641
_cell_length_c 15.727441
_cell_angle_alpha 90.000000
_cell_angle_beta 90.000000
_cell_angle_gamma 90.000000
_cell_volume 2726.978762
_symmetry_space_group_name_H-M "P N N A"
_symmetry_group_IT_number 52
_symmetry_cell_setting 'orthorhombic'
loop_
_space_group_symop_operation_xyz
x,y,z
1/2-x,-y,z
x,1/2-y,1/2-z
1/2-x,1/2+y,1/2-z
-x,-y,-z
1/2+x,y,-z
-x,1/2+y,1/2+z
1/2+x,1/2-y,1/2+z
loop_
_atom_site_type_symbol
_atom_site_label
_atom_site_fract_x
_atom_site_fract_y
_atom_site_fract_z
Si Si1 0.142998 0.666326 0.941319
Si Si2 0.319406 0.570110 0.082143
Si Si3 0.418531 0.515166 0.797344
Si Si4 0.725135 0.157045 0.016936
Si Si5 0.401259 0.829552 0.866571
Si Si6 0.449583 0.850002 0.333094
Si Si7 0.995111 0.322405 0.492226
O O1 0.125480 0.615704 0.844269
O O2 0.212328 0.760814 0.935013
O O3 0.083063 0.764393 0.986070
O O4 0.154427 0.517800 0.998435
O O5 0.250000 0.500000 0.120398
O O6 0.376209 0.569171 0.155898
O O7 0.304104 0.742286 0.058648
O O8 0.385640 0.675554 0.818202
O O9 0.417017 0.523500 0.693628
O O10 0.496446 0.486225 0.826673
O O11 0.665051 0.118521 0.082365
O O12 0.750000 0.000000 0.976782
O O13 0.466509 0.773481 0.922012
O O14 0.452453 0.750000 0.250000
O O15 0.462552 0.742353 0.413145
O O16 0.000000 0.500000 0.500000
#
# Coordination Sequence:
#
# PCOD8216244 Si02
#       7
#     8   8   8   8   8   8   8
#     4  10  21  39  65  90 127 165 216 257 316 390
#     4  10  21  41  66  89 119 166 218 252 316 387
#     4  10  22  39  60  94 123 162 209 255 313 382
#     4  11  22  39  60  94 127 164 208 262 317 378
#     4  11  21  39  62  89 127 160 210 256 313 375
#     4  11  22  39  64  87 126 164 209 270 323 376
#     4  11  21  36  63  92 121 162 207 261 320 373
#
# _framework density 20.535546
#
# number of rings (size 3 to 8) (size 9 to 14) (size 15 to 20)
#    0.000    1.429    2.857    2.571    0.000    3.429 
#    5.143    0.714    6.286    0.000    0.000    0.000 
#    0.000    0.000    0.000    0.000    0.000    0.000 
#
# Total GULP energy -694043.966169 kJ/mol
# GULP energy per Si atom -12393.642253 kJ/mol
# Density = 2.048881 g / cm^3
# Si number density = 20.535546 Si / 1000 Ang^3
#
#
#
# Elastic Constant Matrix: (Units=GPa)
#
#
# Indices 1 2 3 4 5 6 
#
# 1 95.8008 12.9176 -10.3007 0.0000 0.0000 0.0000
# 2 12.9176 96.1074 -2.1170 0.0000 0.0000 0.0000
# 3 -10.3007 -2.1170 27.6232 0.0000 0.0000 0.0000
# 4 0.0000 0.0000 0.0000 28.5427 0.0000 0.0000
# 5 0.0000 0.0000 0.0000 0.0000 20.2785 0.0000
# 6 0.0000 0.0000 0.0000 0.0000 0.0000 32.8795
#
#
#
# Elastic Compliance Matrix: (Units=1/GPa)
#
#
# Indices 1 2 3 4 5 6 
#
# 1 0.011059 -0.001398 0.004017 0.000000 0.000000 0.000000
# 2 -0.001398 0.010599 0.000291 0.000000 0.000000 0.000000
# 3 0.004017 0.000291 0.037722 0.000000 0.000000 0.000000
# 4 0.000000 0.000000 0.000000 0.035035 0.000000 0.000000
# 5 0.000000 0.000000 0.000000 0.000000 0.049313 0.000000
# 6 0.000000 0.000000 0.000000 0.000000 0.000000 0.030414
#
#
# Mechanical properties :
#
#
# Convention : Reuss Voigt Hill
#
# Bulk Modulus (GPa) = 15.33759 24.50346 19.92053
# Shear Modulus (GPa) = 26.30809 30.94225 28.62517
#
# Velocity S-wave (km/s) = 3.58313 3.88592 3.73759
# Velocity P-wave (km/s) = 4.96018 5.66498 5.32425
#
# Compressibility (1/GPa) = 0.06519930
#
# Stress axis : x y z
#
# Youngs Moduli (GPa) = 90.42654 94.34564 26.50998
#
# Poissons Ratio (x) = 0.13189 -0.10648
# Poissons Ratio (y) = 0.12641 -0.00772
# Poissons Ratio (z) = -0.36321 -0.02746
#
# Static dielectric constant tensor:
#      x y z
#    x 4.227820 0.000000 0.000000 
#    y 0.000000 4.025540 0.000000 
#    z 0.000000 0.000000 4.471710 
# 
# 
# High freq. dielectric constant tensor:
#      x y z
#    x 1.813560 0.000000 0.000000 
#    y 0.000000 1.812470 0.000000 
#    z 0.000000 0.000000 1.780020 
# 
# From -- ./inp_files/28781.got.cif
#   From: 2010.06.25/outbox.cif.g09.slc.cpg/sg52_15_cif.got.tgz:28781.got - 2010.06.26 19:32:48.
