data_PCOD8216073
_publ_section_title
;
Structure prediction by ZEFSAII (Michael W. Deem and Ramdas Pophale) SiO2 
 PCOD8216073
Probable space group: P N N A
;
_chemical_formula_sum "Si O2"
_cell_formula_units_Z 44
_cell_length_a 11.935580
_cell_length_b 14.319940
_cell_length_c 12.002484
_cell_angle_alpha 90.000000
_cell_angle_beta 90.000000
_cell_angle_gamma 90.000000
_cell_volume 2051.426031
_symmetry_space_group_name_H-M "P N N A"
_symmetry_group_IT_number 52
_symmetry_cell_setting 'orthorhombic'
loop_
_space_group_symop_operation_xyz
x,y,z
1/2-x,-y,z
x,1/2-y,1/2-z
1/2-x,1/2+y,1/2-z
-x,-y,-z
1/2+x,y,-z
-x,1/2+y,1/2+z
1/2+x,1/2-y,1/2+z
loop_
_atom_site_type_symbol
_atom_site_label
_atom_site_fract_x
_atom_site_fract_y
_atom_site_fract_z
Si Si1 0.437683 0.058559 0.758809
Si Si2 0.250000 0.500000 0.594950
Si Si3 0.790388 0.351871 0.784367
Si Si4 0.002669 0.421655 0.907374
Si Si5 0.134738 0.095606 0.102304
Si Si6 0.435144 0.693619 0.099655
O O1 0.541582 0.030877 0.840113
O O2 0.467648 0.147897 0.679028
O O3 0.324259 0.071606 0.830451
O O4 0.416068 0.963319 0.687556
O O5 0.165695 0.436709 0.521595
O O6 0.836545 0.250000 0.750000
O O7 0.881512 0.408753 0.852248
O O8 0.752000 0.404076 0.670828
O O9 0.683196 0.348067 0.864385
O O10 0.000000 0.500000 0.000000
O O11 0.045143 0.328036 0.968267
O O12 0.070260 0.195426 0.109422
#
# Coordination Sequence:
#
# PCOD8216073 Si02
#       6
#     8   4   8   8   8   8
#     4  10  22  39  57  86 123 156 197 252 305 359
#     4  12  24  36  60  92 124 160 202 256 310 356
#     4   9  19  37  59  82 113 158 204 248 302 368
#     4  10  21  35  58  88 118 155 200 254 309 364
#     4  10  21  41  63  85 119 167 207 240 301 379
#     4   9  21  40  63  87 116 157 206 254 304 363
#
# _framework density 21.448495999999999
#
# number of rings (size 3 to 8) (size 9 to 14) (size 15 to 20)
#    0.000    2.182    0.000    3.273    0.000   13.091 
#    0.000    1.818    0.000    0.000    0.000    0.000 
#    0.000    0.000    0.000    0.000    0.000    0.000 
#
# Total GULP energy -545173.699886 kJ/mol
# GULP energy per Si atom -12390.311361 kJ/mol
# Density = 2.139968 g / cm^3
# Si number density = 21.448496 Si / 1000 Ang^3
#
#
#
# Elastic Constant Matrix: (Units=GPa)
#
#
# Indices 1 2 3 4 5 6 
#
# 1 58.9664 34.6841 52.2870 0.0000 0.0000 0.0000
# 2 34.6841 69.0191 51.9432 0.0000 0.0000 0.0000
# 3 52.2870 51.9432 128.4581 0.0000 0.0000 0.0000
# 4 0.0000 0.0000 0.0000 32.2024 0.0000 0.0000
# 5 0.0000 0.0000 0.0000 0.0000 36.2007 0.0000
# 6 0.0000 0.0000 0.0000 0.0000 0.0000 26.7820
#
#
#
# Elastic Compliance Matrix: (Units=1/GPa)
#
#
# Indices 1 2 3 4 5 6 
#
# 1 0.029529 -0.008328 -0.008652 0.000000 0.000000 0.000000
# 2 -0.008328 0.023175 -0.005981 0.000000 0.000000 0.000000
# 3 -0.008652 -0.005981 0.013725 0.000000 0.000000 0.000000
# 4 0.000000 0.000000 0.000000 0.031054 0.000000 0.000000
# 5 0.000000 0.000000 0.000000 0.000000 0.027624 0.000000
# 6 0.000000 0.000000 0.000000 0.000000 0.000000 0.037339
#
#
# Mechanical properties :
#
#
# Convention : Reuss Voigt Hill
#
# Bulk Modulus (GPa) = 48.76398 59.36358 54.06378
# Shear Modulus (GPa) = 23.23383 26.87232 25.05307
#
# Velocity S-wave (km/s) = 3.29483 3.54344 3.42139
# Velocity P-wave (km/s) = 6.10404 6.66923 6.39288
#
# Compressibility (1/GPa) = 0.02050694
#
# Stress axis : x y z
#
# Youngs Moduli (GPa) = 33.86475 43.14944 72.85999
#
# Poissons Ratio (x) = 0.35934 0.63039
# Poissons Ratio (y) = 0.28202 0.43581
# Poissons Ratio (z) = 0.29300 0.25809
#
# Static dielectric constant tensor:
#      x y z
#    x 3.645330 0.000000 0.000000 
#    y 0.000000 3.954730 0.000000 
#    z 0.000000 0.000000 4.785320 
# 
# 
# High freq. dielectric constant tensor:
#      x y z
#    x 1.818800 0.000000 0.000000 
#    y 0.000000 1.832530 0.000000 
#    z 0.000000 0.000000 1.853650 
# 
# From -- ./inp_files/18149.got.cif
#   From: 2010.06.25/outbox.cif.g09.slc.cpg/sg52_10_cif.got.tgz:18149.got - 2010.06.26 19:32:48.
