data_PCOD8216904
_publ_section_title
;
Structure prediction by ZEFSAII (Michael W. Deem and Ramdas Pophale) SiO2 
 PCOD8216904
Probable space group: P N N A
;
_chemical_formula_sum "Si O2"
_cell_formula_units_Z 28
_cell_length_a 11.030488
_cell_length_b 13.357306
_cell_length_c 8.591372
_cell_angle_alpha 90.000000
_cell_angle_beta 90.000000
_cell_angle_gamma 90.000000
_cell_volume 1265.832162
_symmetry_space_group_name_H-M "P N N A"
_symmetry_group_IT_number 52
_symmetry_cell_setting 'orthorhombic'
loop_
_space_group_symop_operation_xyz
x,y,z
1/2-x,-y,z
x,1/2-y,1/2-z
1/2-x,1/2+y,1/2-z
-x,-y,-z
1/2+x,y,-z
-x,1/2+y,1/2+z
1/2+x,1/2-y,1/2+z
loop_
_atom_site_type_symbol
_atom_site_label
_atom_site_fract_x
_atom_site_fract_y
_atom_site_fract_z
Si Si1 0.098648 0.250000 0.250000
Si Si2 0.875836 0.044236 0.066173
Si Si3 0.327508 0.252623 0.421571
Si Si4 0.435760 0.419294 0.891855
O O1 0.184419 0.275534 0.399103
O O2 0.027270 0.348161 0.201519
O O3 0.866290 0.024686 0.251932
O O4 0.750000 0.000000 0.992608
O O5 0.885486 0.162669 0.029721
O O6 0.000000 0.000000 0.000000
O O7 0.391184 0.250000 0.250000
O O8 0.344353 0.145155 0.503043
O O9 0.500000 0.500000 0.000000
#
# Coordination Sequence:
#
# PCOD8216904 Si02
#       4
#     4   8   8   8
#     4  10  24  46  72  98 152 184 256 310 388 440
#     4  12  26  45  72 109 147 193 251 310 378 456
#     4  10  24  45  69  99 143 190 239 312 374 444
#     4  12  25  47  72 106 145 196 253 310 381 462
#
# _framework density 22.119838000000001
#
# number of rings (size 3 to 8) (size 9 to 14) (size 15 to 20)
#    0.857    0.000    2.857    3.429    4.000    0.000 
#    0.000    0.000    0.000    0.000    0.000    0.000 
#    0.000    0.000    0.000    0.000    0.000    0.000 
#
# Total GULP energy -346978.664200 kJ/mol
# GULP energy per Si atom -12392.095150 kJ/mol
# Density = 2.206949 g / cm^3
# Si number density = 22.119838 Si / 1000 Ang^3
#
#
#
# Elastic Constant Matrix: (Units=GPa)
#
#
# Indices 1 2 3 4 5 6 
#
# 1 127.1953 38.5638 33.8391 0.0000 0.0000 0.0000
# 2 38.5638 102.1800 27.6735 0.0000 0.0000 0.0000
# 3 33.8391 27.6735 133.9928 0.0000 0.0000 0.0000
# 4 0.0000 0.0000 0.0000 55.2749 0.0000 0.0000
# 5 0.0000 0.0000 0.0000 0.0000 37.6107 0.0000
# 6 0.0000 0.0000 0.0000 0.0000 0.0000 32.4750
#
#
#
# Elastic Compliance Matrix: (Units=1/GPa)
#
#
# Indices 1 2 3 4 5 6 
#
# 1 0.009232 -0.003022 -0.001707 0.000000 0.000000 0.000000
# 2 -0.003022 0.011356 -0.001582 0.000000 0.000000 0.000000
# 3 -0.001707 -0.001582 0.008221 0.000000 0.000000 0.000000
# 4 0.000000 0.000000 0.000000 0.018091 0.000000 0.000000
# 5 0.000000 0.000000 0.000000 0.000000 0.026588 0.000000
# 6 0.000000 0.000000 0.000000 0.000000 0.000000 0.030793
#
#
# Mechanical properties :
#
#
# Convention : Reuss Voigt Hill
#
# Bulk Modulus (GPa) = 61.78162 62.61341 62.19751
# Shear Modulus (GPa) = 40.88307 42.62490 41.75399
#
# Velocity S-wave (km/s) = 4.30380 4.39452 4.34940
# Velocity P-wave (km/s) = 7.25864 7.35643 7.30770
#
# Compressibility (1/GPa) = 0.01618604
#
# Stress axis : x y z
#
# Youngs Moduli (GPa) = 108.31421 88.06189 121.63900
#
# Poissons Ratio (x) = 0.26612 0.20769
# Poissons Ratio (y) = 0.32732 0.19244
# Poissons Ratio (z) = 0.18494 0.13932
#
# Static dielectric constant tensor:
#      x y z
#    x 3.888060 0.000000 0.000000 
#    y 0.000000 3.963010 0.000000 
#    z 0.000000 0.000000 4.728400 
# 
# 
# High freq. dielectric constant tensor:
#      x y z
#    x 1.867630 0.000000 0.000000 
#    y 0.000000 1.871470 0.000000 
#    z 0.000000 0.000000 1.879050 
# 
# From -- ./inp_files/8151.got.cif
#   From: 2010.06.25/outbox.cif.g09.slc.cpg/sg52_5_cif.got.tgz:8151.got - 2010.06.26 19:32:48.
