data_PCOD8216845
_publ_section_title
;
Structure prediction by ZEFSAII (Michael W. Deem and Ramdas Pophale) SiO2 
 PCOD8216845
Probable space group: P N N A
;
_chemical_formula_sum "Si O2"
_cell_formula_units_Z 64
_cell_length_a 28.037928
_cell_length_b 9.004233
_cell_length_c 11.941066
_cell_angle_alpha 90.000000
_cell_angle_beta 90.000000
_cell_angle_gamma 90.000000
_cell_volume 3014.641959
_symmetry_space_group_name_H-M "P N N A"
_symmetry_group_IT_number 52
_symmetry_cell_setting 'orthorhombic'
loop_
_space_group_symop_operation_xyz
x,y,z
1/2-x,-y,z
x,1/2-y,1/2-z
1/2-x,1/2+y,1/2-z
-x,-y,-z
1/2+x,y,-z
-x,1/2+y,1/2+z
1/2+x,1/2-y,1/2+z
loop_
_atom_site_type_symbol
_atom_site_label
_atom_site_fract_x
_atom_site_fract_y
_atom_site_fract_z
Si Si1 0.704773 0.422764 0.771337
Si Si2 0.555043 0.507044 0.597548
Si Si3 0.525076 0.988211 0.652429
Si Si4 0.496472 0.752666 0.498126
Si Si5 0.798925 0.073734 0.376599
Si Si6 0.844129 0.401762 0.592374
Si Si7 0.133174 0.563499 0.076413
Si Si8 0.296760 0.417048 0.628224
O O1 0.750000 0.500000 0.833010
O O2 0.714059 0.250000 0.750000
O O3 0.699170 0.522585 0.658836
O O4 0.658032 0.439076 0.847335
O O5 0.524978 0.509629 0.713329
O O6 0.542757 0.647321 0.517210
O O7 0.547544 0.358053 0.524957
O O8 0.609110 0.514235 0.636055
O O9 0.491072 0.853433 0.609921
O O10 0.576376 0.961688 0.589592
O O11 0.500531 0.140725 0.610530
O O12 0.846028 0.039494 0.450918
O O13 0.784896 0.244481 0.371549
O O14 0.811976 0.020646 0.250249
O O15 0.750000 0.000000 0.421710
O O16 0.850137 0.226605 0.618242
O O17 0.839096 0.439827 0.461005
O O18 0.250000 0.500000 0.584534
#
# Coordination Sequence:
#
# PCOD8216845 Si02
#       8
#     8   8   8   8   8   8   8   8
#     4  12  26  40  60  98 138 174 216 266 322 396
#     4  11  22  42  67  94 130 168 214 273 346 401
#     4  11  22  42  67  94 130 168 214 273 346 401
#     4  10  24  40  64  96 122 170 216 264 330 422
#     4   9  19  37  59  85 120 164 208 252 304 368
#     4  11  22  38  65  94 127 169 211 266 326 394
#     4  11  22  38  65  94 127 169 211 266 326 394
#     4   9  19  37  59  85 120 164 208 252 304 368
#
# _framework density 21.229718999999999
#
# number of rings (size 3 to 8) (size 9 to 14) (size 15 to 20)
#    0.000    1.500    2.500    2.625    1.750    3.000 
#    0.000    7.500    0.000    0.000    0.000    0.000 
#    0.000    0.000    0.000    0.000    0.000    0.000 
#
# Total GULP energy -793062.283002 kJ/mol
# GULP energy per Si atom -12391.598172 kJ/mol
# Density = 2.118140 g / cm^3
# Si number density = 21.229719 Si / 1000 Ang^3
#
#
#
# Elastic Constant Matrix: (Units=GPa)
#
#
# Indices 1 2 3 4 5 6 
#
# 1 47.1313 26.6401 28.8857 0.0000 0.0000 0.0000
# 2 26.6401 120.9736 35.1044 0.0000 0.0000 0.0000
# 3 28.8857 35.1044 102.7511 0.0000 0.0000 0.0000
# 4 0.0000 0.0000 0.0000 27.8502 0.0000 0.0000
# 5 0.0000 0.0000 0.0000 0.0000 30.7269 0.0000
# 6 0.0000 0.0000 0.0000 0.0000 0.0000 26.7747
#
#
#
# Elastic Compliance Matrix: (Units=1/GPa)
#
#
# Indices 1 2 3 4 5 6 
#
# 1 0.027450 -0.004224 -0.006274 0.000000 0.000000 0.000000
# 2 -0.004224 0.009826 -0.002169 0.000000 0.000000 0.000000
# 3 -0.006274 -0.002169 0.012237 0.000000 0.000000 0.000000
# 4 0.000000 0.000000 0.000000 0.035906 0.000000 0.000000
# 5 0.000000 0.000000 0.000000 0.000000 0.032545 0.000000
# 6 0.000000 0.000000 0.000000 0.000000 0.000000 0.037349
#
#
# Mechanical properties :
#
#
# Convention : Reuss Voigt Hill
#
# Bulk Modulus (GPa) = 41.35941 50.23516 45.79729
# Shear Modulus (GPa) = 26.49604 29.08539 27.79071
#
# Velocity S-wave (km/s) = 3.53663 3.70541 3.62200
# Velocity P-wave (km/s) = 6.01674 6.48234 6.25387
#
# Compressibility (1/GPa) = 0.02417829
#
# Stress axis : x y z
#
# Youngs Moduli (GPa) = 36.42988 101.76992 81.71880
#
# Poissons Ratio (x) = 0.42992 0.51267
# Poissons Ratio (y) = 0.15389 0.17729
# Poissons Ratio (z) = 0.22855 0.22079
#
# Static dielectric constant tensor:
#      x y z
#    x 3.639350 0.000000 0.000000 
#    y 0.000000 3.945460 0.000000 
#    z 0.000000 0.000000 4.012980 
# 
# 
# High freq. dielectric constant tensor:
#      x y z
#    x 1.808370 0.000000 0.000000 
#    y 0.000000 1.839510 0.000000 
#    z 0.000000 0.000000 1.836020 
# 
# From -- ./inp_files/23203.got.cif
#   From: 2010.06.25/outbox.cif.g09.slc.cpg/sg52_12_cif.got.tgz:23203.got - 2010.06.26 19:32:48.
