data_PCOD8216865
_publ_section_title
;
Structure prediction by ZEFSAII (Michael W. Deem and Ramdas Pophale) SiO2 
 PCOD8216865
Probable space group: P N N A
;
_chemical_formula_sum "Si O2"
_cell_formula_units_Z 36
_cell_length_a 9.664667
_cell_length_b 7.350039
_cell_length_c 21.088058
_cell_angle_alpha 90.000000
_cell_angle_beta 90.000000
_cell_angle_gamma 90.000000
_cell_volume 1498.004527
_symmetry_space_group_name_H-M "P N N A"
_symmetry_group_IT_number 52
_symmetry_cell_setting 'orthorhombic'
loop_
_space_group_symop_operation_xyz
x,y,z
1/2-x,-y,z
x,1/2-y,1/2-z
1/2-x,1/2+y,1/2-z
-x,-y,-z
1/2+x,y,-z
-x,1/2+y,1/2+z
1/2+x,1/2-y,1/2+z
loop_
_atom_site_type_symbol
_atom_site_label
_atom_site_fract_x
_atom_site_fract_y
_atom_site_fract_z
Si Si1 0.242468 0.201899 0.010809
Si Si2 0.888028 0.093784 0.198585
Si Si3 0.950804 0.250000 0.750000
Si Si4 0.872853 0.366171 0.880548
Si Si5 0.965208 0.315889 0.078790
O O1 0.347317 0.199867 0.071506
O O2 0.086816 0.265282 0.028227
O O3 0.250000 0.000000 0.983152
O O4 0.316403 0.323239 0.956081
O O5 0.856231 0.250000 0.250000
O O6 0.969574 0.175814 0.138246
O O7 0.750000 0.000000 0.172048
O O8 0.966196 0.931021 0.233614
O O9 0.855143 0.295393 0.809576
O O10 0.750000 0.500000 0.898120
O O11 0.013991 0.478386 0.893952
#
# Coordination Sequence:
#
# PCOD8216865 Si02
#       5
#     8   8   4   8   8
#     4  11  23  43  67 107 142 196 249 300 377 432
#     4  12  25  46  72 110 145 190 248 297 369 442
#     4  12  24  44  72 102 146 198 240 302 372 436
#     4  10  24  42  67 105 146 195 248 307 367 441
#     4  11  24  45  71 105 148 189 248 306 366 441
#
# _framework density 24.031970999999999
#
# number of rings (size 3 to 8) (size 9 to 14) (size 15 to 20)
#    0.000    0.889    3.333    3.333    0.000    6.222 
#    0.000    3.333    0.000    0.000    0.000    0.000 
#    0.000    0.000    0.000    0.000    0.000    0.000 
#
# Total GULP energy -446136.332950 kJ/mol
# GULP energy per Si atom -12392.675915 kJ/mol
# Density = 2.397727 g / cm^3
# Si number density = 24.031971 Si / 1000 Ang^3
#
#
#
# Elastic Constant Matrix: (Units=GPa)
#
#
# Indices 1 2 3 4 5 6 
#
# 1 82.2633 27.6206 38.4288 0.0000 0.0000 0.0000
# 2 27.6206 67.8918 16.9962 0.0000 0.0000 0.0000
# 3 38.4288 16.9962 125.2504 0.0000 0.0000 0.0000
# 4 0.0000 0.0000 0.0000 30.1900 0.0000 0.0000
# 5 0.0000 0.0000 0.0000 0.0000 39.9725 0.0000
# 6 0.0000 0.0000 0.0000 0.0000 0.0000 29.2239
#
#
#
# Elastic Compliance Matrix: (Units=1/GPa)
#
#
# Indices 1 2 3 4 5 6 
#
# 1 0.015919 -0.005438 -0.004146 0.000000 0.000000 0.000000
# 2 -0.005438 0.017105 -0.000653 0.000000 0.000000 0.000000
# 3 -0.004146 -0.000653 0.009345 0.000000 0.000000 0.000000
# 4 0.000000 0.000000 0.000000 0.033124 0.000000 0.000000
# 5 0.000000 0.000000 0.000000 0.000000 0.025017 0.000000
# 6 0.000000 0.000000 0.000000 0.000000 0.000000 0.034219
#
#
# Mechanical properties :
#
#
# Convention : Reuss Voigt Hill
#
# Bulk Modulus (GPa) = 45.67351 49.05519 47.36435
# Shear Modulus (GPa) = 30.76910 32.70126 31.73518
#
# Velocity S-wave (km/s) = 3.58207 3.69282 3.63787
# Velocity P-wave (km/s) = 6.01289 6.21606 6.11532
#
# Compressibility (1/GPa) = 0.02189453
#
# Stress axis : x y z
#
# Youngs Moduli (GPa) = 62.81822 58.46176 107.01284
#
# Poissons Ratio (x) = 0.31794 0.44370
# Poissons Ratio (y) = 0.34163 0.06983
# Poissons Ratio (z) = 0.26046 0.03815
#
# Static dielectric constant tensor:
#      x y z
#    x 4.227510 0.000000 0.000000 
#    y 0.000000 4.704670 0.000000 
#    z 0.000000 0.000000 4.361040 
# 
# 
# High freq. dielectric constant tensor:
#      x y z
#    x 1.938060 0.000000 0.000000 
#    y 0.000000 1.963480 0.000000 
#    z 0.000000 0.000000 1.963950 
# 
# From -- ./inp_files/35584.got.cif
#   From: 2010.06.25/outbox.cif.g09.slc.cpg/sg52_18_cif.got.tgz:35584.got - 2010.06.26 19:32:48.
