data_PCOD8216142
_publ_section_title
;
Structure prediction by ZEFSAII (Michael W. Deem and Ramdas Pophale) SiO2 
 PCOD8216142
Probable space group: P N N A
;
_chemical_formula_sum "Si O2"
_cell_formula_units_Z 40
_cell_length_a 16.167427
_cell_length_b 12.204025
_cell_length_c 9.496027
_cell_angle_alpha 90.000000
_cell_angle_beta 90.000000
_cell_angle_gamma 90.000000
_cell_volume 1873.639088
_symmetry_space_group_name_H-M "P N N A"
_symmetry_group_IT_number 52
_symmetry_cell_setting 'orthorhombic'
loop_
_space_group_symop_operation_xyz
x,y,z
1/2-x,-y,z
x,1/2-y,1/2-z
1/2-x,1/2+y,1/2-z
-x,-y,-z
1/2+x,y,-z
-x,1/2+y,1/2+z
1/2+x,1/2-y,1/2+z
loop_
_atom_site_type_symbol
_atom_site_label
_atom_site_fract_x
_atom_site_fract_y
_atom_site_fract_z
Si Si1 0.062987 0.626039 0.286426
Si Si2 0.755014 0.250000 0.250000
Si Si3 0.029312 0.250000 0.250000
Si Si4 0.385529 0.144855 0.906830
Si Si5 0.626374 0.434119 0.230227
Si Si6 0.583037 0.453567 0.928441
O O1 0.082929 0.750000 0.250000
O O2 0.104262 0.599695 0.436438
O O3 0.112512 0.547433 0.179225
O O4 0.964569 0.605423 0.279232
O O5 0.818151 0.243360 0.114284
O O6 0.696826 0.352613 0.278490
O O7 0.079929 0.338951 0.158143
O O8 0.976198 0.185314 0.135456
O O9 0.355557 0.050375 0.800509
O O10 0.642296 0.438644 0.061657
O O11 0.500000 0.500000 0.000000
#
# Coordination Sequence:
#
# PCOD8216142 Si02
#       6
#     8   4   4   8   8   8
#     4  11  22  39  70  99 128 164 224 276 326 384
#     4  11  26  40  66  88 135 172 218 257 342 402
#     4  11  20  34  64  98 131 158 210 271 330 378
#     4  11  23  39  64  94 128 174 213 266 328 394
#     4  11  22  42  65  96 129 170 219 274 320 401
#     4  10  21  37  63 102 127 161 215 274 325 375
#
# _framework density 21.348827
#
# number of rings (size 3 to 8) (size 9 to 14) (size 15 to 20)
#    0.000    1.200    5.000    3.600    2.800    0.000 
#    0.000    0.000   11.000    0.000    0.000    0.000 
#    0.000    0.000    0.000    0.000    0.000    0.000 
#
# Total GULP energy -495545.728079 kJ/mol
# GULP energy per Si atom -12388.643202 kJ/mol
# Density = 2.130024 g / cm^3
# Si number density = 21.348827 Si / 1000 Ang^3
#
#
#
# Elastic Constant Matrix: (Units=GPa)
#
#
# Indices 1 2 3 4 5 6 
#
# 1 56.0073 14.1200 28.6752 0.0000 0.0000 0.0000
# 2 14.1200 134.7357 51.3709 0.0000 0.0000 0.0000
# 3 28.6752 51.3709 147.8116 0.0000 0.0000 0.0000
# 4 0.0000 0.0000 0.0000 41.5630 0.0000 0.0000
# 5 0.0000 0.0000 0.0000 0.0000 0.7209 0.0000
# 6 0.0000 0.0000 0.0000 0.0000 0.0000 60.8265
#
#
#
# Elastic Compliance Matrix: (Units=1/GPa)
#
#
# Indices 1 2 3 4 5 6 
#
# 1 0.019882 -0.000707 -0.003611 0.000000 0.000000 0.000000
# 2 -0.000707 0.008581 -0.002845 0.000000 0.000000 0.000000
# 3 -0.003611 -0.002845 0.008455 0.000000 0.000000 0.000000
# 4 0.000000 0.000000 0.000000 0.024060 0.000000 0.000000
# 5 0.000000 0.000000 0.000000 0.000000 1.387175 0.000000
# 6 0.000000 0.000000 0.000000 0.000000 0.000000 0.016440
#
#
# Mechanical properties :
#
#
# Convention : Reuss Voigt Hill
#
# Bulk Modulus (GPa) = 44.26522 58.54299 51.40410
# Shear Modulus (GPa) = 3.36372 36.91465 20.13919
#
# Velocity S-wave (km/s) = 1.25659 4.16278 3.07471
# Velocity P-wave (km/s) = 4.78379 7.11243 6.06099
#
# Compressibility (1/GPa) = 0.02259110
#
# Stress axis : x y z
#
# Youngs Moduli (GPa) = 50.29673 116.54002 118.27627
#
# Poissons Ratio (x) = 0.08235 0.42715
# Poissons Ratio (y) = 0.03554 0.33651
# Poissons Ratio (z) = 0.18165 0.33157
#
# Static dielectric constant tensor:
#      x y z
#    x 3.534520 0.000000 0.000000 
#    y 0.000000 4.242670 0.000000 
#    z 0.000000 0.000000 4.300390 
# 
# 
# High freq. dielectric constant tensor:
#      x y z
#    x 1.797660 0.000000 0.000000 
#    y 0.000000 1.854750 0.000000 
#    z 0.000000 0.000000 1.841170 
# 
# From -- ./inp_files/11661.got.cif
#   From: 2010.06.25/outbox.cif.g09.slc.cpg/sg52_6_cif.got.tgz:11661.got - 2010.06.26 19:32:48.
