data_PCOD8216915
_publ_section_title
;
Structure prediction by ZEFSAII (Michael W. Deem and Ramdas Pophale) SiO2 
 PCOD8216915
Probable space group: P N N A
;
_chemical_formula_sum "Si O2"
_cell_formula_units_Z 40
_cell_length_a 9.579231
_cell_length_b 19.345551
_cell_length_c 9.179501
_cell_angle_alpha 90.000000
_cell_angle_beta 90.000000
_cell_angle_gamma 90.000000
_cell_volume 1701.103835
_symmetry_space_group_name_H-M "P N N A"
_symmetry_group_IT_number 52
_symmetry_cell_setting 'orthorhombic'
loop_
_space_group_symop_operation_xyz
x,y,z
1/2-x,-y,z
x,1/2-y,1/2-z
1/2-x,1/2+y,1/2-z
-x,-y,-z
1/2+x,y,-z
-x,1/2+y,1/2+z
1/2+x,1/2-y,1/2+z
loop_
_atom_site_type_symbol
_atom_site_label
_atom_site_fract_x
_atom_site_fract_y
_atom_site_fract_z
Si Si1 0.072994 0.347507 0.054864
Si Si2 0.264288 0.114050 0.970693
Si Si3 0.658318 0.761314 0.583743
Si Si4 0.467051 0.565974 0.330914
Si Si5 0.124920 0.447714 0.797456
O O1 0.230378 0.322656 0.076328
O O2 0.014756 0.376086 0.206673
O O3 0.069144 0.409013 0.938632
O O4 0.977353 0.283301 0.007113
O O5 0.416542 0.080183 0.954893
O O6 0.179062 0.108286 0.819472
O O7 0.274609 0.193724 0.012933
O O8 0.184647 0.070758 0.095810
O O9 0.612642 0.750000 0.750000
O O10 0.492368 0.489847 0.265511
O O11 0.250000 0.500000 0.838274
#
# Coordination Sequence:
#
# PCOD8216915 Si02
#       5
#     8   8   8   8   8
#     4  12  27  47  74 106 145 192 242 300 364 434
#     4  11  24  44  71 100 143 185 238 294 357 427
#     4  12  27  46  72 107 145 193 242 297 361 432
#     4  11  24  47  70 105 143 186 239 298 360 431
#     4  10  24  46  75 109 142 188 241 305 368 426
#
# _framework density 23.514144000000002
#
# number of rings (size 3 to 8) (size 9 to 14) (size 15 to 20)
#    0.000    0.800    2.000    4.800    5.600    1.600 
#    0.000    3.000    0.000    0.000    0.000    0.000 
#    0.000    0.000    0.000    0.000    0.000    0.000 
#
# Total GULP energy -496307.039142 kJ/mol
# GULP energy per Si atom -12407.675979 kJ/mol
# Density = 2.346062 g / cm^3
# Si number density = 23.514144 Si / 1000 Ang^3
#
#
#
# Elastic Constant Matrix: (Units=GPa)
#
#
# Indices 1 2 3 4 5 6 
#
# 1 77.9478 12.0653 43.9498 0.0000 0.0000 0.0000
# 2 12.0653 72.1920 27.6149 0.0000 0.0000 0.0000
# 3 43.9498 27.6149 108.7347 0.0000 0.0000 0.0000
# 4 0.0000 0.0000 0.0000 31.6659 0.0000 0.0000
# 5 0.0000 0.0000 0.0000 0.0000 24.7565 0.0000
# 6 0.0000 0.0000 0.0000 0.0000 0.0000 30.9285
#
#
#
# Elastic Compliance Matrix: (Units=1/GPa)
#
#
# Indices 1 2 3 4 5 6 
#
# 1 0.016619 -0.000230 -0.006659 0.000000 0.000000 0.000000
# 2 -0.000230 0.015346 -0.003804 0.000000 0.000000 0.000000
# 3 -0.006659 -0.003804 0.012854 0.000000 0.000000 0.000000
# 4 0.000000 0.000000 0.000000 0.031580 0.000000 0.000000
# 5 0.000000 0.000000 0.000000 0.000000 0.040393 0.000000
# 6 0.000000 0.000000 0.000000 0.000000 0.000000 0.032333
#
#
# Mechanical properties :
#
#
# Convention : Reuss Voigt Hill
#
# Bulk Modulus (GPa) = 42.67603 47.34828 45.01216
# Shear Modulus (GPa) = 28.03908 29.15315 28.59612
#
# Velocity S-wave (km/s) = 3.45691 3.52492 3.49108
# Velocity P-wave (km/s) = 5.84142 6.06189 5.95267
#
# Compressibility (1/GPa) = 0.02343236
#
# Stress axis : x y z
#
# Youngs Moduli (GPa) = 60.17112 65.16519 77.79501
#
# Poissons Ratio (x) = 0.01501 0.51803
# Poissons Ratio (y) = 0.01386 0.29594
# Poissons Ratio (z) = 0.40067 0.24790
#
# Static dielectric constant tensor:
#      x y z
#    x 4.243300 0.000000 0.000000 
#    y 0.000000 4.187010 0.000000 
#    z 0.000000 0.000000 4.324650 
# 
# 
# High freq. dielectric constant tensor:
#      x y z
#    x 1.935120 0.000000 0.000000 
#    y 0.000000 1.934360 0.000000 
#    z 0.000000 0.000000 1.939420 
# 
# From -- ./inp_files/8524.got.cif
#   From: 2010.06.25/outbox.cif.g09.slc.cpg/sg52_5_cif.got.tgz:8524.got - 2010.06.26 19:32:48.
