data_PCOD8216149
_publ_section_title
;
Structure prediction by ZEFSAII (Michael W. Deem and Ramdas Pophale) SiO2 
 PCOD8216149
Probable space group: P N N A
;
_chemical_formula_sum "Si O2"
_cell_formula_units_Z 56
_cell_length_a 29.515371
_cell_length_b 5.092502
_cell_length_c 17.558067
_cell_angle_alpha 90.000000
_cell_angle_beta 90.000000
_cell_angle_gamma 90.000000
_cell_volume 2639.101884
_symmetry_space_group_name_H-M "P N N A"
_symmetry_group_IT_number 52
_symmetry_cell_setting 'orthorhombic'
loop_
_space_group_symop_operation_xyz
x,y,z
1/2-x,-y,z
x,1/2-y,1/2-z
1/2-x,1/2+y,1/2-z
-x,-y,-z
1/2+x,y,-z
-x,1/2+y,1/2+z
1/2+x,1/2-y,1/2+z
loop_
_atom_site_type_symbol
_atom_site_label
_atom_site_fract_x
_atom_site_fract_y
_atom_site_fract_z
Si Si1 0.800133 0.972836 0.090889
Si Si2 0.382531 0.498869 0.698501
Si Si3 0.300556 0.027310 0.489756
Si Si4 0.031696 0.229898 0.427793
Si Si5 0.612177 0.834215 0.576747
Si Si6 0.437248 0.107609 0.945548
Si Si7 0.075988 0.503343 0.300210
O O1 0.808560 0.686570 0.055082
O O2 0.750000 0.000000 0.125784
O O3 0.833107 0.011308 0.161500
O O4 0.805995 0.184051 0.024299
O O5 0.389914 0.250000 0.750000
O O6 0.421224 0.500545 0.634831
O O7 0.389124 0.750000 0.750000
O O8 0.250000 0.000000 0.453327
O O9 0.340401 0.003234 0.425336
O O10 0.045725 0.358368 0.507233
O O11 0.034344 0.428092 0.355472
O O12 0.977679 0.171577 0.436564
O O13 0.066146 0.997307 0.405453
O O14 0.605514 0.726556 0.490795
O O15 0.615859 0.607841 0.642002
O O16 0.060197 0.750000 0.250000
O O17 0.092517 0.250000 0.250000
#
# Coordination Sequence:
#
# PCOD8216149 Si02
#       7
#     8   8   8   8   8   8   8
#     4  10  21  40  62  89 126 165 216 268 311 375
#     4  12  26  41  60  89 129 178 209 267 327 369
#     4  10  21  37  67  99 123 158 210 271 318 368
#     4  10  22  40  67  94 118 178 207 271 317 376
#     4  11  21  39  71  91 133 166 209 270 319 383
#     4  10  23  40  61  94 129 163 227 262 319 382
#     4  11  23  41  62  96 128 161 209 256 318 392
#
# _framework density 21.219341
#
# number of rings (size 3 to 8) (size 9 to 14) (size 15 to 20)
#    0.000    1.429    2.857    2.143    4.000    1.714 
#    0.000    0.000    0.000    0.000    3.714    0.000 
#    0.000    0.000    0.000    0.000    0.000    0.000 
#
# Total GULP energy -693923.587621 kJ/mol
# GULP energy per Si atom -12391.492636 kJ/mol
# Density = 2.117104 g / cm^3
# Si number density = 21.219341 Si / 1000 Ang^3
#
#
#
# Elastic Constant Matrix: (Units=GPa)
#
#
# Indices 1 2 3 4 5 6 
#
# 1 137.6326 38.7165 63.9701 0.0000 0.0000 0.0000
# 2 38.7165 101.8635 41.4500 0.0000 0.0000 0.0000
# 3 63.9701 41.4500 119.2471 0.0000 0.0000 0.0000
# 4 0.0000 0.0000 0.0000 22.6752 0.0000 0.0000
# 5 0.0000 0.0000 0.0000 0.0000 10.3042 0.0000
# 6 0.0000 0.0000 0.0000 0.0000 0.0000 23.7247
#
#
#
# Elastic Compliance Matrix: (Units=1/GPa)
#
#
# Indices 1 2 3 4 5 6 
#
# 1 0.009979 -0.001881 -0.004700 0.000000 0.000000 0.000000
# 2 -0.001881 0.011789 -0.003089 0.000000 0.000000 0.000000
# 3 -0.004700 -0.003089 0.011981 0.000000 0.000000 0.000000
# 4 0.000000 0.000000 0.000000 0.044101 0.000000 0.000000
# 5 0.000000 0.000000 0.000000 0.000000 0.097048 0.000000
# 6 0.000000 0.000000 0.000000 0.000000 0.000000 0.042150
#
#
# Mechanical properties :
#
#
# Convention : Reuss Voigt Hill
#
# Bulk Modulus (GPa) = 69.39406 71.89069 70.64238
# Shear Modulus (GPa) = 20.73064 25.64794 23.18929
#
# Velocity S-wave (km/s) = 3.12904 3.48042 3.30940
# Velocity P-wave (km/s) = 6.76969 7.07845 6.92579
#
# Compressibility (1/GPa) = 0.01441046
#
# Stress axis : x y z
#
# Youngs Moduli (GPa) = 100.21013 84.82661 83.46722
#
# Poissons Ratio (x) = 0.15952 0.39226
# Poissons Ratio (y) = 0.18845 0.25783
# Poissons Ratio (z) = 0.47095 0.26202
#
# Static dielectric constant tensor:
#      x y z
#    x 3.989610 0.000000 0.000000 
#    y 0.000000 3.948310 0.000000 
#    z 0.000000 0.000000 3.857610 
# 
# 
# High freq. dielectric constant tensor:
#      x y z
#    x 1.825050 0.000000 0.000000 
#    y 0.000000 1.840700 0.000000 
#    z 0.000000 0.000000 1.820980 
# 
# From -- ./inp_files/29697.got.cif
#   From: 2010.06.25/outbox.cif.g09.slc.cpg/sg52_15_cif.got.tgz:29697.got - 2010.06.26 19:32:48.
