data_PCOD8216714
_publ_section_title
;
Structure prediction by ZEFSAII (Michael W. Deem and Ramdas Pophale) SiO2 
 PCOD8216714
Probable space group: P N N A
;
_chemical_formula_sum "Si O2"
_cell_formula_units_Z 28
_cell_length_a 13.592486
_cell_length_b 18.199015
_cell_length_c 5.049453
_cell_angle_alpha 90.000000
_cell_angle_beta 90.000000
_cell_angle_gamma 90.000000
_cell_volume 1249.082465
_symmetry_space_group_name_H-M "P N N A"
_symmetry_group_IT_number 52
_symmetry_cell_setting 'orthorhombic'
loop_
_space_group_symop_operation_xyz
x,y,z
1/2-x,-y,z
x,1/2-y,1/2-z
1/2-x,1/2+y,1/2-z
-x,-y,-z
1/2+x,y,-z
-x,1/2+y,1/2+z
1/2+x,1/2-y,1/2+z
loop_
_atom_site_type_symbol
_atom_site_label
_atom_site_fract_x
_atom_site_fract_y
_atom_site_fract_z
Si Si1 0.940371 0.168404 0.646636
Si Si2 0.941645 0.750000 0.750000
Si Si3 0.130211 0.135462 0.905881
Si Si4 0.739715 0.416449 0.903600
O O1 0.914752 0.250000 0.750000
O O2 0.845270 0.118526 0.643605
O O3 0.991221 0.182453 0.359804
O O4 0.015536 0.121739 0.832083
O O5 0.869717 0.719171 0.519843
O O6 0.192766 0.130491 0.639455
O O7 0.173345 0.083333 0.137140
O O8 0.750000 0.500000 0.998647
#
# Coordination Sequence:
#
# PCOD8216714 Si02
#       4
#     8   4   8   8
#     4  10  25  43  72 102 136 178 240 294 350 408
#     4  10  22  46  68 104 134 182 232 302 350 390
#     4  11  25  46  69 100 140 178 234 291 347 410
#     4  12  28  45  70 105 143 191 230 280 359 427
#
# _framework density 22.416454000000002
#
# number of rings (size 3 to 8) (size 9 to 14) (size 15 to 20)
#    0.000    1.143    2.857    0.857   10.000    2.286 
#    0.000    0.000    0.000    0.000    0.000    0.000 
#    0.000    0.000    0.000    0.000    0.000    0.000 
#
# Total GULP energy -346930.619320 kJ/mol
# GULP energy per Si atom -12390.379261 kJ/mol
# Density = 2.236543 g / cm^3
# Si number density = 22.416454 Si / 1000 Ang^3
#
#
#
# Elastic Constant Matrix: (Units=GPa)
#
#
# Indices 1 2 3 4 5 6 
#
# 1 160.5758 90.4411 76.3660 0.0000 0.0000 0.0000
# 2 90.4411 87.6560 38.5452 0.0000 0.0000 0.0000
# 3 76.3660 38.5452 152.4095 0.0000 0.0000 0.0000
# 4 0.0000 0.0000 0.0000 30.8988 0.0000 0.0000
# 5 0.0000 0.0000 0.0000 0.0000 4.7846 0.0000
# 6 0.0000 0.0000 0.0000 0.0000 0.0000 6.4389
#
#
#
# Elastic Compliance Matrix: (Units=1/GPa)
#
#
# Indices 1 2 3 4 5 6 
#
# 1 0.017429 -0.015913 -0.004709 0.000000 0.000000 0.000000
# 2 -0.015913 0.027363 0.001053 0.000000 0.000000 0.000000
# 3 -0.004709 0.001053 0.008654 0.000000 0.000000 0.000000
# 4 0.000000 0.000000 0.000000 0.032364 0.000000 0.000000
# 5 0.000000 0.000000 0.000000 0.000000 0.209006 0.000000
# 6 0.000000 0.000000 0.000000 0.000000 0.000000 0.155306
#
#
# Mechanical properties :
#
#
# Convention : Reuss Voigt Hill
#
# Bulk Modulus (GPa) = 69.88079 90.14952 80.01515
# Shear Modulus (GPa) = 10.12085 21.44373 15.78229
#
# Velocity S-wave (km/s) = 2.12714 3.09626 2.65627
# Velocity P-wave (km/s) = 6.10529 7.28598 6.72161
#
# Compressibility (1/GPa) = 0.01431009
#
# Stress axis : x y z
#
# Youngs Moduli (GPa) = 57.37427 36.54504 115.54840
#
# Poissons Ratio (x) = 0.58153 0.54409
# Poissons Ratio (y) = 0.91297 -0.12165
# Poissons Ratio (z) = 0.27016 -0.03847
#
# Static dielectric constant tensor:
#      x y z
#    x 4.075050 0.000000 0.000000 
#    y 0.000000 3.963190 0.000000 
#    z 0.000000 0.000000 4.515040 
# 
# 
# High freq. dielectric constant tensor:
#      x y z
#    x 1.883620 0.000000 0.000000 
#    y 0.000000 1.853710 0.000000 
#    z 0.000000 0.000000 1.909130 
# 
# From -- ./inp_files/931.got.cif
#   From: 2010.06.25/outbox.cif.g09.slc.cpg/sg52_1_cif.got.tgz:931.got - 2010.06.26 19:32:48.
