data_PCOD8216918
_publ_section_title
;
Structure prediction by ZEFSAII (Michael W. Deem and Ramdas Pophale) SiO2 
 PCOD8216918
Probable space group: P N N A
;
_chemical_formula_sum "Si O2"
_cell_formula_units_Z 36
_cell_length_a 18.147300
_cell_length_b 5.518793
_cell_length_c 14.878053
_cell_angle_alpha 90.000000
_cell_angle_beta 90.000000
_cell_angle_gamma 90.000000
_cell_volume 1490.054746
_symmetry_space_group_name_H-M "P N N A"
_symmetry_group_IT_number 52
_symmetry_cell_setting 'orthorhombic'
loop_
_space_group_symop_operation_xyz
x,y,z
1/2-x,-y,z
x,1/2-y,1/2-z
1/2-x,1/2+y,1/2-z
-x,-y,-z
1/2+x,y,-z
-x,1/2+y,1/2+z
1/2+x,1/2-y,1/2+z
loop_
_atom_site_type_symbol
_atom_site_label
_atom_site_fract_x
_atom_site_fract_y
_atom_site_fract_z
Si Si1 0.360478 0.718118 0.940904
Si Si2 0.854947 0.390321 0.888120
Si Si3 0.995966 0.376945 0.656217
Si Si4 0.412899 0.750000 0.250000
Si Si5 0.750000 0.000000 0.953445
Si Si6 0.750000 0.500000 0.195826
O O1 0.435380 0.844214 0.908947
O O2 0.321854 0.561429 0.862918
O O3 0.368892 0.548901 0.025576
O O4 0.313878 0.942593 0.976461
O O5 0.859309 0.547950 0.795348
O O6 0.923805 0.216667 0.892431
O O7 0.778102 0.231571 0.893145
O O8 0.014737 0.250000 0.750000
O O9 0.970545 0.652529 0.675073
O O10 0.731525 0.750000 0.250000
#
# Coordination Sequence:
#
# PCOD8216918 Si02
#       6
#     8   8   8   4   4   4
#     4  12  25  47  75 114 152 209 259 321 400 482
#     4  11  24  47  78 108 148 208 259 331 388 478
#     4  10  24  46  76 110 151 201 263 325 384 472
#     4  10  24  50  76 110 158 194 276 326 398 466
#     4  12  25  44  78 109 164 200 266 325 408 483
#     4  12  27  50  76 117 174 214 264 337 418 493
#
# _framework density 24.160184000000001
#
# number of rings (size 3 to 8) (size 9 to 14) (size 15 to 20)
#    0.000    0.889    2.222    3.333    0.000    7.111 
#   14.000    0.000  110.000    0.000    0.000    0.000 
#    0.000    0.000    0.000    0.000    0.000    0.000 
#
# Total GULP energy -446015.485821 kJ/mol
# GULP energy per Si atom -12389.319051 kJ/mol
# Density = 2.410519 g / cm^3
# Si number density = 24.160184 Si / 1000 Ang^3
#
#
#
# Elastic Constant Matrix: (Units=GPa)
#
#
# Indices 1 2 3 4 5 6 
#
# 1 109.2769 26.2728 51.8575 0.0000 0.0000 0.0000
# 2 26.2728 118.5873 41.5677 0.0000 0.0000 0.0000
# 3 51.8575 41.5677 95.3177 0.0000 0.0000 0.0000
# 4 0.0000 0.0000 0.0000 -198.2150 0.0000 0.0000
# 5 0.0000 0.0000 0.0000 0.0000 25.5544 0.0000
# 6 0.0000 0.0000 0.0000 0.0000 0.0000 -0.0726
#
#
#
# Elastic Compliance Matrix: (Units=1/GPa)
#
#
# Indices 1 2 3 4 5 6 
#
# 1 0.012356 -0.000450 -0.006526 0.000000 0.000000 0.000000
# 2 -0.000450 0.009971 -0.004103 0.000000 0.000000 0.000000
# 3 -0.006526 -0.004103 0.015831 0.000000 0.000000 0.000000
# 4 0.000000 0.000000 0.000000 -0.005045 0.000000 0.000000
# 5 0.000000 0.000000 0.000000 0.000000 0.039132 0.000000
# 6 0.000000 0.000000 0.000000 0.000000 0.000000-13.777122
#
#
# Mechanical properties :
#
#
# Convention : Reuss Voigt Hill
#
# Bulk Modulus (GPa) = 62.50328 62.50866 62.50597
# Shear Modulus (GPa) = -0.36557 -20.98104 -10.67330
#
# Velocity S-wave (km/s) = -0.38941 -2.95008 -2.10412
# Velocity P-wave (km/s) = 5.07192 3.78481 4.47488
#
# Compressibility (1/GPa) = 0.01599916
#
# Stress axis : x y z
#
# Youngs Moduli (GPa) = 80.93072 100.29467 63.16610
#
# Poissons Ratio (x) = 0.04512 0.41223
# Poissons Ratio (y) = 0.03641 0.25919
# Poissons Ratio (z) = 0.52817 0.41155
#
# Static dielectric constant tensor:
#      x y z
#    x 4.171710 0.000000 0.000000 
#    y 0.000000 4.583840 0.000000 
#    z 0.000000 0.000000 4.573710 
# 
# 
# High freq. dielectric constant tensor:
#      x y z
#    x 1.959130 0.000000 0.000000 
#    y 0.000000 1.974880 0.000000 
#    z 0.000000 0.000000 1.967320 
# 
# From -- ./inp_files/28529.got.cif
#   From: 2010.06.25/outbox.cif.g09.slc.cpg/sg52_15_cif.got.tgz:28529.got - 2010.06.26 19:32:48.
