data_PCOD8216069
_publ_section_title
;
Structure prediction by ZEFSAII (Michael W. Deem and Ramdas Pophale) SiO2 
 PCOD8216069
Probable space group: P N N A
;
_chemical_formula_sum "Si O2"
_cell_formula_units_Z 60
_cell_length_a 5.769641
_cell_length_b 18.095805
_cell_length_c 26.850515
_cell_angle_alpha 90.000000
_cell_angle_beta 90.000000
_cell_angle_gamma 90.000000
_cell_volume 2803.362883
_symmetry_space_group_name_H-M "P N N A"
_symmetry_group_IT_number 52
_symmetry_cell_setting 'orthorhombic'
loop_
_space_group_symop_operation_xyz
x,y,z
1/2-x,-y,z
x,1/2-y,1/2-z
1/2-x,1/2+y,1/2-z
-x,-y,-z
1/2+x,y,-z
-x,1/2+y,1/2+z
1/2+x,1/2-y,1/2+z
loop_
_atom_site_type_symbol
_atom_site_label
_atom_site_fract_x
_atom_site_fract_y
_atom_site_fract_z
Si Si1 0.900285 0.937221 0.396399
Si Si2 0.559190 0.676118 0.971849
Si Si3 0.576418 0.794957 0.891667
Si Si4 0.455202 0.806340 0.179842
Si Si5 0.796924 0.684356 0.174647
Si Si6 0.335587 0.579274 0.656882
Si Si7 0.250000 0.500000 0.179753
Si Si8 0.121610 0.883014 0.246629
O O1 0.068950 0.893456 0.434017
O O2 0.741570 0.877665 0.367182
O O3 0.031919 0.985194 0.354982
O O4 0.750000 0.000000 0.425321
O O5 0.558135 0.756128 0.945292
O O6 0.804480 0.670037 0.001372
O O7 0.843548 0.805482 0.875860
O O8 0.470046 0.743909 0.848652
O O9 0.444643 0.874339 0.889729
O O10 0.562606 0.725738 0.189915
O O11 0.628172 0.874882 0.181245
O O12 0.267492 0.816776 0.223067
O O13 0.903856 0.650822 0.224360
O O14 0.250000 0.500000 0.636773
O O15 0.523565 0.566866 0.701041
O O16 0.285499 0.570485 0.215884
#
# Coordination Sequence:
#
# PCOD8216069 Si02
#       8
#     8   8   8   8   8   8   4   8
#     4  10  24  42  65  93 128 177 221 274 350 398
#     4  11  27  47  78 105 133 165 224 288 344 425
#     4   9  22  40  62  94 121 169 209 264 348 393
#     4  10  21  37  62  80 133 165 220 276 320 393
#     4   9  21  37  55  86 123 168 225 273 318 390
#     4  10  21  36  59  93 130 168 220 264 321 398
#     4  10  22  40  58  82 142 176 228 272 324 398
#     4  10  21  35  54  92 120 179 227 265 324 377
#
# _framework density 21.402864999999998
#
# number of rings (size 3 to 8) (size 9 to 14) (size 15 to 20)
#    0.000    2.133    0.000    0.800    7.467   15.467 
#    0.000    2.667    0.000    0.800    0.000    0.000 
#    0.000    0.000    0.000    0.000    0.000    0.000 
#
# Total GULP energy -743516.888030 kJ/mol
# GULP energy per Si atom -12391.948134 kJ/mol
# Density = 2.135415 g / cm^3
# Si number density = 21.402865 Si / 1000 Ang^3
#
#
#
# Elastic Constant Matrix: (Units=GPa)
#
#
# Indices 1 2 3 4 5 6 
#
# 1 93.3584 45.6632 46.4831 0.0000 0.0000 0.0000
# 2 45.6632 135.4735 43.1194 0.0000 0.0000 0.0000
# 3 46.4831 43.1194 83.3987 0.0000 0.0000 0.0000
# 4 0.0000 0.0000 0.0000 21.5079 0.0000 0.0000
# 5 0.0000 0.0000 0.0000 0.0000 26.0185 0.0000
# 6 0.0000 0.0000 0.0000 0.0000 0.0000 34.7220
#
#
#
# Elastic Compliance Matrix: (Units=1/GPa)
#
#
# Indices 1 2 3 4 5 6 
#
# 1 0.015794 -0.003018 -0.007242 0.000000 0.000000 0.000000
# 2 -0.003018 0.009412 -0.003184 0.000000 0.000000 0.000000
# 3 -0.007242 -0.003184 0.017673 0.000000 0.000000 0.000000
# 4 0.000000 0.000000 0.000000 0.046494 0.000000 0.000000
# 5 0.000000 0.000000 0.000000 0.000000 0.038434 0.000000
# 6 0.000000 0.000000 0.000000 0.000000 0.000000 0.028800
#
#
# Mechanical properties :
#
#
# Convention : Reuss Voigt Hill
#
# Bulk Modulus (GPa) = 62.53895 64.75134 63.64514
# Shear Modulus (GPa) = 26.47918 28.24733 27.36326
#
# Velocity S-wave (km/s) = 3.52117 3.63684 3.57947
# Velocity P-wave (km/s) = 6.76867 6.92493 6.84725
#
# Compressibility (1/GPa) = 0.01599004
#
# Stress axis : x y z
#
# Youngs Moduli (GPa) = 63.31678 106.24316 56.58232
#
# Poissons Ratio (x) = 0.32068 0.40978
# Poissons Ratio (y) = 0.19111 0.18017
# Poissons Ratio (z) = 0.45855 0.33829
#
# Static dielectric constant tensor:
#      x y z
#    x 3.950040 0.000000 0.000000 
#    y 0.000000 4.101500 0.000000 
#    z 0.000000 0.000000 3.656560 
# 
# 
# High freq. dielectric constant tensor:
#      x y z
#    x 1.842790 0.000000 0.000000 
#    y 0.000000 1.845690 0.000000 
#    z 0.000000 0.000000 1.807650 
# 
# From -- ./inp_files/41817.got.cif
#   From: 2010.06.25/outbox.cif.g09.slc.cpg/sg52_21_cif.got.tgz:41817.got - 2010.06.26 19:32:48.
