data_PCOD8216439
_publ_section_title
;
Structure prediction by ZEFSAII (Michael W. Deem and Ramdas Pophale) SiO2 
 PCOD8216439
Probable space group: P N N A
;
_chemical_formula_sum "Si O2"
_cell_formula_units_Z 48
_cell_length_a 22.552606
_cell_length_b 8.941901
_cell_length_c 11.555158
_cell_angle_alpha 90.000000
_cell_angle_beta 90.000000
_cell_angle_gamma 90.000000
_cell_volume 2330.249794
_symmetry_space_group_name_H-M "P N N A"
_symmetry_group_IT_number 52
_symmetry_cell_setting 'orthorhombic'
loop_
_space_group_symop_operation_xyz
x,y,z
1/2-x,-y,z
x,1/2-y,1/2-z
1/2-x,1/2+y,1/2-z
-x,-y,-z
1/2+x,y,-z
-x,1/2+y,1/2+z
1/2+x,1/2-y,1/2+z
loop_
_atom_site_type_symbol
_atom_site_label
_atom_site_fract_x
_atom_site_fract_y
_atom_site_fract_z
Si Si1 0.066142 0.420266 0.729450
Si Si2 0.859396 0.251934 0.615026
Si Si3 0.769010 0.666426 0.639463
Si Si4 0.875879 0.932818 0.999420
Si Si5 0.016871 0.162325 0.141181
Si Si6 0.557794 0.913990 0.454993
O O1 0.047922 0.250000 0.750000
O O2 0.120682 0.437191 0.638816
O O3 0.087325 0.493025 0.850260
O O4 0.006994 0.500048 0.679906
O O5 0.876134 0.250000 0.750000
O O6 0.788267 0.238445 0.597880
O O7 0.879828 0.406005 0.558372
O O8 0.892660 0.111934 0.554167
O O9 0.750000 0.500000 0.678405
O O10 0.797877 0.750000 0.750000
O O11 0.683469 0.343514 0.536032
O O12 0.933586 0.843661 0.956897
O O13 0.044767 0.250000 0.250000
O O14 0.960617 0.251631 0.091782
O O15 0.500000 0.000000 0.500000
#
# Coordination Sequence:
#
# PCOD8216439 Si02
#       6
#     8   8   8   8   8   8
#     4  11  24  40  60  89 135 171 217 262 325 396
#     4  10  23  39  66  95 126 168 213 271 334 387
#     4   9  20  42  64  93 124 164 216 276 332 385
#     4  11  21  38  67  88 128 166 213 274 322 389
#     4  10  22  36  57  92 123 165 205 262 326 386
#     4  11  24  39  62  93 131 172 213 263 328 401
#
# _framework density 20.598652000000001
#
# number of rings (size 3 to 8) (size 9 to 14) (size 15 to 20)
#    0.000    1.667    1.667    2.000    7.000    0.000 
#   12.000    0.000   11.000    0.000    0.000    0.000 
#    0.000    0.000    0.000    0.000    0.000    0.000 
#
# Total GULP energy -595208.457042 kJ/mol
# GULP energy per Si atom -12400.176188 kJ/mol
# Density = 2.055177 g / cm^3
# Si number density = 20.598652 Si / 1000 Ang^3
#
#
#
# Elastic Constant Matrix: (Units=GPa)
#
#
# Indices 1 2 3 4 5 6 
#
# 1 105.7041 47.0360 75.2379 0.0000 0.0000 0.0000
# 2 47.0360 101.9010 55.9362 0.0000 0.0000 0.0000
# 3 75.2379 55.9362 172.5873 0.0000 0.0000 0.0000
# 4 0.0000 0.0000 0.0000 32.2792 0.0000 0.0000
# 5 0.0000 0.0000 0.0000 0.0000 28.4993 0.0000
# 6 0.0000 0.0000 0.0000 0.0000 0.0000 27.0327
#
#
#
# Elastic Compliance Matrix: (Units=1/GPa)
#
#
# Indices 1 2 3 4 5 6 
#
# 1 0.014975 -0.004049 -0.005216 0.000000 0.000000 0.000000
# 2 -0.004049 0.013032 -0.002459 0.000000 0.000000 0.000000
# 3 -0.005216 -0.002459 0.008865 0.000000 0.000000 0.000000
# 4 0.000000 0.000000 0.000000 0.030980 0.000000 0.000000
# 5 0.000000 0.000000 0.000000 0.000000 0.035089 0.000000
# 6 0.000000 0.000000 0.000000 0.000000 0.000000 0.036992
#
#
# Mechanical properties :
#
#
# Convention : Reuss Voigt Hill
#
# Bulk Modulus (GPa) = 74.48971 81.84585 78.16778
# Shear Modulus (GPa) = 29.78791 31.02771 30.40781
#
# Velocity S-wave (km/s) = 3.80690 3.88532 3.84631
# Velocity P-wave (km/s) = 7.45414 7.74257 7.59973
#
# Compressibility (1/GPa) = 0.01342467
#
# Stress axis : x y z
#
# Youngs Moduli (GPa) = 66.78015 76.73428 112.80627
#
# Poissons Ratio (x) = 0.31069 0.58837
# Poissons Ratio (y) = 0.27039 0.27735
# Poissons Ratio (z) = 0.34831 0.18866
#
# Static dielectric constant tensor:
#      x y z
#    x 3.563020 0.000000 0.000000 
#    y 0.000000 3.806780 0.000000 
#    z 0.000000 0.000000 3.978110 
# 
# 
# High freq. dielectric constant tensor:
#      x y z
#    x 1.780570 0.000000 0.000000 
#    y 0.000000 1.812100 0.000000 
#    z 0.000000 0.000000 1.810040 
# 
# From -- ./inp_files/22779.got.cif
#   From: 2010.06.25/outbox.cif.g09.slc.cpg/sg52_12_cif.got.tgz:22779.got - 2010.06.26 19:32:48.
