data_PCOD8216371
_publ_section_title
;
Structure prediction by ZEFSAII (Michael W. Deem and Ramdas Pophale) SiO2 
 PCOD8216371
Probable space group: P N N A
;
_chemical_formula_sum "Si O2"
_cell_formula_units_Z 60
_cell_length_a 5.348098
_cell_length_b 22.415845
_cell_length_c 24.137750
_cell_angle_alpha 90.000000
_cell_angle_beta 90.000000
_cell_angle_gamma 90.000000
_cell_volume 2893.685024
_symmetry_space_group_name_H-M "P N N A"
_symmetry_group_IT_number 52
_symmetry_cell_setting 'orthorhombic'
loop_
_space_group_symop_operation_xyz
x,y,z
1/2-x,-y,z
x,1/2-y,1/2-z
1/2-x,1/2+y,1/2-z
-x,-y,-z
1/2+x,y,-z
-x,1/2+y,1/2+z
1/2+x,1/2-y,1/2+z
loop_
_atom_site_type_symbol
_atom_site_label
_atom_site_fract_x
_atom_site_fract_y
_atom_site_fract_z
Si Si1 0.712980 0.818598 0.747582
Si Si2 0.659976 0.203569 0.972591
Si Si3 0.250000 0.500000 0.187739
Si Si4 0.899683 0.656400 0.972229
Si Si5 0.257432 0.067153 0.851787
Si Si6 0.766647 0.636001 0.634736
Si Si7 0.954706 0.616026 0.848363
Si Si8 0.154212 0.423760 0.769197
O O1 0.628265 0.750000 0.750000
O O2 0.835005 0.834635 0.806396
O O3 0.899345 0.831524 0.696170
O O4 0.479568 0.860618 0.738012
O O5 0.632330 0.273813 0.980663
O O6 0.738360 0.188982 0.909914
O O7 0.388147 0.177085 0.989816
O O8 0.239360 0.439458 0.151351
O O9 0.485522 0.484578 0.227651
O O10 0.968317 0.643096 0.908863
O O11 0.631461 0.629217 0.991657
O O12 0.497953 0.095082 0.882181
O O13 0.318231 0.068231 0.785988
O O14 0.995671 0.100427 0.865307
O O15 0.250000 0.000000 0.874324
O O16 0.203410 0.582909 0.827500
#
# Coordination Sequence:
#
# PCOD8216371 Si02
#       8
#     8   8   4   8   8   8   8   8
#     4  10  22  37  56  93 129 159 195 257 327 373
#     4  10  21  42  66  89 119 167 209 254 303 373
#     4  10  22  36  62  86 120 166 216 246 312 370
#     4  10  24  42  65  91 120 163 216 258 307 367
#     4  11  22  37  60  90 128 160 205 253 301 371
#     4  11  22  39  60  95 121 160 206 252 311 373
#     4  11  21  40  62  88 125 163 203 263 311 375
#     4  10  22  37  59  87 123 175 205 246 308 388
#
# _framework density 20.734805000000001
#
# number of rings (size 3 to 8) (size 9 to 14) (size 15 to 20)
#    0.000    1.600    1.333    3.200    7.467    0.533 
#    7.200    0.667    0.000    8.000    0.000    0.000 
#    0.000    0.000    0.000    0.000    0.000    0.000 
#
# Total GULP energy -743377.672252 kJ/mol
# GULP energy per Si atom -12389.627871 kJ/mol
# Density = 2.068761 g / cm^3
# Si number density = 20.734805 Si / 1000 Ang^3
#
#
#
# Elastic Constant Matrix: (Units=GPa)
#
#
# Indices 1 2 3 4 5 6 
#
# 1 122.9634 14.4628 33.4552 0.0000 0.0000 0.0000
# 2 14.4628 73.9342 9.0813 0.0000 0.0000 0.0000
# 3 33.4552 9.0813 104.8271 0.0000 0.0000 0.0000
# 4 0.0000 0.0000 0.0000 25.6280 0.0000 0.0000
# 5 0.0000 0.0000 0.0000 0.0000 28.0003 0.0000
# 6 0.0000 0.0000 0.0000 0.0000 0.0000 18.9757
#
#
#
# Elastic Compliance Matrix: (Units=1/GPa)
#
#
# Indices 1 2 3 4 5 6 
#
# 1 0.009053 -0.001431 -0.002765 0.000000 0.000000 0.000000
# 2 -0.001431 0.013897 -0.000747 0.000000 0.000000 0.000000
# 3 -0.002765 -0.000747 0.010487 0.000000 0.000000 0.000000
# 4 0.000000 0.000000 0.000000 0.039020 0.000000 0.000000
# 5 0.000000 0.000000 0.000000 0.000000 0.035714 0.000000
# 6 0.000000 0.000000 0.000000 0.000000 0.000000 0.052699
#
#
# Mechanical properties :
#
#
# Convention : Reuss Voigt Hill
#
# Bulk Modulus (GPa) = 42.46322 46.19147 44.32735
# Shear Modulus (GPa) = 27.99435 30.83583 29.41509
#
# Velocity S-wave (km/s) = 3.67838 3.86055 3.77056
# Velocity P-wave (km/s) = 6.21001 6.49595 6.35459
#
# Compressibility (1/GPa) = 0.02354979
#
# Stress axis : x y z
#
# Youngs Moduli (GPa) = 110.45791 71.95637 95.35816
#
# Poissons Ratio (x) = 0.10299 0.26369
# Poissons Ratio (y) = 0.15810 0.07125
# Poissons Ratio (z) = 0.30545 0.05376
#
# Static dielectric constant tensor:
#      x y z
#    x 4.064530 0.000000 0.000000 
#    y 0.000000 3.686420 0.000000 
#    z 0.000000 0.000000 3.505210 
# 
# 
# High freq. dielectric constant tensor:
#      x y z
#    x 1.823550 0.000000 0.000000 
#    y 0.000000 1.805190 0.000000 
#    z 0.000000 0.000000 1.789700 
# 
# From -- ./inp_files/38883.got.cif
#   From: 2010.06.25/outbox.cif.g09.slc.cpg/sg52_20_cif.got.tgz:38883.got - 2010.06.26 19:32:48.
