data_PCOD8216765
_publ_section_title
;
Structure prediction by ZEFSAII (Michael W. Deem and Ramdas Pophale) SiO2 
 PCOD8216765
Probable space group: P N N A
;
_chemical_formula_sum "Si O2"
_cell_formula_units_Z 48
_cell_length_a 17.751725
_cell_length_b 15.436669
_cell_length_c 8.756203
_cell_angle_alpha 90.000000
_cell_angle_beta 90.000000
_cell_angle_gamma 90.000000
_cell_volume 2399.440444
_symmetry_space_group_name_H-M "P N N A"
_symmetry_group_IT_number 52
_symmetry_cell_setting 'orthorhombic'
loop_
_space_group_symop_operation_xyz
x,y,z
1/2-x,-y,z
x,1/2-y,1/2-z
1/2-x,1/2+y,1/2-z
-x,-y,-z
1/2+x,y,-z
-x,1/2+y,1/2+z
1/2+x,1/2-y,1/2+z
loop_
_atom_site_type_symbol
_atom_site_label
_atom_site_fract_x
_atom_site_fract_y
_atom_site_fract_z
Si Si1 0.791460 0.911982 0.429833
Si Si2 0.954986 0.921285 0.571636
Si Si3 0.708022 0.750000 0.928934
Si Si4 0.291460 0.911982 0.929833
Si Si5 0.450958 0.250000 0.925188
Si Si6 0.545014 0.421285 0.571636
O O1 0.874960 0.913318 0.493267
O O2 0.745017 0.834581 0.501485
O O3 0.794531 0.899048 0.250000
O O4 0.750000 0.000000 0.476283
O O5 0.943916 0.938091 0.750000
O O6 0.999576 0.833599 0.538766
O O7 0.000000 0.000000 0.500000
O O8 0.722210 0.750000 0.750000
O O9 0.745017 0.834581 0.998515
O O10 0.619725 0.750000 0.963283
O O11 0.250000 0.000000 0.976283
O O12 0.374960 0.913318 0.993267
O O13 0.422704 0.250000 0.750000
O O14 0.500424 0.166401 0.961234
O O15 0.500000 0.500000 0.500000
#
# Coordination Sequence:
#
# PCOD8216765 Si02
#       6
#     8   8   8   8   8   8
#     4  11  24  42  64  90 123 163 205 252 306 363
#     4  11  23  40  63  91 123 160 204 253 305 362
#     4  12  25  40  63  93 123 159 203 252 305 364
#     4  11  24  42  64  90 123 163 205 252 306 363
#     4  10  23  42  61  85 121 161 199 244 301 362
#     4  11  23  40  63  91 123 160 204 253 305 362
#
# _framework density 20.004664999999999
#
# number of rings (size 3 to 8) (size 9 to 14) (size 15 to 20)
#    0.000    1.000    0.000    6.500    0.000   14.667 
#    0.000    0.000    0.000    0.000    0.000    0.000 
#    0.000    0.000    0.000    0.000    0.000    0.000 
#
# Total GULP energy -595532.236773 kJ/mol
# GULP energy per Si atom -12406.921599 kJ/mol
# Density = 1.995913 g / cm^3
# Si number density = 20.004665 Si / 1000 Ang^3
#
#
#
# Elastic Constant Matrix: (Units=GPa)
#
#
# Indices 1 2 3 4 5 6 
#
# 1 148.6509 82.3082 54.6158 0.0000 0.0000 0.0000
# 2 82.3082 194.2447 90.6177 0.0000 0.0000 0.0000
# 3 54.6158 90.6177 88.5518 0.0000 0.0000 0.0000
# 4 0.0000 0.0000 0.0000 30.0264 0.0000 0.0000
# 5 0.0000 0.0000 0.0000 0.0000 45.0104 0.0000
# 6 0.0000 0.0000 0.0000 0.0000 0.0000 -51.2809
#
#
#
# Elastic Compliance Matrix: (Units=1/GPa)
#
#
# Indices 1 2 3 4 5 6 
#
# 1 0.009252 -0.002408 -0.003242 0.000000 0.000000 0.000000
# 2 -0.002408 0.010478 -0.009237 0.000000 0.000000 0.000000
# 3 -0.003242 -0.009237 0.022745 0.000000 0.000000 0.000000
# 4 0.000000 0.000000 0.000000 0.033304 0.000000 0.000000
# 5 0.000000 0.000000 0.000000 0.000000 0.022217 0.000000
# 6 0.000000 0.000000 0.000000 0.000000 0.000000 -0.019500
#
#
# Mechanical properties :
#
#
# Convention : Reuss Voigt Hill
#
# Bulk Modulus (GPa) = 78.73812 98.50342 88.62077
# Shear Modulus (GPa) = 44.44369 18.34490 31.39430
#
# Velocity S-wave (km/s) = 4.71857 3.03154 3.96580
# Velocity P-wave (km/s) = 8.31456 7.84861 8.08494
#
# Compressibility (1/GPa) = 0.01270033
#
# Stress axis : x y z
#
# Youngs Moduli (GPa) = 108.09051 95.44220 43.96564
#
# Poissons Ratio (x) = 0.22979 0.14255
# Poissons Ratio (y) = 0.26024 0.40611
# Poissons Ratio (z) = 0.35045 0.88160
#
# Static dielectric constant tensor:
#      x y z
#    x 3.817240 0.000000 0.000000 
#    y 0.000000 3.979200 0.000000 
#    z 0.000000 0.000000 3.847410 
# 
# 
# High freq. dielectric constant tensor:
#      x y z
#    x 1.801790 0.000000 0.000000 
#    y 0.000000 1.805840 0.000000 
#    z 0.000000 0.000000 1.795350 
# 
# From -- ./inp_files/12060.got.cif
#   From: 2010.06.25/outbox.cif.g09.slc.cpg/sg52_7_cif.got.tgz:12060.got - 2010.06.26 19:32:48.
