data_PCOD8216996
_publ_section_title
;
Structure prediction by ZEFSAII (Michael W. Deem and Ramdas Pophale) SiO2 
 PCOD8216996
Probable space group: P N N A
;
_chemical_formula_sum "Si O2"
_cell_formula_units_Z 56
_cell_length_a 12.490908
_cell_length_b 14.406386
_cell_length_c 13.503848
_cell_angle_alpha 90.000000
_cell_angle_beta 90.000000
_cell_angle_gamma 90.000000
_cell_volume 2430.001812
_symmetry_space_group_name_H-M "P N N A"
_symmetry_group_IT_number 52
_symmetry_cell_setting 'orthorhombic'
loop_
_space_group_symop_operation_xyz
x,y,z
1/2-x,-y,z
x,1/2-y,1/2-z
1/2-x,1/2+y,1/2-z
-x,-y,-z
1/2+x,y,-z
-x,1/2+y,1/2+z
1/2+x,1/2-y,1/2+z
loop_
_atom_site_type_symbol
_atom_site_label
_atom_site_fract_x
_atom_site_fract_y
_atom_site_fract_z
Si Si1 0.401325 0.888316 0.860742
Si Si2 0.211787 0.394783 0.449454
Si Si3 0.291975 0.601536 0.851753
Si Si4 0.567468 0.659994 0.192952
Si Si5 0.088894 0.714622 0.437601
Si Si6 0.981051 0.083794 0.111652
Si Si7 0.019085 0.390471 0.996390
O O1 0.354547 0.897808 0.751879
O O2 0.497901 0.814481 0.858245
O O3 0.450945 0.978636 0.918918
O O4 0.309342 0.857641 0.937984
O O5 0.250000 0.500000 0.453453
O O6 0.295670 0.321640 0.400112
O O7 0.106538 0.394104 0.381927
O O8 0.250000 0.500000 0.877476
O O9 0.188566 0.668680 0.850678
O O10 0.371022 0.633495 0.939735
O O11 0.529023 0.750000 0.250000
O O12 0.566944 0.580682 0.276648
O O13 0.477028 0.639947 0.110836
O O14 0.072789 0.662637 0.543589
O O15 0.077469 0.826946 0.449320
O O16 0.000000 0.500000 0.000000
#
# Coordination Sequence:
#
# PCOD8216996 Si02
#       7
#     8   8   8   8   8   8   8
#     4  11  21  37  69 109 145 172 240 308 368 441
#     4  11  19  35  65 106 149 179 219 289 387 439
#     4  12  25  45  75 102 138 197 250 304 370 440
#     4  12  26  47  73 100 137 191 251 299 366 439
#     4  11  23  38  65 102 146 187 231 302 368 437
#     4  11  20  39  67 105 140 181 233 301 359 450
#     4  12  27  48  65  99 146 191 248 303 358 437
#
# _framework density 23.045251
#
# number of rings (size 3 to 8) (size 9 to 14) (size 15 to 20)
#    0.000    0.571    7.143    2.143    2.000    1.143 
#    0.000    2.143    0.000    0.000    0.000    0.000 
#    0.000    0.000    0.000    0.000    0.000    0.000 
#
# Total GULP energy -693979.662501 kJ/mol
# GULP energy per Si atom -12392.493973 kJ/mol
# Density = 2.299280 g / cm^3
# Si number density = 23.045251 Si / 1000 Ang^3
#
#
#
# Elastic Constant Matrix: (Units=GPa)
#
#
# Indices 1 2 3 4 5 6 
#
# 1 132.4874 41.0406 43.0864 0.0000 0.0000 0.0000
# 2 41.0406 125.9231 11.5712 0.0000 0.0000 0.0000
# 3 43.0864 11.5712 103.1710 0.0000 0.0000 0.0000
# 4 0.0000 0.0000 0.0000 22.7743 0.0000 0.0000
# 5 0.0000 0.0000 0.0000 0.0000 31.7286 0.0000
# 6 0.0000 0.0000 0.0000 0.0000 0.0000 35.7532
#
#
#
# Elastic Compliance Matrix: (Units=1/GPa)
#
#
# Indices 1 2 3 4 5 6 
#
# 1 0.009618 -0.002794 -0.003703 0.000000 0.000000 0.000000
# 2 -0.002794 0.008836 0.000176 0.000000 0.000000 0.000000
# 3 -0.003703 0.000176 0.011219 0.000000 0.000000 0.000000
# 4 0.000000 0.000000 0.000000 0.043909 0.000000 0.000000
# 5 0.000000 0.000000 0.000000 0.000000 0.031517 0.000000
# 6 0.000000 0.000000 0.000000 0.000000 0.000000 0.027970
#
#
# Mechanical properties :
#
#
# Convention : Reuss Voigt Hill
#
# Bulk Modulus (GPa) = 58.71970 61.44198 60.08084
# Shear Modulus (GPa) = 33.02751 35.77677 34.40214
#
# Velocity S-wave (km/s) = 3.78982 3.94440 3.86788
# Velocity P-wave (km/s) = 6.68474 6.88939 6.78784
#
# Compressibility (1/GPa) = 0.01703006
#
# Stress axis : x y z
#
# Youngs Moduli (GPa) = 103.97380 113.17453 89.13095
#
# Poissons Ratio (x) = 0.31625 0.33007
# Poissons Ratio (y) = 0.29054 -0.01569
# Poissons Ratio (z) = 0.38504 -0.01992
#
# Static dielectric constant tensor:
#      x y z
#    x 4.485600 0.000000 0.000000 
#    y 0.000000 4.452130 0.000000 
#    z 0.000000 0.000000 4.252150 
# 
# 
# High freq. dielectric constant tensor:
#      x y z
#    x 1.907330 0.000000 0.000000 
#    y 0.000000 1.918540 0.000000 
#    z 0.000000 0.000000 1.893780 
# 
# From -- ./inp_files/26156.got.cif
#   From: 2010.06.25/outbox.cif.g09.slc.cpg/sg52_14_cif.got.tgz:26156.got - 2010.06.26 19:32:48.
