data_PCOD8216648
_publ_section_title
;
Structure prediction by ZEFSAII (Michael W. Deem and Ramdas Pophale) SiO2 
 PCOD8216648
Probable space group: P N N A
;
_chemical_formula_sum "Si O2"
_cell_formula_units_Z 40
_cell_length_a 8.661469
_cell_length_b 16.226823
_cell_length_c 12.004885
_cell_angle_alpha 90.000000
_cell_angle_beta 90.000000
_cell_angle_gamma 90.000000
_cell_volume 1687.264070
_symmetry_space_group_name_H-M "P N N A"
_symmetry_group_IT_number 52
_symmetry_cell_setting 'orthorhombic'
loop_
_space_group_symop_operation_xyz
x,y,z
1/2-x,-y,z
x,1/2-y,1/2-z
1/2-x,1/2+y,1/2-z
-x,-y,-z
1/2+x,y,-z
-x,1/2+y,1/2+z
1/2+x,1/2-y,1/2+z
loop_
_atom_site_type_symbol
_atom_site_label
_atom_site_fract_x
_atom_site_fract_y
_atom_site_fract_z
Si Si1 0.750000 0.000000 0.644896
Si Si2 0.372682 0.092125 0.157123
Si Si3 0.211687 0.750000 0.250000
Si Si4 0.909027 0.659611 0.933605
Si Si5 0.768002 0.259207 0.119807
Si Si6 0.312967 0.917347 0.955924
O O1 0.625329 0.955445 0.725481
O O2 0.854844 0.937107 0.570736
O O3 0.397021 0.188040 0.184063
O O4 0.507246 0.076363 0.069514
O O5 0.210394 0.076010 0.090993
O O6 0.318484 0.703047 0.164097
O O7 0.087620 0.681047 0.909940
O O8 0.873519 0.696476 0.055896
O O9 0.735784 0.250000 0.250000
O O10 0.781092 0.164301 0.079986
O O11 0.250000 0.000000 0.896159
#
# Coordination Sequence:
#
# PCOD8216648 Si02
#       6
#     4   8   4   8   8   8
#     4  10  26  46  78 108 148 206 248 320 390 460
#     4  11  24  42  71 103 147 193 253 313 389 449
#     4  10  22  42  72 100 148 190 238 308 382 446
#     4  11  25  49  77 106 152 197 255 309 381 463
#     4  12  28  47  77 108 152 202 256 312 388 456
#     4  12  26  41  71 108 145 188 257 324 372 460
#
# _framework density 23.707017
#
# number of rings (size 3 to 8) (size 9 to 14) (size 15 to 20)
#    0.000    0.800    4.000    1.800    4.200    2.400 
#    1.800    0.000    0.000    0.000    0.000    0.000 
#    0.000    0.000    0.000    0.000    0.000    0.000 
#
# Total GULP energy -495563.640441 kJ/mol
# GULP energy per Si atom -12389.091011 kJ/mol
# Density = 2.365306 g / cm^3
# Si number density = 23.707017 Si / 1000 Ang^3
#
#
#
# Elastic Constant Matrix: (Units=GPa)
#
#
# Indices 1 2 3 4 5 6 
#
# 1 73.8764 21.1885 35.5521 0.0000 0.0000 0.0000
# 2 21.1885 137.1221 18.8743 0.0000 0.0000 0.0000
# 3 35.5521 18.8743 112.5510 0.0000 0.0000 0.0000
# 4 0.0000 0.0000 0.0000 26.0979 0.0000 0.0000
# 5 0.0000 0.0000 0.0000 0.0000 295.5989 0.0000
# 6 0.0000 0.0000 0.0000 0.0000 0.0000 26.6566
#
#
#
# Elastic Compliance Matrix: (Units=1/GPa)
#
#
# Indices 1 2 3 4 5 6 
#
# 1 0.016416 -0.001866 -0.004873 0.000000 0.000000 0.000000
# 2 -0.001866 0.007677 -0.000698 0.000000 0.000000 0.000000
# 3 -0.004873 -0.000698 0.010541 0.000000 0.000000 0.000000
# 4 0.000000 0.000000 0.000000 0.038317 0.000000 0.000000
# 5 0.000000 0.000000 0.000000 0.000000 0.003383 0.000000
# 6 0.000000 0.000000 0.000000 0.000000 0.000000 0.037514
#
#
# Mechanical properties :
#
#
# Convention : Reuss Voigt Hill
#
# Bulk Modulus (GPa) = 50.60395 52.75324 51.67860
# Shear Modulus (GPa) = 36.95246 86.19965 61.57605
#
# Velocity S-wave (km/s) = 3.95234 6.03650 5.10198
# Velocity P-wave (km/s) = 6.49768 8.41940 7.52018
#
# Compressibility (1/GPa) = 0.01976130
#
# Stress axis : x y z
#
# Youngs Moduli (GPa) = 60.91558 130.25610 94.86738
#
# Poissons Ratio (x) = 0.24306 0.46225
# Poissons Ratio (y) = 0.11367 0.06622
# Poissons Ratio (z) = 0.29681 0.09092
#
# Static dielectric constant tensor:
#      x y z
#    x 3.947670 0.000000 0.000000 
#    y 0.000000 5.276930 0.000000 
#    z 0.000000 0.000000 4.381470 
# 
# 
# High freq. dielectric constant tensor:
#      x y z
#    x 1.921010 0.000000 0.000000 
#    y 0.000000 1.967600 0.000000 
#    z 0.000000 0.000000 1.938720 
# 
# From -- ./inp_files/16706.got.cif
#   From: 2010.06.25/outbox.cif.g09.slc.cpg/sg52_9_cif.got.tgz:16706.got - 2010.06.26 19:32:48.
