data_PCOD8216989
_publ_section_title
;
Structure prediction by ZEFSAII (Michael W. Deem and Ramdas Pophale) SiO2 
 PCOD8216989
Probable space group: P N N A
;
_chemical_formula_sum "Si O2"
_cell_formula_units_Z 60
_cell_length_a 21.175614
_cell_length_b 14.747445
_cell_length_c 9.181950
_cell_angle_alpha 90.000000
_cell_angle_beta 90.000000
_cell_angle_gamma 90.000000
_cell_volume 2867.396300
_symmetry_space_group_name_H-M "P N N A"
_symmetry_group_IT_number 52
_symmetry_cell_setting 'orthorhombic'
loop_
_space_group_symop_operation_xyz
x,y,z
1/2-x,-y,z
x,1/2-y,1/2-z
1/2-x,1/2+y,1/2-z
-x,-y,-z
1/2+x,y,-z
-x,1/2+y,1/2+z
1/2+x,1/2-y,1/2+z
loop_
_atom_site_type_symbol
_atom_site_label
_atom_site_fract_x
_atom_site_fract_y
_atom_site_fract_z
Si Si1 0.664753 0.099812 0.998435
Si Si2 0.750000 0.500000 0.172108
Si Si3 0.728326 0.772653 0.912809
Si Si4 0.578601 0.355434 0.736405
Si Si5 0.336029 0.090380 0.899741
Si Si6 0.971855 0.477947 0.341178
Si Si7 0.091123 0.348016 0.764917
Si Si8 0.825711 0.876695 0.518961
O O1 0.720240 0.147601 0.910201
O O2 0.597502 0.127076 0.930594
O O3 0.654290 0.131013 0.166717
O O4 0.676445 0.992279 0.988038
O O5 0.716876 0.578132 0.272074
O O6 0.805158 0.532382 0.063068
O O7 0.703072 0.750000 0.750000
O O8 0.762662 0.684521 0.976753
O O9 0.672963 0.812141 0.018193
O O10 0.561354 0.250000 0.750000
O O11 0.518216 0.419460 0.762633
O O12 0.641068 0.388528 0.824479
O O13 0.408056 0.082279 0.846741
O O14 0.959892 0.572528 0.256838
O O15 0.000000 0.500000 0.500000
O O16 0.057860 0.250000 0.750000
O O17 0.116621 0.335621 0.928111
#
# Coordination Sequence:
#
# PCOD8216989 Si02
#       8
#     8   4   8   8   8   8   8   8
#     4  11  18  40  71  94 125 178 217 266 332 409
#     4  12  24  42  64 102 138 178 216 288 350 420
#     4  12  22  39  67 102 133 174 221 284 347 408
#     4  12  23  44  70  98 133 177 233 287 336 403
#     4  11  23  42  68  95 137 178 224 275 352 403
#     4  11  24  45  71  95 129 186 237 270 336 415
#     4  11  20  38  69  97 126 174 229 275 327 402
#     4  12  24  39  67 102 136 167 229 277 341 406
#
# _framework density 20.924907000000001
#
# number of rings (size 3 to 8) (size 9 to 14) (size 15 to 20)
#    0.000    0.533   10.667    0.000    0.000    1.600 
#    2.400    0.667    0.000    0.000    0.000    0.000 
#    0.000    0.000    0.000    0.000    0.000    0.000 
#
# Total GULP energy -743301.975370 kJ/mol
# GULP energy per Si atom -12388.366256 kJ/mol
# Density = 2.087728 g / cm^3
# Si number density = 20.924907 Si / 1000 Ang^3
#
#
#
# Elastic Constant Matrix: (Units=GPa)
#
#
# Indices 1 2 3 4 5 6 
#
# 1 96.2565 40.3461 20.7816 0.0000 0.0000 0.0000
# 2 40.3461 101.4469 33.5999 0.0000 0.0000 0.0000
# 3 20.7816 33.5999 66.9184 0.0000 0.0000 0.0000
# 4 0.0000 0.0000 0.0000 30.2132 0.0000 0.0000
# 5 0.0000 0.0000 0.0000 0.0000 13.4920 0.0000
# 6 0.0000 0.0000 0.0000 0.0000 0.0000 35.5553
#
#
#
# Elastic Compliance Matrix: (Units=1/GPa)
#
#
# Indices 1 2 3 4 5 6 
#
# 1 0.012622 -0.004464 -0.001678 0.000000 0.000000 0.000000
# 2 -0.004464 0.013402 -0.005343 0.000000 0.000000 0.000000
# 3 -0.001678 -0.005343 0.018148 0.000000 0.000000 0.000000
# 4 0.000000 0.000000 0.000000 0.033098 0.000000 0.000000
# 5 0.000000 0.000000 0.000000 0.000000 0.074118 0.000000
# 6 0.000000 0.000000 0.000000 0.000000 0.000000 0.028125
#
#
# Mechanical properties :
#
#
# Convention : Reuss Voigt Hill
#
# Bulk Modulus (GPa) = 47.16719 50.45299 48.81009
# Shear Modulus (GPa) = 23.86040 27.17838 25.51939
#
# Velocity S-wave (km/s) = 3.38048 3.60787 3.49602
# Velocity P-wave (km/s) = 6.15036 6.44356 6.29867
#
# Compressibility (1/GPa) = 0.02120118
#
# Stress axis : x y z
#
# Youngs Moduli (GPa) = 79.22415 74.61332 55.10373
#
# Poissons Ratio (x) = 0.33308 0.09249
# Poissons Ratio (y) = 0.35366 0.29442
# Poissons Ratio (z) = 0.13298 0.39866
#
# Static dielectric constant tensor:
#      x y z
#    x 3.777670 0.000000 0.000000 
#    y 0.000000 3.788660 0.000000 
#    z 0.000000 0.000000 3.743340 
# 
# 
# High freq. dielectric constant tensor:
#      x y z
#    x 1.801150 0.000000 0.000000 
#    y 0.000000 1.811860 0.000000 
#    z 0.000000 0.000000 1.818410 
# 
# From -- ./inp_files/14430.got.cif
#   From: 2010.06.25/outbox.cif.g09.slc.cpg/sg52_8_cif.got.tgz:14430.got - 2010.06.26 19:32:48.
