data_PCOD8216016
_publ_section_title
;
Structure prediction by ZEFSAII (Michael W. Deem and Ramdas Pophale) SiO2 
 PCOD8216016
Probable space group: P N N A
;
_chemical_formula_sum "Si O2"
_cell_formula_units_Z 48
_cell_length_a 12.385965
_cell_length_b 28.049389
_cell_length_c 6.315595
_cell_angle_alpha 90.000000
_cell_angle_beta 90.000000
_cell_angle_gamma 90.000000
_cell_volume 2194.156123
_symmetry_space_group_name_H-M "P N N A"
_symmetry_group_IT_number 52
_symmetry_cell_setting 'orthorhombic'
loop_
_space_group_symop_operation_xyz
x,y,z
1/2-x,-y,z
x,1/2-y,1/2-z
1/2-x,1/2+y,1/2-z
-x,-y,-z
1/2+x,y,-z
-x,1/2+y,1/2+z
1/2+x,1/2-y,1/2+z
loop_
_atom_site_type_symbol
_atom_site_label
_atom_site_fract_x
_atom_site_fract_y
_atom_site_fract_z
Si Si1 0.894519 0.663267 0.510164
Si Si2 0.386617 0.750000 0.250000
Si Si3 0.518075 0.706832 0.869845
Si Si4 0.750000 0.000000 0.844058
Si Si5 0.259891 0.922511 0.842749
Si Si6 0.586972 0.041094 0.513716
Si Si7 0.556866 0.873815 0.344935
O O1 0.826526 0.703370 0.648775
O O2 0.928778 0.683471 0.282965
O O3 0.818104 0.618321 0.477970
O O4 0.004867 0.649392 0.634969
O O5 0.458470 0.767524 0.441136
O O6 0.583783 0.750000 0.750000
O O7 0.590287 0.665503 0.976458
O O8 0.659127 0.025358 0.709143
O O9 0.798202 0.041688 0.993361
O O10 0.343357 0.952885 0.699732
O O11 0.167524 0.900834 0.696824
O O12 0.531928 0.091484 0.556029
O O13 0.500000 0.000000 0.500000
#
# Coordination Sequence:
#
# PCOD8216016 Si02
#       7
#     8   4   8   4   8   8   8
#     4  10  20  41  69  95 134 177 219 282 344 402
#     4   8  18  36  70  98 126 178 218 274 340 408
#     4   9  18  39  72  93 133 176 217 277 346 395
#     4  12  26  44  64  98 140 174 236 286 342 416
#     4  12  26  42  69 102 132 188 234 275 351 416
#     4  12  26  45  67  99 136 181 228 288 340 404
#     4  11  23  41  68  98 137 175 227 280 339 407
#
# _framework density 21.876290999999998
#
# number of rings (size 3 to 8) (size 9 to 14) (size 15 to 20)
#    0.000    1.333    3.333    2.500    2.333    2.667 
#    0.000    0.000   44.000    0.000    0.000    0.000 
#    0.000    0.000    0.000    0.000    0.000    0.000 
#
# Total GULP energy -594732.502973 kJ/mol
# GULP energy per Si atom -12390.260479 kJ/mol
# Density = 2.182650 g / cm^3
# Si number density = 21.876291 Si / 1000 Ang^3
#
#
#
# Elastic Constant Matrix: (Units=GPa)
#
#
# Indices 1 2 3 4 5 6 
#
# 1 63.9534 38.5515 25.8934 0.0000 0.0000 0.0000
# 2 38.5515 154.7225 69.4812 0.0000 0.0000 0.0000
# 3 25.8934 69.4812 116.2727 0.0000 0.0000 0.0000
# 4 0.0000 0.0000 0.0000 63.3667 0.0000 0.0000
# 5 0.0000 0.0000 0.0000 0.0000 25.1975 0.0000
# 6 0.0000 0.0000 0.0000 0.0000 0.0000 24.0469
#
#
#
# Elastic Compliance Matrix: (Units=1/GPa)
#
#
# Indices 1 2 3 4 5 6 
#
# 1 0.018698 -0.003812 -0.001886 0.000000 0.000000 0.000000
# 2 -0.003812 0.009611 -0.004894 0.000000 0.000000 0.000000
# 3 -0.001886 -0.004894 0.011945 0.000000 0.000000 0.000000
# 4 0.000000 0.000000 0.000000 0.015781 0.000000 0.000000
# 5 0.000000 0.000000 0.000000 0.000000 0.039686 0.000000
# 6 0.000000 0.000000 0.000000 0.000000 0.000000 0.041585
#
#
# Mechanical properties :
#
#
# Convention : Reuss Voigt Hill
#
# Bulk Modulus (GPa) = 52.43997 66.97787 59.70892
# Shear Modulus (GPa) = 30.33101 35.92373 33.12737
#
# Velocity S-wave (km/s) = 3.72758 4.05672 3.89563
# Velocity P-wave (km/s) = 6.52301 7.25436 6.89838
#
# Compressibility (1/GPa) = 0.01906942
#
# Stress axis : x y z
#
# Youngs Moduli (GPa) = 53.48213 104.04915 83.71590
#
# Poissons Ratio (x) = 0.39662 0.15789
# Poissons Ratio (y) = 0.20387 0.40973
# Poissons Ratio (z) = 0.10087 0.50925
#
# Static dielectric constant tensor:
#      x y z
#    x 3.408560 0.000000 0.000000 
#    y 0.000000 4.834450 0.000000 
#    z 0.000000 0.000000 4.360410 
# 
# 
# High freq. dielectric constant tensor:
#      x y z
#    x 1.806380 0.000000 0.000000 
#    y 0.000000 1.901470 0.000000 
#    z 0.000000 0.000000 1.884670 
# 
# From -- ./inp_files/2487.got.cif
#   From: 2010.06.25/outbox.cif.g09.slc.cpg/sg52_2_cif.got.tgz:2487.got - 2010.06.26 19:32:48.
