data_PCOD8216847
_publ_section_title
;
Structure prediction by ZEFSAII (Michael W. Deem and Ramdas Pophale) SiO2 
 PCOD8216847
Probable space group: P N N A
;
_chemical_formula_sum "Si O2"
_cell_formula_units_Z 40
_cell_length_a 10.635306
_cell_length_b 18.808227
_cell_length_c 8.664069
_cell_angle_alpha 90.000000
_cell_angle_beta 90.000000
_cell_angle_gamma 90.000000
_cell_volume 1733.084547
_symmetry_space_group_name_H-M "P N N A"
_symmetry_group_IT_number 52
_symmetry_cell_setting 'orthorhombic'
loop_
_space_group_symop_operation_xyz
x,y,z
1/2-x,-y,z
x,1/2-y,1/2-z
1/2-x,1/2+y,1/2-z
-x,-y,-z
1/2+x,y,-z
-x,1/2+y,1/2+z
1/2+x,1/2-y,1/2+z
loop_
_atom_site_type_symbol
_atom_site_label
_atom_site_fract_x
_atom_site_fract_y
_atom_site_fract_z
Si Si1 0.879104 0.459930 0.568019
Si Si2 0.101036 0.250000 0.750000
Si Si3 0.538123 0.812338 0.473404
Si Si4 0.619823 0.960060 0.567199
Si Si5 0.214465 0.686751 0.526707
Si Si6 0.147213 0.250000 0.250000
O O1 0.750000 0.500000 0.530245
O O2 0.896080 0.450271 0.750297
O O3 0.866448 0.385125 0.478001
O O4 0.000000 0.500000 0.500000
O O5 0.175132 0.310699 0.653402
O O6 0.015376 0.201479 0.642621
O O7 0.619003 0.884396 0.478857
O O8 0.626385 0.749648 0.416929
O O9 0.427326 0.810508 0.346618
O O10 0.750000 0.000000 0.525706
O O11 0.500000 0.000000 0.500000
O O12 0.267815 0.700486 0.356741
#
# Coordination Sequence:
#
# PCOD8216847 Si02
#       6
#     8   4   8   8   8   4
#     4  11  28  47  73 107 150 195 241 303 372 437
#     4  10  24  40  76 106 138 186 248 302 370 434
#     4  11  24  44  72 103 141 186 246 300 367 439
#     4  11  28  48  72 107 149 196 244 303 370 438
#     4  11  24  45  72 104 142 186 249 300 366 440
#     4  10  24  40  78 102 142 184 244 310 370 428
#
# _framework density 23.080234999999998
#
# number of rings (size 3 to 8) (size 9 to 14) (size 15 to 20)
#    0.000    1.200    0.000    3.600   19.600    2.400 
#    0.000    0.000    0.000    0.000    0.000    0.000 
#    0.000    0.000    0.000    0.000    0.000    0.000 
#
# Total GULP energy -495982.637153 kJ/mol
# GULP energy per Si atom -12399.565929 kJ/mol
# Density = 2.302770 g / cm^3
# Si number density = 23.080235 Si / 1000 Ang^3
#
#
#
# Elastic Constant Matrix: (Units=GPa)
#
#
# Indices 1 2 3 4 5 6 
#
# 1 123.0246 47.5036 16.2514 0.0000 0.0000 0.0000
# 2 47.5036 153.9251 6.8622 0.0000 0.0000 0.0000
# 3 16.2514 6.8622 66.6568 0.0000 0.0000 0.0000
# 4 0.0000 0.0000 0.0000 21.9197 0.0000 0.0000
# 5 0.0000 0.0000 0.0000 0.0000 51.2240 0.0000
# 6 0.0000 0.0000 0.0000 0.0000 0.0000 54.5364
#
#
#
# Elastic Compliance Matrix: (Units=1/GPa)
#
#
# Indices 1 2 3 4 5 6 
#
# 1 0.009492 -0.002839 -0.002022 0.000000 0.000000 0.000000
# 2 -0.002839 0.007376 -0.000067 0.000000 0.000000 0.000000
# 3 -0.002022 -0.000067 0.015502 0.000000 0.000000 0.000000
# 4 0.000000 0.000000 0.000000 0.045621 0.000000 0.000000
# 5 0.000000 0.000000 0.000000 0.000000 0.019522 0.000000
# 6 0.000000 0.000000 0.000000 0.000000 0.000000 0.018336
#
#
# Mechanical properties :
#
#
# Convention : Reuss Voigt Hill
#
# Bulk Modulus (GPa) = 44.41797 53.87122 49.14460
# Shear Modulus (GPa) = 37.53465 43.73530 40.63498
#
# Velocity S-wave (km/s) = 4.03708 4.35780 4.20050
# Velocity P-wave (km/s) = 6.40449 6.97940 6.69811
#
# Compressibility (1/GPa) = 0.02251341
#
# Stress axis : x y z
#
# Youngs Moduli (GPa) = 105.35368 135.57723 64.50742
#
# Poissons Ratio (x) = 0.38493 0.13043
# Poissons Ratio (y) = 0.29912 0.00433
# Poissons Ratio (z) = 0.21301 0.00910
#
# Static dielectric constant tensor:
#      x y z
#    x 2.493850 0.000000 0.000000 
#    y 0.000000 4.728050 0.000000 
#    z 0.000000 0.000000 4.233170 
# 
# 
# High freq. dielectric constant tensor:
#      x y z
#    x 1.929970 0.000000 0.000000 
#    y 0.000000 1.903870 0.000000 
#    z 0.000000 0.000000 1.926750 
# 
# From -- ./inp_files/8547.got.cif
#   From: 2010.06.25/outbox.cif.g09.slc.cpg/sg52_5_cif.got.tgz:8547.got - 2010.06.26 19:32:48.
