data_PCOD8216526
_publ_section_title
;
Structure prediction by ZEFSAII (Michael W. Deem and Ramdas Pophale) SiO2 
 PCOD8216526
Probable space group: P N N A
;
_chemical_formula_sum "Si O2"
_cell_formula_units_Z 52
_cell_length_a 20.218664
_cell_length_b 5.481394
_cell_length_c 21.824348
_cell_angle_alpha 90.000000
_cell_angle_beta 90.000000
_cell_angle_gamma 90.000000
_cell_volume 2418.715308
_symmetry_space_group_name_H-M "P N N A"
_symmetry_group_IT_number 52
_symmetry_cell_setting 'orthorhombic'
loop_
_space_group_symop_operation_xyz
x,y,z
1/2-x,-y,z
x,1/2-y,1/2-z
1/2-x,1/2+y,1/2-z
-x,-y,-z
1/2+x,y,-z
-x,1/2+y,1/2+z
1/2+x,1/2-y,1/2+z
loop_
_atom_site_type_symbol
_atom_site_label
_atom_site_fract_x
_atom_site_fract_y
_atom_site_fract_z
Si Si1 0.052174 0.750000 0.750000
Si Si2 0.914474 0.529465 0.568497
Si Si3 0.542570 0.797317 0.467017
Si Si4 0.964151 0.134184 0.812689
Si Si5 0.585216 0.067470 0.353263
Si Si6 0.284727 0.749944 0.033059
Si Si7 0.283735 0.747781 0.612093
O O1 0.099565 0.580487 0.790808
O O2 0.005242 0.605370 0.703431
O O3 0.906036 0.325849 0.515098
O O4 0.906458 0.425961 0.638063
O O5 0.860426 0.741900 0.558061
O O6 0.990846 0.610946 0.563271
O O7 0.500000 0.000000 0.500000
O O8 0.589428 0.900945 0.413946
O O9 0.934047 0.250000 0.750000
O O10 0.012293 0.322597 0.847187
O O11 0.642163 0.268735 0.360519
O O12 0.250000 0.500000 0.057793
O O13 0.250000 0.000000 0.057468
O O14 0.285560 0.749570 0.960600
O O15 0.250000 0.500000 0.636573
O O16 0.250000 0.000000 0.635809
#
# Coordination Sequence:
#
# PCOD8216526 Si02
#       7
#     4   8   8   8   8   8   8
#     4  10  22  40  62  86 128 174 214 268 336 394
#     4  11  23  37  63  98 136 166 223 268 345 403
#     4  11  22  34  61 102 130 168 205 283 340 402
#     4  10  22  40  61  95 127 170 214 274 341 401
#     4  11  22  38  66  89 133 168 223 271 340 390
#     4  10  24  41  61  95 138 178 216 267 334 405
#     4  10  24  40  63  90 127 177 220 266 325 390
#
# _framework density 21.499013999999999
#
# number of rings (size 3 to 8) (size 9 to 14) (size 15 to 20)
#    0.000    1.538    3.077    0.923   12.923    0.000 
#    0.000    0.000    5.077    0.000    2.000    0.000 
#    0.000    0.000    0.000    0.000    0.000    0.000 
#
# Total GULP energy -644684.618904 kJ/mol
# GULP energy per Si atom -12397.781133 kJ/mol
# Density = 2.145008 g / cm^3
# Si number density = 21.499014 Si / 1000 Ang^3
#
#
#
# Elastic Constant Matrix: (Units=GPa)
#
#
# Indices 1 2 3 4 5 6 
#
# 1 73.3657 35.6542 33.5309 0.0000 0.0000 0.0000
# 2 35.6542 126.6994 47.4209 0.0000 0.0000 0.0000
# 3 33.5309 47.4209 105.1670 0.0000 0.0000 0.0000
# 4 0.0000 0.0000 0.0000 27.1987 0.0000 0.0000
# 5 0.0000 0.0000 0.0000 0.0000 15.7514 0.0000
# 6 0.0000 0.0000 0.0000 0.0000 0.0000 40.2046
#
#
#
# Elastic Compliance Matrix: (Units=1/GPa)
#
#
# Indices 1 2 3 4 5 6 
#
# 1 0.017044 -0.003323 -0.003936 0.000000 0.000000 0.000000
# 2 -0.003323 0.010143 -0.003514 0.000000 0.000000 0.000000
# 3 -0.003936 -0.003514 0.012348 0.000000 0.000000 0.000000
# 4 0.000000 0.000000 0.000000 0.036766 0.000000 0.000000
# 5 0.000000 0.000000 0.000000 0.000000 0.063487 0.000000
# 6 0.000000 0.000000 0.000000 0.000000 0.000000 0.024873
#
#
# Mechanical properties :
#
#
# Convention : Reuss Voigt Hill
#
# Bulk Modulus (GPa) = 55.58907 59.82712 57.70810
# Shear Modulus (GPa) = 26.01406 29.20602 27.61004
#
# Velocity S-wave (km/s) = 3.48230 3.68976 3.58753
# Velocity P-wave (km/s) = 6.48700 6.78533 6.63784
#
# Compressibility (1/GPa) = 0.01798915
#
# Stress axis : x y z
#
# Youngs Moduli (GPa) = 58.67097 98.58882 80.98424
#
# Poissons Ratio (x) = 0.32764 0.31874
# Poissons Ratio (y) = 0.19498 0.28458
# Poissons Ratio (z) = 0.23092 0.34645
#
# Static dielectric constant tensor:
#      x y z
#    x 3.585760 0.000000 0.000000 
#    y 0.000000 3.570460 0.000000 
#    z 0.000000 0.000000 3.895850 
# 
# 
# High freq. dielectric constant tensor:
#      x y z
#    x 1.806780 0.000000 0.000000 
#    y 0.000000 1.857690 0.000000 
#    z 0.000000 0.000000 1.833180 
# 
# From -- ./inp_files/37884.got.cif
#   From: 2010.06.25/outbox.cif.g09.slc.cpg/sg52_19_cif.got.tgz:37884.got - 2010.06.26 19:32:48.
