data_PCOD8216237
_publ_section_title
;
Structure prediction by ZEFSAII (Michael W. Deem and Ramdas Pophale) SiO2 
 PCOD8216237
Probable space group: P N N A
;
_chemical_formula_sum "Si O2"
_cell_formula_units_Z 48
_cell_length_a 9.512172
_cell_length_b 26.879702
_cell_length_c 8.346084
_cell_angle_alpha 90.000000
_cell_angle_beta 90.000000
_cell_angle_gamma 90.000000
_cell_volume 2133.963052
_symmetry_space_group_name_H-M "P N N A"
_symmetry_group_IT_number 52
_symmetry_cell_setting 'orthorhombic'
loop_
_space_group_symop_operation_xyz
x,y,z
1/2-x,-y,z
x,1/2-y,1/2-z
1/2-x,1/2+y,1/2-z
-x,-y,-z
1/2+x,y,-z
-x,1/2+y,1/2+z
1/2+x,1/2-y,1/2+z
loop_
_atom_site_type_symbol
_atom_site_label
_atom_site_fract_x
_atom_site_fract_y
_atom_site_fract_z
Si Si1 0.269103 0.893201 0.649055
Si Si2 0.540829 0.943395 0.520230
Si Si3 0.787558 0.303887 0.939586
Si Si4 0.555654 0.242106 0.066655
Si Si5 0.916569 0.872879 0.026536
Si Si6 0.685443 0.609137 0.700593
O O1 0.401001 0.909691 0.535857
O O2 0.135512 0.930228 0.634929
O O3 0.210464 0.840142 0.592525
O O4 0.318293 0.890831 0.829217
O O5 0.645167 0.933839 0.672836
O O6 0.500000 0.000000 0.500000
O O7 0.824265 0.336155 0.781977
O O8 0.895168 0.258427 0.952788
O O9 0.637094 0.277285 0.940578
O O10 0.607837 0.250000 0.250000
O O11 0.579595 0.186149 0.010640
O O12 0.074342 0.892686 0.053314
O O13 0.843578 0.897346 0.869012
#
# Coordination Sequence:
#
# PCOD8216237 Si02
#       6
#     8   8   8   8   8   8
#     4  10  21  39  64  90 128 164 205 263 323 379
#     4  10  21  41  69  97 120 162 216 266 324 404
#     4  11  22  41  59  87 124 173 217 258 300 374
#     4  12  22  38  59  87 128 168 223 257 299 367
#     4  11  22  39  57  90 130 166 202 259 317 361
#     4  10  23  40  61  89 130 165 206 263 323 377
#
# _framework density 22.493361
#
# number of rings (size 3 to 8) (size 9 to 14) (size 15 to 20)
#    0.000    1.333    3.333    3.500    0.000    4.000 
#    3.000    0.833    0.000    6.000    0.000    0.000 
#    0.000    0.000    0.000    0.000    0.000    0.000 
#
# Total GULP energy -594958.972233 kJ/mol
# GULP energy per Si atom -12394.978588 kJ/mol
# Density = 2.244216 g / cm^3
# Si number density = 22.493361 Si / 1000 Ang^3
#
#
#
# Elastic Constant Matrix: (Units=GPa)
#
#
# Indices 1 2 3 4 5 6 
#
# 1 82.2995 7.6251 24.1178 0.0000 0.0000 0.0000
# 2 7.6251 74.9224 14.3684 0.0000 0.0000 0.0000
# 3 24.1178 14.3684 37.9793 0.0000 0.0000 0.0000
# 4 0.0000 0.0000 0.0000 21.6011 0.0000 0.0000
# 5 0.0000 0.0000 0.0000 0.0000 47.4353 0.0000
# 6 0.0000 0.0000 0.0000 0.0000 0.0000 24.3223
#
#
#
# Elastic Compliance Matrix: (Units=1/GPa)
#
#
# Indices 1 2 3 4 5 6 
#
# 1 0.014936 0.000322 -0.009607 0.000000 0.000000 0.000000
# 2 0.000322 0.014398 -0.005652 0.000000 0.000000 0.000000
# 3 -0.009607 -0.005652 0.034569 0.000000 0.000000 0.000000
# 4 0.000000 0.000000 0.000000 0.046294 0.000000 0.000000
# 5 0.000000 0.000000 0.000000 0.000000 0.021081 0.000000
# 6 0.000000 0.000000 0.000000 0.000000 0.000000 0.041114
#
#
# Mechanical properties :
#
#
# Convention : Reuss Voigt Hill
#
# Bulk Modulus (GPa) = 29.38527 31.93598 30.66062
# Shear Modulus (GPa) = 23.40725 28.61108 26.00916
#
# Velocity S-wave (km/s) = 3.22938 3.57035 3.40414
# Velocity P-wave (km/s) = 5.19591 5.58796 5.39550
#
# Compressibility (1/GPa) = 0.03403066
#
# Stress axis : x y z
#
# Youngs Moduli (GPa) = 66.95181 69.45301 28.92779
#
# Poissons Ratio (x) = -0.02238 0.27790
# Poissons Ratio (y) = -0.02157 0.16349
# Poissons Ratio (z) = 0.64319 0.39253
#
# Static dielectric constant tensor:
#      x y z
#    x 4.340360 0.000000 0.000000 
#    y 0.000000 3.816360 0.000000 
#    z 0.000000 0.000000 3.989400 
# 
# 
# High freq. dielectric constant tensor:
#      x y z
#    x 1.904530 0.000000 0.000000 
#    y 0.000000 1.862940 0.000000 
#    z 0.000000 0.000000 1.869230 
# 
# From -- ./inp_files/7710.got.cif
#   From: 2010.06.25/outbox.cif.g09.slc.cpg/sg52_4_cif.got.tgz:7710.got - 2010.06.26 19:32:48.
