data_PCOD8216672
_publ_section_title
;
Structure prediction by ZEFSAII (Michael W. Deem and Ramdas Pophale) SiO2 
 PCOD8216672
Probable space group: P N N A
;
_chemical_formula_sum "Si O2"
_cell_formula_units_Z 40
_cell_length_a 9.862110
_cell_length_b 11.539532
_cell_length_c 16.113612
_cell_angle_alpha 90.000000
_cell_angle_beta 90.000000
_cell_angle_gamma 90.000000
_cell_volume 1833.795658
_symmetry_space_group_name_H-M "P N N A"
_symmetry_group_IT_number 52
_symmetry_cell_setting 'orthorhombic'
loop_
_space_group_symop_operation_xyz
x,y,z
1/2-x,-y,z
x,1/2-y,1/2-z
1/2-x,1/2+y,1/2-z
-x,-y,-z
1/2+x,y,-z
-x,1/2+y,1/2+z
1/2+x,1/2-y,1/2+z
loop_
_atom_site_type_symbol
_atom_site_label
_atom_site_fract_x
_atom_site_fract_y
_atom_site_fract_z
Si Si1 0.944849 0.083783 0.651040
Si Si2 0.601408 0.465968 0.316378
Si Si3 0.836925 0.660024 0.890368
Si Si4 0.416456 0.219007 0.837192
Si Si5 0.659646 0.255637 0.072054
O O1 0.813526 0.167931 0.648685
O O2 0.992762 0.065257 0.745565
O O3 0.071328 0.138159 0.604265
O O4 0.893852 0.970811 0.600933
O O5 0.750000 0.500000 0.279054
O O6 0.553138 0.584891 0.358811
O O7 0.609689 0.365220 0.386021
O O8 0.940079 0.718935 0.827455
O O9 0.848345 0.738189 0.973222
O O10 0.341084 0.250000 0.750000
O O11 0.318150 0.274161 0.906651
#
# Coordination Sequence:
#
# PCOD8216672 Si02
#       5
#     8   8   8   8   8
#     4  11  23  43  64  99 138 179 223 284 348 417
#     4  10  22  43  71  99 128 182 240 284 333 420
#     4  11  25  41  64 100 141 173 221 290 360 398
#     4  11  22  43  69  94 133 181 235 286 338 419
#     4  11  23  41  67  98 131 178 233 281 339 413
#
# _framework density 21.812678999999999
#
# number of rings (size 3 to 8) (size 9 to 14) (size 15 to 20)
#    0.000    1.200    2.000    4.800    0.000    4.000 
#    0.000    2.000    0.000    0.000    0.000    0.000 
#    0.000    0.000    0.000    0.000    0.000    0.000 
#
# Total GULP energy -495599.920276 kJ/mol
# GULP energy per Si atom -12389.998007 kJ/mol
# Density = 2.176303 g / cm^3
# Si number density = 21.812679 Si / 1000 Ang^3
#
#
#
# Elastic Constant Matrix: (Units=GPa)
#
#
# Indices 1 2 3 4 5 6 
#
# 1 135.9396 54.5136 43.9516 0.0000 0.0000 0.0000
# 2 54.5136 96.9815 41.3569 0.0000 0.0000 0.0000
# 3 43.9516 41.3569 76.1446 0.0000 0.0000 0.0000
# 4 0.0000 0.0000 0.0000 35.6476 0.0000 0.0000
# 5 0.0000 0.0000 0.0000 0.0000 22.6544 0.0000
# 6 0.0000 0.0000 0.0000 0.0000 0.0000 42.5017
#
#
#
# Elastic Compliance Matrix: (Units=1/GPa)
#
#
# Indices 1 2 3 4 5 6 
#
# 1 0.010207 -0.004197 -0.003612 0.000000 0.000000 0.000000
# 2 -0.004197 0.015145 -0.005803 0.000000 0.000000 0.000000
# 3 -0.003612 -0.005803 0.018370 0.000000 0.000000 0.000000
# 4 0.000000 0.000000 0.000000 0.028052 0.000000 0.000000
# 5 0.000000 0.000000 0.000000 0.000000 0.044141 0.000000
# 6 0.000000 0.000000 0.000000 0.000000 0.000000 0.023528
#
#
# Mechanical properties :
#
#
# Convention : Reuss Voigt Hill
#
# Bulk Modulus (GPa) = 60.61635 65.41222 63.01429
# Shear Modulus (GPa) = 29.04130 31.44366 30.24248
#
# Velocity S-wave (km/s) = 3.65279 3.80087 3.72756
# Velocity P-wave (km/s) = 6.75576 7.02249 6.89042
#
# Compressibility (1/GPa) = 0.01649720
#
# Stress axis : x y z
#
# Youngs Moduli (GPa) = 97.97038 66.02737 54.43712
#
# Poissons Ratio (x) = 0.27713 0.19663
# Poissons Ratio (y) = 0.41120 0.31591
# Poissons Ratio (z) = 0.35388 0.38318
#
# Static dielectric constant tensor:
#      x y z
#    x 4.167220 0.000000 0.000000 
#    y 0.000000 4.192610 0.000000 
#    z 0.000000 0.000000 3.615370 
# 
# 
# High freq. dielectric constant tensor:
#      x y z
#    x 1.870370 0.000000 0.000000 
#    y 0.000000 1.863160 0.000000 
#    z 0.000000 0.000000 1.838290 
# 
# From -- ./inp_files/30893.got.cif
#   From: 2010.06.25/outbox.cif.g09.slc.cpg/sg52_16_cif.got.tgz:30893.got - 2010.06.26 19:32:48.
