data_PCOD8216100
_publ_section_title
;
Structure prediction by ZEFSAII (Michael W. Deem and Ramdas Pophale) SiO2 
 PCOD8216100
Probable space group: P N N A
;
_chemical_formula_sum "Si O2"
_cell_formula_units_Z 60
_cell_length_a 13.683876
_cell_length_b 12.692979
_cell_length_c 16.883432
_cell_angle_alpha 90.000000
_cell_angle_beta 90.000000
_cell_angle_gamma 90.000000
_cell_volume 2932.468965
_symmetry_space_group_name_H-M "P N N A"
_symmetry_group_IT_number 52
_symmetry_cell_setting 'orthorhombic'
loop_
_space_group_symop_operation_xyz
x,y,z
1/2-x,-y,z
x,1/2-y,1/2-z
1/2-x,1/2+y,1/2-z
-x,-y,-z
1/2+x,y,-z
-x,1/2+y,1/2+z
1/2+x,1/2-y,1/2+z
loop_
_atom_site_type_symbol
_atom_site_label
_atom_site_fract_x
_atom_site_fract_y
_atom_site_fract_z
Si Si1 0.715268 0.805180 0.170992
Si Si2 0.681894 0.663059 0.019088
Si Si3 0.097101 0.250000 0.250000
Si Si4 0.936250 0.839554 0.188889
Si Si5 0.544317 0.510948 0.105978
Si Si6 0.490737 0.719551 0.954637
Si Si7 0.948825 0.432786 0.277432
Si Si8 0.634455 0.345106 0.911062
O O1 0.671406 0.750000 0.250000
O O2 0.721777 0.727720 0.095226
O O3 0.819630 0.852048 0.194686
O O4 0.637614 0.900523 0.160876
O O5 0.617196 0.560392 0.040954
O O6 0.606212 0.733608 0.969488
O O7 0.768152 0.628168 0.960235
O O8 0.160145 0.291655 0.174410
O O9 0.033570 0.346741 0.282525
O O10 0.974416 0.750000 0.250000
O O11 0.962556 0.815857 0.099363
O O12 0.989532 0.950887 0.202726
O O13 0.543366 0.386530 0.091940
O O14 0.591123 0.550409 0.187982
O O15 0.431971 0.550543 0.099887
O O16 0.432952 0.733697 0.037276
#
# Coordination Sequence:
#
# PCOD8216100 Si02
#       8
#     8   8   4   8   8   8   8   8
#     4  11  20  37  58  93 121 158 205 247 312 383
#     4  11  21  38  65  88 127 164 208 261 309 366
#     4  10  22  42  66  86 114 164 226 262 298 370
#     4  11  23  37  58  93 135 162 194 254 319 375
#     4  10  21  36  60  97 127 156 207 255 318 374
#     4  11  22  39  57  92 132 162 205 256 312 372
#     4  11  19  39  66  89 122 168 207 252 311 371
#     4  10  21  40  60  90 120 159 215 263 302 364
#
# _framework density 20.460574000000001
#
# number of rings (size 3 to 8) (size 9 to 14) (size 15 to 20)
#    0.000    1.333    4.667    3.600    0.000    2.133 
#    3.600    2.667    0.000    0.000    0.000    0.000 
#    0.000    0.000    0.000    0.000    0.000    0.000 
#
# Total GULP energy -743526.626925 kJ/mol
# GULP energy per Si atom -12392.110449 kJ/mol
# Density = 2.041401 g / cm^3
# Si number density = 20.460574 Si / 1000 Ang^3
#
#
#
# Elastic Constant Matrix: (Units=GPa)
#
#
# Indices 1 2 3 4 5 6 
#
# 1 79.2497 13.2365 24.7469 0.0000 0.0000 0.0000
# 2 13.2365 95.0592 27.4600 0.0000 0.0000 0.0000
# 3 24.7469 27.4600 96.6213 0.0000 0.0000 0.0000
# 4 0.0000 0.0000 0.0000 25.5616 0.0000 0.0000
# 5 0.0000 0.0000 0.0000 0.0000 30.6119 0.0000
# 6 0.0000 0.0000 0.0000 0.0000 0.0000 7.0002
#
#
#
# Elastic Compliance Matrix: (Units=1/GPa)
#
#
# Indices 1 2 3 4 5 6 
#
# 1 0.013799 -0.000981 -0.003255 0.000000 0.000000 0.000000
# 2 -0.000981 0.011530 -0.003026 0.000000 0.000000 0.000000
# 3 -0.003255 -0.003026 0.012043 0.000000 0.000000 0.000000
# 4 0.000000 0.000000 0.000000 0.039121 0.000000 0.000000
# 5 0.000000 0.000000 0.000000 0.000000 0.032667 0.000000
# 6 0.000000 0.000000 0.000000 0.000000 0.000000 0.142854
#
#
# Mechanical properties :
#
#
# Convention : Reuss Voigt Hill
#
# Bulk Modulus (GPa) = 43.76686 44.64633 44.20659
# Shear Modulus (GPa) = 18.23788 26.33387 22.28587
#
# Velocity S-wave (km/s) = 2.98882 3.59145 3.30390
# Velocity P-wave (km/s) = 5.77477 6.25028 6.01722
#
# Compressibility (1/GPa) = 0.02284834
#
# Stress axis : x y z
#
# Youngs Moduli (GPa) = 72.47042 86.72728 83.03328
#
# Poissons Ratio (x) = 0.08508 0.27030
# Poissons Ratio (y) = 0.07109 0.25123
# Poissons Ratio (z) = 0.23592 0.26241
#
# Static dielectric constant tensor:
#      x y z
#    x 3.565540 0.000000 0.000000 
#    y 0.000000 3.604200 0.000000 
#    z 0.000000 0.000000 3.923530 
# 
# 
# High freq. dielectric constant tensor:
#      x y z
#    x 1.777780 0.000000 0.000000 
#    y 0.000000 1.782050 0.000000 
#    z 0.000000 0.000000 1.804880 
# 
# From -- ./inp_files/33251.got.cif
#   From: 2010.06.25/outbox.cif.g09.slc.cpg/sg52_17_cif.got.tgz:33251.got - 2010.06.26 19:32:48.
