data_PCOD8216807
_publ_section_title
;
Structure prediction by ZEFSAII (Michael W. Deem and Ramdas Pophale) SiO2 
 PCOD8216807
Probable space group: P N N A
;
_chemical_formula_sum "Si O2"
_cell_formula_units_Z 32
_cell_length_a 13.193397
_cell_length_b 6.844782
_cell_length_c 15.629426
_cell_angle_alpha 90.000000
_cell_angle_beta 90.000000
_cell_angle_gamma 90.000000
_cell_volume 1411.429793
_symmetry_space_group_name_H-M "P N N A"
_symmetry_group_IT_number 52
_symmetry_cell_setting 'orthorhombic'
loop_
_space_group_symop_operation_xyz
x,y,z
1/2-x,-y,z
x,1/2-y,1/2-z
1/2-x,1/2+y,1/2-z
-x,-y,-z
1/2+x,y,-z
-x,1/2+y,1/2+z
1/2+x,1/2-y,1/2+z
loop_
_atom_site_type_symbol
_atom_site_label
_atom_site_fract_x
_atom_site_fract_y
_atom_site_fract_z
Si Si1 0.750000 0.500000 0.501875
Si Si2 0.378053 0.147599 0.549579
Si Si3 0.604476 0.309513 0.927563
Si Si4 0.136870 0.468180 0.764218
Si Si5 0.972600 0.750000 0.750000
O O1 0.694707 0.663901 0.444500
O O2 0.668284 0.387911 0.559891
O O3 0.492476 0.219341 0.533021
O O4 0.345897 0.001436 0.471764
O O5 0.367279 0.024355 0.636157
O O6 0.596833 0.338847 0.824852
O O7 0.250000 0.500000 0.726962
O O8 0.102254 0.250000 0.750000
O O9 0.052156 0.589792 0.711422
#
# Coordination Sequence:
#
# PCOD8216807 Si02
#       5
#     4   8   8   8   4
#     4  12  22  42  72 100 124 180 228 278 330 388
#     4  10  24  43  68  96 136 171 226 275 329 400
#     4  10  23  44  64  99 133 176 220 277 329 396
#     4  11  22  39  63  97 133 170 209 272 333 399
#     4  10  24  42  64  96 136 174 220 270 338 394
#
# _framework density 22.672046000000002
#
# number of rings (size 3 to 8) (size 9 to 14) (size 15 to 20)
#    0.000    1.500    1.250    3.000    0.000   14.000 
#    6.750    0.000    0.000    0.000    0.000    0.000 
#    0.000    0.000    0.000    0.000    0.000    0.000 
#
# Total GULP energy -396687.375702 kJ/mol
# GULP energy per Si atom -12396.480491 kJ/mol
# Density = 2.262044 g / cm^3
# Si number density = 22.672046 Si / 1000 Ang^3
#
#
#
# Elastic Constant Matrix: (Units=GPa)
#
#
# Indices 1 2 3 4 5 6 
#
# 1 97.2574 56.1764 19.7682 0.0000 0.0000 0.0000
# 2 56.1764 178.9598 40.2249 0.0000 0.0000 0.0000
# 3 19.7682 40.2249 96.3863 0.0000 0.0000 0.0000
# 4 0.0000 0.0000 0.0000 31.6960 0.0000 0.0000
# 5 0.0000 0.0000 0.0000 0.0000 30.3870 0.0000
# 6 0.0000 0.0000 0.0000 0.0000 0.0000 55.7721
#
#
#
# Elastic Compliance Matrix: (Units=1/GPa)
#
#
# Indices 1 2 3 4 5 6 
#
# 1 0.012652 -0.003739 -0.001034 0.000000 0.000000 0.000000
# 2 -0.003739 0.007271 -0.002268 0.000000 0.000000 0.000000
# 3 -0.001034 -0.002268 0.011533 0.000000 0.000000 0.000000
# 4 0.000000 0.000000 0.000000 0.031550 0.000000 0.000000
# 5 0.000000 0.000000 0.000000 0.000000 0.032909 0.000000
# 6 0.000000 0.000000 0.000000 0.000000 0.000000 0.017930
#
#
# Mechanical properties :
#
#
# Convention : Reuss Voigt Hill
#
# Bulk Modulus (GPa) = 57.55586 67.21582 62.38584
# Shear Modulus (GPa) = 37.39188 40.66663 39.02925
#
# Velocity S-wave (km/s) = 4.06550 4.23979 4.15356
# Velocity P-wave (km/s) = 6.89051 7.32661 7.11190
#
# Compressibility (1/GPa) = 0.01737442
#
# Stress axis : x y z
#
# Youngs Moduli (GPa) = 79.03942 137.52810 86.70442
#
# Poissons Ratio (x) = 0.51422 0.08969
# Poissons Ratio (y) = 0.29553 0.19662
# Poissons Ratio (z) = 0.08176 0.31187
#
# Static dielectric constant tensor:
#      x y z
#    x 4.398170 0.000000 0.000000 
#    y 0.000000 3.829990 0.000000 
#    z 0.000000 0.000000 3.800840 
# 
# 
# High freq. dielectric constant tensor:
#      x y z
#    x 1.902500 0.000000 0.000000 
#    y 0.000000 1.899820 0.000000 
#    z 0.000000 0.000000 1.874590 
# 
# From -- ./inp_files/32715.got.cif
#   From: 2010.06.25/outbox.cif.g09.slc.cpg/sg52_17_cif.got.tgz:32715.got - 2010.06.26 19:32:48.
