data_PCOD8216890
_publ_section_title
;
Structure prediction by ZEFSAII (Michael W. Deem and Ramdas Pophale) SiO2 
 PCOD8216890
Probable space group: P N N A
;
_chemical_formula_sum "Si O2"
_cell_formula_units_Z 40
_cell_length_a 25.622648
_cell_length_b 8.630212
_cell_length_c 8.086900
_cell_angle_alpha 90.000000
_cell_angle_beta 90.000000
_cell_angle_gamma 90.000000
_cell_volume 1788.247174
_symmetry_space_group_name_H-M "P N N A"
_symmetry_group_IT_number 52
_symmetry_cell_setting 'orthorhombic'
loop_
_space_group_symop_operation_xyz
x,y,z
1/2-x,-y,z
x,1/2-y,1/2-z
1/2-x,1/2+y,1/2-z
-x,-y,-z
1/2+x,y,-z
-x,1/2+y,1/2+z
1/2+x,1/2-y,1/2+z
loop_
_atom_site_type_symbol
_atom_site_label
_atom_site_fract_x
_atom_site_fract_y
_atom_site_fract_z
Si Si1 0.179725 0.250000 0.750000
Si Si2 0.750000 0.000000 0.369312
Si Si3 0.125544 0.171304 0.411745
Si Si4 0.067883 0.830794 0.924285
Si Si5 0.461488 0.686224 0.576738
Si Si6 0.835815 0.167698 0.579936
O O1 0.213792 0.094448 0.754856
O O2 0.149078 0.245176 0.578185
O O3 0.716906 0.878875 0.482125
O O4 0.151165 0.250000 0.250000
O O5 0.064716 0.217301 0.425857
O O6 0.130991 0.988005 0.392024
O O7 0.056635 0.750000 0.750000
O O8 0.061339 0.013943 0.915598
O O9 0.126150 0.785183 0.982240
O O10 0.023237 0.784624 0.055967
O O11 0.442712 0.750000 0.750000
O O12 0.818817 0.250000 0.750000
#
# Coordination Sequence:
#
# PCOD8216890 Si02
#       6
#     4   4   8   8   8   8
#     4  10  24  44  66 102 134 186 234 302 354 430
#     4  10  26  44  72 100 136 184 244 298 378 418
#     4  11  23  42  70 100 142 189 237 288 359 424
#     4  11  25  40  68 103 144 193 235 291 360 426
#     4  11  23  42  66 104 148 191 238 287 351 437
#     4  11  25  46  69 104 138 182 244 302 360 434
#
# _framework density 22.368272000000001
#
# number of rings (size 3 to 8) (size 9 to 14) (size 15 to 20)
#    0.000    1.200    1.000    3.600    4.200   11.200 
#    0.000    1.000    0.000    0.000    0.000    0.000 
#    0.000    0.000    0.000    0.000    0.000    0.000 
#
# Total GULP energy -495727.719134 kJ/mol
# GULP energy per Si atom -12393.192978 kJ/mol
# Density = 2.231736 g / cm^3
# Si number density = 22.368272 Si / 1000 Ang^3
#
#
#
# Elastic Constant Matrix: (Units=GPa)
#
#
# Indices 1 2 3 4 5 6 
#
# 1 106.3522 39.4256 39.1017 0.0000 0.0000 0.0000
# 2 39.4256 64.8224 44.6559 0.0000 0.0000 0.0000
# 3 39.1017 44.6559 139.6427 0.0000 0.0000 0.0000
# 4 0.0000 0.0000 0.0000 43.9778 0.0000 0.0000
# 5 0.0000 0.0000 0.0000 0.0000 -10.5622 0.0000
# 6 0.0000 0.0000 0.0000 0.0000 0.0000 55.9204
#
#
#
# Elastic Compliance Matrix: (Units=1/GPa)
#
#
# Indices 1 2 3 4 5 6 
#
# 1 0.012336 -0.006571 -0.001353 0.000000 0.000000 0.000000
# 2 -0.006571 0.023286 -0.005606 0.000000 0.000000 0.000000
# 3 -0.001353 -0.005606 0.009333 0.000000 0.000000 0.000000
# 4 0.000000 0.000000 0.000000 0.022739 0.000000 0.000000
# 5 0.000000 0.000000 0.000000 0.000000 -0.094677 0.000000
# 6 0.000000 0.000000 0.000000 0.000000 0.000000 0.017883
#
#
# Mechanical properties :
#
#
# Convention : Reuss Voigt Hill
#
# Bulk Modulus (GPa) = 55.88526 61.90930 58.89728
# Shear Modulus (GPa) = 208.99912 30.37613 119.68762
#
# Velocity S-wave (km/s) = 9.67669 3.68910 7.32284
# Velocity P-wave (km/s) = 12.24294 6.77372 9.89376
#
# Compressibility (1/GPa) = 0.01789381
#
# Stress axis : x y z
#
# Youngs Moduli (GPa) = 81.06341 42.94516 107.14825
#
# Poissons Ratio (x) = 0.28219 0.14497
# Poissons Ratio (y) = 0.53265 0.60073
# Poissons Ratio (z) = 0.10968 0.24077
#
# Static dielectric constant tensor:
#      x y z
#    x 4.245580 0.000000 0.000000 
#    y 0.000000 4.113580 0.000000 
#    z 0.000000 0.000000 4.025390 
# 
# 
# High freq. dielectric constant tensor:
#      x y z
#    x 1.887640 0.000000 0.000000 
#    y 0.000000 1.891520 0.000000 
#    z 0.000000 0.000000 1.887000 
# 
# From -- ./inp_files/14885.got.cif
#   From: 2010.06.25/outbox.cif.g09.slc.cpg/sg52_8_cif.got.tgz:14885.got - 2010.06.26 19:32:48.
