data_PCOD8216587
_publ_section_title
;
Structure prediction by ZEFSAII (Michael W. Deem and Ramdas Pophale) SiO2 
 PCOD8216587
Probable space group: P N N A
;
_chemical_formula_sum "Si O2"
_cell_formula_units_Z 48
_cell_length_a 19.536713
_cell_length_b 16.465556
_cell_length_c 7.340919
_cell_angle_alpha 90.000000
_cell_angle_beta 90.000000
_cell_angle_gamma 90.000000
_cell_volume 2361.447686
_symmetry_space_group_name_H-M "P N N A"
_symmetry_group_IT_number 52
_symmetry_cell_setting 'orthorhombic'
loop_
_space_group_symop_operation_xyz
x,y,z
1/2-x,-y,z
x,1/2-y,1/2-z
1/2-x,1/2+y,1/2-z
-x,-y,-z
1/2+x,y,-z
-x,1/2+y,1/2+z
1/2+x,1/2-y,1/2+z
loop_
_atom_site_type_symbol
_atom_site_label
_atom_site_fract_x
_atom_site_fract_y
_atom_site_fract_z
Si Si1 0.561396 0.000085 0.363150
Si Si2 0.197868 0.436404 0.990206
Si Si3 0.525613 0.090581 0.032217
Si Si4 0.248085 0.664330 0.655728
Si Si5 0.350123 0.836325 0.180648
Si Si6 0.910096 0.336678 0.347222
O O1 0.630482 0.010583 0.471009
O O2 0.500000 0.000000 0.500000
O O3 0.562472 0.911136 0.273611
O O4 0.555901 0.081504 0.235310
O O5 0.250000 0.500000 0.076007
O O6 0.186850 0.368433 0.139678
O O7 0.226250 0.403368 0.797259
O O8 0.584794 0.112874 0.887850
O O9 0.462290 0.155770 0.020984
O O10 0.500000 0.000000 0.000000
O O11 0.255955 0.750000 0.750000
O O12 0.293131 0.664935 0.475420
O O13 0.168910 0.648840 0.598328
O O14 0.377600 0.750000 0.250000
O O15 0.919798 0.250000 0.250000
#
# Coordination Sequence:
#
# PCOD8216587 Si02
#       6
#     8   8   8   8   8   8
#     4  11  23  41  65  96 136 173 229 282 330 404
#     4  12  24  41  67 100 133 180 226 276 343 402
#     4  10  22  41  64  97 133 173 222 279 336 399
#     4  11  23  45  69  96 136 174 219 281 339 398
#     4  12  25  42  72 101 136 179 235 283 340 410
#     4  10  22  43  67  91 133 176 219 277 342 401
#
# _framework density 20.326515000000001
#
# number of rings (size 3 to 8) (size 9 to 14) (size 15 to 20)
#    0.000    1.000    5.000    2.500    0.000    4.667 
#    0.000    2.500    0.000    0.000    0.000    0.000 
#    0.000    0.000    0.000    0.000    0.000    0.000 
#
# Total GULP energy -594840.868049 kJ/mol
# GULP energy per Si atom -12392.518084 kJ/mol
# Density = 2.028025 g / cm^3
# Si number density = 20.326515 Si / 1000 Ang^3
#
#
#
# Elastic Constant Matrix: (Units=GPa)
#
#
# Indices 1 2 3 4 5 6 
#
# 1 163.3093 54.8858 49.8999 0.0000 0.0000 0.0000
# 2 54.8858 113.1899 38.2044 0.0000 0.0000 0.0000
# 3 49.8999 38.2044 94.6214 0.0000 0.0000 0.0000
# 4 0.0000 0.0000 0.0000 24.5864 0.0000 0.0000
# 5 0.0000 0.0000 0.0000 0.0000 37.6836 0.0000
# 6 0.0000 0.0000 0.0000 0.0000 0.0000 37.3748
#
#
#
# Elastic Compliance Matrix: (Units=1/GPa)
#
#
# Indices 1 2 3 4 5 6 
#
# 1 0.008022 -0.002851 -0.003080 0.000000 0.000000 0.000000
# 2 -0.002851 0.011242 -0.003036 0.000000 0.000000 0.000000
# 3 -0.003080 -0.003036 0.013418 0.000000 0.000000 0.000000
# 4 0.000000 0.000000 0.000000 0.040673 0.000000 0.000000
# 5 0.000000 0.000000 0.000000 0.000000 0.026537 0.000000
# 6 0.000000 0.000000 0.000000 0.000000 0.000000 0.026756
#
#
# Mechanical properties :
#
#
# Convention : Reuss Voigt Hill
#
# Bulk Modulus (GPa) = 67.79523 73.01121 70.40322
# Shear Modulus (GPa) = 33.44558 35.13765 34.29162
#
# Velocity S-wave (km/s) = 4.06077 4.16223 4.11181
# Velocity P-wave (km/s) = 7.44393 7.68739 7.56664
#
# Compressibility (1/GPa) = 0.01475030
#
# Stress axis : x y z
#
# Youngs Moduli (GPa) = 124.65054 88.95574 74.52533
#
# Poissons Ratio (x) = 0.25358 0.22952
# Poissons Ratio (y) = 0.35533 0.22623
# Poissons Ratio (z) = 0.38390 0.27003
#
# Static dielectric constant tensor:
#      x y z
#    x 4.153450 0.000000 0.000000 
#    y 0.000000 3.838000 0.000000 
#    z 0.000000 0.000000 3.946260 
# 
# 
# High freq. dielectric constant tensor:
#      x y z
#    x 1.819570 0.000000 0.000000 
#    y 0.000000 1.798810 0.000000 
#    z 0.000000 0.000000 1.784540 
# 
# From -- ./inp_files/12286.got.cif
#   From: 2010.06.25/outbox.cif.g09.slc.cpg/sg52_7_cif.got.tgz:12286.got - 2010.06.26 19:32:48.
