data_PCOD8216911
_publ_section_title
;
Structure prediction by ZEFSAII (Michael W. Deem and Ramdas Pophale) SiO2 
 PCOD8216911
Probable space group: P N N A
;
_chemical_formula_sum "Si O2"
_cell_formula_units_Z 32
_cell_length_a 12.988701
_cell_length_b 5.098260
_cell_length_c 20.050424
_cell_angle_alpha 90.000000
_cell_angle_beta 90.000000
_cell_angle_gamma 90.000000
_cell_volume 1327.734561
_symmetry_space_group_name_H-M "P N N A"
_symmetry_group_IT_number 52
_symmetry_cell_setting 'orthorhombic'
loop_
_space_group_symop_operation_xyz
x,y,z
1/2-x,-y,z
x,1/2-y,1/2-z
1/2-x,1/2+y,1/2-z
-x,-y,-z
1/2+x,y,-z
-x,1/2+y,1/2+z
1/2+x,1/2-y,1/2+z
loop_
_atom_site_type_symbol
_atom_site_label
_atom_site_fract_x
_atom_site_fract_y
_atom_site_fract_z
Si Si1 0.147213 0.824919 0.389606
Si Si2 0.250000 0.000000 0.703621
Si Si3 0.811264 0.250000 0.750000
Si Si4 0.574709 0.071981 0.405467
Si Si5 0.360011 0.431457 0.522291
O O1 0.131933 0.673437 0.318337
O O2 0.145215 0.583438 0.442050
O O3 0.043536 0.002385 0.389923
O O4 0.250000 0.000000 0.401289
O O5 0.223685 0.750000 0.750000
O O6 0.350968 0.927504 0.659368
O O7 0.750000 0.500000 0.775712
O O8 0.565499 0.348917 0.446342
O O9 0.884966 0.137315 0.457324
O O10 0.250000 0.500000 0.553841
#
# Coordination Sequence:
#
# PCOD8216911 Si02
#       5
#     8   4   4   8   8
#     4  11  26  47  73 108 147 194 241 300 369 434
#     4  12  26  50  76 108 148 190 242 298 366 428
#     4  10  24  46  66  98 146 188 240 288 358 442
#     4  12  26  47  76 109 144 190 244 304 356 440
#     4  12  23  46  74 107 146 186 245 303 362 423
#
# _framework density 24.101203000000002
#
# number of rings (size 3 to 8) (size 9 to 14) (size 15 to 20)
#    0.000    0.500    2.500    5.250    1.750    8.000 
#    9.000    0.000    0.000    0.000    0.000    0.000 
#    0.000    0.000    0.000    0.000    0.000    0.000 
#
# Total GULP energy -396452.528625 kJ/mol
# GULP energy per Si atom -12389.141520 kJ/mol
# Density = 2.404635 g / cm^3
# Si number density = 24.101203 Si / 1000 Ang^3
#
#
#
# Elastic Constant Matrix: (Units=GPa)
#
#
# Indices 1 2 3 4 5 6 
#
# 1 174.3197 22.4502 45.3289 0.0000 0.0000 0.0000
# 2 22.4502 124.4311 65.8889 0.0000 0.0000 0.0000
# 3 45.3289 65.8889 190.9801 0.0000 0.0000 0.0000
# 4 0.0000 0.0000 0.0000 32.2444 0.0000 0.0000
# 5 0.0000 0.0000 0.0000 0.0000 -1.3769 0.0000
# 6 0.0000 0.0000 0.0000 0.0000 0.0000 26.2093
#
#
#
# Elastic Compliance Matrix: (Units=1/GPa)
#
#
# Indices 1 2 3 4 5 6 
#
# 1 0.006131 -0.000411 -0.001314 0.000000 0.000000 0.000000
# 2 -0.000411 0.009860 -0.003304 0.000000 0.000000 0.000000
# 3 -0.001314 -0.003304 0.006688 0.000000 0.000000 0.000000
# 4 0.000000 0.000000 0.000000 0.031013 0.000000 0.000000
# 5 0.000000 0.000000 0.000000 0.000000 -0.726247 0.000000
# 6 0.000000 0.000000 0.000000 0.000000 0.000000 0.038154
#
#
# Mechanical properties :
#
#
# Convention : Reuss Voigt Hill
#
# Bulk Modulus (GPa) = 79.22522 84.11852 81.67187
# Shear Modulus (GPa) = -8.06275 35.15286 13.54506
#
# Velocity S-wave (km/s) = -1.83102 3.82324 2.37324
# Velocity P-wave (km/s) = 5.33602 7.38021 6.43975
#
# Compressibility (1/GPa) = 0.01262224
#
# Stress axis : x y z
#
# Youngs Moduli (GPa) = 163.10469 101.41556 149.52270
#
# Poissons Ratio (x) = 0.04165 0.19640
# Poissons Ratio (y) = 0.06698 0.49409
# Poissons Ratio (z) = 0.21424 0.33512
#
# Static dielectric constant tensor:
#      x y z
#    x 4.598350 0.000000 0.000000 
#    y 0.000000 4.049910 0.000000 
#    z 0.000000 0.000000 4.708620 
# 
# 
# High freq. dielectric constant tensor:
#      x y z
#    x 1.964940 0.000000 0.000000 
#    y 0.000000 1.949070 0.000000 
#    z 0.000000 0.000000 1.978660 
# 
# From -- ./inp_files/39872.got.cif
#   From: 2010.06.25/outbox.cif.g09.slc.cpg/sg52_20_cif.got.tgz:39872.got - 2010.06.26 19:32:48.
