data_PCOD8216878
_publ_section_title
;
Structure prediction by ZEFSAII (Michael W. Deem and Ramdas Pophale) SiO2 
 PCOD8216878
Probable space group: P N N A
;
_chemical_formula_sum "Si O2"
_cell_formula_units_Z 40
_cell_length_a 22.911581
_cell_length_b 9.774853
_cell_length_c 8.895949
_cell_angle_alpha 90.000000
_cell_angle_beta 90.000000
_cell_angle_gamma 90.000000
_cell_volume 1992.313042
_symmetry_space_group_name_H-M "P N N A"
_symmetry_group_IT_number 52
_symmetry_cell_setting 'orthorhombic'
loop_
_space_group_symop_operation_xyz
x,y,z
1/2-x,-y,z
x,1/2-y,1/2-z
1/2-x,1/2+y,1/2-z
-x,-y,-z
1/2+x,y,-z
-x,1/2+y,1/2+z
1/2+x,1/2-y,1/2+z
loop_
_atom_site_type_symbol
_atom_site_label
_atom_site_fract_x
_atom_site_fract_y
_atom_site_fract_z
Si Si1 0.875650 0.740049 0.428470
Si Si2 0.136503 0.773065 0.423127
Si Si3 0.749283 0.164984 0.400999
Si Si4 0.935516 0.009091 0.935900
Si Si5 0.439933 0.526435 0.081836
O O1 0.885647 0.750000 0.250000
O O2 0.811577 0.790973 0.477612
O O3 0.888402 0.586860 0.481752
O O4 0.921880 0.826833 0.521448
O O5 0.149791 0.750000 0.250000
O O6 0.199212 0.774392 0.499454
O O7 0.091005 0.657102 0.473677
O O8 0.107192 0.915218 0.469052
O O9 0.754612 0.250000 0.250000
O O10 0.750000 0.000000 0.377077
O O11 0.943221 0.975298 0.761102
O O12 0.000000 0.000000 0.000000
O O13 0.500000 0.500000 0.000000
#
# Coordination Sequence:
#
# PCOD8216878 Si02
#       5
#     8   8   8   8   8
#     4  11  24  41  63  94 130 170 218 268 320 389
#     4  10  24  43  64  93 130 168 213 267 326 390
#     4  11  25  44  68  97 130 170 220 270 327 388
#     4  11  24  41  65  99 130 169 218 265 328 394
#     4  11  22  41  66  93 130 171 214 270 328 388
#
# _framework density 20.077165999999998
#
# number of rings (size 3 to 8) (size 9 to 14) (size 15 to 20)
#    0.000    1.200    2.000    3.000    5.600    4.800 
#    0.000    0.000    0.000    0.000    0.000    0.000 
#    0.000    0.000    0.000    0.000    0.000    0.000 
#
# Total GULP energy -495897.079461 kJ/mol
# GULP energy per Si atom -12397.426987 kJ/mol
# Density = 2.003147 g / cm^3
# Si number density = 20.077166 Si / 1000 Ang^3
#
#
#
# Elastic Constant Matrix: (Units=GPa)
#
#
# Indices 1 2 3 4 5 6 
#
# 1 146.7213 33.9171 49.0289 0.0000 0.0000 0.0000
# 2 33.9171 76.9256 36.5585 0.0000 0.0000 0.0000
# 3 49.0289 36.5585 78.7771 0.0000 0.0000 0.0000
# 4 0.0000 0.0000 0.0000 36.4519 0.0000 0.0000
# 5 0.0000 0.0000 0.0000 0.0000 24.2044 0.0000
# 6 0.0000 0.0000 0.0000 0.0000 0.0000 26.4739
#
#
#
# Elastic Compliance Matrix: (Units=1/GPa)
#
#
# Indices 1 2 3 4 5 6 
#
# 1 0.008762 -0.001631 -0.004696 0.000000 0.000000 0.000000
# 2 -0.001631 0.016982 -0.006865 0.000000 0.000000 0.000000
# 3 -0.004696 -0.006865 0.018803 0.000000 0.000000 0.000000
# 4 0.000000 0.000000 0.000000 0.027433 0.000000 0.000000
# 5 0.000000 0.000000 0.000000 0.000000 0.041315 0.000000
# 6 0.000000 0.000000 0.000000 0.000000 0.000000 0.037773
#
#
# Mechanical properties :
#
#
# Convention : Reuss Voigt Hill
#
# Bulk Modulus (GPa) = 55.06435 60.15924 57.61180
# Shear Modulus (GPa) = 27.24685 29.62067 28.43376
#
# Velocity S-wave (km/s) = 3.68789 3.84518 3.76736
# Velocity P-wave (km/s) = 6.75425 7.05287 6.90518
#
# Compressibility (1/GPa) = 0.01816057
#
# Stress axis : x y z
#
# Youngs Moduli (GPa) = 114.12830 58.88714 53.18330
#
# Poissons Ratio (x) = 0.09607 0.24976
# Poissons Ratio (y) = 0.18619 0.36512
# Poissons Ratio (z) = 0.53597 0.40428
#
# Static dielectric constant tensor:
#      x y z
#    x 3.559280 0.000000 0.000000 
#    y 0.000000 1.846760 0.000000 
#    z 0.000000 0.000000 3.620180 
# 
# 
# High freq. dielectric constant tensor:
#      x y z
#    x 1.802280 0.000000 0.000000 
#    y 0.000000 1.801020 0.000000 
#    z 0.000000 0.000000 1.785390 
# 
# From -- ./inp_files/13947.got.cif
#   From: 2010.06.25/outbox.cif.g09.slc.cpg/sg52_7_cif.got.tgz:13947.got - 2010.06.26 19:32:48.
