data_PCOD8216396
_publ_section_title
;
Structure prediction by ZEFSAII (Michael W. Deem and Ramdas Pophale) SiO2 
 PCOD8216396
Probable space group: P N N A
;
_chemical_formula_sum "Si O2"
_cell_formula_units_Z 60
_cell_length_a 16.499989
_cell_length_b 18.470651
_cell_length_c 9.466741
_cell_angle_alpha 90.000000
_cell_angle_beta 90.000000
_cell_angle_gamma 90.000000
_cell_volume 2885.136417
_symmetry_space_group_name_H-M "P N N A"
_symmetry_group_IT_number 52
_symmetry_cell_setting 'orthorhombic'
loop_
_space_group_symop_operation_xyz
x,y,z
1/2-x,-y,z
x,1/2-y,1/2-z
1/2-x,1/2+y,1/2-z
-x,-y,-z
1/2+x,y,-z
-x,1/2+y,1/2+z
1/2+x,1/2-y,1/2+z
loop_
_atom_site_type_symbol
_atom_site_label
_atom_site_fract_x
_atom_site_fract_y
_atom_site_fract_z
Si Si1 0.136876 0.824558 0.807679
Si Si2 0.400196 0.058934 0.586601
Si Si3 0.513298 0.942685 0.700702
Si Si4 0.138360 0.052123 0.199649
Si Si5 0.958070 0.811587 0.857430
Si Si6 0.911087 0.675869 0.330786
Si Si7 0.726370 0.077355 0.096205
Si Si8 0.750000 0.500000 0.929518
O O1 0.177434 0.750000 0.750000
O O2 0.109897 0.867509 0.669742
O O3 0.195103 0.870282 0.911543
O O4 0.053721 0.808123 0.890777
O O5 0.460895 0.075586 0.458406
O O6 0.436373 0.996854 0.689696
O O7 0.311474 0.040825 0.530318
O O8 0.490234 0.867841 0.778624
O O9 0.587532 0.977122 0.790819
O O10 0.070586 0.113816 0.214643
O O11 0.201418 0.056736 0.329503
O O12 0.189124 0.058501 0.056248
O O13 0.929512 0.750000 0.750000
O O14 0.913404 0.802159 0.005829
O O15 0.897324 0.750000 0.250000
O O16 0.836714 0.620402 0.305485
O O17 0.750000 0.000000 0.167286
#
# Coordination Sequence:
#
# PCOD8216396 Si02
#       8
#     8   8   8   8   8   8   8   4
#     4  11  24  41  62  93 131 168 216 263 334 393
#     4  10  22  40  64  96 127 172 212 272 334 390
#     4  10  22  40  66  96 129 164 222 276 323 393
#     4  10  21  43  65  94 127 170 225 265 331 392
#     4  10  24  43  69  92 130 181 216 274 333 403
#     4  11  26  41  67  99 133 172 221 275 332 400
#     4  11  24  41  67  92 130 167 217 276 325 388
#     4  10  22  38  64  94 128 168 212 282 320 398
#
# _framework density 20.796244000000002
#
# number of rings (size 3 to 8) (size 9 to 14) (size 15 to 20)
#    0.000    1.600    2.000    1.200    8.400    1.067 
#    4.800    0.000    0.000    0.000    0.000    0.000 
#    0.000    0.000    0.000    0.000    0.000    0.000 
#
# Total GULP energy -743923.387964 kJ/mol
# GULP energy per Si atom -12398.723133 kJ/mol
# Density = 2.074891 g / cm^3
# Si number density = 20.796244 Si / 1000 Ang^3
#
#
#
# Elastic Constant Matrix: (Units=GPa)
#
#
# Indices 1 2 3 4 5 6 
#
# 1 100.1115 46.5721 27.3118 0.0000 0.0000 0.0000
# 2 46.5721 135.3307 53.4482 0.0000 0.0000 0.0000
# 3 27.3118 53.4482 79.9651 0.0000 0.0000 0.0000
# 4 0.0000 0.0000 0.0000 34.8281 0.0000 0.0000
# 5 0.0000 0.0000 0.0000 0.0000 29.2455 0.0000
# 6 0.0000 0.0000 0.0000 0.0000 0.0000 36.0159
#
#
#
# Elastic Compliance Matrix: (Units=1/GPa)
#
#
# Indices 1 2 3 4 5 6 
#
# 1 0.012087 -0.003436 -0.001832 0.000000 0.000000 0.000000
# 2 -0.003436 0.011016 -0.006190 0.000000 0.000000 0.000000
# 3 -0.001832 -0.006190 0.017268 0.000000 0.000000 0.000000
# 4 0.000000 0.000000 0.000000 0.028712 0.000000 0.000000
# 5 0.000000 0.000000 0.000000 0.000000 0.034193 0.000000
# 6 0.000000 0.000000 0.000000 0.000000 0.000000 0.027766
#
#
# Mechanical properties :
#
#
# Convention : Reuss Voigt Hill
#
# Bulk Modulus (GPa) = 57.28443 63.34127 60.31285
# Shear Modulus (GPa) = 31.29368 32.55626 31.92497
#
# Velocity S-wave (km/s) = 3.88335 3.96092 3.92233
# Velocity P-wave (km/s) = 6.90743 7.17235 7.04114
#
# Compressibility (1/GPa) = 0.01745675
#
# Stress axis : x y z
#
# Youngs Moduli (GPa) = 82.73303 90.77358 57.91005
#
# Poissons Ratio (x) = 0.31192 0.10606
# Poissons Ratio (y) = 0.28429 0.35844
# Poissons Ratio (z) = 0.15153 0.56186
#
# Static dielectric constant tensor:
#      x y z
#    x 4.004850 0.000000 0.000000 
#    y 0.000000 3.805710 0.000000 
#    z 0.000000 0.000000 3.610880 
# 
# 
# High freq. dielectric constant tensor:
#      x y z
#    x 1.826390 0.000000 0.000000 
#    y 0.000000 1.808930 0.000000 
#    z 0.000000 0.000000 1.807570 
# 
# From -- ./inp_files/12437.got.cif
#   From: 2010.06.25/outbox.cif.g09.slc.cpg/sg52_7_cif.got.tgz:12437.got - 2010.06.26 19:32:48.
