data_PCOD8216217
_publ_section_title
;
Structure prediction by ZEFSAII (Michael W. Deem and Ramdas Pophale) SiO2 
 PCOD8216217
Probable space group: P N N A
;
_chemical_formula_sum "Si O2"
_cell_formula_units_Z 56
_cell_length_a 23.120323
_cell_length_b 8.603585
_cell_length_c 14.404483
_cell_angle_alpha 90.000000
_cell_angle_beta 90.000000
_cell_angle_gamma 90.000000
_cell_volume 2865.306112
_symmetry_space_group_name_H-M "P N N A"
_symmetry_group_IT_number 52
_symmetry_cell_setting 'orthorhombic'
loop_
_space_group_symop_operation_xyz
x,y,z
1/2-x,-y,z
x,1/2-y,1/2-z
1/2-x,1/2+y,1/2-z
-x,-y,-z
1/2+x,y,-z
-x,1/2+y,1/2+z
1/2+x,1/2-y,1/2+z
loop_
_atom_site_type_symbol
_atom_site_label
_atom_site_fract_x
_atom_site_fract_y
_atom_site_fract_z
Si Si1 0.828872 0.250000 0.250000
Si Si2 0.113475 0.972375 0.069140
Si Si3 0.131399 0.030705 0.449124
Si Si4 0.750000 0.500000 0.338498
Si Si5 0.587442 0.767021 0.419247
Si Si6 0.542342 0.262289 0.642176
Si Si7 0.707905 0.298340 0.504284
Si Si8 0.690667 0.730557 0.852980
O O1 0.792652 0.405840 0.271245
O O2 0.867837 0.209470 0.337214
O O3 0.133612 0.839325 0.140966
O O4 0.057704 0.063278 0.108197
O O5 0.097556 0.898014 0.969631
O O6 0.166604 0.089856 0.061826
O O7 0.082527 0.136504 0.405645
O O8 0.176174 0.133263 0.509976
O O9 0.098114 0.907243 0.511060
O O10 0.169867 0.946474 0.369483
O O11 0.720127 0.369820 0.403348
O O12 0.523209 0.776655 0.381030
O O13 0.553494 0.250000 0.750000
O O14 0.766082 0.280335 0.564632
O O15 0.718194 0.750000 0.750000
#
# Coordination Sequence:
#
# PCOD8216217 Si02
#       8
#     4   8   8   4   8   8   8   8
#     4  12  26  40  70  92 124 160 212 264 308 384
#     4  10  21  39  61  86 124 170 204 253 321 369
#     4  10  24  38  62  89 125 169 205 250 325 370
#     4  12  24  44  62  94 126 164 204 262 328 374
#     4  11  22  45  61  91 122 165 210 263 317 369
#     4  11  22  39  66  91 121 161 216 263 306 370
#     4  11  21  40  60  87 129 166 199 253 314 386
#     4  11  21  36  59  92 132 164 211 250 301 375
#
# _framework density 19.544160999999999
#
# number of rings (size 3 to 8) (size 9 to 14) (size 15 to 20)
#    0.000    1.143    3.571    3.000    2.000    4.571 
#    0.000    0.000    0.000    3.429    0.000    0.000 
#    0.000    0.000    0.000    0.000    0.000    0.000 
#
# Total GULP energy -694432.516408 kJ/mol
# GULP energy per Si atom -12400.580650 kJ/mol
# Density = 1.949968 g / cm^3
# Si number density = 19.544161 Si / 1000 Ang^3
#
#
#
# Elastic Constant Matrix: (Units=GPa)
#
#
# Indices 1 2 3 4 5 6 
#
# 1 111.1316 56.1909 47.1718 0.0000 0.0000 0.0000
# 2 56.1909 122.0834 47.5061 0.0000 0.0000 0.0000
# 3 47.1718 47.5061 115.9062 0.0000 0.0000 0.0000
# 4 0.0000 0.0000 0.0000 31.9427 0.0000 0.0000
# 5 0.0000 0.0000 0.0000 0.0000 125.6282 0.0000
# 6 0.0000 0.0000 0.0000 0.0000 0.0000 52.7148
#
#
#
# Elastic Compliance Matrix: (Units=1/GPa)
#
#
# Indices 1 2 3 4 5 6 
#
# 1 0.012707 -0.004564 -0.003301 0.000000 0.000000 0.000000
# 2 -0.004564 0.011385 -0.002809 0.000000 0.000000 0.000000
# 3 -0.003301 -0.002809 0.011122 0.000000 0.000000 0.000000
# 4 0.000000 0.000000 0.000000 0.031306 0.000000 0.000000
# 5 0.000000 0.000000 0.000000 0.000000 0.007960 0.000000
# 6 0.000000 0.000000 0.000000 0.000000 0.000000 0.018970
#
#
# Mechanical properties :
#
#
# Convention : Reuss Voigt Hill
#
# Bulk Modulus (GPa) = 72.11536 72.31764 72.21650
# Shear Modulus (GPa) = 41.86891 55.27397 48.57144
#
# Velocity S-wave (km/s) = 4.63349 5.32381 4.99060
# Velocity P-wave (km/s) = 8.09965 8.65293 8.38086
#
# Compressibility (1/GPa) = 0.01386667
#
# Stress axis : x y z
#
# Youngs Moduli (GPa) = 78.69518 87.83614 89.90974
#
# Poissons Ratio (x) = 0.40091 0.29678
# Poissons Ratio (y) = 0.35918 0.25253
# Poissons Ratio (z) = 0.25976 0.24671
#
# Static dielectric constant tensor:
#      x y z
#    x 3.653370 0.000000 0.000000 
#    y 0.000000 3.808870 0.000000 
#    z 0.000000 0.000000 3.579040 
# 
# 
# High freq. dielectric constant tensor:
#      x y z
#    x 1.764970 0.000000 0.000000 
#    y 0.000000 1.777210 0.000000 
#    z 0.000000 0.000000 1.756020 
# 
# From -- ./inp_files/28819.got.cif
#   From: 2010.06.25/outbox.cif.g09.slc.cpg/sg52_15_cif.got.tgz:28819.got - 2010.06.26 19:32:48.
