data_PCOD8216168
_publ_section_title
;
Structure prediction by ZEFSAII (Michael W. Deem and Ramdas Pophale) SiO2 
 PCOD8216168
Probable space group: P N N A
;
_chemical_formula_sum "Si O2"
_cell_formula_units_Z 32
_cell_length_a 11.594081
_cell_length_b 4.941378
_cell_length_c 27.417291
_cell_angle_alpha 90.000000
_cell_angle_beta 90.000000
_cell_angle_gamma 90.000000
_cell_volume 1570.756802
_symmetry_space_group_name_H-M "P N N A"
_symmetry_group_IT_number 52
_symmetry_cell_setting 'orthorhombic'
loop_
_space_group_symop_operation_xyz
x,y,z
1/2-x,-y,z
x,1/2-y,1/2-z
1/2-x,1/2+y,1/2-z
-x,-y,-z
1/2+x,y,-z
-x,1/2+y,1/2+z
1/2+x,1/2-y,1/2+z
loop_
_atom_site_type_symbol
_atom_site_label
_atom_site_fract_x
_atom_site_fract_y
_atom_site_fract_z
Si Si1 0.324444 0.247147 0.527699
Si Si2 0.001662 0.835825 0.609723
Si Si3 0.829532 0.254607 0.193823
Si Si4 0.369609 0.154589 0.078747
O O1 0.250000 0.500000 0.548608
O O2 0.401110 0.106112 0.569245
O O3 0.392263 0.340409 0.479305
O O4 0.250000 0.000000 0.506781
O O5 0.054028 0.813637 0.663750
O O6 0.967680 0.528943 0.600733
O O7 0.894522 0.049420 0.603660
O O8 0.750000 0.500000 0.181006
O O9 0.868466 0.250000 0.250000
O O10 0.750000 0.000000 0.179063
O O11 0.250000 0.000000 0.091695
#
# Coordination Sequence:
#
# PCOD8216168 Si02
#       4
#     8   8   8   8
#     4  11  21  35  54  82 115 145 183 228 277 331
#     4  12  21  36  59  81 110 150 188 222 276 334
#     4  10  21  38  60  89 117 138 171 226 288 345
#     4  11  23  37  52  78 113 151 192 230 264 312
#
# _framework density 20.372346
#
# number of rings (size 3 to 8) (size 9 to 14) (size 15 to 20)
#    0.000    1.000    0.000    9.750    0.000    0.000 
#    0.000    0.000    0.000    3.000    0.000    1.750 
#    0.000    0.000    0.000    0.000    0.000    0.000 
#
# Total GULP energy -396474.076928 kJ/mol
# GULP energy per Si atom -12389.814904 kJ/mol
# Density = 2.032598 g / cm^3
# Si number density = 20.372346 Si / 1000 Ang^3
#
#
#
# Elastic Constant Matrix: (Units=GPa)
#
#
# Indices 1 2 3 4 5 6 
#
# 1 71.1368 29.3785 51.8312 0.0000 0.0000 0.0000
# 2 29.3785 128.7066 28.6192 0.0000 0.0000 0.0000
# 3 51.8312 28.6192 106.4099 0.0000 0.0000 0.0000
# 4 0.0000 0.0000 0.0000 35.2649 0.0000 0.0000
# 5 0.0000 0.0000 0.0000 0.0000 36.6967 0.0000
# 6 0.0000 0.0000 0.0000 0.0000 0.0000 63.5235
#
#
#
# Elastic Compliance Matrix: (Units=1/GPa)
#
#
# Indices 1 2 3 4 5 6 
#
# 1 0.022768 -0.002905 -0.010309 0.000000 0.000000 0.000000
# 2 -0.002905 0.008634 -0.000907 0.000000 0.000000 0.000000
# 3 -0.010309 -0.000907 0.014663 0.000000 0.000000 0.000000
# 4 0.000000 0.000000 0.000000 0.028357 0.000000 0.000000
# 5 0.000000 0.000000 0.000000 0.000000 0.027250 0.000000
# 6 0.000000 0.000000 0.000000 0.000000 0.000000 0.015742
#
#
# Mechanical properties :
#
#
# Convention : Reuss Voigt Hill
#
# Bulk Modulus (GPa) = 56.10551 58.43458 57.27004
# Shear Modulus (GPa) = 32.98185 40.19198 36.58691
#
# Velocity S-wave (km/s) = 4.02799 4.44652 4.24242
# Velocity P-wave (km/s) = 7.01660 7.42345 7.22289
#
# Compressibility (1/GPa) = 0.01782356
#
# Stress axis : x y z
#
# Youngs Moduli (GPa) = 43.92073 115.81567 68.19866
#
# Poissons Ratio (x) = 0.33642 0.70306
# Poissons Ratio (y) = 0.12758 0.06188
# Poissons Ratio (z) = 0.45278 0.10509
#
# Static dielectric constant tensor:
#      x y z
#    x 3.681520 0.000000 0.000000 
#    y 0.000000 3.998550 0.000000 
#    z 0.000000 0.000000 3.398890 
# 
# 
# High freq. dielectric constant tensor:
#      x y z
#    x 1.784740 0.000000 0.000000 
#    y 0.000000 1.826530 0.000000 
#    z 0.000000 0.000000 1.771680 
# 
# From -- ./inp_files/44001.got.cif
#   From: 2010.06.25/outbox.cif.g09.slc.cpg/sg52_23_cif.got.tgz:44001.got - 2010.06.26 19:32:48.
