data_PCOD8216401
_publ_section_title
;
Structure prediction by ZEFSAII (Michael W. Deem and Ramdas Pophale) SiO2 
 PCOD8216401
Probable space group: P N N A
;
_chemical_formula_sum "Si O2"
_cell_formula_units_Z 40
_cell_length_a 14.690477
_cell_length_b 7.613996
_cell_length_c 17.048154
_cell_angle_alpha 90.000000
_cell_angle_beta 90.000000
_cell_angle_gamma 90.000000
_cell_volume 1906.891144
_symmetry_space_group_name_H-M "P N N A"
_symmetry_group_IT_number 52
_symmetry_cell_setting 'orthorhombic'
loop_
_space_group_symop_operation_xyz
x,y,z
1/2-x,-y,z
x,1/2-y,1/2-z
1/2-x,1/2+y,1/2-z
-x,-y,-z
1/2+x,y,-z
-x,1/2+y,1/2+z
1/2+x,1/2-y,1/2+z
loop_
_atom_site_type_symbol
_atom_site_label
_atom_site_fract_x
_atom_site_fract_y
_atom_site_fract_z
Si Si1 0.932314 0.176499 0.585037
Si Si2 0.495272 0.250000 0.250000
Si Si3 0.541671 0.274958 0.933606
Si Si4 0.575752 0.911809 0.197077
Si Si5 0.250000 0.500000 0.606283
Si Si6 0.243104 0.304052 0.013322
O O1 0.824761 0.201517 0.575110
O O2 0.942549 0.271383 0.668173
O O3 0.988276 0.271282 0.514631
O O4 0.970015 0.978300 0.588867
O O5 0.546014 0.435691 0.243043
O O6 0.502168 0.151957 0.864514
O O7 0.649732 0.245101 0.944460
O O8 0.608622 0.750000 0.250000
O O9 0.659506 0.007795 0.156411
O O10 0.260613 0.323580 0.557755
O O11 0.250000 0.500000 0.977121
#
# Coordination Sequence:
#
# PCOD8216401 Si02
#       6
#     8   4   8   8   4   8
#     4  10  21  43  69 101 134 179 233 282 344 414
#     4  12  26  42  68 100 138 184 224 294 352 408
#     4  10  21  45  71  92 140 182 228 285 344 416
#     4  12  27  46  66 102 143 185 233 287 356 415
#     4  12  26  42  70 100 134 180 234 284 348 430
#     4  10  23  42  70 103 131 178 231 287 343 411
#
# _framework density 20.976551000000001
#
# number of rings (size 3 to 8) (size 9 to 14) (size 15 to 20)
#    0.000    1.200    4.000    1.200    4.200    3.200 
#    1.800    0.000    0.000    0.000    0.000    0.000 
#    0.000    0.000    0.000    0.000    0.000    0.000 
#
# Total GULP energy -495705.378823 kJ/mol
# GULP energy per Si atom -12392.634471 kJ/mol
# Density = 2.092881 g / cm^3
# Si number density = 20.976551 Si / 1000 Ang^3
#
#
#
# Elastic Constant Matrix: (Units=GPa)
#
#
# Indices 1 2 3 4 5 6 
#
# 1 108.2876 21.8510 23.9221 0.0000 0.0000 0.0000
# 2 21.8510 103.0647 37.0411 0.0000 0.0000 0.0000
# 3 23.9221 37.0411 100.5521 0.0000 0.0000 0.0000
# 4 0.0000 0.0000 0.0000 5.2013 0.0000 0.0000
# 5 0.0000 0.0000 0.0000 0.0000 -25.9474 0.0000
# 6 0.0000 0.0000 0.0000 0.0000 0.0000 38.6121
#
#
#
# Elastic Compliance Matrix: (Units=1/GPa)
#
#
# Indices 1 2 3 4 5 6 
#
# 1 0.009931 -0.001448 -0.001829 0.000000 0.000000 0.000000
# 2 -0.001448 0.011394 -0.003853 0.000000 0.000000 0.000000
# 3 -0.001829 -0.003853 0.011800 0.000000 0.000000 0.000000
# 4 0.000000 0.000000 0.000000 0.192258 0.000000 0.000000
# 5 0.000000 0.000000 0.000000 0.000000 -0.038539 0.000000
# 6 0.000000 0.000000 0.000000 0.000000 0.000000 0.025899
#
#
# Mechanical properties :
#
#
# Convention : Reuss Voigt Hill
#
# Bulk Modulus (GPa) = 53.00953 53.05920 53.03437
# Shear Modulus (GPa) = 21.43249 18.84588 20.13919
#
# Velocity S-wave (km/s) = 3.19993 3.00063 3.10188
# Velocity P-wave (km/s) = 6.24327 6.11183 6.17790
#
# Compressibility (1/GPa) = 0.01886453
#
# Stress axis : x y z
#
# Youngs Moduli (GPa) = 100.69511 87.76251 84.74861
#
# Poissons Ratio (x) = 0.12709 0.15502
# Poissons Ratio (y) = 0.14581 0.32653
# Poissons Ratio (z) = 0.18419 0.33814
#
# Static dielectric constant tensor:
#      x y z
#    x 3.611460 0.000000 0.000000 
#    y 0.000000 3.944680 0.000000 
#    z 0.000000 0.000000 3.675920 
# 
# 
# High freq. dielectric constant tensor:
#      x y z
#    x 1.821050 0.000000 0.000000 
#    y 0.000000 1.837000 0.000000 
#    z 0.000000 0.000000 1.816680 
# 
# From -- ./inp_files/26969.got.cif
#   From: 2010.06.25/outbox.cif.g09.slc.cpg/sg52_14_cif.got.tgz:26969.got - 2010.06.26 19:32:48.
