data_PCOD8216552
_publ_section_title
;
Structure prediction by ZEFSAII (Michael W. Deem and Ramdas Pophale) SiO2 
 PCOD8216552
Probable space group: P N N A
;
_chemical_formula_sum "Si O2"
_cell_formula_units_Z 60
_cell_length_a 8.538947
_cell_length_b 25.901807
_cell_length_c 11.948813
_cell_angle_alpha 90.000000
_cell_angle_beta 90.000000
_cell_angle_gamma 90.000000
_cell_volume 2642.768645
_symmetry_space_group_name_H-M "P N N A"
_symmetry_group_IT_number 52
_symmetry_cell_setting 'orthorhombic'
loop_
_space_group_symop_operation_xyz
x,y,z
1/2-x,-y,z
x,1/2-y,1/2-z
1/2-x,1/2+y,1/2-z
-x,-y,-z
1/2+x,y,-z
-x,1/2+y,1/2+z
1/2+x,1/2-y,1/2+z
loop_
_atom_site_type_symbol
_atom_site_label
_atom_site_fract_x
_atom_site_fract_y
_atom_site_fract_z
Si Si1 0.949923 0.250000 0.750000
Si Si2 0.432790 0.173543 0.935228
Si Si3 0.548740 0.113755 0.729083
Si Si4 0.548787 0.102611 0.349384
Si Si5 0.363647 0.353037 0.324278
Si Si6 0.654053 0.648608 0.041360
Si Si7 0.936224 0.995757 0.624885
Si Si8 0.828565 0.752632 0.052860
O O1 0.834546 0.292621 0.699611
O O2 0.056802 0.270671 0.852995
O O3 0.466218 0.130099 0.843984
O O4 0.292126 0.208382 0.888751
O O5 0.377426 0.140072 0.043007
O O6 0.577691 0.212929 0.960646
O O7 0.732010 0.114727 0.759351
O O8 0.490805 0.153212 0.630549
O O9 0.507181 0.056276 0.687361
O O10 0.531426 0.133124 0.231967
O O11 0.717505 0.110721 0.404035
O O12 0.408906 0.121414 0.430969
O O13 0.520159 0.043401 0.313722
O O14 0.730025 0.703706 0.005208
O O15 0.750000 0.000000 0.626795
O O16 0.000000 0.000000 0.500000
#
# Coordination Sequence:
#
# PCOD8216552 Si02
#       8
#     4   8   8   8   8   8   8   8
#     4  10  22  40  66  92 142 192 236 278 346 408
#     4  11  25  44  69  98 144 194 236 284 351 426
#     4  12  26  45  73 102 137 189 241 295 363 421
#     4  12  24  43  69  99 142 181 230 298 355 419
#     4  11  24  44  66  99 141 189 234 288 349 425
#     4  12  25  41  71 107 142 184 238 287 360 432
#     4  12  25  47  72 103 139 180 232 300 368 425
#     4  11  22  42  64 101 146 189 233 285 341 428
#
# _framework density 22.703464
#
# number of rings (size 3 to 8) (size 9 to 14) (size 15 to 20)
#    0.000    0.533    5.333    3.200    3.733    1.067 
#    0.000    0.667    0.000    0.000    0.000    0.000 
#    0.000    0.000    0.000    0.000    0.000    0.000 
#
# Total GULP energy -743601.588809 kJ/mol
# GULP energy per Si atom -12393.359813 kJ/mol
# Density = 2.265179 g / cm^3
# Si number density = 22.703464 Si / 1000 Ang^3
#
#
#
# Elastic Constant Matrix: (Units=GPa)
#
#
# Indices 1 2 3 4 5 6 
#
# 1 75.3202 31.7935 14.7090 0.0000 0.0000 0.0000
# 2 31.7935 119.1203 50.1466 0.0000 0.0000 0.0000
# 3 14.7090 50.1466 109.2956 0.0000 0.0000 0.0000
# 4 0.0000 0.0000 0.0000 40.7617 0.0000 0.0000
# 5 0.0000 0.0000 0.0000 0.0000 31.4826 0.0000
# 6 0.0000 0.0000 0.0000 0.0000 0.0000 36.8519
#
#
#
# Elastic Compliance Matrix: (Units=1/GPa)
#
#
# Indices 1 2 3 4 5 6 
#
# 1 0.014967 -0.003900 -0.000225 0.000000 0.000000 0.000000
# 2 -0.003900 0.011421 -0.004715 0.000000 0.000000 0.000000
# 3 -0.000225 -0.004715 0.011343 0.000000 0.000000 0.000000
# 4 0.000000 0.000000 0.000000 0.024533 0.000000 0.000000
# 5 0.000000 0.000000 0.000000 0.000000 0.031764 0.000000
# 6 0.000000 0.000000 0.000000 0.000000 0.000000 0.027136
#
#
# Mechanical properties :
#
#
# Convention : Reuss Voigt Hill
#
# Bulk Modulus (GPa) = 49.87367 55.22605 52.54986
# Shear Modulus (GPa) = 34.35803 35.62504 34.99154
#
# Velocity S-wave (km/s) = 3.89439 3.96554 3.93012
# Velocity P-wave (km/s) = 6.49898 6.73388 6.61747
#
# Compressibility (1/GPa) = 0.02005066
#
# Stress axis : x y z
#
# Youngs Moduli (GPa) = 66.81454 87.55980 88.15893
#
# Poissons Ratio (x) = 0.34149 0.01982
# Poissons Ratio (y) = 0.26058 0.41568
# Poissons Ratio (z) = 0.01502 0.41286
#
# Static dielectric constant tensor:
#      x y z
#    x 4.375520 0.000000 0.000000 
#    y 0.000000 4.610200 0.000000 
#    z 0.000000 0.000000 4.062190 
# 
# 
# High freq. dielectric constant tensor:
#      x y z
#    x 1.911190 0.000000 0.000000 
#    y 0.000000 1.884730 0.000000 
#    z 0.000000 0.000000 1.887430 
# 
# From -- ./inp_files/17157.got.cif
#   From: 2010.06.25/outbox.cif.g09.slc.cpg/sg52_9_cif.got.tgz:17157.got - 2010.06.26 19:32:48.
