data_PCOD8216992
_publ_section_title
;
Structure prediction by ZEFSAII (Michael W. Deem and Ramdas Pophale) SiO2 
 PCOD8216992
Probable space group: P N N A
;
_chemical_formula_sum "Si O2"
_cell_formula_units_Z 40
_cell_length_a 9.381464
_cell_length_b 8.780530
_cell_length_c 26.042434
_cell_angle_alpha 90.000000
_cell_angle_beta 90.000000
_cell_angle_gamma 90.000000
_cell_volume 2145.225346
_symmetry_space_group_name_H-M "P N N A"
_symmetry_group_IT_number 52
_symmetry_cell_setting 'orthorhombic'
loop_
_space_group_symop_operation_xyz
x,y,z
1/2-x,-y,z
x,1/2-y,1/2-z
1/2-x,1/2+y,1/2-z
-x,-y,-z
1/2+x,y,-z
-x,1/2+y,1/2+z
1/2+x,1/2-y,1/2+z
loop_
_atom_site_type_symbol
_atom_site_label
_atom_site_fract_x
_atom_site_fract_y
_atom_site_fract_z
Si Si1 0.611369 0.412100 0.730708
Si Si2 0.389067 0.896835 0.713186
Si Si3 0.692423 0.339556 0.101618
Si Si4 0.886715 0.093669 0.143165
Si Si5 0.404573 0.934407 0.954970
O O1 0.750000 0.500000 0.710004
O O2 0.666394 0.250000 0.750000
O O3 0.532809 0.510676 0.774328
O O4 0.499343 0.376054 0.686580
O O5 0.375422 0.750000 0.750000
O O6 0.404621 0.852642 0.653029
O O7 0.250000 0.000000 0.721599
O O8 0.750000 0.500000 0.079861
O O9 0.835153 0.251993 0.119177
O O10 0.608911 0.249366 0.055272
O O11 0.750000 0.000000 0.164890
O O12 0.964977 0.998197 0.098613
O O13 0.250000 0.000000 0.966247
O O14 0.500000 0.000000 0.000000
#
# Coordination Sequence:
#
# PCOD8216992 Si02
#       5
#     8   8   8   8   8
#     4  12  24  35  49  76 114 148 179 218 266 315
#     4  11  19  32  55  80 105 141 181 219 260 314
#     4   9  17  31  56  82 103 130 176 226 260 304
#     4   9  19  36  56  77 101 137 181 216 256 319
#     4   9  19  36  56  77 101 134 175 215 263 320
#
# _framework density 18.646061
#
# number of rings (size 3 to 8) (size 9 to 14) (size 15 to 20)
#    0.000    2.400    0.000    7.800    0.000    1.600 
#    0.000    4.000    0.000    1.200    0.000    0.000 
#    0.000    0.000    0.000    0.000    0.000    0.000 
#
# Total GULP energy -495597.845888 kJ/mol
# GULP energy per Si atom -12389.946147 kJ/mol
# Density = 1.860362 g / cm^3
# Si number density = 18.646061 Si / 1000 Ang^3
#
#
#
# Elastic Constant Matrix: (Units=GPa)
#
#
# Indices 1 2 3 4 5 6 
#
# 1 63.2478 35.4306 30.4794 0.0000 0.0000 0.0000
# 2 35.4306 148.6137 39.5473 0.0000 0.0000 0.0000
# 3 30.4794 39.5473 85.7439 0.0000 0.0000 0.0000
# 4 0.0000 0.0000 0.0000 20.8055 0.0000 0.0000
# 5 0.0000 0.0000 0.0000 0.0000 20.0691 0.0000
# 6 0.0000 0.0000 0.0000 0.0000 0.0000 21.3263
#
#
#
# Elastic Compliance Matrix: (Units=1/GPa)
#
#
# Indices 1 2 3 4 5 6 
#
# 1 0.020446 -0.003352 -0.005722 0.000000 0.000000 0.000000
# 2 -0.003352 0.008220 -0.002600 0.000000 0.000000 0.000000
# 3 -0.005722 -0.002600 0.014896 0.000000 0.000000 0.000000
# 4 0.000000 0.000000 0.000000 0.048064 0.000000 0.000000
# 5 0.000000 0.000000 0.000000 0.000000 0.049828 0.000000
# 6 0.000000 0.000000 0.000000 0.000000 0.000000 0.046890
#
#
# Mechanical properties :
#
#
# Convention : Reuss Voigt Hill
#
# Bulk Modulus (GPa) = 49.46968 56.50221 52.98594
# Shear Modulus (GPa) = 22.89072 25.25004 24.07038
#
# Velocity S-wave (km/s) = 3.50758 3.68390 3.59682
# Velocity P-wave (km/s) = 6.55688 6.96155 6.76224
#
# Compressibility (1/GPa) = 0.02021440
#
# Stress axis : x y z
#
# Youngs Moduli (GPa) = 48.90953 121.65826 67.13356
#
# Poissons Ratio (x) = 0.40777 0.38414
# Poissons Ratio (y) = 0.16393 0.17453
# Poissons Ratio (z) = 0.27986 0.31627
#
# Static dielectric constant tensor:
#      x y z
#    x 3.178160 0.000000 0.000000 
#    y 0.000000 3.819260 0.000000 
#    z 0.000000 0.000000 3.481390 
# 
# 
# High freq. dielectric constant tensor:
#      x y z
#    x 1.693350 0.000000 0.000000 
#    y 0.000000 1.745590 0.000000 
#    z 0.000000 0.000000 1.704490 
# 
# From -- ./inp_files/42098.got.cif
#   From: 2010.06.25/outbox.cif.g09.slc.cpg/sg52_22_cif.got.tgz:42098.got - 2010.06.26 19:32:48.
