data_PCOD8216054
_publ_section_title
;
Structure prediction by ZEFSAII (Michael W. Deem and Ramdas Pophale) SiO2 
 PCOD8216054
Probable space group: P N N A
;
_chemical_formula_sum "Si O2"
_cell_formula_units_Z 52
_cell_length_a 21.459278
_cell_length_b 24.518831
_cell_length_c 5.025198
_cell_angle_alpha 90.000000
_cell_angle_beta 90.000000
_cell_angle_gamma 90.000000
_cell_volume 2644.040143
_symmetry_space_group_name_H-M "P N N A"
_symmetry_group_IT_number 52
_symmetry_cell_setting 'orthorhombic'
loop_
_space_group_symop_operation_xyz
x,y,z
1/2-x,-y,z
x,1/2-y,1/2-z
1/2-x,1/2+y,1/2-z
-x,-y,-z
1/2+x,y,-z
-x,1/2+y,1/2+z
1/2+x,1/2-y,1/2+z
loop_
_atom_site_type_symbol
_atom_site_label
_atom_site_fract_x
_atom_site_fract_y
_atom_site_fract_z
Si Si1 0.578448 0.902888 0.286451
Si Si2 0.895101 0.337266 0.699210
Si Si3 0.996873 0.250000 0.750000
Si Si4 0.609025 0.203387 0.553175
Si Si5 0.209661 0.250000 0.750000
Si Si6 0.936255 0.980726 0.137019
Si Si7 0.936543 0.588544 0.828252
Si Si8 0.705947 0.750000 0.750000
O O1 0.591415 0.884051 0.585795
O O2 0.505213 0.896352 0.221781
O O3 0.599774 0.965962 0.246340
O O4 0.618312 0.866372 0.081469
O O5 0.953922 0.298269 0.639063
O O6 0.836496 0.302880 0.804085
O O7 0.040182 0.223265 0.526537
O O8 0.635827 0.250000 0.750000
O O9 0.661307 0.200404 0.319358
O O10 0.604942 0.142856 0.667536
O O11 0.253211 0.265029 0.504301
O O12 0.944991 0.940204 0.386233
O O13 0.901800 0.949140 0.894391
O O14 0.000000 0.000000 0.000000
#
# Coordination Sequence:
#
# PCOD8216054 Si02
#       8
#     8   8   4   8   4   8   8   4
#     4  11  19  35  54  85 120 157 195 224 287 345
#     4  11  22  35  60  84 119 157 185 240 293 348
#     4  10  22  32  52  90 122 150 182 232 292 364
#     4  11  23  37  61  86 121 154 194 235 301 347
#     4  11  24  43  60  79 120 151 204 248 280 359
#     4  10  21  33  52  80 126 165 192 227 274 348
#     4  11  21  34  55  85 126 160 190 229 285 352
#     4  11  24  43  58  87 116 151 206 242 294 349
#
# _framework density 19.666872000000001
#
# number of rings (size 3 to 8) (size 9 to 14) (size 15 to 20)
#    0.000    1.231    2.308    6.462    4.308    1.231 
#    0.000    0.000    0.000    0.000    0.000   16.154 
#    0.000    0.000    0.000    0.000    0.000    0.000 
#
# Total GULP energy -644425.652183 kJ/mol
# GULP energy per Si atom -12392.801004 kJ/mol
# Density = 1.962211 g / cm^3
# Si number density = 19.666872 Si / 1000 Ang^3
#
#
#
# Elastic Constant Matrix: (Units=GPa)
#
#
# Indices 1 2 3 4 5 6 
#
# 1 73.8276 33.9571 24.0718 0.0000 0.0000 0.0000
# 2 33.9571 141.0178 53.3723 0.0000 0.0000 0.0000
# 3 24.0718 53.3723 113.5963 0.0000 0.0000 0.0000
# 4 0.0000 0.0000 0.0000 44.3999 0.0000 0.0000
# 5 0.0000 0.0000 0.0000 0.0000 26.3376 0.0000
# 6 0.0000 0.0000 0.0000 0.0000 0.0000 5.7615
#
#
#
# Elastic Compliance Matrix: (Units=1/GPa)
#
#
# Indices 1 2 3 4 5 6 
#
# 1 0.015551 -0.003038 -0.001868 0.000000 0.000000 0.000000
# 2 -0.003038 0.009218 -0.003688 0.000000 0.000000 0.000000
# 3 -0.001868 -0.003688 0.010932 0.000000 0.000000 0.000000
# 4 0.000000 0.000000 0.000000 0.022523 0.000000 0.000000
# 5 0.000000 0.000000 0.000000 0.000000 0.037969 0.000000
# 6 0.000000 0.000000 0.000000 0.000000 0.000000 0.173567
#
#
# Mechanical properties :
#
#
# Convention : Reuss Voigt Hill
#
# Bulk Modulus (GPa) = 54.01157 61.24935 57.63046
# Shear Modulus (GPa) = 17.05798 29.76915 23.41357
#
# Velocity S-wave (km/s) = 2.94827 3.89481 3.45412
# Velocity P-wave (km/s) = 6.25400 7.17197 6.72866
#
# Compressibility (1/GPa) = 0.01851455
#
# Stress axis : x y z
#
# Youngs Moduli (GPa) = 64.30292 108.47834 91.47848
#
# Poissons Ratio (x) = 0.32953 0.17090
# Poissons Ratio (y) = 0.19533 0.33733
# Poissons Ratio (z) = 0.12013 0.40001
#
# Static dielectric constant tensor:
#      x y z
#    x 3.273590 0.000000 0.000000 
#    y 0.000000 3.976360 0.000000 
#    z 0.000000 0.000000 3.939230 
# 
# 
# High freq. dielectric constant tensor:
#      x y z
#    x 1.712760 0.000000 0.000000 
#    y 0.000000 1.774070 0.000000 
#    z 0.000000 0.000000 1.784730 
# 
# From -- ./inp_files/4467.got.cif
#   From: 2010.06.25/outbox.cif.g09.slc.cpg/sg52_3_cif.got.tgz:4467.got - 2010.06.26 19:32:48.
