data_PCOD8216305
_publ_section_title
;
Structure prediction by ZEFSAII (Michael W. Deem and Ramdas Pophale) SiO2 
 PCOD8216305
Probable space group: P N N A
;
_chemical_formula_sum "Si O2"
_cell_formula_units_Z 44
_cell_length_a 6.337960
_cell_length_b 11.137898
_cell_length_c 26.845163
_cell_angle_alpha 90.000000
_cell_angle_beta 90.000000
_cell_angle_gamma 90.000000
_cell_volume 1895.041720
_symmetry_space_group_name_H-M "P N N A"
_symmetry_group_IT_number 52
_symmetry_cell_setting 'orthorhombic'
loop_
_space_group_symop_operation_xyz
x,y,z
1/2-x,-y,z
x,1/2-y,1/2-z
1/2-x,1/2+y,1/2-z
-x,-y,-z
1/2+x,y,-z
-x,1/2+y,1/2+z
1/2+x,1/2-y,1/2+z
loop_
_atom_site_type_symbol
_atom_site_label
_atom_site_fract_x
_atom_site_fract_y
_atom_site_fract_z
Si Si1 0.659887 0.750000 0.750000
Si Si2 0.641860 0.617295 0.904370
Si Si3 0.480497 0.592924 0.434709
Si Si4 0.437736 0.834361 0.960284
Si Si5 0.065724 0.229597 0.160264
Si Si6 0.339318 0.877750 0.681840
O O1 0.810816 0.814426 0.790540
O O2 0.515886 0.845081 0.721881
O O3 0.750000 0.500000 0.930790
O O4 0.566344 0.716203 0.944390
O O5 0.822490 0.658231 0.866128
O O6 0.434900 0.589180 0.872076
O O7 0.385073 0.672945 0.480428
O O8 0.077347 0.546515 0.447196
O O9 0.405478 0.621321 0.379107
O O10 0.723977 0.636100 0.431424
O O11 0.829435 0.269702 0.175409
O O12 0.250000 0.000000 0.704658
#
# Coordination Sequence:
#
# PCOD8216305 Si02
#       6
#     4   8   8   8   8   8
#     4  10  26  42  70 104 126 176 244 290 352 412
#     4  11  22  39  67 102 134 185 231 279 344 425
#     4  10  21  40  69  97 143 183 220 291 352 420
#     4  10  21  40  66 104 139 182 230 279 354 426
#     4  11  22  43  70  97 137 178 229 291 343 419
#     4  11  22  45  70  95 140 187 225 288 363 418
#
# _framework density 23.218489000000002
#
# number of rings (size 3 to 8) (size 9 to 14) (size 15 to 20)
#    0.000    1.455    3.636    1.636    0.000    2.182 
#    0.000   17.273    0.000    0.000    0.000    0.000 
#    0.000    0.000    0.000    0.000    0.000    0.000 
#
# Total GULP energy -545225.980155 kJ/mol
# GULP energy per Si atom -12391.499549 kJ/mol
# Density = 2.316564 g / cm^3
# Si number density = 23.218489 Si / 1000 Ang^3
#
#
#
# Elastic Constant Matrix: (Units=GPa)
#
#
# Indices 1 2 3 4 5 6 
#
# 1 97.1413 53.5744 54.8308 0.0000 0.0000 0.0000
# 2 53.5744 138.2773 69.4690 0.0000 0.0000 0.0000
# 3 54.8308 69.4690 173.9727 0.0000 0.0000 0.0000
# 4 0.0000 0.0000 0.0000 28.0039 0.0000 0.0000
# 5 0.0000 0.0000 0.0000 0.0000 35.1398 0.0000
# 6 0.0000 0.0000 0.0000 0.0000 0.0000 42.0926
#
#
#
# Elastic Compliance Matrix: (Units=1/GPa)
#
#
# Indices 1 2 3 4 5 6 
#
# 1 0.014128 -0.004049 -0.002836 0.000000 0.000000 0.000000
# 2 -0.004049 0.010207 -0.002800 0.000000 0.000000 0.000000
# 3 -0.002836 -0.002800 0.007760 0.000000 0.000000 0.000000
# 4 0.000000 0.000000 0.000000 0.035709 0.000000 0.000000
# 5 0.000000 0.000000 0.000000 0.000000 0.028458 0.000000
# 6 0.000000 0.000000 0.000000 0.000000 0.000000 0.023757
#
#
# Mechanical properties :
#
#
# Convention : Reuss Voigt Hill
#
# Bulk Modulus (GPa) = 78.58119 85.01553 81.79836
# Shear Modulus (GPa) = 34.81153 36.48171 35.64662
#
# Velocity S-wave (km/s) = 3.87628 3.96818 3.92250
# Velocity P-wave (km/s) = 7.34519 7.59541 7.47135
#
# Compressibility (1/GPa) = 0.01272569
#
# Stress axis : x y z
#
# Youngs Moduli (GPa) = 70.78086 97.97043 128.87018
#
# Poissons Ratio (x) = 0.39669 0.36546
# Poissons Ratio (y) = 0.28660 0.36079
# Poissons Ratio (z) = 0.20073 0.27428
#
# Static dielectric constant tensor:
#      x y z
#    x 4.611860 0.000000 0.000000 
#    y 0.000000 3.829820 0.000000 
#    z 0.000000 0.000000 4.071730 
# 
# 
# High freq. dielectric constant tensor:
#      x y z
#    x 1.954750 0.000000 0.000000 
#    y 0.000000 1.888930 0.000000 
#    z 0.000000 0.000000 1.907480 
# 
# From -- ./inp_files/41628.got.cif
#   From: 2010.06.25/outbox.cif.g09.slc.cpg/sg52_21_cif.got.tgz:41628.got - 2010.06.26 19:32:48.
