data_PCOD8216234
_publ_section_title
;
Structure prediction by ZEFSAII (Michael W. Deem and Ramdas Pophale) SiO2 
 PCOD8216234
Probable space group: P N N A
;
_chemical_formula_sum "Si O2"
_cell_formula_units_Z 40
_cell_length_a 18.804461
_cell_length_b 12.038160
_cell_length_c 8.360712
_cell_angle_alpha 90.000000
_cell_angle_beta 90.000000
_cell_angle_gamma 90.000000
_cell_volume 1892.623658
_symmetry_space_group_name_H-M "P N N A"
_symmetry_group_IT_number 52
_symmetry_cell_setting 'orthorhombic'
loop_
_space_group_symop_operation_xyz
x,y,z
1/2-x,-y,z
x,1/2-y,1/2-z
1/2-x,1/2+y,1/2-z
-x,-y,-z
1/2+x,y,-z
-x,1/2+y,1/2+z
1/2+x,1/2-y,1/2+z
loop_
_atom_site_type_symbol
_atom_site_label
_atom_site_fract_x
_atom_site_fract_y
_atom_site_fract_z
Si Si1 0.903410 0.412626 0.407185
Si Si2 0.415151 0.191775 0.420806
Si Si3 0.832745 0.488455 0.095908
Si Si4 0.934556 0.906662 0.864797
Si Si5 0.571978 0.330061 0.986491
O O1 0.897513 0.282992 0.445525
O O2 0.846594 0.435697 0.269380
O O3 0.889868 0.489562 0.564337
O O4 0.982801 0.439636 0.347605
O O5 0.405000 0.250000 0.250000
O O6 0.362683 0.088729 0.451887
O O7 0.493982 0.141566 0.444927
O O8 0.750000 0.500000 0.065982
O O9 0.869774 0.610301 0.097781
O O10 0.921289 0.803383 0.985481
O O11 0.909914 0.877365 0.688404
#
# Coordination Sequence:
#
# PCOD8216234 Si02
#       5
#     8   8   8   8   8
#     4  10  21  39  63  96 127 164 211 271 334 374
#     4  11  23  42  69  96 127 171 221 278 325 382
#     4  12  26  43  61  96 138 179 214 265 332 404
#     4   9  19  38  67  97 123 158 218 279 313 378
#     4  10  21  39  67  98 127 162 219 270 321 381
#
# _framework density 21.134682000000002
#
# number of rings (size 3 to 8) (size 9 to 14) (size 15 to 20)
#    0.000    1.600    2.000    2.400    8.400    0.000 
#   10.800    2.000    0.000    0.000    0.000    0.000 
#    0.000    0.000    0.000    0.000    0.000    0.000 
#
# Total GULP energy -495975.760720 kJ/mol
# GULP energy per Si atom -12399.394018 kJ/mol
# Density = 2.108658 g / cm^3
# Si number density = 21.134682 Si / 1000 Ang^3
#
#
#
# Elastic Constant Matrix: (Units=GPa)
#
#
# Indices 1 2 3 4 5 6 
#
# 1 126.2312 53.7429 26.0140 0.0000 0.0000 0.0000
# 2 53.7429 88.2281 4.7498 0.0000 0.0000 0.0000
# 3 26.0140 4.7498 63.0021 0.0000 0.0000 0.0000
# 4 0.0000 0.0000 0.0000 37.8318 0.0000 0.0000
# 5 0.0000 0.0000 0.0000 0.0000 14.7275 0.0000
# 6 0.0000 0.0000 0.0000 0.0000 0.0000 11.4936
#
#
#
# Elastic Compliance Matrix: (Units=1/GPa)
#
#
# Indices 1 2 3 4 5 6 
#
# 1 0.011768 -0.006935 -0.004336 0.000000 0.000000 0.000000
# 2 -0.006935 0.015467 0.001697 0.000000 0.000000 0.000000
# 3 -0.004336 0.001697 0.017535 0.000000 0.000000 0.000000
# 4 0.000000 0.000000 0.000000 0.026433 0.000000 0.000000
# 5 0.000000 0.000000 0.000000 0.000000 0.067900 0.000000
# 6 0.000000 0.000000 0.000000 0.000000 0.000000 0.087005
#
#
# Mechanical properties :
#
#
# Convention : Reuss Voigt Hill
#
# Bulk Modulus (GPa) = 39.02800 49.60829 44.31814
# Shear Modulus (GPa) = 19.70079 25.67422 22.68751
#
# Velocity S-wave (km/s) = 3.05643 3.48917 3.27994
# Velocity P-wave (km/s) = 5.56436 6.30522 5.94634
#
# Compressibility (1/GPa) = 0.02562263
#
# Stress axis : x y z
#
# Youngs Moduli (GPa) = 84.97498 64.65286 57.02876
#
# Poissons Ratio (x) = 0.44837 0.24729
# Poissons Ratio (y) = 0.58930 -0.09680
# Poissons Ratio (z) = 0.36848 -0.10974
#
# Static dielectric constant tensor:
#      x y z
#    x 3.279510 0.000000 0.000000 
#    y 0.000000 4.164440 0.000000 
#    z 0.000000 0.000000 3.803990 
# 
# 
# High freq. dielectric constant tensor:
#      x y z
#    x 1.768790 0.000000 0.000000 
#    y 0.000000 1.851900 0.000000 
#    z 0.000000 0.000000 1.834120 
# 
# From -- ./inp_files/11589.got.cif
#   From: 2010.06.25/outbox.cif.g09.slc.cpg/sg52_6_cif.got.tgz:11589.got - 2010.06.26 19:32:48.
