data_PCOD8216602
_publ_section_title
;
Structure prediction by ZEFSAII (Michael W. Deem and Ramdas Pophale) SiO2 
 PCOD8216602
Probable space group: P N N A
;
_chemical_formula_sum "Si O2"
_cell_formula_units_Z 48
_cell_length_a 14.176935
_cell_length_b 11.632702
_cell_length_c 14.406434
_cell_angle_alpha 90.000000
_cell_angle_beta 90.000000
_cell_angle_gamma 90.000000
_cell_volume 2375.852336
_symmetry_space_group_name_H-M "P N N A"
_symmetry_group_IT_number 52
_symmetry_cell_setting 'orthorhombic'
loop_
_space_group_symop_operation_xyz
x,y,z
1/2-x,-y,z
x,1/2-y,1/2-z
1/2-x,1/2+y,1/2-z
-x,-y,-z
1/2+x,y,-z
-x,1/2+y,1/2+z
1/2+x,1/2-y,1/2+z
loop_
_atom_site_type_symbol
_atom_site_label
_atom_site_fract_x
_atom_site_fract_y
_atom_site_fract_z
Si Si1 0.750000 0.500000 0.886766
Si Si2 0.410152 0.129276 0.701564
Si Si3 0.074852 0.553151 0.219549
Si Si4 0.812255 0.308158 0.027084
Si Si5 0.560661 0.710205 0.612300
Si Si6 0.645983 0.203048 0.144714
Si Si7 0.250000 0.500000 0.704328
O O1 0.838188 0.522933 0.818090
O O2 0.767141 0.391741 0.951847
O O3 0.440264 0.250000 0.750000
O O4 0.395888 0.138826 0.590614
O O5 0.484245 0.028924 0.721753
O O6 0.306712 0.094024 0.736740
O O7 0.092308 0.605442 0.321570
O O8 0.064175 0.661806 0.153353
O O9 0.726438 0.272411 0.092250
O O10 0.866515 0.204169 0.974036
O O11 0.450420 0.700377 0.585508
O O12 0.626980 0.250000 0.250000
O O13 0.675736 0.070111 0.143590
#
# Coordination Sequence:
#
# PCOD8216602 Si02
#       7
#     4   8   8   8   8   8   4
#     4  10  25  40  67  94 124 170 220 277 328 381
#     4  12  23  39  63  98 131 167 218 270 323 389
#     4  10  22  44  63  91 123 176 214 257 336 400
#     4  11  24  38  61 104 130 154 224 281 316 380
#     4  10  22  41  68  89 128 170 215 267 330 397
#     4  12  21  39  65  93 127 176 210 262 338 388
#     4  12  19  38  63  90 124 174 216 251 318 399
#
# _framework density 20.203275000000001
#
# number of rings (size 3 to 8) (size 9 to 14) (size 15 to 20)
#    0.000    1.000    6.667    0.500    4.667    1.333 
#    6.000    4.167    0.000    0.000    0.000    0.000 
#    0.000    0.000    0.000    0.000    0.000    0.000 
#
# Total GULP energy -594785.351722 kJ/mol
# GULP energy per Si atom -12391.361494 kJ/mol
# Density = 2.015729 g / cm^3
# Si number density = 20.203275 Si / 1000 Ang^3
#
#
#
# Elastic Constant Matrix: (Units=GPa)
#
#
# Indices 1 2 3 4 5 6 
#
# 1 120.8148 31.6643 61.5979 0.0000 0.0000 0.0000
# 2 31.6643 81.1641 38.4183 0.0000 0.0000 0.0000
# 3 61.5979 38.4183 82.4437 0.0000 0.0000 0.0000
# 4 0.0000 0.0000 0.0000 26.2458 0.0000 0.0000
# 5 0.0000 0.0000 0.0000 0.0000 23.5409 0.0000
# 6 0.0000 0.0000 0.0000 0.0000 0.0000 22.1798
#
#
#
# Elastic Compliance Matrix: (Units=1/GPa)
#
#
# Indices 1 2 3 4 5 6 
#
# 1 0.013395 -0.000627 -0.009716 0.000000 0.000000 0.000000
# 2 -0.000627 0.015837 -0.006912 0.000000 0.000000 0.000000
# 3 -0.009716 -0.006912 0.022610 0.000000 0.000000 0.000000
# 4 0.000000 0.000000 0.000000 0.038101 0.000000 0.000000
# 5 0.000000 0.000000 0.000000 0.000000 0.042479 0.000000
# 6 0.000000 0.000000 0.000000 0.000000 0.000000 0.045086
#
#
# Mechanical properties :
#
#
# Convention : Reuss Voigt Hill
#
# Bulk Modulus (GPa) = 57.69453 60.86486 59.27969
# Shear Modulus (GPa) = 22.95737 24.57611 23.76674
#
# Velocity S-wave (km/s) = 3.37459 3.49154 3.43356
# Velocity P-wave (km/s) = 6.61837 6.81514 6.71747
#
# Compressibility (1/GPa) = 0.01733267
#
# Stress axis : x y z
#
# Youngs Moduli (GPa) = 74.65335 63.14421 44.22878
#
# Poissons Ratio (x) = 0.03958 0.42974
# Poissons Ratio (y) = 0.04679 0.30569
# Poissons Ratio (z) = 0.72535 0.43642
#
# Static dielectric constant tensor:
#      x y z
#    x 4.043030 0.000000 0.000000 
#    y 0.000000 3.668180 0.000000 
#    z 0.000000 0.000000 3.889870 
# 
# 
# High freq. dielectric constant tensor:
#      x y z
#    x 1.801290 0.000000 0.000000 
#    y 0.000000 1.783740 0.000000 
#    z 0.000000 0.000000 1.774270 
# 
# From -- ./inp_files/27218.got.cif
#   From: 2010.06.25/outbox.cif.g09.slc.cpg/sg52_14_cif.got.tgz:27218.got - 2010.06.26 19:32:48.
