data_PCOD8216788
_publ_section_title
;
Structure prediction by ZEFSAII (Michael W. Deem and Ramdas Pophale) SiO2 
 PCOD8216788
Probable space group: P N N A
;
_chemical_formula_sum "Si O2"
_cell_formula_units_Z 56
_cell_length_a 15.117280
_cell_length_b 11.437975
_cell_length_c 15.129296
_cell_angle_alpha 90.000000
_cell_angle_beta 90.000000
_cell_angle_gamma 90.000000
_cell_volume 2616.022770
_symmetry_space_group_name_H-M "P N N A"
_symmetry_group_IT_number 52
_symmetry_cell_setting 'orthorhombic'
loop_
_space_group_symop_operation_xyz
x,y,z
1/2-x,-y,z
x,1/2-y,1/2-z
1/2-x,1/2+y,1/2-z
-x,-y,-z
1/2+x,y,-z
-x,1/2+y,1/2+z
1/2+x,1/2-y,1/2+z
loop_
_atom_site_type_symbol
_atom_site_label
_atom_site_fract_x
_atom_site_fract_y
_atom_site_fract_z
Si Si1 0.833439 0.856650 0.437880
Si Si2 0.843569 0.288777 0.153843
Si Si3 0.113627 0.376608 0.470961
Si Si4 0.636185 0.616847 0.778944
Si Si5 0.450427 0.507140 0.803457
Si Si6 0.250000 0.500000 0.364831
Si Si7 0.750000 0.000000 0.581691
Si Si8 0.061525 0.933357 0.889941
O O1 0.734114 0.846594 0.401906
O O2 0.880008 0.738790 0.470260
O O3 0.891210 0.901599 0.356640
O O4 0.827644 0.943948 0.521594
O O5 0.808746 0.250000 0.250000
O O6 0.927790 0.376952 0.160800
O O7 0.871005 0.173291 0.102630
O O8 0.207683 0.397467 0.424067
O O9 0.089052 0.485346 0.530994
O O10 0.035633 0.374233 0.398143
O O11 0.615603 0.750000 0.750000
O O12 0.551349 0.546924 0.815472
O O13 0.670801 0.554455 0.691307
O O14 0.708974 0.603568 0.856911
O O15 0.428065 0.508380 0.699521
#
# Coordination Sequence:
#
# PCOD8216788 Si02
#       8
#     8   8   8   8   8   4   4   8
#     4  12  25  43  70 104 142 181 234 293 359 431
#     4  10  23  43  66  95 140 185 229 287 349 431
#     4  11  24  40  72 102 138 185 237 294 350 423
#     4  11  26  44  73  99 138 185 237 295 359 434
#     4  11  24  45  68  99 140 183 235 285 362 425
#     4  11  22  48  65 100 140 182 235 290 360 425
#     4  11  26  48  65 108 140 178 235 294 364 433
#     4  10  24  44  65 102 139 185 240 291 355 423
#
# _framework density 21.406541000000001
#
# number of rings (size 3 to 8) (size 9 to 14) (size 15 to 20)
#    0.000    1.143    2.857    1.714    6.000    1.714 
#    0.000    0.000    0.000    0.000    0.000    0.000 
#    0.000    0.000    0.000    0.000    0.000    0.000 
#
# Total GULP energy -694344.001972 kJ/mol
# GULP energy per Si atom -12399.000035 kJ/mol
# Density = 2.135782 g / cm^3
# Si number density = 21.406541 Si / 1000 Ang^3
#
#
#
# Elastic Constant Matrix: (Units=GPa)
#
#
# Indices 1 2 3 4 5 6 
#
# 1 102.1351 37.4254 51.6792 0.0000 0.0000 0.0000
# 2 37.4254 101.3499 45.0255 0.0000 0.0000 0.0000
# 3 51.6792 45.0255 104.7508 0.0000 0.0000 0.0000
# 4 0.0000 0.0000 0.0000 36.4810 0.0000 0.0000
# 5 0.0000 0.0000 0.0000 0.0000 38.3067 0.0000
# 6 0.0000 0.0000 0.0000 0.0000 0.0000 35.7961
#
#
#
# Elastic Compliance Matrix: (Units=1/GPa)
#
#
# Indices 1 2 3 4 5 6 
#
# 1 0.013547 -0.002513 -0.005603 0.000000 0.000000 0.000000
# 2 -0.002513 0.012662 -0.004203 0.000000 0.000000 0.000000
# 3 -0.005603 -0.004203 0.014117 0.000000 0.000000 0.000000
# 4 0.000000 0.000000 0.000000 0.027412 0.000000 0.000000
# 5 0.000000 0.000000 0.000000 0.000000 0.026105 0.000000
# 6 0.000000 0.000000 0.000000 0.000000 0.000000 0.027936
#
#
# Mechanical properties :
#
#
# Convention : Reuss Voigt Hill
#
# Bulk Modulus (GPa) = 63.74257 64.05509 63.89883
# Shear Modulus (GPa) = 32.97146 33.72381 33.34763
#
# Velocity S-wave (km/s) = 3.92886 3.97343 3.95121
# Velocity P-wave (km/s) = 7.10092 7.14416 7.12257
#
# Compressibility (1/GPa) = 0.01568810
#
# Stress axis : x y z
#
# Youngs Moduli (GPa) = 73.81684 78.97703 70.83534
#
# Poissons Ratio (x) = 0.19849 0.39690
# Poissons Ratio (y) = 0.18552 0.29769
# Poissons Ratio (z) = 0.41361 0.33191
#
# Static dielectric constant tensor:
#      x y z
#    x 3.881240 0.000000 0.000000 
#    y 0.000000 3.865540 0.000000 
#    z 0.000000 0.000000 3.983110 
# 
# 
# High freq. dielectric constant tensor:
#      x y z
#    x 1.836990 0.000000 0.000000 
#    y 0.000000 1.843360 0.000000 
#    z 0.000000 0.000000 1.853100 
# 
# From -- ./inp_files/27313.got.cif
#   From: 2010.06.25/outbox.cif.g09.slc.cpg/sg52_14_cif.got.tgz:27313.got - 2010.06.26 19:32:48.
