data_PCOD8216447
_publ_section_title
;
Structure prediction by ZEFSAII (Michael W. Deem and Ramdas Pophale) SiO2 
 PCOD8216447
Probable space group: P N N A
;
_chemical_formula_sum "Si O2"
_cell_formula_units_Z 56
_cell_length_a 14.957926
_cell_length_b 14.934328
_cell_length_c 12.234229
_cell_angle_alpha 90.000000
_cell_angle_beta 90.000000
_cell_angle_gamma 90.000000
_cell_volume 2732.962491
_symmetry_space_group_name_H-M "P N N A"
_symmetry_group_IT_number 52
_symmetry_cell_setting 'orthorhombic'
loop_
_space_group_symop_operation_xyz
x,y,z
1/2-x,-y,z
x,1/2-y,1/2-z
1/2-x,1/2+y,1/2-z
-x,-y,-z
1/2+x,y,-z
-x,1/2+y,1/2+z
1/2+x,1/2-y,1/2+z
loop_
_atom_site_type_symbol
_atom_site_label
_atom_site_fract_x
_atom_site_fract_y
_atom_site_fract_z
Si Si1 0.753300 0.726856 0.989824
Si Si2 0.562465 0.129204 0.492315
Si Si3 0.822427 0.342848 0.206087
Si Si4 0.579515 0.745792 0.623557
Si Si5 0.469879 0.482073 0.824806
Si Si6 0.292266 0.904396 0.894334
Si Si7 0.497564 0.563425 0.603632
O O1 0.683344 0.723243 0.888506
O O2 0.850272 0.684124 0.969066
O O3 0.706568 0.667008 0.081914
O O4 0.761524 0.831500 0.017384
O O5 0.482863 0.193858 0.453949
O O6 0.536741 0.073481 0.599553
O O7 0.579145 0.061029 0.392419
O O8 0.864012 0.250000 0.250000
O O9 0.893968 0.419544 0.224375
O O10 0.736379 0.371212 0.275064
O O11 0.550255 0.750000 0.750000
O O12 0.566145 0.644298 0.582235
O O13 0.524723 0.517192 0.719075
O O14 0.397760 0.901283 0.885703
O O15 0.250000 0.000000 0.927753
O O16 0.500000 0.500000 0.500000
#
# Coordination Sequence:
#
# PCOD8216447 Si02
#       7
#     8   8   8   8   8   8   8
#     4  11  24  43  66  99 133 177 227 281 341 406
#     4  11  24  44  72  98 132 186 233 281 341 412
#     4  10  22  36  66  98 128 161 223 294 338 387
#     4  12  25  46  68  98 142 187 229 279 354 425
#     4  11  23  44  68 104 133 173 236 289 339 416
#     4  11  21  38  66 100 129 171 230 280 342 405
#     4  12  25  41  69 102 139 180 219 291 355 413
#
# _framework density 20.490586
#
# number of rings (size 3 to 8) (size 9 to 14) (size 15 to 20)
#    0.000    0.857    5.714    1.714    2.000    0.000 
#    2.571    0.000    0.000    0.000    0.000    0.000 
#    0.000    0.000    0.000    0.000    0.000    0.000 
#
# Total GULP energy -694351.826088 kJ/mol
# GULP energy per Si atom -12399.139752 kJ/mol
# Density = 2.044395 g / cm^3
# Si number density = 20.490586 Si / 1000 Ang^3
#
#
#
# Elastic Constant Matrix: (Units=GPa)
#
#
# Indices 1 2 3 4 5 6 
#
# 1 114.5301 48.8273 37.1430 0.0000 0.0000 0.0000
# 2 48.8273 125.7484 36.5885 0.0000 0.0000 0.0000
# 3 37.1430 36.5885 84.7361 0.0000 0.0000 0.0000
# 4 0.0000 0.0000 0.0000 23.4391 0.0000 0.0000
# 5 0.0000 0.0000 0.0000 0.0000 25.4327 0.0000
# 6 0.0000 0.0000 0.0000 0.0000 0.0000 27.8090
#
#
#
# Elastic Compliance Matrix: (Units=1/GPa)
#
#
# Indices 1 2 3 4 5 6 
#
# 1 0.011303 -0.003371 -0.003499 0.000000 0.000000 0.000000
# 2 -0.003371 0.010100 -0.002884 0.000000 0.000000 0.000000
# 3 -0.003499 -0.002884 0.014580 0.000000 0.000000 0.000000
# 4 0.000000 0.000000 0.000000 0.042664 0.000000 0.000000
# 5 0.000000 0.000000 0.000000 0.000000 0.039319 0.000000
# 6 0.000000 0.000000 0.000000 0.000000 0.000000 0.035960
#
#
# Mechanical properties :
#
#
# Convention : Reuss Voigt Hill
#
# Bulk Modulus (GPa) = 60.69236 63.34803 62.02019
# Shear Modulus (GPa) = 27.94451 28.83322 28.38886
#
# Velocity S-wave (km/s) = 3.69694 3.75526 3.72621
# Velocity P-wave (km/s) = 6.92149 7.05588 6.98901
#
# Compressibility (1/GPa) = 0.01647654
#
# Stress axis : x y z
#
# Youngs Moduli (GPa) = 88.47061 99.00679 68.58568
#
# Poissons Ratio (x) = 0.33374 0.23999
# Poissons Ratio (y) = 0.29822 0.19778
# Poissons Ratio (z) = 0.30957 0.28551
#
# Static dielectric constant tensor:
#      x y z
#    x 3.290910 0.000000 0.000000 
#    y 0.000000 4.078700 0.000000 
#    z 0.000000 0.000000 3.755120 
# 
# 
# High freq. dielectric constant tensor:
#      x y z
#    x 1.791840 0.000000 0.000000 
#    y 0.000000 1.821250 0.000000 
#    z 0.000000 0.000000 1.793280 
# 
# From -- ./inp_files/19606.got.cif
#   From: 2010.06.25/outbox.cif.g09.slc.cpg/sg52_10_cif.got.tgz:19606.got - 2010.06.26 19:32:48.
