data_PCOD8216454
_publ_section_title
;
Structure prediction by ZEFSAII (Michael W. Deem and Ramdas Pophale) SiO2 
 PCOD8216454
Probable space group: P N N A
;
_chemical_formula_sum "Si O2"
_cell_formula_units_Z 32
_cell_length_a 15.240743
_cell_length_b 20.431325
_cell_length_c 5.164355
_cell_angle_alpha 90.000000
_cell_angle_beta 90.000000
_cell_angle_gamma 90.000000
_cell_volume 1608.121136
_symmetry_space_group_name_H-M "P N N A"
_symmetry_group_IT_number 52
_symmetry_cell_setting 'orthorhombic'
loop_
_space_group_symop_operation_xyz
x,y,z
1/2-x,-y,z
x,1/2-y,1/2-z
1/2-x,1/2+y,1/2-z
-x,-y,-z
1/2+x,y,-z
-x,1/2+y,1/2+z
1/2+x,1/2-y,1/2+z
loop_
_atom_site_type_symbol
_atom_site_label
_atom_site_fract_x
_atom_site_fract_y
_atom_site_fract_z
Si Si1 0.032135 0.706019 0.000530
Si Si2 0.223487 0.819710 0.626636
Si Si3 0.198379 0.434774 0.607313
Si Si4 0.623804 0.112316 0.596201
O O1 0.020957 0.750000 0.750000
O O2 0.969351 0.643911 0.969816
O O3 0.130284 0.677366 0.019023
O O4 0.008775 0.750000 0.250000
O O5 0.240492 0.750000 0.750000
O O6 0.231299 0.875525 0.851379
O O7 0.300081 0.832017 0.416074
O O8 0.250000 0.500000 0.535481
O O9 0.128716 0.420020 0.378630
O O10 0.142587 0.442521 0.873655
#
# Coordination Sequence:
#
# PCOD8216454 Si02
#       4
#     8   8   8   8
#     4  11  23  36  60  95 125 151 201 256 307 362
#     4   9  23  37  63  88 122 154 201 250 307 356
#     4  10  22  40  61  85 121 166 204 243 299 362
#     4  10  22  37  63  81 124 154 203 241 310 347
#
# _framework density 19.898999
#
# number of rings (size 3 to 8) (size 9 to 14) (size 15 to 20)
#    1.500    0.500    0.000    3.000   10.500    0.000 
#    0.000    2.500    0.000    0.000    0.000    0.000 
#    0.000    0.000    0.000    0.000    0.000    0.000 
#
# Total GULP energy -396546.072150 kJ/mol
# GULP energy per Si atom -12392.064755 kJ/mol
# Density = 1.985371 g / cm^3
# Si number density = 19.898999 Si / 1000 Ang^3
#
#
#
# Elastic Constant Matrix: (Units=GPa)
#
#
# Indices 1 2 3 4 5 6 
#
# 1 54.9163 1.7168 3.9313 0.0000 0.0000 0.0000
# 2 1.7168 78.7520 14.6527 0.0000 0.0000 0.0000
# 3 3.9313 14.6527 119.5982 0.0000 0.0000 0.0000
# 4 0.0000 0.0000 0.0000 27.9060 0.0000 0.0000
# 5 0.0000 0.0000 0.0000 0.0000 17.9479 0.0000
# 6 0.0000 0.0000 0.0000 0.0000 0.0000 9.9485
#
#
#
# Elastic Compliance Matrix: (Units=1/GPa)
#
#
# Indices 1 2 3 4 5 6 
#
# 1 0.018259 -0.000293 -0.000564 0.000000 0.000000 0.000000
# 2 -0.000293 0.012999 -0.001583 0.000000 0.000000 0.000000
# 3 -0.000564 -0.001583 0.008574 0.000000 0.000000 0.000000
# 4 0.000000 0.000000 0.000000 0.035835 0.000000 0.000000
# 5 0.000000 0.000000 0.000000 0.000000 0.055717 0.000000
# 6 0.000000 0.000000 0.000000 0.000000 0.000000 0.100518
#
#
# Mechanical properties :
#
#
# Convention : Reuss Voigt Hill
#
# Bulk Modulus (GPa) = 28.61124 32.65202 30.63163
# Shear Modulus (GPa) = 20.12624 26.69154 23.40889
#
# Velocity S-wave (km/s) = 3.18373 3.66642 3.43357
# Velocity P-wave (km/s) = 5.28435 5.86242 5.58087
#
# Compressibility (1/GPa) = 0.03495130
#
# Stress axis : x y z
#
# Youngs Moduli (GPa) = 54.76729 76.92896 116.63423
#
# Poissons Ratio (x) = 0.02254 0.06582
# Poissons Ratio (y) = 0.01605 0.18463
# Poissons Ratio (z) = 0.03090 0.12177
#
# Static dielectric constant tensor:
#      x y z
#    x 3.594350 0.000000 0.000000 
#    y 0.000000 3.314170 0.000000 
#    z 0.000000 0.000000 3.566700 
# 
# 
# High freq. dielectric constant tensor:
#      x y z
#    x 1.766590 0.000000 0.000000 
#    y 0.000000 1.755900 0.000000 
#    z 0.000000 0.000000 1.783210 
# 
# From -- ./inp_files/2011.got.cif
#   From: 2010.06.25/outbox.cif.g09.slc.cpg/sg52_2_cif.got.tgz:2011.got - 2010.06.26 19:32:48.
