data_PCOD8216249
_publ_section_title
;
Structure prediction by ZEFSAII (Michael W. Deem and Ramdas Pophale) SiO2 
 PCOD8216249
Probable space group: P N N A
;
_chemical_formula_sum "Si O2"
_cell_formula_units_Z 40
_cell_length_a 9.912937
_cell_length_b 10.096268
_cell_length_c 19.757824
_cell_angle_alpha 90.000000
_cell_angle_beta 90.000000
_cell_angle_gamma 90.000000
_cell_volume 1977.435510
_symmetry_space_group_name_H-M "P N N A"
_symmetry_group_IT_number 52
_symmetry_cell_setting 'orthorhombic'
loop_
_space_group_symop_operation_xyz
x,y,z
1/2-x,-y,z
x,1/2-y,1/2-z
1/2-x,1/2+y,1/2-z
-x,-y,-z
1/2+x,y,-z
-x,1/2+y,1/2+z
1/2+x,1/2-y,1/2+z
loop_
_atom_site_type_symbol
_atom_site_label
_atom_site_fract_x
_atom_site_fract_y
_atom_site_fract_z
Si Si1 0.206288 0.646123 0.952502
Si Si2 0.367706 0.597829 0.253700
Si Si3 0.843972 0.123217 0.296815
Si Si4 0.524568 0.208476 0.016659
Si Si5 0.096817 0.011240 0.094279
O O1 0.250000 0.500000 0.971054
O O2 0.179051 0.665118 0.873512
O O3 0.324354 0.745740 0.972194
O O4 0.076368 0.671925 0.999368
O O5 0.250000 0.500000 0.227057
O O6 0.315621 0.750000 0.250000
O O7 0.499786 0.579180 0.207911
O O8 0.411474 0.558508 0.328984
O O9 0.812612 0.250000 0.250000
O O10 0.750000 0.000000 0.275008
O O11 0.473792 0.131895 0.084142
O O12 0.515608 0.114433 0.951305
O O13 0.250000 0.000000 0.069136
#
# Coordination Sequence:
#
# PCOD8216249 Si02
#       5
#     8   8   8   8   8
#     4  11  24  42  61  94 131 169 213 259 327 381
#     4  10  22  43  64  93 128 167 214 265 316 382
#     4  10  23  42  62  93 128 166 214 262 319 386
#     4  11  21  40  65  93 128 165 209 265 315 379
#     4  10  21  39  65  97 123 161 217 266 313 379
#
# _framework density 20.22822
#
# number of rings (size 3 to 8) (size 9 to 14) (size 15 to 20)
#    0.000    1.600    2.000    3.000    2.800    0.800 
#   10.800    2.000    0.000    0.000    0.000    0.000 
#    0.000    0.000    0.000    0.000    0.000    0.000 
#
# Total GULP energy -496070.771217 kJ/mol
# GULP energy per Si atom -12401.769280 kJ/mol
# Density = 2.018218 g / cm^3
# Si number density = 20.228220 Si / 1000 Ang^3
#
#
#
# Elastic Constant Matrix: (Units=GPa)
#
#
# Indices 1 2 3 4 5 6 
#
# 1 115.0673 38.4633 19.4080 0.0000 0.0000 0.0000
# 2 38.4633 103.5342 34.9857 0.0000 0.0000 0.0000
# 3 19.4080 34.9857 80.2228 0.0000 0.0000 0.0000
# 4 0.0000 0.0000 0.0000 27.6490 0.0000 0.0000
# 5 0.0000 0.0000 0.0000 0.0000 16.4263 0.0000
# 6 0.0000 0.0000 0.0000 0.0000 0.0000 30.0130
#
#
#
# Elastic Compliance Matrix: (Units=1/GPa)
#
#
# Indices 1 2 3 4 5 6 
#
# 1 0.009982 -0.003392 -0.000936 0.000000 0.000000 0.000000
# 2 -0.003392 0.012481 -0.004622 0.000000 0.000000 0.000000
# 3 -0.000936 -0.004622 0.014707 0.000000 0.000000 0.000000
# 4 0.000000 0.000000 0.000000 0.036168 0.000000 0.000000
# 5 0.000000 0.000000 0.000000 0.000000 0.060878 0.000000
# 6 0.000000 0.000000 0.000000 0.000000 0.000000 0.033319
#
#
# Mechanical properties :
#
#
# Convention : Reuss Voigt Hill
#
# Bulk Modulus (GPa) = 51.89351 53.83758 52.86555
# Shear Modulus (GPa) = 26.06079 28.54879 27.30479
#
# Velocity S-wave (km/s) = 3.59324 3.76085 3.67800
# Velocity P-wave (km/s) = 6.55171 6.74770 6.65043
#
# Compressibility (1/GPa) = 0.01927023
#
# Stress axis : x y z
#
# Youngs Moduli (GPa) = 100.17727 80.12278 67.99280
#
# Poissons Ratio (x) = 0.27180 0.06361
# Poissons Ratio (y) = 0.33983 0.31428
# Poissons Ratio (z) = 0.09372 0.37035
#
# Static dielectric constant tensor:
#      x y z
#    x 3.833720 0.000000 0.000000 
#    y 0.000000 3.809220 0.000000 
#    z 0.000000 0.000000 3.505430 
# 
# 
# High freq. dielectric constant tensor:
#      x y z
#    x 1.801910 0.000000 0.000000 
#    y 0.000000 1.799250 0.000000 
#    z 0.000000 0.000000 1.781850 
# 
# From -- ./inp_files/31967.got.cif
#   From: 2010.06.25/outbox.cif.g09.slc.cpg/sg52_16_cif.got.tgz:31967.got - 2010.06.26 19:32:48.
