data_PCOD8216517
_publ_section_title
;
Structure prediction by ZEFSAII (Michael W. Deem and Ramdas Pophale) SiO2 
 PCOD8216517
Probable space group: P N N A
;
_chemical_formula_sum "Si O2"
_cell_formula_units_Z 36
_cell_length_a 7.147682
_cell_length_b 16.040038
_cell_length_c 15.212244
_cell_angle_alpha 90.000000
_cell_angle_beta 90.000000
_cell_angle_gamma 90.000000
_cell_volume 1744.069945
_symmetry_space_group_name_H-M "P N N A"
_symmetry_group_IT_number 52
_symmetry_cell_setting 'orthorhombic'
loop_
_space_group_symop_operation_xyz
x,y,z
1/2-x,-y,z
x,1/2-y,1/2-z
1/2-x,1/2+y,1/2-z
-x,-y,-z
1/2+x,y,-z
-x,1/2+y,1/2+z
1/2+x,1/2-y,1/2+z
loop_
_atom_site_type_symbol
_atom_site_label
_atom_site_fract_x
_atom_site_fract_y
_atom_site_fract_z
Si Si1 0.909859 0.446347 0.777330
Si Si2 0.243502 0.340728 0.380481
Si Si3 0.317042 0.158756 0.923758
Si Si4 0.250000 0.500000 0.683780
Si Si5 0.045883 0.218860 0.657104
O O1 0.750000 0.500000 0.828377
O O2 0.804330 0.405980 0.693581
O O3 0.066457 0.510538 0.743352
O O4 0.016479 0.381010 0.841770
O O5 0.326131 0.369147 0.474833
O O6 0.336499 0.252302 0.358026
O O7 0.022145 0.327164 0.384563
O O8 0.216825 0.083294 0.872927
O O9 0.193407 0.244239 0.914143
O O10 0.128028 0.250000 0.750000
#
# Coordination Sequence:
#
# PCOD8216517 Si02
#       5
#     8   8   8   4   8
#     4  11  23  39  59  89 124 161 200 246 301 359
#     4  11  22  37  61  88 121 161 191 243 303 368
#     4  12  22  36  61  89 122 158 193 245 305 365
#     4  12  22  34  58  90 128 152 194 238 306 372
#     4  10  22  40  56  89 122 151 207 241 291 366
#
# _framework density 20.641375
#
# number of rings (size 3 to 8) (size 9 to 14) (size 15 to 20)
#    0.000    0.889    8.889    0.000    1.556    6.222 
#    0.000    0.000    0.000    1.333    0.000    0.000 
#    0.000    0.000    0.000    0.000    0.000    0.000 
#
# Total GULP energy -446212.080786 kJ/mol
# GULP energy per Si atom -12394.780022 kJ/mol
# Density = 2.059439 g / cm^3
# Si number density = 20.641375 Si / 1000 Ang^3
#
#
#
# Elastic Constant Matrix: (Units=GPa)
#
#
# Indices 1 2 3 4 5 6 
#
# 1 120.8040 30.6681 12.7857 0.0000 0.0000 0.0000
# 2 30.6681 92.6562 14.2226 0.0000 0.0000 0.0000
# 3 12.7857 14.2226 26.0446 0.0000 0.0000 0.0000
# 4 0.0000 0.0000 0.0000 17.8691 0.0000 0.0000
# 5 0.0000 0.0000 0.0000 0.0000 22.8804 0.0000
# 6 0.0000 0.0000 0.0000 0.0000 0.0000 33.3404
#
#
#
# Elastic Compliance Matrix: (Units=1/GPa)
#
#
# Indices 1 2 3 4 5 6 
#
# 1 0.009266 -0.002585 -0.003137 0.000000 0.000000 0.000000
# 2 -0.002585 0.012501 -0.005558 0.000000 0.000000 0.000000
# 3 -0.003137 -0.005558 0.042971 0.000000 0.000000 0.000000
# 4 0.000000 0.000000 0.000000 0.055962 0.000000 0.000000
# 5 0.000000 0.000000 0.000000 0.000000 0.043706 0.000000
# 6 0.000000 0.000000 0.000000 0.000000 0.000000 0.029994
#
#
# Mechanical properties :
#
#
# Convention : Reuss Voigt Hill
#
# Bulk Modulus (GPa) = 23.70899 39.42862 31.56881
# Shear Modulus (GPa) = 21.64318 26.93987 24.29153
#
# Velocity S-wave (km/s) = 3.24162 3.61659 3.43423
# Velocity P-wave (km/s) = 5.05192 6.04838 5.57247
#
# Compressibility (1/GPa) = 0.04217809
#
# Stress axis : x y z
#
# Youngs Moduli (GPa) = 107.91839 79.99077 23.27168
#
# Poissons Ratio (x) = 0.20682 0.07300
# Poissons Ratio (y) = 0.27902 0.12933
# Poissons Ratio (z) = 0.33855 0.44456
#
# Static dielectric constant tensor:
#      x y z
#    x 3.899240 0.000000 0.000000 
#    y 0.000000 3.639770 0.000000 
#    z 0.000000 0.000000 3.613980 
# 
# 
# High freq. dielectric constant tensor:
#      x y z
#    x 1.830150 0.000000 0.000000 
#    y 0.000000 1.787690 0.000000 
#    z 0.000000 0.000000 1.768950 
# 
# From -- ./inp_files/24341.got.cif
#   From: 2010.06.25/outbox.cif.g09.slc.cpg/sg52_13_cif.got.tgz:24341.got - 2010.06.26 19:32:48.
