data_PCOD8216649
_publ_section_title
;
Structure prediction by ZEFSAII (Michael W. Deem and Ramdas Pophale) SiO2 
 PCOD8216649
Probable space group: P N N A
;
_chemical_formula_sum "Si O2"
_cell_formula_units_Z 32
_cell_length_a 20.729431
_cell_length_b 8.711594
_cell_length_c 7.832695
_cell_angle_alpha 90.000000
_cell_angle_beta 90.000000
_cell_angle_gamma 90.000000
_cell_volume 1414.478088
_symmetry_space_group_name_H-M "P N N A"
_symmetry_group_IT_number 52
_symmetry_cell_setting 'orthorhombic'
loop_
_space_group_symop_operation_xyz
x,y,z
1/2-x,-y,z
x,1/2-y,1/2-z
1/2-x,1/2+y,1/2-z
-x,-y,-z
1/2+x,y,-z
-x,1/2+y,1/2+z
1/2+x,1/2-y,1/2+z
loop_
_atom_site_type_symbol
_atom_site_label
_atom_site_fract_x
_atom_site_fract_y
_atom_site_fract_z
Si Si1 0.810668 0.250000 0.750000
Si Si2 0.750000 0.000000 0.966408
Si Si3 0.593180 0.925600 0.503615
Si Si4 0.623655 0.086611 0.166343
Si Si5 0.465834 0.768502 0.439954
O O1 0.761326 0.143401 0.847135
O O2 0.851160 0.160019 0.606393
O O3 0.687233 0.026391 0.078295
O O4 0.528147 0.828800 0.543738
O O5 0.605408 0.950783 0.299636
O O6 0.588174 0.098667 0.573579
O O7 0.638654 0.250000 0.250000
O O8 0.564586 0.116417 0.031063
O O9 0.491001 0.750000 0.250000
#
# Coordination Sequence:
#
# PCOD8216649 Si02
#       5
#     4   4   8   8   8
#     4  12  30  46  70 102 142 190 242 296 360 428
#     4  12  30  46  74  98 144 194 242 290 350 434
#     4  10  25  43  70 104 140 179 233 295 363 428
#     4  10  25  45  71 102 140 189 238 294 359 425
#     4  10  22  42  72 101 141 179 232 294 361 423
#
# _framework density 22.623183999999998
#
# number of rings (size 3 to 8) (size 9 to 14) (size 15 to 20)
#    0.000    1.500    0.000    1.500   24.500    1.000 
#    0.000    0.000    0.000    0.000    0.000    0.000 
#    0.000    0.000    0.000    0.000    0.000    0.000 
#
# Total GULP energy -396591.582562 kJ/mol
# GULP energy per Si atom -12393.486955 kJ/mol
# Density = 2.257169 g / cm^3
# Si number density = 22.623184 Si / 1000 Ang^3
#
#
#
# Elastic Constant Matrix: (Units=GPa)
#
#
# Indices 1 2 3 4 5 6 
#
# 1 90.4059 37.0508 28.9215 0.0000 0.0000 0.0000
# 2 37.0508 66.7844 33.1814 0.0000 0.0000 0.0000
# 3 28.9215 33.1814 107.5076 0.0000 0.0000 0.0000
# 4 0.0000 0.0000 0.0000 78.1578 0.0000 0.0000
# 5 0.0000 0.0000 0.0000 0.0000 43.2602 0.0000
# 6 0.0000 0.0000 0.0000 0.0000 0.0000 47.3734
#
#
#
# Elastic Compliance Matrix: (Units=1/GPa)
#
#
# Indices 1 2 3 4 5 6 
#
# 1 0.014570 -0.007247 -0.001683 0.000000 0.000000 0.000000
# 2 -0.007247 0.021290 -0.004621 0.000000 0.000000 0.000000
# 3 -0.001683 -0.004621 0.011181 0.000000 0.000000 0.000000
# 4 0.000000 0.000000 0.000000 0.012795 0.000000 0.000000
# 5 0.000000 0.000000 0.000000 0.000000 0.023116 0.000000
# 6 0.000000 0.000000 0.000000 0.000000 0.000000 0.021109
#
#
# Mechanical properties :
#
#
# Convention : Reuss Voigt Hill
#
# Bulk Modulus (GPa) = 50.15506 51.44503 50.80004
# Shear Modulus (GPa) = 36.28234 44.79456 40.53845
#
# Velocity S-wave (km/s) = 4.00905 4.45458 4.23767
# Velocity P-wave (km/s) = 6.60665 7.01762 6.81524
#
# Compressibility (1/GPa) = 0.01993817
#
# Stress axis : x y z
#
# Youngs Moduli (GPa) = 68.63651 46.97012 89.43940
#
# Poissons Ratio (x) = 0.34038 0.15051
# Poissons Ratio (y) = 0.49740 0.41334
# Poissons Ratio (z) = 0.11550 0.21707
#
# Static dielectric constant tensor:
#      x y z
#    x 3.879100 0.000000 0.000000 
#    y 0.000000 4.193250 0.000000 
#    z 0.000000 0.000000 4.302840 
# 
# 
# High freq. dielectric constant tensor:
#      x y z
#    x 1.889450 0.000000 0.000000 
#    y 0.000000 1.897210 0.000000 
#    z 0.000000 0.000000 1.901960 
# 
# From -- ./inp_files/12848.got.cif
#   From: 2010.06.25/outbox.cif.g09.slc.cpg/sg52_7_cif.got.tgz:12848.got - 2010.06.26 19:32:48.
