data_PCOD8216705
_publ_section_title
;
Structure prediction by ZEFSAII (Michael W. Deem and Ramdas Pophale) SiO2 
 PCOD8216705
Probable space group: P N N A
;
_chemical_formula_sum "Si O2"
_cell_formula_units_Z 32
_cell_length_a 12.744727
_cell_length_b 23.329952
_cell_length_c 4.888781
_cell_angle_alpha 90.000000
_cell_angle_beta 90.000000
_cell_angle_gamma 90.000000
_cell_volume 1453.600170
_symmetry_space_group_name_H-M "P N N A"
_symmetry_group_IT_number 52
_symmetry_cell_setting 'orthorhombic'
loop_
_space_group_symop_operation_xyz
x,y,z
1/2-x,-y,z
x,1/2-y,1/2-z
1/2-x,1/2+y,1/2-z
-x,-y,-z
1/2+x,y,-z
-x,1/2+y,1/2+z
1/2+x,1/2-y,1/2+z
loop_
_atom_site_type_symbol
_atom_site_label
_atom_site_fract_x
_atom_site_fract_y
_atom_site_fract_z
Si Si1 0.363905 0.250000 0.750000
Si Si2 0.954281 0.927840 0.221585
Si Si3 0.778865 0.750000 0.750000
Si Si4 0.632880 0.013416 0.716508
Si Si5 0.542337 0.196009 0.451100
O O1 0.292560 0.273485 0.499950
O O2 0.438384 0.198295 0.642633
O O3 0.869730 0.959365 0.415162
O O4 0.958390 0.860406 0.269789
O O5 0.919509 0.938901 0.911692
O O6 0.069256 0.953940 0.275478
O O7 0.853127 0.801542 0.640259
O O8 0.750000 0.000000 0.807713
O O9 0.541736 0.250000 0.250000
#
# Coordination Sequence:
#
# PCOD8216705 Si02
#       5
#     4   8   4   8   8
#     4  11  24  43  66  94 144 181 232 269 332 420
#     4  10  24  42  68  96 134 171 221 280 337 396
#     4  11  24  43  62  96 138 185 228 273 332 418
#     4  10  22  45  68  98 127 173 230 278 331 395
#     4  11  25  44  68 100 144 180 223 284 347 416
#
# _framework density 22.014306000000001
#
# number of rings (size 3 to 8) (size 9 to 14) (size 15 to 20)
#    0.000    1.500    2.500    0.750    7.000    2.000 
#    4.500    0.000    0.000    0.000    0.000    0.000 
#    0.000    0.000    0.000    0.000    0.000    0.000 
#
# Total GULP energy -396873.435558 kJ/mol
# GULP energy per Si atom -12402.294861 kJ/mol
# Density = 2.196420 g / cm^3
# Si number density = 22.014306 Si / 1000 Ang^3
#
#
#
# Elastic Constant Matrix: (Units=GPa)
#
#
# Indices 1 2 3 4 5 6 
#
# 1 133.5236 50.9450 45.9114 0.0000 0.0000 0.0000
# 2 50.9450 129.9461 20.6763 0.0000 0.0000 0.0000
# 3 45.9114 20.6763 101.1270 0.0000 0.0000 0.0000
# 4 0.0000 0.0000 0.0000 31.1215 0.0000 0.0000
# 5 0.0000 0.0000 0.0000 0.0000 13.1086 0.0000
# 6 0.0000 0.0000 0.0000 0.0000 0.0000 10.4016
#
#
#
# Elastic Compliance Matrix: (Units=1/GPa)
#
#
# Indices 1 2 3 4 5 6 
#
# 1 0.010107 -0.003341 -0.003905 0.000000 0.000000 0.000000
# 2 -0.003341 0.009059 -0.000335 0.000000 0.000000 0.000000
# 3 -0.003905 -0.000335 0.011730 0.000000 0.000000 0.000000
# 4 0.000000 0.000000 0.000000 0.032132 0.000000 0.000000
# 5 0.000000 0.000000 0.000000 0.000000 0.076286 0.000000
# 6 0.000000 0.000000 0.000000 0.000000 0.000000 0.096139
#
#
# Mechanical properties :
#
#
# Convention : Reuss Voigt Hill
#
# Bulk Modulus (GPa) = 63.56351 66.62913 65.09632
# Shear Modulus (GPa) = 19.54190 27.39726 23.46958
#
# Velocity S-wave (km/s) = 2.98265 3.53160 3.26867
# Velocity P-wave (km/s) = 6.38733 6.85286 6.62418
#
# Compressibility (1/GPa) = 0.01573230
#
# Stress axis : x y z
#
# Youngs Moduli (GPa) = 98.94234 110.39142 85.25025
#
# Poissons Ratio (x) = 0.36881 0.33294
# Poissons Ratio (y) = 0.33056 0.02859
# Poissons Ratio (z) = 0.38641 0.03702
#
# Static dielectric constant tensor:
#      x y z
#    x 4.181490 0.000000 0.000000 
#    y 0.000000 3.493890 0.000000 
#    z 0.000000 0.000000 4.292020 
# 
# 
# High freq. dielectric constant tensor:
#      x y z
#    x 1.873530 0.000000 0.000000 
#    y 0.000000 1.830150 0.000000 
#    z 0.000000 0.000000 1.891770 
# 
# From -- ./inp_files/1091.got.cif
#   From: 2010.06.25/outbox.cif.g09.slc.cpg/sg52_1_cif.got.tgz:1091.got - 2010.06.26 19:32:48.
