data_PCOD8216641
_publ_section_title
;
Structure prediction by ZEFSAII (Michael W. Deem and Ramdas Pophale) SiO2 
 PCOD8216641
Probable space group: P N N A
;
_chemical_formula_sum "Si O2"
_cell_formula_units_Z 20
_cell_length_a 7.743365
_cell_length_b 5.029109
_cell_length_c 21.852391
_cell_angle_alpha 90.000000
_cell_angle_beta 90.000000
_cell_angle_gamma 90.000000
_cell_volume 850.980762
_symmetry_space_group_name_H-M "P N N A"
_symmetry_group_IT_number 52
_symmetry_cell_setting 'orthorhombic'
loop_
_space_group_symop_operation_xyz
x,y,z
1/2-x,-y,z
x,1/2-y,1/2-z
1/2-x,1/2+y,1/2-z
-x,-y,-z
1/2+x,y,-z
-x,1/2+y,1/2+z
1/2+x,1/2-y,1/2+z
loop_
_atom_site_type_symbol
_atom_site_label
_atom_site_fract_x
_atom_site_fract_y
_atom_site_fract_z
Si Si1 0.565514 0.144610 0.619304
Si Si2 0.750000 0.000000 0.963499
Si Si3 0.368395 0.750000 0.250000
Si Si4 0.250000 0.000000 0.547517
O O1 0.587569 0.417444 0.579961
O O2 0.513631 0.203861 0.689795
O O3 0.417711 0.957487 0.590280
O O4 0.750000 0.000000 0.617546
O O5 0.702795 0.750014 0.005553
O O6 0.250000 0.500000 0.265475
#
# Coordination Sequence:
#
# PCOD8216641 Si02
#       4
#     8   4   4   4
#     4  11  25  45  69  98 134 181 224 280 336 398
#     4  12  24  44  68 100 138 178 216 280 340 404
#     4  10  22  42  70  92 126 178 228 270 334 398
#     4  12  28  40  68 104 136 172 226 272 342 408
#
# _framework density 23.502296999999999
#
# number of rings (size 3 to 8) (size 9 to 14) (size 15 to 20)
#    0.000    0.800    4.000    2.400    5.600    0.000 
#    0.000   10.000    0.000    0.000    0.000    0.000 
#    0.000    0.000    0.000    0.000    0.000    0.000 
#
# Total GULP energy -247890.391689 kJ/mol
# GULP energy per Si atom -12394.519584 kJ/mol
# Density = 2.344880 g / cm^3
# Si number density = 23.502297 Si / 1000 Ang^3
#
#
#
# Elastic Constant Matrix: (Units=GPa)
#
#
# Indices 1 2 3 4 5 6 
#
# 1 105.3501 19.4106 67.1233 0.0000 0.0000 0.0000
# 2 19.4106 120.0754 53.1350 0.0000 0.0000 0.0000
# 3 67.1233 53.1350 228.3527 0.0000 0.0000 0.0000
# 4 0.0000 0.0000 0.0000 68.6636 0.0000 0.0000
# 5 0.0000 0.0000 0.0000 0.0000 8.2087 0.0000
# 6 0.0000 0.0000 0.0000 0.0000 0.0000 22.7655
#
#
#
# Elastic Compliance Matrix: (Units=1/GPa)
#
#
# Indices 1 2 3 4 5 6 
#
# 1 0.011698 -0.000412 -0.003343 0.000000 0.000000 0.000000
# 2 -0.000412 0.009299 -0.002043 0.000000 0.000000 0.000000
# 3 -0.003343 -0.002043 0.005837 0.000000 0.000000 0.000000
# 4 0.000000 0.000000 0.000000 0.014564 0.000000 0.000000
# 5 0.000000 0.000000 0.000000 0.000000 0.121822 0.000000
# 6 0.000000 0.000000 0.000000 0.000000 0.000000 0.043926
#
#
# Mechanical properties :
#
#
# Convention : Reuss Voigt Hill
#
# Bulk Modulus (GPa) = 65.62033 81.45733 73.53883
# Shear Modulus (GPa) = 22.33945 40.86820 31.60382
#
# Velocity S-wave (km/s) = 3.08640 4.17454 3.67101
# Velocity P-wave (km/s) = 6.37829 7.61382 7.02328
#
# Compressibility (1/GPa) = 0.01523918
#
# Stress axis : x y z
#
# Youngs Moduli (GPa) = 85.48607 107.54363 171.31927
#
# Poissons Ratio (x) = 0.04429 0.57267
# Poissons Ratio (y) = 0.03520 0.34994
# Poissons Ratio (z) = 0.28575 0.21967
#
# Static dielectric constant tensor:
#      x y z
#    x 3.741680 0.000000 0.000000 
#    y 0.000000 4.656510 0.000000 
#    z 0.000000 0.000000 5.003920 
# 
# 
# High freq. dielectric constant tensor:
#      x y z
#    x 1.887140 0.000000 0.000000 
#    y 0.000000 1.935130 0.000000 
#    z 0.000000 0.000000 1.959150 
# 
# From -- ./inp_files/30502.got.cif
#   From: 2010.06.25/outbox.cif.g09.slc.cpg/sg52_16_cif.got.tgz:30502.got - 2010.06.26 19:32:48.
