data_PCOD8216158
_publ_section_title
;
Structure prediction by ZEFSAII (Michael W. Deem and Ramdas Pophale) SiO2 
 PCOD8216158
Probable space group: P N N A
;
_chemical_formula_sum "Si O2"
_cell_formula_units_Z 40
_cell_length_a 16.714758
_cell_length_b 9.023009
_cell_length_c 13.282309
_cell_angle_alpha 90.000000
_cell_angle_beta 90.000000
_cell_angle_gamma 90.000000
_cell_volume 2003.203467
_symmetry_space_group_name_H-M "P N N A"
_symmetry_group_IT_number 52
_symmetry_cell_setting 'orthorhombic'
loop_
_space_group_symop_operation_xyz
x,y,z
1/2-x,-y,z
x,1/2-y,1/2-z
1/2-x,1/2+y,1/2-z
-x,-y,-z
1/2+x,y,-z
-x,1/2+y,1/2+z
1/2+x,1/2-y,1/2+z
loop_
_atom_site_type_symbol
_atom_site_label
_atom_site_fract_x
_atom_site_fract_y
_atom_site_fract_z
Si Si1 0.226793 0.156353 0.503995
Si Si2 0.556697 0.402121 0.931602
Si Si3 0.699255 0.863080 0.162127
Si Si4 0.048043 0.858930 0.963174
Si Si5 0.368496 0.320221 0.140876
O O1 0.132249 0.164909 0.490258
O O2 0.246489 0.289846 0.577062
O O3 0.277517 0.167380 0.399776
O O4 0.250000 0.000000 0.556115
O O5 0.506214 0.257557 0.897849
O O6 0.591364 0.515181 0.846899
O O7 0.500000 0.500000 0.000000
O O8 0.678569 0.750000 0.250000
O O9 0.616701 0.915879 0.111746
O O10 0.750000 0.000000 0.206027
O O11 0.081580 0.778098 0.062372
O O12 0.000000 0.000000 0.000000
O O13 0.367742 0.250000 0.250000
#
# Coordination Sequence:
#
# PCOD8216158 Si02
#       5
#     8   8   8   8   8
#     4   9  18  37  59  80 112 150 189 234 283 340
#     4   9  18  35  58  81 110 148 186 230 285 333
#     4  11  23  38  58  83 111 149 191 231 282 343
#     4  10  21  38  58  84 116 144 184 240 291 337
#     4   9  19  36  58  82 111 151 191 227 279 347
#
# _framework density 19.968017
#
# number of rings (size 3 to 8) (size 9 to 14) (size 15 to 20)
#    0.000    2.400    0.000    3.000    0.000    1.600 
#    0.000   26.000    0.000    0.000    0.000    0.000 
#    0.000    0.000    0.000    0.000    0.000    0.000 
#
# Total GULP energy -495656.998101 kJ/mol
# GULP energy per Si atom -12391.424953 kJ/mol
# Density = 1.992257 g / cm^3
# Si number density = 19.968017 Si / 1000 Ang^3
#
#
#
# Elastic Constant Matrix: (Units=GPa)
#
#
# Indices 1 2 3 4 5 6 
#
# 1 144.9858 54.4999 36.0291 0.0000 0.0000 0.0000
# 2 54.4999 116.6114 34.2771 0.0000 0.0000 0.0000
# 3 36.0291 34.2771 84.0270 0.0000 0.0000 0.0000
# 4 0.0000 0.0000 0.0000 29.2234 0.0000 0.0000
# 5 0.0000 0.0000 0.0000 0.0000 -1.9155 0.0000
# 6 0.0000 0.0000 0.0000 0.0000 0.0000 41.3951
#
#
#
# Elastic Compliance Matrix: (Units=1/GPa)
#
#
# Indices 1 2 3 4 5 6 
#
# 1 0.008764 -0.003399 -0.002371 0.000000 0.000000 0.000000
# 2 -0.003399 0.011062 -0.003055 0.000000 0.000000 0.000000
# 3 -0.002371 -0.003055 0.014164 0.000000 0.000000 0.000000
# 4 0.000000 0.000000 0.000000 0.034219 0.000000 0.000000
# 5 0.000000 0.000000 0.000000 0.000000 -0.522068 0.000000
# 6 0.000000 0.000000 0.000000 0.000000 0.000000 0.024157
#
#
# Mechanical properties :
#
#
# Convention : Reuss Voigt Hill
#
# Bulk Modulus (GPa) = 61.20213 66.13738 63.66976
# Shear Modulus (GPa) = -12.29699 28.46181 8.08241
#
# Velocity S-wave (km/s) = -2.48429 3.77950 2.01407
# Velocity P-wave (km/s) = 4.74212 7.22771 6.11259
#
# Compressibility (1/GPa) = 0.01633930
#
# Stress axis : x y z
#
# Youngs Moduli (GPa) = 114.10060 90.39867 70.60158
#
# Poissons Ratio (x) = 0.30727 0.16742
# Poissons Ratio (y) = 0.38783 0.21570
# Poissons Ratio (z) = 0.27057 0.27618
#
# Static dielectric constant tensor:
#      x y z
#    x 4.193690 0.000000 0.000000 
#    y 0.000000 3.856840 0.000000 
#    z 0.000000 0.000000 3.191380 
# 
# 
# High freq. dielectric constant tensor:
#      x y z
#    x 1.798070 0.000000 0.000000 
#    y 0.000000 1.794150 0.000000 
#    z 0.000000 0.000000 1.738420 
# 
# From -- ./inp_files/20279.got.cif
#   From: 2010.06.25/outbox.cif.g09.slc.cpg/sg52_11_cif.got.tgz:20279.got - 2010.06.26 19:32:48.
