data_PCOD8216367
_publ_section_title
;
Structure prediction by ZEFSAII (Michael W. Deem and Ramdas Pophale) SiO2 
 PCOD8216367
Probable space group: P N N A
;
_chemical_formula_sum "Si O2"
_cell_formula_units_Z 48
_cell_length_a 17.459004
_cell_length_b 14.583410
_cell_length_c 9.026705
_cell_angle_alpha 90.000000
_cell_angle_beta 90.000000
_cell_angle_gamma 90.000000
_cell_volume 2298.305730
_symmetry_space_group_name_H-M "P N N A"
_symmetry_group_IT_number 52
_symmetry_cell_setting 'orthorhombic'
loop_
_space_group_symop_operation_xyz
x,y,z
1/2-x,-y,z
x,1/2-y,1/2-z
1/2-x,1/2+y,1/2-z
-x,-y,-z
1/2+x,y,-z
-x,1/2+y,1/2+z
1/2+x,1/2-y,1/2+z
loop_
_atom_site_type_symbol
_atom_site_label
_atom_site_fract_x
_atom_site_fract_y
_atom_site_fract_z
Si Si1 0.419385 0.851771 0.770473
Si Si2 0.677114 0.351015 0.779365
Si Si3 0.223640 0.750000 0.750000
Si Si4 0.294306 0.592888 0.545166
Si Si5 0.673007 0.655194 0.973873
Si Si6 0.413350 0.968338 0.485758
Si Si7 0.934340 0.250000 0.750000
O O1 0.382369 0.750000 0.750000
O O2 0.385024 0.908636 0.910565
O O3 0.393733 0.906481 0.625737
O O4 0.511611 0.838372 0.789282
O O5 0.644458 0.250000 0.750000
O O6 0.714092 0.392566 0.630146
O O7 0.742937 0.346819 0.903118
O O8 0.604512 0.409325 0.837773
O O9 0.267416 0.678713 0.643311
O O10 0.172114 0.811453 0.642378
O O11 0.250000 0.500000 0.589290
O O12 0.618471 0.725985 0.888065
O O13 0.642663 0.553195 0.975120
O O14 0.500000 0.000000 0.500000
#
# Coordination Sequence:
#
# PCOD8216367 Si02
#       7
#     8   8   4   8   8   8   4
#     4  10  21  42  65  94 139 183 221 284 361 413
#     4  12  25  45  75 100 136 184 240 294 354 426
#     4  12  23  42  66 103 140 170 232 302 346 417
#     4  12  23  42  69 104 135 178 240 294 350 427
#     4  12  23  44  71 100 138 183 234 295 356 418
#     4  12  24  45  68 103 139 184 232 282 359 435
#     4  10  21  42  66  91 142 188 220 294 354 417
#
# _framework density 20.88495
#
# number of rings (size 3 to 8) (size 9 to 14) (size 15 to 20)
#    0.500    0.000    5.000    4.500    0.000    0.000 
#    4.500    0.833    0.000    0.000    0.000    0.000 
#    0.000    0.000    0.000    0.000    0.000    0.000 
#
# Total GULP energy -594937.332342 kJ/mol
# GULP energy per Si atom -12394.527757 kJ/mol
# Density = 2.083741 g / cm^3
# Si number density = 20.884950 Si / 1000 Ang^3
#
#
#
# Elastic Constant Matrix: (Units=GPa)
#
#
# Indices 1 2 3 4 5 6 
#
# 1 103.7343 43.3889 47.7092 0.0000 0.0000 0.0000
# 2 43.3889 127.9430 57.2945 0.0000 0.0000 0.0000
# 3 47.7092 57.2945 133.8527 0.0000 0.0000 0.0000
# 4 0.0000 0.0000 0.0000 43.1027 0.0000 0.0000
# 5 0.0000 0.0000 0.0000 0.0000 176.8590 0.0000
# 6 0.0000 0.0000 0.0000 0.0000 0.0000 6.4282
#
#
#
# Elastic Compliance Matrix: (Units=1/GPa)
#
#
# Indices 1 2 3 4 5 6 
#
# 1 0.012251 -0.002721 -0.003202 0.000000 0.000000 0.000000
# 2 -0.002721 0.010274 -0.003428 0.000000 0.000000 0.000000
# 3 -0.003202 -0.003428 0.010079 0.000000 0.000000 0.000000
# 4 0.000000 0.000000 0.000000 0.023200 0.000000 0.000000
# 5 0.000000 0.000000 0.000000 0.000000 0.005654 0.000000
# 6 0.000000 0.000000 0.000000 0.000000 0.000000 0.155564
#
#
# Mechanical properties :
#
#
# Convention : Reuss Voigt Hill
#
# Bulk Modulus (GPa) = 71.92769 73.59059 72.75914
# Shear Modulus (GPa) = 20.80233 59.75382 40.27807
#
# Velocity S-wave (km/s) = 3.15944 5.35472 4.39631
# Velocity P-wave (km/s) = 6.91550 8.57575 7.78998
#
# Compressibility (1/GPa) = 0.01390285
#
# Stress axis : x y z
#
# Youngs Moduli (GPa) = 81.62863 97.33642 99.21205
#
# Poissons Ratio (x) = 0.26482 0.31767
# Poissons Ratio (y) = 0.22208 0.34008
# Poissons Ratio (z) = 0.26137 0.33365
#
# Static dielectric constant tensor:
#      x y z
#    x 3.788630 0.000000 0.000000 
#    y 0.000000 4.028770 0.000000 
#    z 0.000000 0.000000 3.988860 
# 
# 
# High freq. dielectric constant tensor:
#      x y z
#    x 1.809560 0.000000 0.000000 
#    y 0.000000 1.830390 0.000000 
#    z 0.000000 0.000000 1.820760 
# 
# From -- ./inp_files/12146.got.cif
#   From: 2010.06.25/outbox.cif.g09.slc.cpg/sg52_7_cif.got.tgz:12146.got - 2010.06.26 19:32:48.
