data_PCOD8216826
_publ_section_title
;
Structure prediction by ZEFSAII (Michael W. Deem and Ramdas Pophale) SiO2 
 PCOD8216826
Probable space group: P N N A
;
_chemical_formula_sum "Si O2"
_cell_formula_units_Z 28
_cell_length_a 14.570838
_cell_length_b 7.121613
_cell_length_c 12.017908
_cell_angle_alpha 90.000000
_cell_angle_beta 90.000000
_cell_angle_gamma 90.000000
_cell_volume 1247.072707
_symmetry_space_group_name_H-M "P N N A"
_symmetry_group_IT_number 52
_symmetry_cell_setting 'orthorhombic'
loop_
_space_group_symop_operation_xyz
x,y,z
1/2-x,-y,z
x,1/2-y,1/2-z
1/2-x,1/2+y,1/2-z
-x,-y,-z
1/2+x,y,-z
-x,1/2+y,1/2+z
1/2+x,1/2-y,1/2+z
loop_
_atom_site_type_symbol
_atom_site_label
_atom_site_fract_x
_atom_site_fract_y
_atom_site_fract_z
Si Si1 0.250000 0.000000 0.871800
Si Si2 0.724428 0.784145 0.563085
Si Si3 0.385970 0.750000 0.750000
Si Si4 0.633651 0.250000 0.750000
Si Si5 0.037073 0.571577 0.116327
O O1 0.329672 0.930678 0.790644
O O2 0.221340 0.824118 0.947131
O O3 0.797811 0.688867 0.648501
O O4 0.621213 0.781312 0.609824
O O5 0.750000 0.000000 0.539550
O O6 0.448824 0.686469 0.850047
O O7 0.566760 0.412679 0.794365
O O8 0.000000 0.500000 0.000000
#
# Coordination Sequence:
#
# PCOD8216826 Si02
#       5
#     4   8   4   4   8
#     4  12  30  46  76  94 152 188 244 296 368 434
#     4  10  24  47  74 109 142 193 236 295 368 437
#     4  12  29  45  70 108 138 200 232 301 373 426
#     4  10  23  45  78 106 150 186 240 303 363 444
#     4  11  26  46  73 109 144 184 248 298 361 432
#
# _framework density 22.452580999999999
#
# number of rings (size 3 to 8) (size 9 to 14) (size 15 to 20)
#    0.000    1.143    0.000    4.286   20.000    1.143 
#    0.000    0.000    0.000    0.000    0.000    0.000 
#    0.000    0.000    0.000    0.000    0.000    0.000 
#
# Total GULP energy -347084.761922 kJ/mol
# GULP energy per Si atom -12395.884354 kJ/mol
# Density = 2.240148 g / cm^3
# Si number density = 22.452581 Si / 1000 Ang^3
#
#
#
# Elastic Constant Matrix: (Units=GPa)
#
#
# Indices 1 2 3 4 5 6 
#
# 1 162.0221 61.6546 53.1145 0.0000 0.0000 0.0000
# 2 61.6546 87.5361 51.5537 0.0000 0.0000 0.0000
# 3 53.1145 51.5537 104.3178 0.0000 0.0000 0.0000
# 4 0.0000 0.0000 0.0000 61.1156 0.0000 0.0000
# 5 0.0000 0.0000 0.0000 0.0000 -52.0223 0.0000
# 6 0.0000 0.0000 0.0000 0.0000 0.0000 49.3288
#
#
#
# Elastic Compliance Matrix: (Units=1/GPa)
#
#
# Indices 1 2 3 4 5 6 
#
# 1 0.008712 -0.004971 -0.001980 0.000000 0.000000 0.000000
# 2 -0.004971 0.018950 -0.006834 0.000000 0.000000 0.000000
# 3 -0.001980 -0.006834 0.013971 0.000000 0.000000 0.000000
# 4 0.000000 0.000000 0.000000 0.016362 0.000000 0.000000
# 5 0.000000 0.000000 0.000000 0.000000 -0.019223 0.000000
# 6 0.000000 0.000000 0.000000 0.000000 0.000000 0.020272
#
#
# Mechanical properties :
#
#
# Convention : Reuss Voigt Hill
#
# Bulk Modulus (GPa) = 71.09826 76.28017 73.68922
# Shear Modulus (GPa) = 54.76315 24.18799 39.47557
#
# Velocity S-wave (km/s) = 4.94404 3.28577 4.19761
# Velocity P-wave (km/s) = 8.02035 6.96008 7.50896
#
# Compressibility (1/GPa) = 0.01406504
#
# Stress axis : x y z
#
# Youngs Moduli (GPa) = 114.77882 52.77133 71.57492
#
# Poissons Ratio (x) = 0.26231 0.14169
# Poissons Ratio (y) = 0.57052 0.48915
# Poissons Ratio (z) = 0.22721 0.36064
#
# Static dielectric constant tensor:
#      x y z
#    x 4.542100 0.000000 0.000000 
#    y 0.000000 3.791470 0.000000 
#    z 0.000000 0.000000 4.081820 
# 
# 
# High freq. dielectric constant tensor:
#      x y z
#    x 1.900380 0.000000 0.000000 
#    y 0.000000 1.879530 0.000000 
#    z 0.000000 0.000000 1.897230 
# 
# From -- ./inp_files/18818.got.cif
#   From: 2010.06.25/outbox.cif.g09.slc.cpg/sg52_10_cif.got.tgz:18818.got - 2010.06.26 19:32:48.
