data_PCOD8216282
_publ_section_title
;
Structure prediction by ZEFSAII (Michael W. Deem and Ramdas Pophale) SiO2 
 PCOD8216282
Probable space group: P N N A
;
_chemical_formula_sum "Si O2"
_cell_formula_units_Z 32
_cell_length_a 15.223267
_cell_length_b 18.972455
_cell_length_c 4.879248
_cell_angle_alpha 90.000000
_cell_angle_beta 90.000000
_cell_angle_gamma 90.000000
_cell_volume 1409.237816
_symmetry_space_group_name_H-M "P N N A"
_symmetry_group_IT_number 52
_symmetry_cell_setting 'orthorhombic'
loop_
_space_group_symop_operation_xyz
x,y,z
1/2-x,-y,z
x,1/2-y,1/2-z
1/2-x,1/2+y,1/2-z
-x,-y,-z
1/2+x,y,-z
-x,1/2+y,1/2+z
1/2+x,1/2-y,1/2+z
loop_
_atom_site_type_symbol
_atom_site_label
_atom_site_fract_x
_atom_site_fract_y
_atom_site_fract_z
Si Si1 0.069077 0.939110 0.542903
Si Si2 0.932073 0.832182 0.743115
Si Si3 0.313181 0.438402 0.476624
Si Si4 0.319059 0.667543 0.738653
O O1 0.130789 0.971580 0.777364
O O2 0.021716 0.869690 0.659001
O O3 0.124162 0.916205 0.274799
O O4 0.000000 0.000000 0.500000
O O5 0.952518 0.750000 0.750000
O O6 0.850366 0.854403 0.543502
O O7 0.902148 0.852687 0.047797
O O8 0.250000 0.500000 0.367235
O O9 0.265641 0.371556 0.617548
O O10 0.296074 0.750000 0.750000
#
# Coordination Sequence:
#
# PCOD8216282 Si02
#       4
#     8   8   8   8
#     4  12  24  40  63  92 127 166 212 263 316 377
#     4  10  21  40  63  88 122 163 205 253 312 375
#     4  12  24  40  63  92 127 166 213 265 316 379
#     4  10  21  40  63  88 122 163 205 253 314 377
#
# _framework density 22.707311000000001
#
# number of rings (size 3 to 8) (size 9 to 14) (size 15 to 20)
#    0.000    1.000    0.000    7.500    0.000    1.000 
#    0.000    2.500    0.000    0.000    0.000    0.000 
#    0.000    0.000    0.000    0.000    0.000    0.000 
#
# Total GULP energy -396784.081667 kJ/mol
# GULP energy per Si atom -12399.502552 kJ/mol
# Density = 2.265563 g / cm^3
# Si number density = 22.707311 Si / 1000 Ang^3
#
#
#
# Elastic Constant Matrix: (Units=GPa)
#
#
# Indices 1 2 3 4 5 6 
#
# 1 117.2451 58.8713 43.4347 0.0000 0.0000 0.0000
# 2 58.8713 97.7868 41.3062 0.0000 0.0000 0.0000
# 3 43.4347 41.3062 119.8852 0.0000 0.0000 0.0000
# 4 0.0000 0.0000 0.0000 31.2369 0.0000 0.0000
# 5 0.0000 0.0000 0.0000 0.0000 37.6533 0.0000
# 6 0.0000 0.0000 0.0000 0.0000 0.0000 8.3681
#
#
#
# Elastic Compliance Matrix: (Units=1/GPa)
#
#
# Indices 1 2 3 4 5 6 
#
# 1 0.012749 -0.006699 -0.002311 0.000000 0.000000 0.000000
# 2 -0.006699 0.015488 -0.002909 0.000000 0.000000 0.000000
# 3 -0.002311 -0.002909 0.010181 0.000000 0.000000 0.000000
# 4 0.000000 0.000000 0.000000 0.032013 0.000000 0.000000
# 5 0.000000 0.000000 0.000000 0.000000 0.026558 0.000000
# 6 0.000000 0.000000 0.000000 0.000000 0.000000 0.119502
#
#
# Mechanical properties :
#
#
# Convention : Reuss Voigt Hill
#
# Bulk Modulus (GPa) = 68.58902 69.12686 68.85794
# Shear Modulus (GPa) = 20.39231 28.20531 24.29881
#
# Velocity S-wave (km/s) = 3.00000 3.52820 3.27477
# Velocity P-wave (km/s) = 6.50164 6.86340 6.68497
#
# Compressibility (1/GPa) = 0.01457959
#
# Stress axis : x y z
#
# Youngs Moduli (GPa) = 78.43718 64.56403 98.22280
#
# Poissons Ratio (x) = 0.43253 0.22697
# Poissons Ratio (y) = 0.52547 0.28577
# Poissons Ratio (z) = 0.18125 0.18784
#
# Static dielectric constant tensor:
#      x y z
#    x 4.165090 0.000000 0.000000 
#    y 0.000000 4.449840 0.000000 
#    z 0.000000 0.000000 4.487150 
# 
# 
# High freq. dielectric constant tensor:
#      x y z
#    x 1.895230 0.000000 0.000000 
#    y 0.000000 1.893180 0.000000 
#    z 0.000000 0.000000 1.919740 
# 
# From -- ./inp_files/1043.got.cif
#   From: 2010.06.25/outbox.cif.g09.slc.cpg/sg52_1_cif.got.tgz:1043.got - 2010.06.26 19:32:48.
