data_PCOD8216038
_publ_section_title
;
Structure prediction by ZEFSAII (Michael W. Deem and Ramdas Pophale) SiO2 
 PCOD8216038
Probable space group: P N N A
;
_chemical_formula_sum "Si O2"
_cell_formula_units_Z 56
_cell_length_a 16.647531
_cell_length_b 18.965591
_cell_length_c 8.987103
_cell_angle_alpha 90.000000
_cell_angle_beta 90.000000
_cell_angle_gamma 90.000000
_cell_volume 2837.500404
_symmetry_space_group_name_H-M "P N N A"
_symmetry_group_IT_number 52
_symmetry_cell_setting 'orthorhombic'
loop_
_space_group_symop_operation_xyz
x,y,z
1/2-x,-y,z
x,1/2-y,1/2-z
1/2-x,1/2+y,1/2-z
-x,-y,-z
1/2+x,y,-z
-x,1/2+y,1/2+z
1/2+x,1/2-y,1/2+z
loop_
_atom_site_type_symbol
_atom_site_label
_atom_site_fract_x
_atom_site_fract_y
_atom_site_fract_z
Si Si1 0.225611 0.250000 0.750000
Si Si2 0.670799 0.814579 0.999707
Si Si3 0.087739 0.157032 0.642341
Si Si4 0.056300 0.750000 0.250000
Si Si5 0.398525 0.829214 0.295172
Si Si6 0.423891 0.550029 0.631008
Si Si7 0.791940 0.929359 0.892189
Si Si8 0.528557 0.894032 0.112377
O O1 0.280060 0.260083 0.602841
O O2 0.165363 0.184980 0.731003
O O3 0.614688 0.774928 0.881907
O O4 0.729651 0.867372 0.917953
O O5 0.617070 0.863354 0.104598
O O6 0.104265 0.164619 0.470248
O O7 0.086457 0.076780 0.700108
O O8 0.002044 0.191061 0.681942
O O9 0.369057 0.750000 0.250000
O O10 0.348484 0.895005 0.231790
O O11 0.487620 0.843365 0.234184
O O12 0.340625 0.545686 0.539158
O O13 0.480369 0.607319 0.544540
O O14 0.467695 0.475956 0.655849
O O15 0.750000 0.000000 0.827795
#
# Coordination Sequence:
#
# PCOD8216038 Si02
#       8
#     4   8   8   4   8   8   8   8
#     4  11  26  38  64  93 134 172 214 271 330 392
#     4  12  23  40  63  98 129 163 221 283 322 388
#     4  11  23  45  62  92 133 182 212 263 340 404
#     4  11  26  38  64  95 132 166 216 273 332 390
#     4  11  25  41  67  96 137 177 215 269 341 409
#     4  10  20  43  65  89 123 173 219 263 325 401
#     4  11  23  43  66  93 129 179 224 267 333 406
#     4  10  22  39  67  95 122 164 220 270 323 397
#
# _framework density 19.735679000000001
#
# number of rings (size 3 to 8) (size 9 to 14) (size 15 to 20)
#    0.000    1.143    4.286    1.714   10.000    0.571 
#    0.000    2.143    0.000    0.000    0.000    0.000 
#    0.000    0.000    0.000    0.000    0.000    0.000 
#
# Total GULP energy -694092.647409 kJ/mol
# GULP energy per Si atom -12394.511561 kJ/mol
# Density = 1.969076 g / cm^3
# Si number density = 19.735679 Si / 1000 Ang^3
#
#
#
# Elastic Constant Matrix: (Units=GPa)
#
#
# Indices 1 2 3 4 5 6 
#
# 1 92.8521 18.1767 29.2551 0.0000 0.0000 0.0000
# 2 18.1767 86.9130 42.4476 0.0000 0.0000 0.0000
# 3 29.2551 42.4476 112.8258 0.0000 0.0000 0.0000
# 4 0.0000 0.0000 0.0000 29.4384 0.0000 0.0000
# 5 0.0000 0.0000 0.0000 0.0000 19.5617 0.0000
# 6 0.0000 0.0000 0.0000 0.0000 0.0000 22.8981
#
#
#
# Elastic Compliance Matrix: (Units=1/GPa)
#
#
# Indices 1 2 3 4 5 6 
#
# 1 0.011828 -0.001196 -0.002617 0.000000 0.000000 0.000000
# 2 -0.001196 0.014217 -0.005039 0.000000 0.000000 0.000000
# 3 -0.002617 -0.005039 0.011438 0.000000 0.000000 0.000000
# 4 0.000000 0.000000 0.000000 0.033969 0.000000 0.000000
# 5 0.000000 0.000000 0.000000 0.000000 0.051120 0.000000
# 6 0.000000 0.000000 0.000000 0.000000 0.000000 0.043672
#
#
# Mechanical properties :
#
#
# Convention : Reuss Voigt Hill
#
# Bulk Modulus (GPa) = 50.55667 52.48329 51.51998
# Shear Modulus (GPa) = 26.24121 27.89374 27.06748
#
# Velocity S-wave (km/s) = 3.65037 3.76356 3.70739
# Velocity P-wave (km/s) = 6.59086 6.74808 6.66993
#
# Compressibility (1/GPa) = 0.01977978
#
# Stress axis : x y z
#
# Youngs Moduli (GPa) = 84.54170 70.34025 87.43160
#
# Poissons Ratio (x) = 0.08409 0.22883
# Poissons Ratio (y) = 0.10107 0.44054
# Poissons Ratio (z) = 0.22127 0.35442
#
# Static dielectric constant tensor:
#      x y z
#    x 3.877840 0.000000 0.000000 
#    y 0.000000 3.582410 0.000000 
#    z 0.000000 0.000000 3.478780 
# 
# 
# High freq. dielectric constant tensor:
#      x y z
#    x 1.786740 0.000000 0.000000 
#    y 0.000000 1.771210 0.000000 
#    z 0.000000 0.000000 1.752960 
# 
# From -- ./inp_files/10854.got.cif
#   From: 2010.06.25/outbox.cif.g09.slc.cpg/sg52_6_cif.got.tgz:10854.got - 2010.06.26 19:32:48.
