data_PCOD8216853
_publ_section_title
;
Structure prediction by ZEFSAII (Michael W. Deem and Ramdas Pophale) SiO2 
 PCOD8216853
Probable space group: P N N A
;
_chemical_formula_sum "Si O2"
_cell_formula_units_Z 24
_cell_length_a 16.655182
_cell_length_b 7.659864
_cell_length_c 8.978202
_cell_angle_alpha 90.000000
_cell_angle_beta 90.000000
_cell_angle_gamma 90.000000
_cell_volume 1145.406950
_symmetry_space_group_name_H-M "P N N A"
_symmetry_group_IT_number 52
_symmetry_cell_setting 'orthorhombic'
loop_
_space_group_symop_operation_xyz
x,y,z
1/2-x,-y,z
x,1/2-y,1/2-z
1/2-x,1/2+y,1/2-z
-x,-y,-z
1/2+x,y,-z
-x,1/2+y,1/2+z
1/2+x,1/2-y,1/2+z
loop_
_atom_site_type_symbol
_atom_site_label
_atom_site_fract_x
_atom_site_fract_y
_atom_site_fract_z
Si Si1 0.414299 0.216086 0.079188
Si Si2 0.402959 0.872716 0.932215
Si Si3 0.841609 0.976052 0.380954
O O1 0.395301 0.250000 0.250000
O O2 0.508025 0.202465 0.041123
O O3 0.374702 0.365470 0.978255
O O4 0.376851 0.026721 0.042999
O O5 0.396576 0.950961 0.765164
O O6 0.345090 0.709010 0.968074
O O7 0.750000 0.000000 0.332009
#
# Coordination Sequence:
#
# PCOD8216853 Si02
#       3
#     8   8   8
#     4  11  23  43  66  97 134 167 220 275 324 388
#     4  10  24  41  70  96 124 177 223 260 325 400
#     4  11  24  43  67  97 132 175 223 272 325 390
#
# _framework density 20.953251999999999
#
# number of rings (size 3 to 8) (size 9 to 14) (size 15 to 20)
#    0.000    1.333    3.333    2.000    9.333    1.333 
#    6.000    0.000    0.000    0.000    0.000    0.000 
#    0.000    0.000    0.000    0.000    0.000    0.000 
#
# Total GULP energy -297529.128508 kJ/mol
# GULP energy per Si atom -12397.047021 kJ/mol
# Density = 2.090556 g / cm^3
# Si number density = 20.953252 Si / 1000 Ang^3
#
#
#
# Elastic Constant Matrix: (Units=GPa)
#
#
# Indices 1 2 3 4 5 6 
#
# 1 71.8824 47.6827 25.5914 0.0000 0.0000 0.0000
# 2 47.6827 165.9200 50.7345 0.0000 0.0000 0.0000
# 3 25.5914 50.7345 65.5029 0.0000 0.0000 0.0000
# 4 0.0000 0.0000 0.0000 31.6970 0.0000 0.0000
# 5 0.0000 0.0000 0.0000 0.0000 15.6304 0.0000
# 6 0.0000 0.0000 0.0000 0.0000 0.0000 27.4433
#
#
#
# Elastic Compliance Matrix: (Units=1/GPa)
#
#
# Indices 1 2 3 4 5 6 
#
# 1 0.017936 -0.003946 -0.003951 0.000000 0.000000 0.000000
# 2 -0.003946 0.008766 -0.005248 0.000000 0.000000 0.000000
# 3 -0.003951 -0.005248 0.020874 0.000000 0.000000 0.000000
# 4 0.000000 0.000000 0.000000 0.031549 0.000000 0.000000
# 5 0.000000 0.000000 0.000000 0.000000 0.063978 0.000000
# 6 0.000000 0.000000 0.000000 0.000000 0.000000 0.036439
#
#
# Mechanical properties :
#
#
# Convention : Reuss Voigt Hill
#
# Bulk Modulus (GPa) = 46.97778 61.25806 54.11792
# Shear Modulus (GPa) = 23.48227 26.90725 25.19476
#
# Velocity S-wave (km/s) = 3.35131 3.58740 3.47137
# Velocity P-wave (km/s) = 6.11915 6.81603 6.47697
#
# Compressibility (1/GPa) = 0.02128666
#
# Stress axis : x y z
#
# Youngs Moduli (GPa) = 55.75368 114.08068 47.90550
#
# Poissons Ratio (x) = 0.45022 0.18926
# Poissons Ratio (y) = 0.22003 0.25139
# Poissons Ratio (z) = 0.22027 0.59864
#
# Static dielectric constant tensor:
#      x y z
#    x 3.671390 0.000000 0.000000 
#    y 0.000000 4.534680 0.000000 
#    z 0.000000 0.000000 3.678290 
# 
# 
# High freq. dielectric constant tensor:
#      x y z
#    x 1.809050 0.000000 0.000000 
#    y 0.000000 1.854220 0.000000 
#    z 0.000000 0.000000 1.803260 
# 
# From -- ./inp_files/9311.got.cif
#   From: 2010.06.25/outbox.cif.g09.slc.cpg/sg52_5_cif.got.tgz:9311.got - 2010.06.26 19:32:48.
