data_PCOD8216895
_publ_section_title
;
Structure prediction by ZEFSAII (Michael W. Deem and Ramdas Pophale) SiO2 
 PCOD8216895
Probable space group: P N N A
;
_chemical_formula_sum "Si O2"
_cell_formula_units_Z 24
_cell_length_a 10.345689
_cell_length_b 20.140431
_cell_length_c 5.266273
_cell_angle_alpha 90.000000
_cell_angle_beta 90.000000
_cell_angle_gamma 90.000000
_cell_volume 1097.315586
_symmetry_space_group_name_H-M "P N N A"
_symmetry_group_IT_number 52
_symmetry_cell_setting 'orthorhombic'
loop_
_space_group_symop_operation_xyz
x,y,z
1/2-x,-y,z
x,1/2-y,1/2-z
1/2-x,1/2+y,1/2-z
-x,-y,-z
1/2+x,y,-z
-x,1/2+y,1/2+z
1/2+x,1/2-y,1/2+z
loop_
_atom_site_type_symbol
_atom_site_label
_atom_site_fract_x
_atom_site_fract_y
_atom_site_fract_z
Si Si1 0.200365 0.824724 0.333532
Si Si2 0.565241 0.386145 0.051182
Si Si3 0.669392 0.433877 0.559679
O O1 0.178828 0.750000 0.250000
O O2 0.320313 0.830827 0.530440
O O3 0.232030 0.871408 0.089550
O O4 0.071275 0.849841 0.471630
O O5 0.577841 0.425017 0.316190
O O6 0.419858 0.562198 0.185356
O O7 0.750000 0.500000 0.525816
#
# Coordination Sequence:
#
# PCOD8216895 Si02
#       3
#     8   8   8
#     4  10  26  44  70  97 141 172 229 277 335 399
#     4  10  25  43  68  99 130 180 221 273 336 393
#     4  10  24  44  68 102 135 175 225 276 334 398
#
# _framework density 21.871556000000002
#
# number of rings (size 3 to 8) (size 9 to 14) (size 15 to 20)
#    2.000    0.000    0.000    1.000    9.333    2.667 
#    0.000    0.000    0.000    0.000    0.000    0.000 
#    0.000    0.000    0.000    0.000    0.000    0.000 
#
# Total GULP energy -297413.414957 kJ/mol
# GULP energy per Si atom -12392.225623 kJ/mol
# Density = 2.182178 g / cm^3
# Si number density = 21.871556 Si / 1000 Ang^3
#
#
#
# Elastic Constant Matrix: (Units=GPa)
#
#
# Indices 1 2 3 4 5 6 
#
# 1 110.6399 -12.4606 9.6909 0.0000 0.0000 0.0000
# 2 -12.4606 70.7322 -1.2929 0.0000 0.0000 0.0000
# 3 9.6909 -1.2929 129.7010 0.0000 0.0000 0.0000
# 4 0.0000 0.0000 0.0000 13.3623 0.0000 0.0000
# 5 0.0000 0.0000 0.0000 0.0000 18.8252 0.0000
# 6 0.0000 0.0000 0.0000 0.0000 0.0000 7.5685
#
#
#
# Elastic Compliance Matrix: (Units=1/GPa)
#
#
# Indices 1 2 3 4 5 6 
#
# 1 0.009280 0.001623 -0.000677 0.000000 0.000000 0.000000
# 2 0.001623 0.014424 0.000023 0.000000 0.000000 0.000000
# 3 -0.000677 0.000023 0.007761 0.000000 0.000000 0.000000
# 4 0.000000 0.000000 0.000000 0.074838 0.000000 0.000000
# 5 0.000000 0.000000 0.000000 0.000000 0.053120 0.000000
# 6 0.000000 0.000000 0.000000 0.000000 0.000000 0.132126
#
#
# Mechanical properties :
#
#
# Convention : Reuss Voigt Hill
#
# Bulk Modulus (GPa) = 29.93924 33.66089 31.80007
# Shear Modulus (GPa) = 16.62525 28.96023 22.79274
#
# Velocity S-wave (km/s) = 2.76004 3.64277 3.23169
# Velocity P-wave (km/s) = 4.88625 5.75471 5.33817
#
# Compressibility (1/GPa) = 0.03340098
#
# Stress axis : x y z
#
# Youngs Moduli (GPa) = 107.75418 69.32850 128.85155
#
# Poissons Ratio (x) = -0.11249 0.08726
# Poissons Ratio (y) = -0.17483 -0.00291
# Poissons Ratio (z) = 0.07297 -0.00156
#
# Static dielectric constant tensor:
#      x y z
#    x 3.856100 0.000000 0.000000 
#    y 0.000000 3.708950 0.000000 
#    z 0.000000 0.000000 3.821520 
# 
# 
# High freq. dielectric constant tensor:
#      x y z
#    x 1.865190 0.000000 0.000000 
#    y 0.000000 1.845430 0.000000 
#    z 0.000000 0.000000 1.854170 
# 
# From -- ./inp_files/778.got.cif
#   From: 2010.06.25/outbox.cif.g09.slc.cpg/sg52_1_cif.got.tgz:778.got - 2010.06.26 19:32:48.
