data_PCOD8216022
_publ_section_title
;
Structure prediction by ZEFSAII (Michael W. Deem and Ramdas Pophale) SiO2 
 PCOD8216022
Probable space group: P N N A
;
_chemical_formula_sum "Si O2"
_cell_formula_units_Z 36
_cell_length_a 13.992255
_cell_length_b 13.607625
_cell_length_c 8.999475
_cell_angle_alpha 90.000000
_cell_angle_beta 90.000000
_cell_angle_gamma 90.000000
_cell_volume 1713.512270
_symmetry_space_group_name_H-M "P N N A"
_symmetry_group_IT_number 52
_symmetry_cell_setting 'orthorhombic'
loop_
_space_group_symop_operation_xyz
x,y,z
1/2-x,-y,z
x,1/2-y,1/2-z
1/2-x,1/2+y,1/2-z
-x,-y,-z
1/2+x,y,-z
-x,1/2+y,1/2+z
1/2+x,1/2-y,1/2+z
loop_
_atom_site_type_symbol
_atom_site_label
_atom_site_fract_x
_atom_site_fract_y
_atom_site_fract_z
Si Si1 0.250000 0.500000 0.772485
Si Si2 0.237738 0.894489 0.231548
Si Si3 0.785955 0.190055 0.460075
Si Si4 0.350158 0.861478 0.945088
Si Si5 0.440168 0.194730 0.100964
O O1 0.206119 0.586751 0.874602
O O2 0.330935 0.547783 0.667543
O O3 0.246031 0.817154 0.366105
O O4 0.136672 0.888472 0.144831
O O5 0.250000 0.000000 0.308627
O O6 0.320984 0.884764 0.112296
O O7 0.708879 0.264819 0.387035
O O8 0.892504 0.236853 0.471188
O O9 0.462979 0.849453 0.961529
O O10 0.470799 0.250000 0.250000
#
# Coordination Sequence:
#
# PCOD8216022 Si02
#       5
#     4   8   8   8   8
#     4  12  22  38  66  92 128 160 202 258 310 362
#     4  10  20  42  64  87 118 166 208 244 302 374
#     4  10  22  42  64  88 125 168 201 247 311 373
#     4  11  22  41  63  92 124 159 202 263 305 353
#     4   9  20  39  62  87 126 158 201 259 306 355
#
# _framework density 21.009478999999999
#
# number of rings (size 3 to 8) (size 9 to 14) (size 15 to 20)
#    0.000    1.778    2.222    4.000    0.000    0.889 
#    4.000    7.778    0.000    0.000    0.000    0.000 
#    0.000    0.000    0.000    0.000    0.000    0.000 
#
# Total GULP energy -446158.627193 kJ/mol
# GULP energy per Si atom -12393.295200 kJ/mol
# Density = 2.096166 g / cm^3
# Si number density = 21.009479 Si / 1000 Ang^3
#
#
#
# Elastic Constant Matrix: (Units=GPa)
#
#
# Indices 1 2 3 4 5 6 
#
# 1 147.4243 43.5311 41.1177 0.0000 0.0000 0.0000
# 2 43.5311 106.3529 32.7059 0.0000 0.0000 0.0000
# 3 41.1177 32.7059 94.9867 0.0000 0.0000 0.0000
# 4 0.0000 0.0000 0.0000 41.9560 0.0000 0.0000
# 5 0.0000 0.0000 0.0000 0.0000 7.1472 0.0000
# 6 0.0000 0.0000 0.0000 0.0000 0.0000 18.3098
#
#
#
# Elastic Compliance Matrix: (Units=1/GPa)
#
#
# Indices 1 2 3 4 5 6 
#
# 1 0.008295 -0.002562 -0.002709 0.000000 0.000000 0.000000
# 2 -0.002562 0.011308 -0.002784 0.000000 0.000000 0.000000
# 3 -0.002709 -0.002784 0.012659 0.000000 0.000000 0.000000
# 4 0.000000 0.000000 0.000000 0.023834 0.000000 0.000000
# 5 0.000000 0.000000 0.000000 0.000000 0.139915 0.000000
# 6 0.000000 0.000000 0.000000 0.000000 0.000000 0.054616
#
#
# Mechanical properties :
#
#
# Convention : Reuss Voigt Hill
#
# Bulk Modulus (GPa) = 61.91391 64.83039 63.37215
# Shear Modulus (GPa) = 18.37415 28.90987 23.64201
#
# Velocity S-wave (km/s) = 2.96051 3.71352 3.35819
# Velocity P-wave (km/s) = 6.42025 7.02223 6.72798
#
# Compressibility (1/GPa) = 0.01615146
#
# Stress axis : x y z
#
# Youngs Moduli (GPa) = 120.55194 88.43545 78.99554
#
# Poissons Ratio (x) = 0.22660 0.21396
# Poissons Ratio (y) = 0.30890 0.21995
# Poissons Ratio (z) = 0.32652 0.24623
#
# Static dielectric constant tensor:
#      x y z
#    x 3.496060 0.000000 0.000000 
#    y 0.000000 4.129370 0.000000 
#    z 0.000000 0.000000 3.849450 
# 
# 
# High freq. dielectric constant tensor:
#      x y z
#    x 1.796310 0.000000 0.000000 
#    y 0.000000 1.834580 0.000000 
#    z 0.000000 0.000000 1.832390 
# 
# From -- ./inp_files/9950.got.cif
#   From: 2010.06.25/outbox.cif.g09.slc.cpg/sg52_5_cif.got.tgz:9950.got - 2010.06.26 19:32:48.
