data_PCOD8216974
_publ_section_title
;
Structure prediction by ZEFSAII (Michael W. Deem and Ramdas Pophale) SiO2 
 PCOD8216974
Probable space group: P N N A
;
_chemical_formula_sum "Si O2"
_cell_formula_units_Z 32
_cell_length_a 29.398121
_cell_length_b 7.988326
_cell_length_c 4.827584
_cell_angle_alpha 90.000000
_cell_angle_beta 90.000000
_cell_angle_gamma 90.000000
_cell_volume 1133.718392
_symmetry_space_group_name_H-M "P N N A"
_symmetry_group_IT_number 52
_symmetry_cell_setting 'orthorhombic'
loop_
_space_group_symop_operation_xyz
x,y,z
1/2-x,-y,z
x,1/2-y,1/2-z
1/2-x,1/2+y,1/2-z
-x,-y,-z
1/2+x,y,-z
-x,1/2+y,1/2+z
1/2+x,1/2-y,1/2+z
loop_
_atom_site_type_symbol
_atom_site_label
_atom_site_fract_x
_atom_site_fract_y
_atom_site_fract_z
Si Si1 0.061598 0.014151 0.115559
Si Si2 0.250000 0.000000 0.398794
Si Si3 0.178665 0.750000 0.250000
Si Si4 0.693177 0.250000 0.250000
Si Si5 0.505036 0.250000 0.250000
Si Si6 0.867674 0.750000 0.750000
Si Si7 0.612350 0.750000 0.250000
O O1 0.028997 0.906407 0.319643
O O2 0.101770 0.084607 0.311766
O O3 0.080160 0.900628 0.860459
O O4 0.035968 0.181336 0.999935
O O5 0.213302 0.906784 0.201343
O O6 0.275386 0.884541 0.612793
O O7 0.146485 0.801361 0.503884
O O8 0.660920 0.317876 0.492264
#
# Coordination Sequence:
#
# PCOD8216974 Si02
#       7
#     8   4   4   4   4   4   4
#     4  11  26  48  78 111 154 198 254 313 380 452
#     4  12  28  52  80 114 156 202 256 318 384 456
#     4  12  28  50  78 113 153 202 255 315 382 454
#     4  12  28  50  78 113 153 202 255 315 382 454
#     4  10  26  48  76 112 152 200 252 312 380 452
#     4  12  27  49  78 113 153 202 255 315 380 453
#     4  12  27  49  78 113 153 202 255 315 380 453
#
# _framework density 28.225705000000001
#
# number of rings (size 3 to 8) (size 9 to 14) (size 15 to 20)
#    0.000    0.500    0.000    6.000    0.000   19.000 
#    0.000    0.000    0.000    0.000    0.000    0.000 
#    0.000    0.000    0.000    0.000    0.000    0.000 
#
# Total GULP energy -396417.927854 kJ/mol
# GULP energy per Si atom -12388.060245 kJ/mol
# Density = 2.816146 g / cm^3
# Si number density = 28.225705 Si / 1000 Ang^3
#
#
#
# Elastic Constant Matrix: (Units=GPa)
#
#
# Indices 1 2 3 4 5 6 
#
# 1 178.4977 78.6785 55.0450 0.0000 0.0000 0.0000
# 2 78.6785 136.7150 39.4776 0.0000 0.0000 0.0000
# 3 55.0450 39.4776 109.0110 0.0000 0.0000 0.0000
# 4 0.0000 0.0000 0.0000 59.9789 0.0000 0.0000
# 5 0.0000 0.0000 0.0000 0.0000 4.2391 0.0000
# 6 0.0000 0.0000 0.0000 0.0000 0.0000 63.0829
#
#
#
# Elastic Compliance Matrix: (Units=1/GPa)
#
#
# Indices 1 2 3 4 5 6 
#
# 1 0.008162 -0.003917 -0.002703 0.000000 0.000000 0.000000
# 2 -0.003917 0.010048 -0.001661 0.000000 0.000000 0.000000
# 3 -0.002703 -0.001661 0.011140 0.000000 0.000000 0.000000
# 4 0.000000 0.000000 0.000000 0.016673 0.000000 0.000000
# 5 0.000000 0.000000 0.000000 0.000000 0.235898 0.000000
# 6 0.000000 0.000000 0.000000 0.000000 0.000000 0.015852
#
#
# Mechanical properties :
#
#
# Convention : Reuss Voigt Hill
#
# Bulk Modulus (GPa) = 78.19600 85.62511 81.91055
# Shear Modulus (GPa) = 15.69375 42.19501 28.94438
#
# Velocity S-wave (km/s) = 2.36054 3.87061 3.20576
# Velocity P-wave (km/s) = 5.93241 7.09769 6.54105
#
# Compressibility (1/GPa) = 0.01278838
#
# Stress axis : x y z
#
# Youngs Moduli (GPa) = 122.51335 99.51976 89.76757
#
# Poissons Ratio (x) = 0.38980 0.24265
# Poissons Ratio (y) = 0.47987 0.14911
# Poissons Ratio (z) = 0.33117 0.16531
#
# Static dielectric constant tensor:
#      x y z
#    x 6.298460 0.000000 0.000000 
#    y 0.000000 4.947640 0.000000 
#    z 0.000000 0.000000 4.007780 
# 
# 
# High freq. dielectric constant tensor:
#      x y z
#    x 2.183390 0.000000 0.000000 
#    y 0.000000 2.157590 0.000000 
#    z 0.000000 0.000000 2.115520 
# 
# From -- ./inp_files/6207.got.cif
#   From: 2010.06.25/outbox.cif.g09.slc.cpg/sg52_4_cif.got.tgz:6207.got - 2010.06.26 19:32:48.
