data_PCOD8216861
_publ_section_title
;
Structure prediction by ZEFSAII (Michael W. Deem and Ramdas Pophale) SiO2 
 PCOD8216861
Probable space group: P N N A
;
_chemical_formula_sum "Si O2"
_cell_formula_units_Z 40
_cell_length_a 12.481790
_cell_length_b 8.717860
_cell_length_c 16.341784
_cell_angle_alpha 90.000000
_cell_angle_beta 90.000000
_cell_angle_gamma 90.000000
_cell_volume 1778.223019
_symmetry_space_group_name_H-M "P N N A"
_symmetry_group_IT_number 52
_symmetry_cell_setting 'orthorhombic'
loop_
_space_group_symop_operation_xyz
x,y,z
1/2-x,-y,z
x,1/2-y,1/2-z
1/2-x,1/2+y,1/2-z
-x,-y,-z
1/2+x,y,-z
-x,1/2+y,1/2+z
1/2+x,1/2-y,1/2+z
loop_
_atom_site_type_symbol
_atom_site_label
_atom_site_fract_x
_atom_site_fract_y
_atom_site_fract_z
Si Si1 0.250000 0.000000 0.355518
Si Si2 0.458067 0.883391 0.111774
Si Si3 0.144857 0.093743 0.938764
Si Si4 0.180432 0.250000 0.250000
Si Si5 0.483171 0.954583 0.409015
Si Si6 0.340272 0.867233 0.673527
O O1 0.237745 0.846421 0.303227
O O2 0.143158 0.019825 0.406072
O O3 0.392679 0.869464 0.197038
O O4 0.518723 0.721752 0.100956
O O5 0.545666 0.019876 0.113074
O O6 0.377927 0.909157 0.035466
O O7 0.170680 0.265994 0.908819
O O8 0.250000 0.000000 0.918783
O O9 0.545552 0.048450 0.338555
O O10 0.500000 0.000000 0.500000
O O11 0.338745 0.750000 0.750000
O O12 0.250000 0.000000 0.680830
#
# Coordination Sequence:
#
# PCOD8216861 Si02
#       6
#     4   8   8   4   8   8
#     4  10  26  42  70 102 142 186 238 296 366 426
#     4  10  24  44  68 103 139 190 237 303 365 435
#     4  11  24  45  70 102 143 192 243 299 369 444
#     4  10  24  42  66 100 142 182 236 308 350 434
#     4  11  24  46  72 105 146 193 245 303 368 446
#     4  12  28  47  75 107 144 193 248 309 377 451
#
# _framework density 22.494364999999998
#
# number of rings (size 3 to 8) (size 9 to 14) (size 15 to 20)
#    0.000    1.200    2.000    1.800    9.800    3.200 
#    3.600    0.000    0.000    0.000    0.000    0.000 
#    0.000    0.000    0.000    0.000    0.000    0.000 
#
# Total GULP energy -495636.152279 kJ/mol
# GULP energy per Si atom -12390.903807 kJ/mol
# Density = 2.244317 g / cm^3
# Si number density = 22.494365 Si / 1000 Ang^3
#
#
#
# Elastic Constant Matrix: (Units=GPa)
#
#
# Indices 1 2 3 4 5 6 
#
# 1 87.5655 46.9394 25.1440 0.0000 0.0000 0.0000
# 2 46.9394 122.8366 27.9190 0.0000 0.0000 0.0000
# 3 25.1440 27.9190 75.8552 0.0000 0.0000 0.0000
# 4 0.0000 0.0000 0.0000 45.5226 0.0000 0.0000
# 5 0.0000 0.0000 0.0000 0.0000 -37.6619 0.0000
# 6 0.0000 0.0000 0.0000 0.0000 0.0000 37.6946
#
#
#
# Elastic Compliance Matrix: (Units=1/GPa)
#
#
# Indices 1 2 3 4 5 6 
#
# 1 0.015012 -0.005026 -0.003126 0.000000 0.000000 0.000000
# 2 -0.005026 0.010567 -0.002223 0.000000 0.000000 0.000000
# 3 -0.003126 -0.002223 0.015038 0.000000 0.000000 0.000000
# 4 0.000000 0.000000 0.000000 0.021967 0.000000 0.000000
# 5 0.000000 0.000000 0.000000 0.000000 -0.026552 0.000000
# 6 0.000000 0.000000 0.000000 0.000000 0.000000 0.026529
#
#
# Mechanical properties :
#
#
# Convention : Reuss Voigt Hill
#
# Bulk Modulus (GPa) = 50.33862 54.02914 52.18388
# Shear Modulus (GPa) = 55.59714 21.52805 38.56259
#
# Velocity S-wave (km/s) = 4.97692 3.09697 4.14493
# Velocity P-wave (km/s) = 7.44669 6.07119 6.79384
#
# Compressibility (1/GPa) = 0.01986546
#
# Stress axis : x y z
#
# Youngs Moduli (GPa) = 66.61411 94.63652 66.50024
#
# Poissons Ratio (x) = 0.47564 0.20789
# Poissons Ratio (y) = 0.33480 0.14784
# Poissons Ratio (z) = 0.20825 0.21040
#
# Static dielectric constant tensor:
#      x y z
#    x 4.238450 0.000000 0.000000 
#    y 0.000000 4.530570 0.000000 
#    z 0.000000 0.000000 4.051600 
# 
# 
# High freq. dielectric constant tensor:
#      x y z
#    x 1.881680 0.000000 0.000000 
#    y 0.000000 1.903830 0.000000 
#    z 0.000000 0.000000 1.895170 
# 
# From -- ./inp_files/31998.got.cif
#   From: 2010.06.25/outbox.cif.g09.slc.cpg/sg52_16_cif.got.tgz:31998.got - 2010.06.26 19:32:48.
