data_PCOD8216951
_publ_section_title
;
Structure prediction by ZEFSAII (Michael W. Deem and Ramdas Pophale) SiO2 
 PCOD8216951
Probable space group: P N N A
;
_chemical_formula_sum "Si O2"
_cell_formula_units_Z 60
_cell_length_a 9.229367
_cell_length_b 25.324607
_cell_length_c 11.017570
_cell_angle_alpha 90.000000
_cell_angle_beta 90.000000
_cell_angle_gamma 90.000000
_cell_volume 2575.137651
_symmetry_space_group_name_H-M "P N N A"
_symmetry_group_IT_number 52
_symmetry_cell_setting 'orthorhombic'
loop_
_space_group_symop_operation_xyz
x,y,z
1/2-x,-y,z
x,1/2-y,1/2-z
1/2-x,1/2+y,1/2-z
-x,-y,-z
1/2+x,y,-z
-x,1/2+y,1/2+z
1/2+x,1/2-y,1/2+z
loop_
_atom_site_type_symbol
_atom_site_label
_atom_site_fract_x
_atom_site_fract_y
_atom_site_fract_z
Si Si1 0.655644 0.638973 0.594252
Si Si2 0.774455 0.250000 0.250000
Si Si3 0.606666 0.397770 0.939978
Si Si4 0.614928 0.295464 0.465662
Si Si5 0.082166 0.590744 0.149660
Si Si6 0.614063 0.963838 0.063166
Si Si7 0.083337 0.515783 0.823666
Si Si8 0.450863 0.787545 0.354025
O O1 0.809198 0.665266 0.562229
O O2 0.543768 0.681896 0.548359
O O3 0.630600 0.625972 0.735341
O O4 0.646534 0.586794 0.514980
O O5 0.684354 0.290853 0.332245
O O6 0.874749 0.214705 0.339446
O O7 0.772882 0.417313 0.933933
O O8 0.496023 0.447075 0.921360
O O9 0.594656 0.348677 0.846922
O O10 0.547089 0.379754 0.073450
O O11 0.600221 0.236425 0.518012
O O12 0.016377 0.535726 0.196253
O O13 0.569686 0.949350 0.200749
O O14 0.750000 0.000000 0.081037
O O15 0.500000 0.000000 0.000000
O O16 0.250000 0.500000 0.859531
O O17 0.377999 0.750000 0.250000
#
# Coordination Sequence:
#
# PCOD8216951 Si02
#       8
#     8   4   8   8   8   8   8   8
#     4  12  27  46  79 113 150 199 246 309 388 449
#     4  10  26  48  74 102 158 188 244 312 372 428
#     4  12  28  47  78  99 155 195 259 308 376 450
#     4  12  26  49  76 110 153 193 251 311 373 452
#     4  12  28  47  74 113 144 201 254 308 380 454
#     4  11  24  43  70 108 148 188 243 307 374 451
#     4  11  26  48  74 108 151 196 246 316 378 462
#     4  10  25  50  70 108 144 196 244 310 368 436
#
# _framework density 23.299724000000001
#
# number of rings (size 3 to 8) (size 9 to 14) (size 15 to 20)
#    0.400    0.267    2.667    3.200   13.067    0.000 
#    1.200    0.000    0.000    0.000    0.000    0.000 
#    0.000    0.000    0.000    0.000    0.000    0.000 
#
# Total GULP energy -743585.297344 kJ/mol
# GULP energy per Si atom -12393.088289 kJ/mol
# Density = 2.324669 g / cm^3
# Si number density = 23.299724 Si / 1000 Ang^3
#
#
#
# Elastic Constant Matrix: (Units=GPa)
#
#
# Indices 1 2 3 4 5 6 
#
# 1 88.1653 13.4137 25.6301 0.0000 0.0000 0.0000
# 2 13.4137 91.8122 11.5205 0.0000 0.0000 0.0000
# 3 25.6301 11.5205 97.2197 0.0000 0.0000 0.0000
# 4 0.0000 0.0000 0.0000 39.1375 0.0000 0.0000
# 5 0.0000 0.0000 0.0000 0.0000 35.0439 0.0000
# 6 0.0000 0.0000 0.0000 0.0000 0.0000 21.6271
#
#
#
# Elastic Compliance Matrix: (Units=1/GPa)
#
#
# Indices 1 2 3 4 5 6 
#
# 1 0.012466 -0.001430 -0.003117 0.000000 0.000000 0.000000
# 2 -0.001430 0.011220 -0.000953 0.000000 0.000000 0.000000
# 3 -0.003117 -0.000953 0.011221 0.000000 0.000000 0.000000
# 4 0.000000 0.000000 0.000000 0.025551 0.000000 0.000000
# 5 0.000000 0.000000 0.000000 0.000000 0.028536 0.000000
# 6 0.000000 0.000000 0.000000 0.000000 0.000000 0.046238
#
#
# Mechanical properties :
#
#
# Convention : Reuss Voigt Hill
#
# Bulk Modulus (GPa) = 41.82784 42.03620 41.93202
# Shear Modulus (GPa) = 32.42537 34.27057 33.34797
#
# Velocity S-wave (km/s) = 3.73455 3.83934 3.78730
# Velocity P-wave (km/s) = 6.04871 6.14286 6.09596
#
# Compressibility (1/GPa) = 0.02390752
#
# Stress axis : x y z
#
# Youngs Moduli (GPa) = 80.21796 89.12444 89.12196
#
# Poissons Ratio (x) = 0.12746 0.27779
# Poissons Ratio (y) = 0.11472 0.08489
# Poissons Ratio (z) = 0.25004 0.08490
#
# Static dielectric constant tensor:
#      x y z
#    x 4.206980 0.000000 0.000000 
#    y 0.000000 4.230470 0.000000 
#    z 0.000000 0.000000 4.318390 
# 
# 
# High freq. dielectric constant tensor:
#      x y z
#    x 1.928290 0.000000 0.000000 
#    y 0.000000 1.915740 0.000000 
#    z 0.000000 0.000000 1.932920 
# 
# From -- ./inp_files/17120.got.cif
#   From: 2010.06.25/outbox.cif.g09.slc.cpg/sg52_9_cif.got.tgz:17120.got - 2010.06.26 19:32:48.
