data_PCOD8216043
_publ_section_title
;
Structure prediction by ZEFSAII (Michael W. Deem and Ramdas Pophale) SiO2 
 PCOD8216043
Probable space group: P N N A
;
_chemical_formula_sum "Si O2"
_cell_formula_units_Z 32
_cell_length_a 11.076738
_cell_length_b 7.858279
_cell_length_c 16.040771
_cell_angle_alpha 90.000000
_cell_angle_beta 90.000000
_cell_angle_gamma 90.000000
_cell_volume 1396.254437
_symmetry_space_group_name_H-M "P N N A"
_symmetry_group_IT_number 52
_symmetry_cell_setting 'orthorhombic'
loop_
_space_group_symop_operation_xyz
x,y,z
1/2-x,-y,z
x,1/2-y,1/2-z
1/2-x,1/2+y,1/2-z
-x,-y,-z
1/2+x,y,-z
-x,1/2+y,1/2+z
1/2+x,1/2-y,1/2+z
loop_
_atom_site_type_symbol
_atom_site_label
_atom_site_fract_x
_atom_site_fract_y
_atom_site_fract_z
Si Si1 0.327176 0.750000 0.750000
Si Si2 0.827323 0.171583 0.105652
Si Si3 0.520182 0.988846 0.807057
Si Si4 0.815180 0.315657 0.580968
Si Si5 0.750000 0.000000 0.689433
O O1 0.244589 0.709371 0.830483
O O2 0.408303 0.581517 0.745703
O O3 0.964805 0.148070 0.140984
O O4 0.750000 0.000000 0.098885
O O5 0.834678 0.250646 0.013068
O O6 0.633301 0.027084 0.747710
O O7 0.555630 0.844399 0.875087
O O8 0.750000 0.500000 0.586910
O O9 0.748144 0.168834 0.632934
#
# Coordination Sequence:
#
# PCOD8216043 Si02
#       5
#     4   8   8   8   4
#     4  10  20  44  66  98 136 182 240 284 340 420
#     4   9  22  41  69  94 133 190 226 281 350 407
#     4  11  21  42  70  99 141 181 232 285 344 416
#     4  11  23  43  70 101 141 179 230 282 350 409
#     4  12  24  42  70 110 138 180 228 290 344 412
#
# _framework density 22.91846
#
# number of rings (size 3 to 8) (size 9 to 14) (size 15 to 20)
#    0.000    1.500    3.750    0.750    0.000    2.000 
#    6.750    1.250    0.000    0.000    0.000    0.000 
#    0.000    0.000    0.000    0.000    0.000    0.000 
#
# Total GULP energy -396489.534263 kJ/mol
# GULP energy per Si atom -12390.297946 kJ/mol
# Density = 2.286630 g / cm^3
# Si number density = 22.918460 Si / 1000 Ang^3
#
#
#
# Elastic Constant Matrix: (Units=GPa)
#
#
# Indices 1 2 3 4 5 6 
#
# 1 137.9086 46.2995 105.9900 0.0000 0.0000 0.0000
# 2 46.2995 63.5768 55.4972 0.0000 0.0000 0.0000
# 3 105.9900 55.4972 233.5979 0.0000 0.0000 0.0000
# 4 0.0000 0.0000 0.0000 26.2636 0.0000 0.0000
# 5 0.0000 0.0000 0.0000 0.0000 15.5866 0.0000
# 6 0.0000 0.0000 0.0000 0.0000 0.0000 30.8615
#
#
#
# Elastic Compliance Matrix: (Units=1/GPa)
#
#
# Indices 1 2 3 4 5 6 
#
# 1 0.012351 -0.005176 -0.004374 0.000000 0.000000 0.000000
# 2 -0.005176 0.022014 -0.002881 0.000000 0.000000 0.000000
# 3 -0.004374 -0.002881 0.006950 0.000000 0.000000 0.000000
# 4 0.000000 0.000000 0.000000 0.038075 0.000000 0.000000
# 5 0.000000 0.000000 0.000000 0.000000 0.064158 0.000000
# 6 0.000000 0.000000 0.000000 0.000000 0.000000 0.032403
#
#
# Mechanical properties :
#
#
# Convention : Reuss Voigt Hill
#
# Bulk Modulus (GPa) = 60.78572 94.51740 77.65156
# Shear Modulus (GPa) = 24.23686 29.69545 26.96615
#
# Velocity S-wave (km/s) = 3.25549 3.60349 3.43390
# Velocity P-wave (km/s) = 6.38053 7.65792 7.04822
#
# Compressibility (1/GPa) = 0.01645123
#
# Stress axis : x y z
#
# Youngs Moduli (GPa) = 80.96728 45.42637 143.88316
#
# Poissons Ratio (x) = 0.23513 0.62937
# Poissons Ratio (y) = 0.41909 0.41458
# Poissons Ratio (z) = 0.35416 0.13089
#
# Static dielectric constant tensor:
#      x y z
#    x 4.358160 0.000000 0.000000 
#    y 0.000000 3.766750 0.000000 
#    z 0.000000 0.000000 4.785860 
# 
# 
# High freq. dielectric constant tensor:
#      x y z
#    x 1.913560 0.000000 0.000000 
#    y 0.000000 1.868130 0.000000 
#    z 0.000000 0.000000 1.922590 
# 
# From -- ./inp_files/25525.got.cif
#   From: 2010.06.25/outbox.cif.g09.slc.cpg/sg52_13_cif.got.tgz:25525.got - 2010.06.26 19:32:48.
