data_PCOD8216387
_publ_section_title
;
Structure prediction by ZEFSAII (Michael W. Deem and Ramdas Pophale) SiO2 
 PCOD8216387
Probable space group: P N N A
;
_chemical_formula_sum "Si O2"
_cell_formula_units_Z 56
_cell_length_a 12.136316
_cell_length_b 15.417356
_cell_length_c 13.912567
_cell_angle_alpha 90.000000
_cell_angle_beta 90.000000
_cell_angle_gamma 90.000000
_cell_volume 2603.179080
_symmetry_space_group_name_H-M "P N N A"
_symmetry_group_IT_number 52
_symmetry_cell_setting 'orthorhombic'
loop_
_space_group_symop_operation_xyz
x,y,z
1/2-x,-y,z
x,1/2-y,1/2-z
1/2-x,1/2+y,1/2-z
-x,-y,-z
1/2+x,y,-z
-x,1/2+y,1/2+z
1/2+x,1/2-y,1/2+z
loop_
_atom_site_type_symbol
_atom_site_label
_atom_site_fract_x
_atom_site_fract_y
_atom_site_fract_z
Si Si1 0.630900 0.282527 0.100442
Si Si2 0.292226 0.820728 0.394491
Si Si3 0.039619 0.530186 0.336337
Si Si4 0.323941 0.882975 0.791511
Si Si5 0.904110 0.292438 0.564723
Si Si6 0.596172 0.621498 0.367999
Si Si7 0.250000 0.000000 0.293950
Si Si8 0.032867 0.250000 0.250000
O O1 0.660324 0.182290 0.118445
O O2 0.679183 0.335461 0.189569
O O3 0.498780 0.278223 0.086924
O O4 0.683137 0.326735 0.007370
O O5 0.198856 0.748203 0.379768
O O6 0.396321 0.783997 0.338930
O O7 0.251631 0.914612 0.359760
O O8 0.080358 0.610823 0.396833
O O9 0.139376 0.498700 0.269445
O O10 0.928094 0.553541 0.278286
O O11 0.995313 0.449917 0.402211
O O12 0.206531 0.924829 0.823516
O O13 0.882763 0.307341 0.451422
O O14 0.544497 0.671083 0.278363
#
# Coordination Sequence:
#
# PCOD8216387 Si02
#       8
#     8   8   8   8   8   8   4   4
#     4  10  21  42  69  98 132 183 235 279 348 427
#     4  12  24  45  68 102 140 189 239 284 358 426
#     4  11  25  45  67 102 144 183 235 296 357 419
#     4  10  22  43  69 101 139 178 230 294 355 414
#     4  11  24  42  73 101 138 186 239 291 357 430
#     4  12  23  43  70 105 140 181 234 298 362 423
#     4  12  26  48  68 104 148 192 240 296 350 430
#     4  12  24  42  72  98 146 184 228 298 356 434
#
# _framework density 21.512157999999999
#
# number of rings (size 3 to 8) (size 9 to 14) (size 15 to 20)
#    0.000    0.857    4.286    3.429    0.000    2.286 
#    5.143    1.429    0.000    0.000    0.000    0.000 
#    0.000    0.000    0.000    0.000    0.000    0.000 
#
# Total GULP energy -693931.797767 kJ/mol
# GULP energy per Si atom -12391.639246 kJ/mol
# Density = 2.146320 g / cm^3
# Si number density = 21.512158 Si / 1000 Ang^3
#
#
#
# Elastic Constant Matrix: (Units=GPa)
#
#
# Indices 1 2 3 4 5 6 
#
# 1 143.1863 46.8799 48.2462 0.0000 0.0000 0.0000
# 2 46.8799 82.8029 19.5680 0.0000 0.0000 0.0000
# 3 48.2462 19.5680 92.8975 0.0000 0.0000 0.0000
# 4 0.0000 0.0000 0.0000 32.7491 0.0000 0.0000
# 5 0.0000 0.0000 0.0000 0.0000 33.7405 0.0000
# 6 0.0000 0.0000 0.0000 0.0000 0.0000 48.7886
#
#
#
# Elastic Compliance Matrix: (Units=1/GPa)
#
#
# Indices 1 2 3 4 5 6 
#
# 1 0.009901 -0.004621 -0.004169 0.000000 0.000000 0.000000
# 2 -0.004621 0.014866 -0.000732 0.000000 0.000000 0.000000
# 3 -0.004169 -0.000732 0.013084 0.000000 0.000000 0.000000
# 4 0.000000 0.000000 0.000000 0.030535 0.000000 0.000000
# 5 0.000000 0.000000 0.000000 0.000000 0.029638 0.000000
# 6 0.000000 0.000000 0.000000 0.000000 0.000000 0.020497
#
#
# Mechanical properties :
#
#
# Convention : Reuss Voigt Hill
#
# Bulk Modulus (GPa) = 53.16728 60.91942 57.04335
# Shear Modulus (GPa) = 34.76257 36.66849 35.71553
#
# Velocity S-wave (km/s) = 4.02425 4.13310 4.07904
# Velocity P-wave (km/s) = 6.80892 7.15239 6.98277
#
# Compressibility (1/GPa) = 0.01880856
#
# Stress axis : x y z
#
# Youngs Moduli (GPa) = 100.99528 67.26859 76.43016
#
# Poissons Ratio (x) = 0.31082 0.31864
# Poissons Ratio (y) = 0.46666 0.05592
# Poissons Ratio (z) = 0.42105 0.04922
#
# Static dielectric constant tensor:
#      x y z
#    x 4.224070 0.000000 0.000000 
#    y 0.000000 3.925300 0.000000 
#    z 0.000000 0.000000 3.715990 
# 
# 
# High freq. dielectric constant tensor:
#      x y z
#    x 1.867000 0.000000 0.000000 
#    y 0.000000 1.843740 0.000000 
#    z 0.000000 0.000000 1.833280 
# 
# From -- ./inp_files/26188.got.cif
#   From: 2010.06.25/outbox.cif.g09.slc.cpg/sg52_14_cif.got.tgz:26188.got - 2010.06.26 19:32:48.
