data_PCOD8216081
_publ_section_title
;
Structure prediction by ZEFSAII (Michael W. Deem and Ramdas Pophale) SiO2 
 PCOD8216081
Probable space group: P N N A
;
_chemical_formula_sum "Si O2"
_cell_formula_units_Z 64
_cell_length_a 5.161499
_cell_length_b 32.582328
_cell_length_c 18.885529
_cell_angle_alpha 90.000000
_cell_angle_beta 90.000000
_cell_angle_gamma 90.000000
_cell_volume 3176.048408
_symmetry_space_group_name_H-M "P N N A"
_symmetry_group_IT_number 52
_symmetry_cell_setting 'orthorhombic'
loop_
_space_group_symop_operation_xyz
x,y,z
1/2-x,-y,z
x,1/2-y,1/2-z
1/2-x,1/2+y,1/2-z
-x,-y,-z
1/2+x,y,-z
-x,1/2+y,1/2+z
1/2+x,1/2-y,1/2+z
loop_
_atom_site_type_symbol
_atom_site_label
_atom_site_fract_x
_atom_site_fract_y
_atom_site_fract_z
Si Si1 0.636868 0.087037 0.831690
Si Si2 0.595308 0.090074 0.672940
Si Si3 0.472996 0.545959 0.469180
Si Si4 0.139847 0.140091 0.832430
Si Si5 0.225792 0.452298 0.035941
Si Si6 0.869733 0.798014 0.043975
Si Si7 0.596935 0.142284 0.327537
Si Si8 0.380544 0.797809 0.544771
O O1 0.608225 0.070542 0.751566
O O2 0.588760 0.048761 0.885396
O O3 0.422890 0.121596 0.847716
O O4 0.922314 0.105214 0.843698
O O5 0.662258 0.054053 0.618244
O O6 0.308583 0.106937 0.657199
O O7 0.805754 0.125864 0.663077
O O8 0.500000 0.500000 0.500000
O O9 0.241433 0.568868 0.511920
O O10 0.131285 0.157966 0.752800
O O11 0.088831 0.178147 0.883246
O O12 0.250000 0.500000 0.019508
O O13 0.497346 0.431875 0.011883
O O14 0.879657 0.750145 0.062362
O O15 0.096562 0.810356 0.990034
O O16 0.639508 0.179875 0.380132
O O17 0.140197 0.810933 0.495909
#
# Coordination Sequence:
#
# PCOD8216081 Si02
#       8
#     8   8   8   8   8   8   8   8
#     4  10  21  37  56  80 112 141 182 230 272 325
#     4  10  21  37  56  82 110 143 182 222 273 329
#     4  10  21  37  56  79 110 140 176 226 271 325
#     4  10  21  36  56  81 108 146 185 227 271 324
#     4  10  21  37  57  81 110 139 179 224 265 321
#     4  10  21  36  54  80 110 143 188 228 272 331
#     4  10  21  36  56  81 112 142 184 225 271 330
#     4  10  21  36  54  80 114 145 181 230 275 325
#
# _framework density 20.150825000000001
#
# number of rings (size 3 to 8) (size 9 to 14) (size 15 to 20)
#    0.000    2.000    0.000    3.000    0.000    6.500 
#    2.250    0.000    5.500    9.000    0.000    0.000 
#    0.000    0.000    0.000    0.000    0.000    0.000 
#
# Total GULP energy -793487.329116 kJ/mol
# GULP energy per Si atom -12398.239517 kJ/mol
# Density = 2.010496 g / cm^3
# Si number density = 20.150825 Si / 1000 Ang^3
#
#
#
# Elastic Constant Matrix: (Units=GPa)
#
#
# Indices 1 2 3 4 5 6 
#
# 1 132.1974 18.4619 42.8332 0.0000 0.0000 0.0000
# 2 18.4619 36.0288 53.2719 0.0000 0.0000 0.0000
# 3 42.8332 53.2719 155.8625 0.0000 0.0000 0.0000
# 4 0.0000 0.0000 0.0000 37.6641 0.0000 0.0000
# 5 0.0000 0.0000 0.0000 0.0000 29.3519 0.0000
# 6 0.0000 0.0000 0.0000 0.0000 0.0000 14.0944
#
#
#
# Elastic Compliance Matrix: (Units=1/GPa)
#
#
# Indices 1 2 3 4 5 6 
#
# 1 0.008361 -0.001793 -0.001685 0.000000 0.000000 0.000000
# 2 -0.001793 0.056498 -0.018818 0.000000 0.000000 0.000000
# 3 -0.001685 -0.018818 0.013311 0.000000 0.000000 0.000000
# 4 0.000000 0.000000 0.000000 0.026550 0.000000 0.000000
# 5 0.000000 0.000000 0.000000 0.000000 0.034069 0.000000
# 6 0.000000 0.000000 0.000000 0.000000 0.000000 0.070950
#
#
# Mechanical properties :
#
#
# Convention : Reuss Voigt Hill
#
# Bulk Modulus (GPa) = 29.78116 61.46920 45.62518
# Shear Modulus (GPa) = 18.83079 30.19020 24.51049
#
# Velocity S-wave (km/s) = 3.06026 3.87487 3.49141
# Velocity P-wave (km/s) = 5.22476 7.11269 6.24053
#
# Compressibility (1/GPa) = 0.03357828
#
# Stress axis : x y z
#
# Youngs Moduli (GPa) = 119.60651 17.69980 75.12858
#
# Poissons Ratio (x) = 0.03174 0.12658
# Poissons Ratio (y) = 0.21447 1.41373
# Poissons Ratio (z) = 0.20151 0.33307
#
# Static dielectric constant tensor:
#      x y z
#    x 2.333680 0.000000 0.000000 
#    y 0.000000 3.130680 0.000000 
#    z 0.000000 0.000000 3.774060 
# 
# 
# High freq. dielectric constant tensor:
#      x y z
#    x 1.819780 0.000000 0.000000 
#    y 0.000000 1.746840 0.000000 
#    z 0.000000 0.000000 1.796860 
# 
# From -- ./inp_files/30388.got.cif
#   From: 2010.06.25/outbox.cif.g09.slc.cpg/sg52_16_cif.got.tgz:30388.got - 2010.06.26 19:32:48.
