data_PCOD8216001
_publ_section_title
;
Structure prediction by ZEFSAII (Michael W. Deem and Ramdas Pophale) SiO2 
 PCOD8216001
Probable space group: P N N A
;
_chemical_formula_sum "Si O2"
_cell_formula_units_Z 44
_cell_length_a 15.668330
_cell_length_b 14.810252
_cell_length_c 9.042358
_cell_angle_alpha 90.000000
_cell_angle_beta 90.000000
_cell_angle_gamma 90.000000
_cell_volume 2098.296497
_symmetry_space_group_name_H-M "P N N A"
_symmetry_group_IT_number 52
_symmetry_cell_setting 'orthorhombic'
loop_
_space_group_symop_operation_xyz
x,y,z
1/2-x,-y,z
x,1/2-y,1/2-z
1/2-x,1/2+y,1/2-z
-x,-y,-z
1/2+x,y,-z
-x,1/2+y,1/2+z
1/2+x,1/2-y,1/2+z
loop_
_atom_site_type_symbol
_atom_site_label
_atom_site_fract_x
_atom_site_fract_y
_atom_site_fract_z
Si Si1 0.531443 0.443317 0.858487
Si Si2 0.284422 0.250000 0.250000
Si Si3 0.253369 0.750000 0.750000
Si Si4 0.250000 0.000000 0.603578
Si Si5 0.131594 0.586818 0.677978
Si Si6 0.661052 0.554795 0.659427
Si Si7 0.174505 0.167461 0.481843
O O1 0.461491 0.399039 0.749561
O O2 0.592591 0.505423 0.760944
O O3 0.580950 0.356107 0.922871
O O4 0.500000 0.500000 0.000000
O O5 0.337381 0.341561 0.280912
O O6 0.221514 0.242333 0.387072
O O7 0.190585 0.675601 0.680408
O O8 0.324570 0.791974 0.644322
O O9 0.330503 0.011232 0.711945
O O10 0.234829 0.079492 0.487365
O O11 0.127020 0.552590 0.509704
O O12 0.750000 0.500000 0.667212
#
# Coordination Sequence:
#
# PCOD8216001 Si02
#       7
#     8   4   4   4   8   8   8
#     4  12  26  43  71 105 143 183 230 299 359 414
#     4  12  24  43  75 102 132 186 242 284 339 433
#     4  10  24  43  71 102 138 188 240 284 349 439
#     4  10  20  40  76  88 138 192 230 270 352 430
#     4  11  23  43  70 103 141 184 236 296 352 412
#     4  12  25  46  73 104 139 189 241 291 355 431
#     4  11  22  43  67 103 133 181 235 280 352 420
#
# _framework density 20.969390000000001
#
# number of rings (size 3 to 8) (size 9 to 14) (size 15 to 20)
#    0.000    0.727    6.364    1.636    2.545    0.727 
#    0.000    2.727    0.000    0.000    0.000    0.000 
#    0.000    0.000    0.000    0.000    0.000    0.000 
#
# Total GULP energy -545225.594227 kJ/mol
# GULP energy per Si atom -12391.490778 kJ/mol
# Density = 2.092166 g / cm^3
# Si number density = 20.969390 Si / 1000 Ang^3
#
#
#
# Elastic Constant Matrix: (Units=GPa)
#
#
# Indices 1 2 3 4 5 6 
#
# 1 130.3605 43.5605 69.7159 0.0000 0.0000 0.0000
# 2 43.5605 94.6502 33.6991 0.0000 0.0000 0.0000
# 3 69.7159 33.6991 102.8844 0.0000 0.0000 0.0000
# 4 0.0000 0.0000 0.0000 10.3901 0.0000 0.0000
# 5 0.0000 0.0000 0.0000 0.0000 70.6789 0.0000
# 6 0.0000 0.0000 0.0000 0.0000 0.0000 19.5824
#
#
#
# Elastic Compliance Matrix: (Units=1/GPa)
#
#
# Indices 1 2 3 4 5 6 
#
# 1 0.012823 -0.003179 -0.007648 0.000000 0.000000 0.000000
# 2 -0.003179 0.012748 -0.002022 0.000000 0.000000 0.000000
# 3 -0.007648 -0.002022 0.015564 0.000000 0.000000 0.000000
# 4 0.000000 0.000000 0.000000 0.096245 0.000000 0.000000
# 5 0.000000 0.000000 0.000000 0.000000 0.014149 0.000000
# 6 0.000000 0.000000 0.000000 0.000000 0.000000 0.051066
#
#
# Mechanical properties :
#
#
# Convention : Reuss Voigt Hill
#
# Bulk Modulus (GPa) = 64.77191 69.09400 66.93296
# Shear Modulus (GPa) = 21.41892 32.19159 26.80526
#
# Velocity S-wave (km/s) = 3.19946 3.92238 3.57922
# Velocity P-wave (km/s) = 6.67867 7.31675 7.00498
#
# Compressibility (1/GPa) = 0.01543879
#
# Stress axis : x y z
#
# Youngs Moduli (GPa) = 77.98277 78.44448 64.24959
#
# Poissons Ratio (x) = 0.24934 0.49139
# Poissons Ratio (y) = 0.24788 0.12989
# Poissons Ratio (z) = 0.59642 0.15858
#
# Static dielectric constant tensor:
#      x y z
#    x 3.744380 0.000000 0.000000 
#    y 0.000000 3.858990 0.000000 
#    z 0.000000 0.000000 4.127400 
# 
# 
# High freq. dielectric constant tensor:
#      x y z
#    x 1.806420 0.000000 0.000000 
#    y 0.000000 1.823820 0.000000 
#    z 0.000000 0.000000 1.851090 
# 
# From -- ./inp_files/10386.got.cif
#   From: 2010.06.25/outbox.cif.g09.slc.cpg/sg52_6_cif.got.tgz:10386.got - 2010.06.26 19:32:48.
