data_PCOD8216607
_publ_section_title
;
Structure prediction by ZEFSAII (Michael W. Deem and Ramdas Pophale) SiO2 
 PCOD8216607
Probable space group: P N N A
;
_chemical_formula_sum "Si O2"
_cell_formula_units_Z 40
_cell_length_a 14.958935
_cell_length_b 15.811901
_cell_length_c 7.707927
_cell_angle_alpha 90.000000
_cell_angle_beta 90.000000
_cell_angle_gamma 90.000000
_cell_volume 1823.149801
_symmetry_space_group_name_H-M "P N N A"
_symmetry_group_IT_number 52
_symmetry_cell_setting 'orthorhombic'
loop_
_space_group_symop_operation_xyz
x,y,z
1/2-x,-y,z
x,1/2-y,1/2-z
1/2-x,1/2+y,1/2-z
-x,-y,-z
1/2+x,y,-z
-x,1/2+y,1/2+z
1/2+x,1/2-y,1/2+z
loop_
_atom_site_type_symbol
_atom_site_label
_atom_site_fract_x
_atom_site_fract_y
_atom_site_fract_z
Si Si1 0.081246 0.680929 0.627708
Si Si2 0.173845 0.434333 0.106720
Si Si3 0.855352 0.491601 0.234756
Si Si4 0.244970 0.256398 0.048070
Si Si5 0.901035 0.619813 0.527062
O O1 0.034228 0.750000 0.750000
O O2 0.117160 0.604817 0.744133
O O3 0.162407 0.728226 0.534647
O O4 0.002501 0.651584 0.499897
O O5 0.250000 0.500000 0.170593
O O6 0.219339 0.353421 0.010966
O O7 0.114334 0.410836 0.273841
O O8 0.111909 0.475584 0.955329
O O9 0.750000 0.500000 0.236988
O O10 0.894742 0.542577 0.396009
O O11 0.257895 0.250000 0.250000
O O12 0.167654 0.194100 0.977717
#
# Coordination Sequence:
#
# PCOD8216607 Si02
#       5
#     8   8   8   8   8
#     4  12  24  43  65  98 134 168 224 272 326 399
#     4  10  22  41  69  97 129 176 219 264 332 392
#     4  11  22  42  69  96 131 178 214 271 330 384
#     4  10  23  44  66  92 131 174 215 273 332 389
#     4  11  24  44  67  95 134 172 218 275 329 389
#
# _framework density 21.940051
#
# number of rings (size 3 to 8) (size 9 to 14) (size 15 to 20)
#    0.000    1.200    2.000    5.400    2.800    0.800 
#    7.200    0.000    0.000    0.000    0.000    0.000 
#    0.000    0.000    0.000    0.000    0.000    0.000 
#
# Total GULP energy -495925.040117 kJ/mol
# GULP energy per Si atom -12398.126003 kJ/mol
# Density = 2.189011 g / cm^3
# Si number density = 21.940051 Si / 1000 Ang^3
#
#
#
# Elastic Constant Matrix: (Units=GPa)
#
#
# Indices 1 2 3 4 5 6 
#
# 1 80.7100 16.3628 8.6273 0.0000 0.0000 0.0000
# 2 16.3628 123.4652 11.9715 0.0000 0.0000 0.0000
# 3 8.6273 11.9715 54.8737 0.0000 0.0000 0.0000
# 4 0.0000 0.0000 0.0000 16.7771 0.0000 0.0000
# 5 0.0000 0.0000 0.0000 0.0000 11.5073 0.0000
# 6 0.0000 0.0000 0.0000 0.0000 0.0000 -10.0211
#
#
#
# Elastic Compliance Matrix: (Units=1/GPa)
#
#
# Indices 1 2 3 4 5 6 
#
# 1 0.012884 -0.001544 -0.001689 0.000000 0.000000 0.000000
# 2 -0.001544 0.008459 -0.001603 0.000000 0.000000 0.000000
# 3 -0.001689 -0.001603 0.018839 0.000000 0.000000 0.000000
# 4 0.000000 0.000000 0.000000 0.059605 0.000000 0.000000
# 5 0.000000 0.000000 0.000000 0.000000 0.086901 0.000000
# 6 0.000000 0.000000 0.000000 0.000000 0.000000 -0.099789
#
#
# Mechanical properties :
#
#
# Convention : Reuss Voigt Hill
#
# Bulk Modulus (GPa) = 32.77489 36.99690 34.88589
# Shear Modulus (GPa) = 46.84297 18.45848 32.65073
#
# Velocity S-wave (km/s) = 4.62567 2.90369 3.86188
# Velocity P-wave (km/s) = 6.59544 5.30483 5.98503
#
# Compressibility (1/GPa) = 0.03051117
#
# Stress axis : x y z
#
# Youngs Moduli (GPa) = 77.61852 118.21100 53.08173
#
# Poissons Ratio (x) = 0.18248 0.08964
# Poissons Ratio (y) = 0.11982 0.08508
# Poissons Ratio (z) = 0.13108 0.18947
#
# Static dielectric constant tensor:
#      x y z
#    x 3.847530 0.000000 0.000000 
#    y 0.000000 4.731300 0.000000 
#    z 0.000000 0.000000 4.321170 
# 
# 
# High freq. dielectric constant tensor:
#      x y z
#    x 1.853660 0.000000 0.000000 
#    y 0.000000 1.889320 0.000000 
#    z 0.000000 0.000000 1.861040 
# 
# From -- ./inp_files/10057.got.cif
#   From: 2010.06.25/outbox.cif.g09.slc.cpg/sg52_6_cif.got.tgz:10057.got - 2010.06.26 19:32:48.
