data_PCOD8216511
_publ_section_title
;
Structure prediction by ZEFSAII (Michael W. Deem and Ramdas Pophale) SiO2 
 PCOD8216511
Probable space group: P N N A
;
_chemical_formula_sum "Si O2"
_cell_formula_units_Z 40
_cell_length_a 13.958606
_cell_length_b 8.450706
_cell_length_c 15.002003
_cell_angle_alpha 90.000000
_cell_angle_beta 90.000000
_cell_angle_gamma 90.000000
_cell_volume 1769.637406
_symmetry_space_group_name_H-M "P N N A"
_symmetry_group_IT_number 52
_symmetry_cell_setting 'orthorhombic'
loop_
_space_group_symop_operation_xyz
x,y,z
1/2-x,-y,z
x,1/2-y,1/2-z
1/2-x,1/2+y,1/2-z
-x,-y,-z
1/2+x,y,-z
-x,1/2+y,1/2+z
1/2+x,1/2-y,1/2+z
loop_
_atom_site_type_symbol
_atom_site_label
_atom_site_fract_x
_atom_site_fract_y
_atom_site_fract_z
Si Si1 0.594678 0.190771 0.350850
Si Si2 0.752458 0.809610 0.489521
Si Si3 0.960964 0.321686 0.503756
Si Si4 0.816366 0.646291 0.828260
Si Si5 0.973951 0.143773 0.328089
O O1 0.591812 0.250000 0.250000
O O2 0.689462 0.252581 0.402248
O O3 0.499959 0.243523 0.405114
O O4 0.597087 0.999810 0.348428
O O5 0.653177 0.712381 0.496966
O O6 0.813979 0.761011 0.577042
O O7 0.750000 0.000000 0.481852
O O8 0.001335 0.239843 0.415971
O O9 0.000000 0.500000 0.500000
O O10 0.750000 0.500000 0.844786
O O11 0.770440 0.750000 0.750000
O O12 0.921072 0.586271 0.796013
O O13 0.926165 0.250000 0.250000
#
# Coordination Sequence:
#
# PCOD8216511 Si02
#       5
#     8   8   8   8   8
#     4  12  25  47  74 107 148 199 253 313 391 470
#     4  11  23  45  74 102 145 195 247 311 384 462
#     4  12  26  45  71 106 147 193 250 315 387 465
#     4  10  22  39  68  99 137 183 236 303 370 452
#     4  11  23  44  71 102 142 189 246 312 388 461
#
# _framework density 22.6035
#
# number of rings (size 3 to 8) (size 9 to 14) (size 15 to 20)
#    0.000    0.800    4.000    4.200    0.000    8.000 
#    3.600    0.000    0.000    0.000    0.000    0.000 
#    0.000    0.000    0.000    0.000    0.000    0.000 
#
# Total GULP energy -495630.781204 kJ/mol
# GULP energy per Si atom -12390.769530 kJ/mol
# Density = 2.255205 g / cm^3
# Si number density = 22.603500 Si / 1000 Ang^3
#
#
#
# Elastic Constant Matrix: (Units=GPa)
#
#
# Indices 1 2 3 4 5 6 
#
# 1 138.2082 37.8288 52.2872 0.0000 0.0000 0.0000
# 2 37.8288 117.7000 56.4899 0.0000 0.0000 0.0000
# 3 52.2872 56.4899 212.2016 0.0000 0.0000 0.0000
# 4 0.0000 0.0000 0.0000 40.3328 0.0000 0.0000
# 5 0.0000 0.0000 0.0000 0.0000 29.0469 0.0000
# 6 0.0000 0.0000 0.0000 0.0000 0.0000 33.0174
#
#
#
# Elastic Compliance Matrix: (Units=1/GPa)
#
#
# Indices 1 2 3 4 5 6 
#
# 1 0.008350 -0.001945 -0.001540 0.000000 0.000000 0.000000
# 2 -0.001945 0.010194 -0.002234 0.000000 0.000000 0.000000
# 3 -0.001540 -0.002234 0.005687 0.000000 0.000000 0.000000
# 4 0.000000 0.000000 0.000000 0.024794 0.000000 0.000000
# 5 0.000000 0.000000 0.000000 0.000000 0.034427 0.000000
# 6 0.000000 0.000000 0.000000 0.000000 0.000000 0.030287
#
#
# Mechanical properties :
#
#
# Convention : Reuss Voigt Hill
#
# Bulk Modulus (GPa) = 78.16995 84.59129 81.38062
# Shear Modulus (GPa) = 38.62773 41.91304 40.27038
#
# Velocity S-wave (km/s) = 4.13840 4.31080 4.22548
# Velocity P-wave (km/s) = 7.58244 7.89193 7.73873
#
# Compressibility (1/GPa) = 0.01279264
#
# Stress axis : x y z
#
# Youngs Moduli (GPa) = 119.75602 98.10047 175.84749
#
# Poissons Ratio (x) = 0.19078 0.27078
# Poissons Ratio (y) = 0.23290 0.39292
# Poissons Ratio (z) = 0.18440 0.21920
#
# Static dielectric constant tensor:
#      x y z
#    x 4.004170 0.000000 0.000000 
#    y 0.000000 3.842440 0.000000 
#    z 0.000000 0.000000 2.140060 
# 
# 
# High freq. dielectric constant tensor:
#      x y z
#    x 1.895060 0.000000 0.000000 
#    y 0.000000 1.868280 0.000000 
#    z 0.000000 0.000000 1.914860 
# 
# From -- ./inp_files/26858.got.cif
#   From: 2010.06.25/outbox.cif.g09.slc.cpg/sg52_14_cif.got.tgz:26858.got - 2010.06.26 19:32:48.
