data_PCOD8216542
_publ_section_title
;
Structure prediction by ZEFSAII (Michael W. Deem and Ramdas Pophale) SiO2 
 PCOD8216542
Probable space group: P N N A
;
_chemical_formula_sum "Si O2"
_cell_formula_units_Z 60
_cell_length_a 9.608079
_cell_length_b 24.379589
_cell_length_c 12.416481
_cell_angle_alpha 90.000000
_cell_angle_beta 90.000000
_cell_angle_gamma 90.000000
_cell_volume 2908.449138
_symmetry_space_group_name_H-M "P N N A"
_symmetry_group_IT_number 52
_symmetry_cell_setting 'orthorhombic'
loop_
_space_group_symop_operation_xyz
x,y,z
1/2-x,-y,z
x,1/2-y,1/2-z
1/2-x,1/2+y,1/2-z
-x,-y,-z
1/2+x,y,-z
-x,1/2+y,1/2+z
1/2+x,1/2-y,1/2+z
loop_
_atom_site_type_symbol
_atom_site_label
_atom_site_fract_x
_atom_site_fract_y
_atom_site_fract_z
Si Si1 0.226573 0.561622 0.207987
Si Si2 0.002325 0.685515 0.008907
Si Si3 0.499892 0.856270 0.723106
Si Si4 0.001607 0.622245 0.811255
Si Si5 0.631771 0.962916 0.471958
Si Si6 0.276897 0.309680 0.690002
Si Si7 0.738563 0.245661 0.982166
Si Si8 0.818364 0.250000 0.750000
O O1 0.250000 0.500000 0.251804
O O2 0.368428 0.592855 0.240776
O O3 0.093423 0.592116 0.264366
O O4 0.200710 0.562615 0.079778
O O5 0.968170 0.636762 0.094824
O O6 0.164406 0.700760 0.002525
O O7 0.943381 0.667722 0.892851
O O8 0.912189 0.740186 0.032841
O O9 0.360373 0.846982 0.790289
O O10 0.586709 0.800355 0.717009
O O11 0.096877 0.582611 0.883957
O O12 0.092003 0.652904 0.721418
O O13 0.750000 0.000000 0.415801
O O14 0.500000 0.000000 0.500000
O O15 0.272996 0.250000 0.750000
O O16 0.293299 0.302573 0.560757
O O17 0.730097 0.230034 0.854971
#
# Coordination Sequence:
#
# PCOD8216542 Si02
#       8
#     8   8   8   8   8   8   8   4
#     4  11  24  39  56  89 131 173 228 278 336 403
#     4  11  20  33  57  83 124 168 215 250 324 387
#     4  11  21  39  62  87 126 175 217 266 332 402
#     4  12  23  34  59  90 126 181 223 278 336 397
#     4  11  22  37  57  87 131 178 232 291 341 403
#     4  12  23  40  58  93 133 177 219 260 328 413
#     4  11  23  39  57  87 129 167 217 265 314 410
#     4  10  22  40  64  92 120 172 214 268 340 386
#
# _framework density 20.629549999999998
#
# number of rings (size 3 to 8) (size 9 to 14) (size 15 to 20)
#    0.000    0.800    7.333    2.400    3.733    2.133 
#    1.200    0.000    0.000    0.000    0.000    4.667 
#    0.000    0.000    0.000    0.000    0.000    0.000 
#
# Total GULP energy -743498.050447 kJ/mol
# GULP energy per Si atom -12391.634174 kJ/mol
# Density = 2.058260 g / cm^3
# Si number density = 20.629550 Si / 1000 Ang^3
#
#
#
# Elastic Constant Matrix: (Units=GPa)
#
#
# Indices 1 2 3 4 5 6 
#
# 1 120.3072 50.6785 32.2209 0.0000 0.0000 0.0000
# 2 50.6785 92.9914 31.4326 0.0000 0.0000 0.0000
# 3 32.2209 31.4326 101.2119 0.0000 0.0000 0.0000
# 4 0.0000 0.0000 0.0000 24.4563 0.0000 0.0000
# 5 0.0000 0.0000 0.0000 0.0000 18.2680 0.0000
# 6 0.0000 0.0000 0.0000 0.0000 0.0000 43.3613
#
#
#
# Elastic Compliance Matrix: (Units=1/GPa)
#
#
# Indices 1 2 3 4 5 6 
#
# 1 0.011090 -0.005419 -0.001847 0.000000 0.000000 0.000000
# 2 -0.005419 0.014663 -0.002829 0.000000 0.000000 0.000000
# 3 -0.001847 -0.002829 0.011347 0.000000 0.000000 0.000000
# 4 0.000000 0.000000 0.000000 0.040889 0.000000 0.000000
# 5 0.000000 0.000000 0.000000 0.000000 0.054741 0.000000
# 6 0.000000 0.000000 0.000000 0.000000 0.000000 0.023062
#
#
# Mechanical properties :
#
#
# Convention : Reuss Voigt Hill
#
# Bulk Modulus (GPa) = 59.13932 60.35271 59.74602
# Shear Modulus (GPa) = 27.53026 30.56234 29.04630
#
# Velocity S-wave (km/s) = 3.65705 3.85318 3.75640
# Velocity P-wave (km/s) = 6.82360 7.00821 6.91652
#
# Compressibility (1/GPa) = 0.01690922
#
# Stress axis : x y z
#
# Youngs Moduli (GPa) = 90.17440 68.19814 88.13027
#
# Poissons Ratio (x) = 0.36958 0.16281
# Poissons Ratio (y) = 0.48867 0.24929
# Poissons Ratio (z) = 0.16659 0.19291
#
# Static dielectric constant tensor:
#      x y z
#    x 3.891900 0.000000 0.000000 
#    y 0.000000 3.798750 0.000000 
#    z 0.000000 0.000000 3.595860 
# 
# 
# High freq. dielectric constant tensor:
#      x y z
#    x 1.824600 0.000000 0.000000 
#    y 0.000000 1.790470 0.000000 
#    z 0.000000 0.000000 1.765580 
# 
# From -- ./inp_files/25089.got.cif
#   From: 2010.06.25/outbox.cif.g09.slc.cpg/sg52_13_cif.got.tgz:25089.got - 2010.06.26 19:32:48.
