data_PCOD8216913
_publ_section_title
;
Structure prediction by ZEFSAII (Michael W. Deem and Ramdas Pophale) SiO2 
 PCOD8216913
Probable space group: P N N A
;
_chemical_formula_sum "Si O2"
_cell_formula_units_Z 48
_cell_length_a 23.778638
_cell_length_b 10.278476
_cell_length_c 9.708029
_cell_angle_alpha 90.000000
_cell_angle_beta 90.000000
_cell_angle_gamma 90.000000
_cell_volume 2372.721505
_symmetry_space_group_name_H-M "P N N A"
_symmetry_group_IT_number 52
_symmetry_cell_setting 'orthorhombic'
loop_
_space_group_symop_operation_xyz
x,y,z
1/2-x,-y,z
x,1/2-y,1/2-z
1/2-x,1/2+y,1/2-z
-x,-y,-z
1/2+x,y,-z
-x,1/2+y,1/2+z
1/2+x,1/2-y,1/2+z
loop_
_atom_site_type_symbol
_atom_site_label
_atom_site_fract_x
_atom_site_fract_y
_atom_site_fract_z
Si Si1 0.033634 0.342454 0.634674
Si Si2 0.883351 0.056209 0.043097
Si Si3 0.895236 0.355197 0.024449
Si Si4 0.200885 0.901356 0.734318
Si Si5 0.009681 0.329638 0.122188
Si Si6 0.081336 0.543906 0.254052
O O1 0.061588 0.250000 0.750000
O O2 0.069374 0.473022 0.620845
O O3 0.034205 0.268137 0.490833
O O4 0.970782 0.377563 0.681626
O O5 0.823803 0.044220 0.121233
O O6 0.902887 0.204042 0.057142
O O7 0.877050 0.013067 0.882591
O O8 0.884578 0.373375 0.860822
O O9 0.845504 0.416254 0.114100
O O10 0.956959 0.415790 0.063316
O O11 0.220722 0.750000 0.750000
O O12 0.250000 0.000000 0.691394
O O13 0.985151 0.250000 0.250000
O O14 0.061585 0.415313 0.175181
#
# Coordination Sequence:
#
# PCOD8216913 Si02
#       6
#     8   8   8   8   8   8
#     4  12  23  36  56  93 137 177 208 245 298 373
#     4  11  22  40  62  88 125 166 206 255 310 373
#     4  11  22  39  62  89 123 165 211 253 308 372
#     4  10  24  46  69  90 114 158 219 279 330 376
#     4  12  22  36  56  90 139 177 206 245 298 374
#     4  12  22  37  56  91 133 171 209 245 302 377
#
# _framework density 20.229932999999999
#
# number of rings (size 3 to 8) (size 9 to 14) (size 15 to 20)
#    0.000    0.667    5.000    5.000    2.333    0.667 
#    0.000    0.833    0.000    0.000    0.000    0.000 
#    0.000    0.000    0.000    0.000    0.000    0.000 
#
# Total GULP energy -595146.561433 kJ/mol
# GULP energy per Si atom -12398.886697 kJ/mol
# Density = 2.018389 g / cm^3
# Si number density = 20.229933 Si / 1000 Ang^3
#
#
#
# Elastic Constant Matrix: (Units=GPa)
#
#
# Indices 1 2 3 4 5 6 
#
# 1 87.9327 51.5006 47.4011 0.0000 0.0000 0.0000
# 2 51.5006 86.0552 55.0345 0.0000 0.0000 0.0000
# 3 47.4011 55.0345 158.3076 0.0000 0.0000 0.0000
# 4 0.0000 0.0000 0.0000 39.1618 0.0000 0.0000
# 5 0.0000 0.0000 0.0000 0.0000 22.0657 0.0000
# 6 0.0000 0.0000 0.0000 0.0000 0.0000 33.9302
#
#
#
# Elastic Compliance Matrix: (Units=1/GPa)
#
#
# Indices 1 2 3 4 5 6 
#
# 1 0.018047 -0.009444 -0.002120 0.000000 0.000000 0.000000
# 2 -0.009444 0.019885 -0.004085 0.000000 0.000000 0.000000
# 3 -0.002120 -0.004085 0.008372 0.000000 0.000000 0.000000
# 4 0.000000 0.000000 0.000000 0.025535 0.000000 0.000000
# 5 0.000000 0.000000 0.000000 0.000000 0.045319 0.000000
# 6 0.000000 0.000000 0.000000 0.000000 0.000000 0.029472
#
#
# Mechanical properties :
#
#
# Convention : Reuss Voigt Hill
#
# Bulk Modulus (GPa) = 66.64803 71.12978 68.88890
# Shear Modulus (GPa) = 27.33282 30.92218 29.12750
#
# Velocity S-wave (km/s) = 3.67973 3.91389 3.79861
# Velocity P-wave (km/s) = 7.14637 7.46068 7.30522
#
# Compressibility (1/GPa) = 0.01500420
#
# Stress axis : x y z
#
# Youngs Moduli (GPa) = 55.41205 50.28955 119.44794
#
# Poissons Ratio (x) = 0.47494 0.25328
# Poissons Ratio (y) = 0.52332 0.48795
# Poissons Ratio (z) = 0.11750 0.20543
#
# Static dielectric constant tensor:
#      x y z
#    x 3.241350 0.000000 0.000000 
#    y 0.000000 3.730440 0.000000 
#    z 0.000000 0.000000 4.301340 
# 
# 
# High freq. dielectric constant tensor:
#      x y z
#    x 1.725730 0.000000 0.000000 
#    y 0.000000 1.795010 0.000000 
#    z 0.000000 0.000000 1.820840 
# 
# From -- ./inp_files/14221.got.cif
#   From: 2010.06.25/outbox.cif.g09.slc.cpg/sg52_8_cif.got.tgz:14221.got - 2010.06.26 19:32:48.
