data_PCOD8216720
_publ_section_title
;
Structure prediction by ZEFSAII (Michael W. Deem and Ramdas Pophale) SiO2 
 PCOD8216720
Probable space group: P N N A
;
_chemical_formula_sum "Si O2"
_cell_formula_units_Z 36
_cell_length_a 11.931867
_cell_length_b 20.414650
_cell_length_c 5.668683
_cell_angle_alpha 90.000000
_cell_angle_beta 90.000000
_cell_angle_gamma 90.000000
_cell_volume 1380.805517
_symmetry_space_group_name_H-M "P N N A"
_symmetry_group_IT_number 52
_symmetry_cell_setting 'orthorhombic'
loop_
_space_group_symop_operation_xyz
x,y,z
1/2-x,-y,z
x,1/2-y,1/2-z
1/2-x,1/2+y,1/2-z
-x,-y,-z
1/2+x,y,-z
-x,1/2+y,1/2+z
1/2+x,1/2-y,1/2+z
loop_
_atom_site_type_symbol
_atom_site_label
_atom_site_fract_x
_atom_site_fract_y
_atom_site_fract_z
Si Si1 0.220295 0.627877 0.053370
Si Si2 0.804644 0.250000 0.250000
Si Si3 0.589209 0.978230 0.300652
Si Si4 0.959823 0.186282 0.878053
Si Si5 0.393562 0.586490 0.447138
O O1 0.107897 0.640338 0.199602
O O2 0.314040 0.596505 0.223689
O O3 0.259870 0.696133 0.920170
O O4 0.191675 0.566825 0.886288
O O5 0.880928 0.298593 0.401191
O O6 0.519104 0.935141 0.118389
O O7 0.500000 0.000000 0.500000
O O8 0.648243 0.037869 0.154302
O O9 0.001221 0.250000 0.750000
O O10 0.081987 0.157417 0.941969
#
# Coordination Sequence:
#
# PCOD8216720 Si02
#       5
#     8   4   8   8   8
#     4  11  24  48  79 114 152 208 267 333 402 487
#     4  10  22  48  74 110 160 192 260 338 386 488
#     4  11  24  49  75 113 154 205 269 330 396 478
#     4  10  22  47  75 110 151 193 260 329 385 477
#     4  11  25  48  79 112 153 208 260 329 406 473
#
# _framework density 26.071739000000001
#
# number of rings (size 3 to 8) (size 9 to 14) (size 15 to 20)
#    0.000    1.333    4.444    0.000    0.000    2.667 
#   12.000    0.000    4.889    0.000    0.000    0.000 
#    0.000    0.000    0.000    0.000    0.000    0.000 
#
# Total GULP energy -446067.672209 kJ/mol
# GULP energy per Si atom -12390.768672 kJ/mol
# Density = 2.601240 g / cm^3
# Si number density = 26.071739 Si / 1000 Ang^3
#
#
#
# Elastic Constant Matrix: (Units=GPa)
#
#
# Indices 1 2 3 4 5 6 
#
# 1 82.4117 59.9846 46.0480 0.0000 0.0000 0.0000
# 2 59.9846 168.6725 78.9681 0.0000 0.0000 0.0000
# 3 46.0480 78.9681 149.3954 0.0000 0.0000 0.0000
# 4 0.0000 0.0000 0.0000 64.7329 0.0000 0.0000
# 5 0.0000 0.0000 0.0000 0.0000 59.8162 0.0000
# 6 0.0000 0.0000 0.0000 0.0000 0.0000 33.6315
#
#
#
# Elastic Compliance Matrix: (Units=1/GPa)
#
#
# Indices 1 2 3 4 5 6 
#
# 1 0.017180 -0.004824 -0.002745 0.000000 0.000000 0.000000
# 2 -0.004824 0.009233 -0.003393 0.000000 0.000000 0.000000
# 3 -0.002745 -0.003393 0.009334 0.000000 0.000000 0.000000
# 4 0.000000 0.000000 0.000000 0.015448 0.000000 0.000000
# 5 0.000000 0.000000 0.000000 0.000000 0.016718 0.000000
# 6 0.000000 0.000000 0.000000 0.000000 0.000000 0.029734
#
#
# Mechanical properties :
#
#
# Convention : Reuss Voigt Hill
#
# Bulk Modulus (GPa) = 72.35775 85.60899 78.98337
# Shear Modulus (GPa) = 40.26457 46.00138 43.13298
#
# Velocity S-wave (km/s) = 3.93412 4.20505 4.07184
# Velocity P-wave (km/s) = 6.96060 7.51557 7.24340
#
# Compressibility (1/GPa) = 0.01382022
#
# Stress axis : x y z
#
# Youngs Moduli (GPa) = 58.20889 108.30693 107.14086
#
# Poissons Ratio (x) = 0.52250 0.29412
# Poissons Ratio (y) = 0.28082 0.36358
# Poissons Ratio (z) = 0.15979 0.36753
#
# Static dielectric constant tensor:
#      x y z
#    x 4.148460 0.000000 0.000000 
#    y 0.000000 5.064680 0.000000 
#    z 0.000000 0.000000 5.086530 
# 
# 
# High freq. dielectric constant tensor:
#      x y z
#    x 2.027130 0.000000 0.000000 
#    y 0.000000 2.068290 0.000000 
#    z 0.000000 0.000000 2.062840 
# 
# From -- ./inp_files/2168.got.cif
#   From: 2010.06.25/outbox.cif.g09.slc.cpg/sg52_2_cif.got.tgz:2168.got - 2010.06.26 19:32:48.
