data_PCOD8216475
_publ_section_title
;
Structure prediction by ZEFSAII (Michael W. Deem and Ramdas Pophale) SiO2 
 PCOD8216475
Probable space group: P N N A
;
_chemical_formula_sum "Si O2"
_cell_formula_units_Z 48
_cell_length_a 15.833829
_cell_length_b 27.211058
_cell_length_c 5.170737
_cell_angle_alpha 90.000000
_cell_angle_beta 90.000000
_cell_angle_gamma 90.000000
_cell_volume 2227.839127
_symmetry_space_group_name_H-M "P N N A"
_symmetry_group_IT_number 52
_symmetry_cell_setting 'orthorhombic'
loop_
_space_group_symop_operation_xyz
x,y,z
1/2-x,-y,z
x,1/2-y,1/2-z
1/2-x,1/2+y,1/2-z
-x,-y,-z
1/2+x,y,-z
-x,1/2+y,1/2+z
1/2+x,1/2-y,1/2+z
loop_
_atom_site_type_symbol
_atom_site_label
_atom_site_fract_x
_atom_site_fract_y
_atom_site_fract_z
Si Si1 0.243228 0.392753 0.376866
Si Si2 0.080319 0.861538 0.181743
Si Si3 0.718763 0.947662 0.358200
Si Si4 0.468279 0.444837 0.961673
Si Si5 0.514433 0.781582 0.498972
Si Si6 0.565025 0.359782 0.709756
O O1 0.327127 0.361422 0.450666
O O2 0.234687 0.435843 0.588624
O O3 0.158514 0.360829 0.407969
O O4 0.253557 0.410213 0.082206
O O5 0.055044 0.916931 0.271522
O O6 0.085603 0.822049 0.418202
O O7 0.007077 0.843021 0.991273
O O8 0.618468 0.946666 0.299044
O O9 0.750000 0.000000 0.456635
O O10 0.541393 0.413837 0.819193
O O11 0.500000 0.500000 0.000000
O O12 0.545661 0.750000 0.250000
O O13 0.434097 0.815889 0.421389
O O14 0.489401 0.750000 0.750000
#
# Coordination Sequence:
#
# PCOD8216475 Si02
#       6
#     8   8   8   8   8   8
#     4  11  25  41  63  93 134 171 222 272 322 388
#     4  10  23  44  65  97 130 175 217 270 330 389
#     4  11  23  40  58  93 133 178 227 276 315 376
#     4  10  22  38  63  95 134 179 227 268 324 388
#     4  11  23  43  74  97 128 169 213 273 337 400
#     4  11  23  42  69  95 131 180 215 273 332 389
#
# _framework density 21.545542999999999
#
# number of rings (size 3 to 8) (size 9 to 14) (size 15 to 20)
#    0.000    1.333    3.333    1.500    7.000    2.000 
#    0.000    1.667    0.000    0.000    0.000    0.000 
#    0.000    0.000    0.000    0.000    0.000    0.000 
#
# Total GULP energy -594844.575828 kJ/mol
# GULP energy per Si atom -12392.595330 kJ/mol
# Density = 2.149650 g / cm^3
# Si number density = 21.545543 Si / 1000 Ang^3
#
#
#
# Elastic Constant Matrix: (Units=GPa)
#
#
# Indices 1 2 3 4 5 6 
#
# 1 150.6570 34.1146 38.1678 0.0000 0.0000 0.0000
# 2 34.1146 126.3805 40.7673 0.0000 0.0000 0.0000
# 3 38.1678 40.7673 104.1183 0.0000 0.0000 0.0000
# 4 0.0000 0.0000 0.0000 26.1490 0.0000 0.0000
# 5 0.0000 0.0000 0.0000 0.0000 27.3387 0.0000
# 6 0.0000 0.0000 0.0000 0.0000 0.0000 13.4507
#
#
#
# Elastic Compliance Matrix: (Units=1/GPa)
#
#
# Indices 1 2 3 4 5 6 
#
# 1 0.007500 -0.001302 -0.002239 0.000000 0.000000 0.000000
# 2 -0.001302 0.009283 -0.003157 0.000000 0.000000 0.000000
# 3 -0.002239 -0.003157 0.011662 0.000000 0.000000 0.000000
# 4 0.000000 0.000000 0.000000 0.038242 0.000000 0.000000
# 5 0.000000 0.000000 0.000000 0.000000 0.036578 0.000000
# 6 0.000000 0.000000 0.000000 0.000000 0.000000 0.074345
#
#
# Mechanical properties :
#
#
# Convention : Reuss Voigt Hill
#
# Bulk Modulus (GPa) = 66.46108 67.47279 66.96694
# Shear Modulus (GPa) = 25.50722 31.26142 28.38432
#
# Velocity S-wave (km/s) = 3.44448 3.81326 3.63355
# Velocity P-wave (km/s) = 6.83615 7.12547 6.98231
#
# Compressibility (1/GPa) = 0.01504640
#
# Stress axis : x y z
#
# Youngs Moduli (GPa) = 133.33727 107.72918 85.75143
#
# Poissons Ratio (x) = 0.14027 0.19204
# Poissons Ratio (y) = 0.17361 0.27074
# Poissons Ratio (z) = 0.29860 0.34013
#
# Static dielectric constant tensor:
#      x y z
#    x 3.859710 0.000000 0.000000 
#    y 0.000000 3.902250 0.000000 
#    z 0.000000 0.000000 3.978640 
# 
# 
# High freq. dielectric constant tensor:
#      x y z
#    x 1.826420 0.000000 0.000000 
#    y 0.000000 1.842610 0.000000 
#    z 0.000000 0.000000 1.852400 
# 
# From -- ./inp_files/3463.got.cif
#   From: 2010.06.25/outbox.cif.g09.slc.cpg/sg52_2_cif.got.tgz:3463.got - 2010.06.26 19:32:48.
