data_PCOD8216939
_publ_section_title
;
Structure prediction by ZEFSAII (Michael W. Deem and Ramdas Pophale) SiO2 
 PCOD8216939
Probable space group: P N N A
;
_chemical_formula_sum "Si O2"
_cell_formula_units_Z 60
_cell_length_a 17.244787
_cell_length_b 16.777854
_cell_length_c 8.532598
_cell_angle_alpha 90.000000
_cell_angle_beta 90.000000
_cell_angle_gamma 90.000000
_cell_volume 2468.741004
_symmetry_space_group_name_H-M "P N N A"
_symmetry_group_IT_number 52
_symmetry_cell_setting 'orthorhombic'
loop_
_space_group_symop_operation_xyz
x,y,z
1/2-x,-y,z
x,1/2-y,1/2-z
1/2-x,1/2+y,1/2-z
-x,-y,-z
1/2+x,y,-z
-x,1/2+y,1/2+z
1/2+x,1/2-y,1/2+z
loop_
_atom_site_type_symbol
_atom_site_label
_atom_site_fract_x
_atom_site_fract_y
_atom_site_fract_z
Si Si1 0.784782 0.681491 0.962293
Si Si2 0.045572 0.027134 0.847220
Si Si3 0.904492 0.750000 0.750000
Si Si4 0.795290 0.580816 0.260270
Si Si5 0.454992 0.144783 0.724634
Si Si6 0.799986 0.074008 0.767249
Si Si7 0.676772 0.817810 0.052256
Si Si8 0.049953 0.930031 0.418865
O O1 0.853454 0.740638 0.907273
O O2 0.763637 0.630421 0.810559
O O3 0.817499 0.623253 0.096689
O O4 0.707282 0.730362 0.007125
O O5 0.130064 0.065491 0.871624
O O6 0.995231 0.089209 0.743551
O O7 0.061986 0.947090 0.752402
O O8 0.000000 0.000000 0.000000
O O9 0.959039 0.827617 0.772819
O O10 0.750000 0.500000 0.220934
O O11 0.744474 0.643235 0.350193
O O12 0.397466 0.196093 0.835173
O O13 0.444140 0.147774 0.533639
O O14 0.863106 0.045074 0.637275
O O15 0.750000 0.000000 0.836026
O O16 0.842316 0.123545 0.906369
O O17 0.000000 0.000000 0.500000
#
# Coordination Sequence:
#
# PCOD8216939 Si02
#       8
#     8   8   4   8   8   8   8   8
#     4  12  28  50  76 112 155 210 265 326 402 486
#     4  11  25  44  73 110 151 193 258 325 387 466
#     4  12  28  50  76 108 158 206 258 320 412 476
#     4  12  26  46  79 112 153 201 266 322 399 469
#     4  11  26  45  75 105 151 201 258 315 395 480
#     4  12  27  45  80 109 154 200 265 329 392 477
#     4  12  26  49  74 114 152 210 258 334 400 477
#     4  10  25  44  71 112 149 196 249 322 394 456
#
# _framework density 24.303885000000001
#
# number of rings (size 3 to 8) (size 9 to 14) (size 15 to 20)
#    0.000    0.533    2.667    3.600   16.800    0.000 
#    0.000    0.000    0.000    0.000    0.000    0.000 
#    0.000    0.000    0.000    0.000    0.000    0.000 
#
# Total GULP energy -743665.220453 kJ/mol
# GULP energy per Si atom -12394.420341 kJ/mol
# Density = 2.424857 g / cm^3
# Si number density = 24.303885 Si / 1000 Ang^3
#
#
#
# Elastic Constant Matrix: (Units=GPa)
#
#
# Indices 1 2 3 4 5 6 
#
# 1 143.5888 17.5980 60.0669 0.0000 0.0000 0.0000
# 2 17.5980 67.9461 28.6064 0.0000 0.0000 0.0000
# 3 60.0669 28.6064 147.7971 0.0000 0.0000 0.0000
# 4 0.0000 0.0000 0.0000 37.4962 0.0000 0.0000
# 5 0.0000 0.0000 0.0000 0.0000 40.5034 0.0000
# 6 0.0000 0.0000 0.0000 0.0000 0.0000 34.2812
#
#
#
# Elastic Compliance Matrix: (Units=1/GPa)
#
#
# Indices 1 2 3 4 5 6 
#
# 1 0.008431 -0.000807 -0.003270 0.000000 0.000000 0.000000
# 2 -0.000807 0.016100 -0.002788 0.000000 0.000000 0.000000
# 3 -0.003270 -0.002788 0.008635 0.000000 0.000000 0.000000
# 4 0.000000 0.000000 0.000000 0.026669 0.000000 0.000000
# 5 0.000000 0.000000 0.000000 0.000000 0.024689 0.000000
# 6 0.000000 0.000000 0.000000 0.000000 0.000000 0.029171
#
#
# Mechanical properties :
#
#
# Convention : Reuss Voigt Hill
#
# Bulk Modulus (GPa) = 51.45250 63.54165 57.49707
# Shear Modulus (GPa) = 37.33973 39.32686 38.33330
#
# Velocity S-wave (km/s) = 3.92391 4.02696 3.97577
# Velocity P-wave (km/s) = 6.46110 6.91544 6.69213
#
# Compressibility (1/GPa) = 0.01943540
#
# Stress axis : x y z
#
# Youngs Moduli (GPa) = 118.60525 62.11003 115.80915
#
# Poissons Ratio (x) = 0.05011 0.37875
# Poissons Ratio (y) = 0.09569 0.32292
# Poissons Ratio (z) = 0.38789 0.17319
#
# Static dielectric constant tensor:
#      x y z
#    x 4.285720 0.000000 0.000000 
#    y 0.000000 4.584200 0.000000 
#    z 0.000000 0.000000 5.091400 
# 
# 
# High freq. dielectric constant tensor:
#      x y z
#    x 1.972330 0.000000 0.000000 
#    y 0.000000 1.956230 0.000000 
#    z 0.000000 0.000000 1.976920 
# 
# From -- ./inp_files/12460.got.cif
#   From: 2010.06.25/outbox.cif.g09.slc.cpg/sg52_7_cif.got.tgz:12460.got - 2010.06.26 19:32:48.
