data_PCOD8216443
_publ_section_title
;
Structure prediction by ZEFSAII (Michael W. Deem and Ramdas Pophale) SiO2 
 PCOD8216443
Probable space group: P N N A
;
_chemical_formula_sum "Si O2"
_cell_formula_units_Z 40
_cell_length_a 20.840995
_cell_length_b 5.315598
_cell_length_c 18.308448
_cell_angle_alpha 90.000000
_cell_angle_beta 90.000000
_cell_angle_gamma 90.000000
_cell_volume 2028.252919
_symmetry_space_group_name_H-M "P N N A"
_symmetry_group_IT_number 52
_symmetry_cell_setting 'orthorhombic'
loop_
_space_group_symop_operation_xyz
x,y,z
1/2-x,-y,z
x,1/2-y,1/2-z
1/2-x,1/2+y,1/2-z
-x,-y,-z
1/2+x,y,-z
-x,1/2+y,1/2+z
1/2+x,1/2-y,1/2+z
loop_
_atom_site_type_symbol
_atom_site_label
_atom_site_fract_x
_atom_site_fract_y
_atom_site_fract_z
Si Si1 0.676502 0.457545 0.516737
Si Si2 0.371498 0.898791 0.863795
Si Si3 0.072869 0.750000 0.750000
Si Si4 0.601832 0.564276 0.969722
Si Si5 0.788116 0.750000 0.250000
Si Si6 0.972208 0.520645 0.111777
O O1 0.750000 0.500000 0.540450
O O2 0.669222 0.506816 0.430657
O O3 0.649466 0.177578 0.534222
O O4 0.637516 0.682151 0.556489
O O5 0.330768 0.680361 0.822616
O O6 0.442507 0.802193 0.886963
O O7 0.378468 0.099148 0.800016
O O8 0.028467 0.594145 0.806656
O O9 0.545486 0.518085 0.912233
O O10 0.572318 0.619418 0.050838
O O11 0.750000 0.500000 0.270468
#
# Coordination Sequence:
#
# PCOD8216443 Si02
#       6
#     8   8   4   8   4   8
#     4  11  23  40  60  85 121 161 205 241 290 363
#     4  11  23  35  55  85 122 160 201 242 288 348
#     4  12  19  38  58  88 122 159 188 254 292 370
#     4  10  23  39  61  88 116 159 199 251 306 347
#     4  12  25  36  50  78 122 171 204 226 276 344
#     4  10  22  36  61  84 123 153 200 255 302 349
#
# _framework density 19.721406999999999
#
# number of rings (size 3 to 8) (size 9 to 14) (size 15 to 20)
#    0.000    1.200    4.000    1.800    2.800    5.600 
#    0.000    0.000    0.000    0.000    0.000    2.800 
#    0.000    0.000    0.000    0.000    0.000    0.000 
#
# Total GULP energy -495613.454952 kJ/mol
# GULP energy per Si atom -12390.336374 kJ/mol
# Density = 1.967652 g / cm^3
# Si number density = 19.721407 Si / 1000 Ang^3
#
#
#
# Elastic Constant Matrix: (Units=GPa)
#
#
# Indices 1 2 3 4 5 6 
#
# 1 117.0670 32.2017 13.5158 0.0000 0.0000 0.0000
# 2 32.2017 86.8403 2.6607 0.0000 0.0000 0.0000
# 3 13.5158 2.6607 35.0283 0.0000 0.0000 0.0000
# 4 0.0000 0.0000 0.0000 19.5505 0.0000 0.0000
# 5 0.0000 0.0000 0.0000 0.0000 24.9130 0.0000
# 6 0.0000 0.0000 0.0000 0.0000 0.0000 29.1520
#
#
#
# Elastic Compliance Matrix: (Units=1/GPa)
#
#
# Indices 1 2 3 4 5 6 
#
# 1 0.009937 -0.003576 -0.003563 0.000000 0.000000 0.000000
# 2 -0.003576 0.012829 0.000405 0.000000 0.000000 0.000000
# 3 -0.003563 0.000405 0.029892 0.000000 0.000000 0.000000
# 4 0.000000 0.000000 0.000000 0.051150 0.000000 0.000000
# 5 0.000000 0.000000 0.000000 0.000000 0.040140 0.000000
# 6 0.000000 0.000000 0.000000 0.000000 0.000000 0.034303
#
#
# Mechanical properties :
#
#
# Convention : Reuss Voigt Hill
#
# Bulk Modulus (GPa) = 25.51542 37.29913 31.40728
# Shear Modulus (GPa) = 24.41640 27.42692 25.92166
#
# Velocity S-wave (km/s) = 3.52243 3.73328 3.62939
# Velocity P-wave (km/s) = 5.43226 6.12676 5.78993
#
# Compressibility (1/GPa) = 0.03919198
#
# Stress axis : x y z
#
# Youngs Moduli (GPa) = 100.63416 77.94919 33.45352
#
# Poissons Ratio (x) = 0.27872 0.11918
# Poissons Ratio (y) = 0.35983 -0.01356
# Poissons Ratio (z) = 0.35852 -0.03159
#
# Static dielectric constant tensor:
#      x y z
#    x 3.573800 0.000000 0.000000 
#    y 0.000000 3.624950 0.000000 
#    z 0.000000 0.000000 3.480540 
# 
# 
# High freq. dielectric constant tensor:
#      x y z
#    x 1.762980 0.000000 0.000000 
#    y 0.000000 1.776110 0.000000 
#    z 0.000000 0.000000 1.736890 
# 
# From -- ./inp_files/33972.got.cif
#   From: 2010.06.25/outbox.cif.g09.slc.cpg/sg52_17_cif.got.tgz:33972.got - 2010.06.26 19:32:48.
