data_PCOD8216273
_publ_section_title
;
Structure prediction by ZEFSAII (Michael W. Deem and Ramdas Pophale) SiO2 
 PCOD8216273
Probable space group: P N N A
;
_chemical_formula_sum "Si O2"
_cell_formula_units_Z 40
_cell_length_a 17.681972
_cell_length_b 9.325944
_cell_length_c 12.075469
_cell_angle_alpha 90.000000
_cell_angle_beta 90.000000
_cell_angle_gamma 90.000000
_cell_volume 1991.257888
_symmetry_space_group_name_H-M "P N N A"
_symmetry_group_IT_number 52
_symmetry_cell_setting 'orthorhombic'
loop_
_space_group_symop_operation_xyz
x,y,z
1/2-x,-y,z
x,1/2-y,1/2-z
1/2-x,1/2+y,1/2-z
-x,-y,-z
1/2+x,y,-z
-x,1/2+y,1/2+z
1/2+x,1/2-y,1/2+z
loop_
_atom_site_type_symbol
_atom_site_label
_atom_site_fract_x
_atom_site_fract_y
_atom_site_fract_z
Si Si1 0.834315 0.523156 0.012426
Si Si2 0.942254 0.774717 0.980544
Si Si3 0.685501 0.901398 0.731201
Si Si4 0.447967 0.380791 0.820470
Si Si5 0.534674 0.559462 0.647319
O O1 0.750000 0.500000 0.060369
O O2 0.886654 0.437113 0.095431
O O3 0.863723 0.690375 0.009840
O O4 0.835161 0.450569 0.892296
O O5 0.980005 0.671559 0.890084
O O6 0.932422 0.934150 0.932162
O O7 0.996210 0.803403 0.086608
O O8 0.726343 0.750000 0.750000
O O9 0.609065 0.882143 0.797799
O O10 0.750000 0.000000 0.784581
O O11 0.412754 0.250000 0.750000
O O12 0.473953 0.503377 0.735882
#
# Coordination Sequence:
#
# PCOD8216273 Si02
#       5
#     8   8   8   8   8
#     4  11  24  40  63  91 131 169 211 269 325 388
#     4  10  21  40  65  94 126 162 219 265 313 385
#     4  11  25  38  64  97 131 168 210 264 335 383
#     4  10  21  40  62  85 124 166 213 265 311 379
#     4  10  22  38  66  95 124 169 214 264 319 383
#
# _framework density 20.087804999999999
#
# number of rings (size 3 to 8) (size 9 to 14) (size 15 to 20)
#    0.000    1.600    2.000    1.800    8.400    0.000 
#    3.600    0.000    0.000    0.000    0.000    0.000 
#    0.000    0.000    0.000    0.000    0.000    0.000 
#
# Total GULP energy -495591.053567 kJ/mol
# GULP energy per Si atom -12389.776339 kJ/mol
# Density = 2.004208 g / cm^3
# Si number density = 20.087805 Si / 1000 Ang^3
#
#
#
# Elastic Constant Matrix: (Units=GPa)
#
#
# Indices 1 2 3 4 5 6 
#
# 1 83.6217 39.3902 15.4244 0.0000 0.0000 0.0000
# 2 39.3902 115.8608 24.6571 0.0000 0.0000 0.0000
# 3 15.4244 24.6571 59.4614 0.0000 0.0000 0.0000
# 4 0.0000 0.0000 0.0000 31.9095 0.0000 0.0000
# 5 0.0000 0.0000 0.0000 0.0000 15.8894 0.0000
# 6 0.0000 0.0000 0.0000 0.0000 0.0000 26.0329
#
#
#
# Elastic Compliance Matrix: (Units=1/GPa)
#
#
# Indices 1 2 3 4 5 6 
#
# 1 0.014427 -0.004506 -0.001874 0.000000 0.000000 0.000000
# 2 -0.004506 0.010874 -0.003340 0.000000 0.000000 0.000000
# 3 -0.001874 -0.003340 0.018689 0.000000 0.000000 0.000000
# 4 0.000000 0.000000 0.000000 0.031339 0.000000 0.000000
# 5 0.000000 0.000000 0.000000 0.000000 0.062935 0.000000
# 6 0.000000 0.000000 0.000000 0.000000 0.000000 0.038413
#
#
# Mechanical properties :
#
#
# Convention : Reuss Voigt Hill
#
# Bulk Modulus (GPa) = 40.73429 46.43192 43.58311
# Shear Modulus (GPa) = 24.47387 26.73116 25.60252
#
# Velocity S-wave (km/s) = 3.49427 3.65186 3.57393
# Velocity P-wave (km/s) = 6.04996 6.39891 6.22688
#
# Compressibility (1/GPa) = 0.02454934
#
# Stress axis : x y z
#
# Youngs Moduli (GPa) = 69.31528 91.96368 53.50791
#
# Poissons Ratio (x) = 0.41439 0.10026
# Poissons Ratio (y) = 0.31234 0.17873
# Poissons Ratio (z) = 0.12988 0.30718
#
# Static dielectric constant tensor:
#      x y z
#    x 3.667860 0.000000 0.000000 
#    y 0.000000 3.836520 0.000000 
#    z 0.000000 0.000000 3.833690 
# 
# 
# High freq. dielectric constant tensor:
#      x y z
#    x 1.771060 0.000000 0.000000 
#    y 0.000000 1.798600 0.000000 
#    z 0.000000 0.000000 1.786560 
# 
# From -- ./inp_files/20295.got.cif
#   From: 2010.06.25/outbox.cif.g09.slc.cpg/sg52_11_cif.got.tgz:20295.got - 2010.06.26 19:32:48.
