data_PCOD8216240
_publ_section_title
;
Structure prediction by ZEFSAII (Michael W. Deem and Ramdas Pophale) SiO2 
 PCOD8216240
Probable space group: P N N A
;
_chemical_formula_sum "Si O2"
_cell_formula_units_Z 64
_cell_length_a 17.802308
_cell_length_b 8.021735
_cell_length_c 20.521713
_cell_angle_alpha 90.000000
_cell_angle_beta 90.000000
_cell_angle_gamma 90.000000
_cell_volume 2930.611375
_symmetry_space_group_name_H-M "P N N A"
_symmetry_group_IT_number 52
_symmetry_cell_setting 'orthorhombic'
loop_
_space_group_symop_operation_xyz
x,y,z
1/2-x,-y,z
x,1/2-y,1/2-z
1/2-x,1/2+y,1/2-z
-x,-y,-z
1/2+x,y,-z
-x,1/2+y,1/2+z
1/2+x,1/2-y,1/2+z
loop_
_atom_site_type_symbol
_atom_site_label
_atom_site_fract_x
_atom_site_fract_y
_atom_site_fract_z
Si Si1 0.220214 0.318170 0.908653
Si Si2 0.267697 0.306919 0.318609
Si Si3 0.624516 0.782885 0.105461
Si Si4 0.465890 0.425405 0.719699
Si Si5 0.920504 0.564073 0.153871
Si Si6 0.937825 0.207559 0.842120
Si Si7 0.079422 0.550501 0.476093
Si Si8 0.205945 0.327301 0.452213
O O1 0.250000 0.500000 0.895517
O O2 0.286494 0.206510 0.876799
O O3 0.140131 0.296858 0.870650
O O4 0.214511 0.292572 0.986049
O O5 0.250000 0.500000 0.326100
O O6 0.230092 0.250000 0.250000
O O7 0.354964 0.251858 0.314999
O O8 0.229709 0.231335 0.384928
O O9 0.579995 0.902587 0.153541
O O10 0.587928 0.596890 0.106626
O O11 0.623070 0.853622 0.032676
O O12 0.497340 0.250000 0.750000
O O13 0.407023 0.503733 0.771756
O O14 0.532821 0.553048 0.701944
O O15 0.004903 0.636957 0.157964
O O16 0.927523 0.176004 0.917452
O O17 0.118930 0.381762 0.450400
O O18 0.000000 0.500000 0.500000
O O19 0.250000 0.500000 0.462416
#
# Coordination Sequence:
#
# PCOD8216240 Si02
#       8
#     8   8   8   8   8   8   8   8
#     4  10  21  39  64  93 132 170 215 272 322 384
#     4  11  24  43  65  94 129 170 219 269 332 400
#     4  10  21  40  64  93 129 170 220 273 324 396
#     4  10  22  41  61  87 131 172 212 268 324 388
#     4  10  23  40  61  94 132 172 216 267 337 393
#     4  12  22  42  65  94 130 170 217 282 328 397
#     4  12  22  39  69  98 123 167 226 270 332 400
#     4  11  21  42  65  92 127 169 218 266 322 391
#
# _framework density 21.838446000000001
#
# number of rings (size 3 to 8) (size 9 to 14) (size 15 to 20)
#    0.000    1.250    5.000    1.875    0.000    1.500 
#    0.000   12.500    0.000    0.000    0.000    0.000 
#    0.000    0.000    0.000    0.000    0.000    0.000 
#
# Total GULP energy -792877.019032 kJ/mol
# GULP energy per Si atom -12388.703422 kJ/mol
# Density = 2.178874 g / cm^3
# Si number density = 21.838446 Si / 1000 Ang^3
#
#
#
# Elastic Constant Matrix: (Units=GPa)
#
#
# Indices 1 2 3 4 5 6 
#
# 1 124.2405 22.5760 30.0898 0.0000 0.0000 0.0000
# 2 22.5760 31.7510 14.4081 0.0000 0.0000 0.0000
# 3 30.0898 14.4081 134.2623 0.0000 0.0000 0.0000
# 4 0.0000 0.0000 0.0000 37.4357 0.0000 0.0000
# 5 0.0000 0.0000 0.0000 0.0000 23.0497 0.0000
# 6 0.0000 0.0000 0.0000 0.0000 0.0000 27.1842
#
#
#
# Elastic Compliance Matrix: (Units=1/GPa)
#
#
# Indices 1 2 3 4 5 6 
#
# 1 0.009514 -0.006094 -0.001478 0.000000 0.000000 0.000000
# 2 -0.006094 0.037011 -0.002606 0.000000 0.000000 0.000000
# 3 -0.001478 -0.002606 0.008059 0.000000 0.000000 0.000000
# 4 0.000000 0.000000 0.000000 0.026712 0.000000 0.000000
# 5 0.000000 0.000000 0.000000 0.000000 0.043385 0.000000
# 6 0.000000 0.000000 0.000000 0.000000 0.000000 0.036786
#
#
# Mechanical properties :
#
#
# Convention : Reuss Voigt Hill
#
# Bulk Modulus (GPa) = 29.21646 47.15574 38.18610
# Shear Modulus (GPa) = 25.87548 32.41257 29.14402
#
# Velocity S-wave (km/s) = 3.44591 3.85671 3.65708
# Velocity P-wave (km/s) = 5.40739 6.43989 5.94609
#
# Compressibility (1/GPa) = 0.03422728
#
# Stress axis : x y z
#
# Youngs Moduli (GPa) = 105.10473 27.01919 124.08389
#
# Poissons Ratio (x) = 0.16466 0.18343
# Poissons Ratio (y) = 0.64053 0.32336
# Poissons Ratio (z) = 0.15538 0.07041
#
# Static dielectric constant tensor:
#      x y z
#    x 4.319430 0.000000 0.000000 
#    y 0.000000 3.590880 0.000000 
#    z 0.000000 0.000000 4.322940 
# 
# 
# High freq. dielectric constant tensor:
#      x y z
#    x 1.858660 0.000000 0.000000 
#    y 0.000000 1.836660 0.000000 
#    z 0.000000 0.000000 1.877380 
# 
# From -- ./inp_files/37677.got.cif
#   From: 2010.06.25/outbox.cif.g09.slc.cpg/sg52_19_cif.got.tgz:37677.got - 2010.06.26 19:32:48.
