data_PCOD8216946
_publ_section_title
;
Structure prediction by ZEFSAII (Michael W. Deem and Ramdas Pophale) SiO2 
 PCOD8216946
Probable space group: P N N A
;
_chemical_formula_sum "Si O2"
_cell_formula_units_Z 56
_cell_length_a 8.769978
_cell_length_b 19.300484
_cell_length_c 14.031252
_cell_angle_alpha 90.000000
_cell_angle_beta 90.000000
_cell_angle_gamma 90.000000
_cell_volume 2374.997345
_symmetry_space_group_name_H-M "P N N A"
_symmetry_group_IT_number 52
_symmetry_cell_setting 'orthorhombic'
loop_
_space_group_symop_operation_xyz
x,y,z
1/2-x,-y,z
x,1/2-y,1/2-z
1/2-x,1/2+y,1/2-z
-x,-y,-z
1/2+x,y,-z
-x,1/2+y,1/2+z
1/2+x,1/2-y,1/2+z
loop_
_atom_site_type_symbol
_atom_site_label
_atom_site_fract_x
_atom_site_fract_y
_atom_site_fract_z
Si Si1 0.189835 0.383407 0.952927
Si Si2 0.942811 0.216919 0.498731
Si Si3 0.750000 0.500000 0.526656
Si Si4 0.992035 0.934372 0.277363
Si Si5 0.034231 0.947850 0.868469
Si Si6 0.250000 0.500000 0.092664
Si Si7 0.992385 0.697572 0.333259
Si Si8 0.849083 0.195659 0.165464
O O1 0.146892 0.406474 0.844741
O O2 0.108964 0.311110 0.976502
O O3 0.360336 0.355598 0.970246
O O4 0.158814 0.446516 0.025099
O O5 0.953841 0.269591 0.413500
O O6 0.895796 0.265365 0.589800
O O7 0.640590 0.454087 0.595058
O O8 0.854570 0.451048 0.460298
O O9 0.060405 0.873818 0.209601
O O10 0.128990 0.960507 0.342737
O O11 0.926030 0.993018 0.208454
O O12 0.064786 0.876415 0.811939
O O13 0.966427 0.750000 0.250000
O O14 0.822047 0.680590 0.373098
O O15 0.849396 0.250000 0.250000
#
# Coordination Sequence:
#
# PCOD8216946 Si02
#       8
#     8   8   4   8   8   4   8   8
#     4  12  25  48  76 110 149 200 253 307 385 451
#     4  12  25  47  75 107 148 197 249 313 378 448
#     4  10  25  47  72 104 144 196 252 311 373 456
#     4  12  26  48  77 107 155 199 250 315 383 447
#     4  11  26  47  74 105 148 197 252 311 380 451
#     4  12  27  47  74 116 154 200 252 319 377 454
#     4  11  22  47  73 109 146 198 247 306 374 454
#     4  11  26  45  73 108 147 193 259 307 378 461
#
# _framework density 23.578973000000001
#
# number of rings (size 3 to 8) (size 9 to 14) (size 15 to 20)
#    0.000    0.571    4.286    2.571    8.000    1.714 
#    2.571    0.714    0.000    0.000    0.000    0.000 
#    0.000    0.000    0.000    0.000    0.000    0.000 
#
# Total GULP energy -694019.034573 kJ/mol
# GULP energy per Si atom -12393.197046 kJ/mol
# Density = 2.352531 g / cm^3
# Si number density = 23.578973 Si / 1000 Ang^3
#
#
#
# Elastic Constant Matrix: (Units=GPa)
#
#
# Indices 1 2 3 4 5 6 
#
# 1 66.7432 34.1671 33.1033 0.0000 0.0000 0.0000
# 2 34.1671 175.9488 66.2057 0.0000 0.0000 0.0000
# 3 33.1033 66.2057 126.7760 0.0000 0.0000 0.0000
# 4 0.0000 0.0000 0.0000 48.4061 0.0000 0.0000
# 5 0.0000 0.0000 0.0000 0.0000 20.8136 0.0000
# 6 0.0000 0.0000 0.0000 0.0000 0.0000 35.8429
#
#
#
# Elastic Compliance Matrix: (Units=1/GPa)
#
#
# Indices 1 2 3 4 5 6 
#
# 1 0.017830 -0.002129 -0.003544 0.000000 0.000000 0.000000
# 2 -0.002129 0.007328 -0.003271 0.000000 0.000000 0.000000
# 3 -0.003544 -0.003271 0.010521 0.000000 0.000000 0.000000
# 4 0.000000 0.000000 0.000000 0.020659 0.000000 0.000000
# 5 0.000000 0.000000 0.000000 0.000000 0.048046 0.000000
# 6 0.000000 0.000000 0.000000 0.000000 0.000000 0.027900
#
#
# Mechanical properties :
#
#
# Convention : Reuss Voigt Hill
#
# Bulk Modulus (GPa) = 56.20507 70.71336 63.45922
# Shear Modulus (GPa) = 32.03053 36.74532 34.38792
#
# Velocity S-wave (km/s) = 3.68970 3.95193 3.82306
# Velocity P-wave (km/s) = 6.48386 7.13294 6.81613
#
# Compressibility (1/GPa) = 0.01779199
#
# Stress axis : x y z
#
# Youngs Moduli (GPa) = 56.08401 136.47042 95.04421
#
# Poissons Ratio (x) = 0.29053 0.33684
# Poissons Ratio (y) = 0.11940 0.31087
# Poissons Ratio (z) = 0.19876 0.44636
#
# Static dielectric constant tensor:
#      x y z
#    x 4.408630 0.000000 0.000000 
#    y 0.000000 4.353630 0.000000 
#    z 0.000000 0.000000 4.245620 
# 
# 
# High freq. dielectric constant tensor:
#      x y z
#    x 1.914360 0.000000 0.000000 
#    y 0.000000 1.952780 0.000000 
#    z 0.000000 0.000000 1.940430 
# 
# From -- ./inp_files/24984.got.cif
#   From: 2010.06.25/outbox.cif.g09.slc.cpg/sg52_13_cif.got.tgz:24984.got - 2010.06.26 19:32:48.
