data_PCOD8216377
_publ_section_title
;
Structure prediction by ZEFSAII (Michael W. Deem and Ramdas Pophale) SiO2 
 PCOD8216377
Probable space group: P N N A
;
_chemical_formula_sum "Si O2"
_cell_formula_units_Z 56
_cell_length_a 10.271989
_cell_length_b 13.313484
_cell_length_c 18.946858
_cell_angle_alpha 90.000000
_cell_angle_beta 90.000000
_cell_angle_gamma 90.000000
_cell_volume 2591.095778
_symmetry_space_group_name_H-M "P N N A"
_symmetry_group_IT_number 52
_symmetry_cell_setting 'orthorhombic'
loop_
_space_group_symop_operation_xyz
x,y,z
1/2-x,-y,z
x,1/2-y,1/2-z
1/2-x,1/2+y,1/2-z
-x,-y,-z
1/2+x,y,-z
-x,1/2+y,1/2+z
1/2+x,1/2-y,1/2+z
loop_
_atom_site_type_symbol
_atom_site_label
_atom_site_fract_x
_atom_site_fract_y
_atom_site_fract_z
Si Si1 0.535635 0.784855 0.420842
Si Si2 0.400573 0.503569 0.882063
Si Si3 0.491788 0.212795 0.417518
Si Si4 0.142173 0.673839 0.309460
Si Si5 0.080558 0.479990 0.715173
Si Si6 0.271555 0.799031 0.827943
Si Si7 0.930683 0.672309 0.690691
O O1 0.531031 0.903792 0.410485
O O2 0.526350 0.753644 0.501844
O O3 0.653133 0.733943 0.376945
O O4 0.412996 0.732726 0.382883
O O5 0.250000 0.500000 0.907300
O O6 0.484513 0.593241 0.916302
O O7 0.407554 0.513852 0.798705
O O8 0.362397 0.257727 0.380670
O O9 0.607057 0.264145 0.374244
O O10 0.094531 0.750000 0.250000
O O11 0.046862 0.579969 0.309323
O O12 0.286744 0.629655 0.293905
O O13 0.049565 0.591600 0.686154
O O14 0.209878 0.420850 0.685136
O O15 0.270040 0.750000 0.750000
O O16 0.977336 0.750000 0.750000
#
# Coordination Sequence:
#
# PCOD8216377 Si02
#       7
#     8   8   8   8   8   8   8
#     4  12  26  40  64 104 140 167 225 284 357 399
#     4  12  22  40  68  99 137 173 230 283 335 426
#     4  11  23  43  67  97 137 178 222 280 351 411
#     4  10  21  42  67  91 130 181 227 269 340 423
#     4  11  21  41  69  98 123 176 245 279 332 400
#     4  11  22  44  73  94 132 186 234 285 332 419
#     4  11  24  38  64  97 135 172 217 291 335 413
#
# _framework density 21.612476999999998
#
# number of rings (size 3 to 8) (size 9 to 14) (size 15 to 20)
#    0.000    0.857    5.714    2.143    4.000    0.000 
#    0.000    3.571    6.286    0.000    0.000    0.000 
#    0.000    0.000    0.000    0.000    0.000    0.000 
#
# Total GULP energy -693816.657954 kJ/mol
# GULP energy per Si atom -12389.583178 kJ/mol
# Density = 2.156329 g / cm^3
# Si number density = 21.612477 Si / 1000 Ang^3
#
#
#
# Elastic Constant Matrix: (Units=GPa)
#
#
# Indices 1 2 3 4 5 6 
#
# 1 61.4838 10.1430 21.4298 0.0000 0.0000 0.0000
# 2 10.1430 96.8199 35.9526 0.0000 0.0000 0.0000
# 3 21.4298 35.9526 169.5787 0.0000 0.0000 0.0000
# 4 0.0000 0.0000 0.0000 15.6528 0.0000 0.0000
# 5 0.0000 0.0000 0.0000 0.0000 -4.3245 0.0000
# 6 0.0000 0.0000 0.0000 0.0000 0.0000 -94.3454
#
#
#
# Elastic Compliance Matrix: (Units=1/GPa)
#
#
# Indices 1 2 3 4 5 6 
#
# 1 0.017116 -0.001075 -0.001935 0.000000 0.000000 0.000000
# 2 -0.001075 0.011279 -0.002255 0.000000 0.000000 0.000000
# 3 -0.001935 -0.002255 0.006620 0.000000 0.000000 0.000000
# 4 0.000000 0.000000 0.000000 0.063886 0.000000 0.000000
# 5 0.000000 0.000000 0.000000 0.000000 -0.231242 0.000000
# 6 0.000000 0.000000 0.000000 0.000000 0.000000 -0.010599
#
#
# Mechanical properties :
#
#
# Convention : Reuss Voigt Hill
#
# Bulk Modulus (GPa) = 40.84259 51.43703 46.13981
# Shear Modulus (GPa) = -40.24184 0.75370 -19.74407
#
# Velocity S-wave (km/s) = -4.31974 0.59118 -3.02578
# Velocity P-wave (km/s) = 2.43752 4.93126 3.03116
#
# Compressibility (1/GPa) = 0.02448424
#
# Stress axis : x y z
#
# Youngs Moduli (GPa) = 58.42412 88.66401 151.06456
#
# Poissons Ratio (x) = 0.09527 0.29234
# Poissons Ratio (y) = 0.06278 0.34071
# Poissons Ratio (z) = 0.11306 0.19997
#
# Static dielectric constant tensor:
#      x y z
#    x 4.279970 0.000000 0.000000 
#    y 0.000000 4.522680 0.000000 
#    z 0.000000 0.000000 3.848290 
# 
# 
# High freq. dielectric constant tensor:
#      x y z
#    x 1.864570 0.000000 0.000000 
#    y 0.000000 1.864110 0.000000 
#    z 0.000000 0.000000 1.834420 
# 
# From -- ./inp_files/26161.got.cif
#   From: 2010.06.25/outbox.cif.g09.slc.cpg/sg52_14_cif.got.tgz:26161.got - 2010.06.26 19:32:48.
