data_PCOD8216057
_publ_section_title
;
Structure prediction by ZEFSAII (Michael W. Deem and Ramdas Pophale) SiO2 
 PCOD8216057
Probable space group: P N N A
;
_chemical_formula_sum "Si O2"
_cell_formula_units_Z 44
_cell_length_a 19.697957
_cell_length_b 5.524007
_cell_length_c 22.869476
_cell_angle_alpha 90.000000
_cell_angle_beta 90.000000
_cell_angle_gamma 90.000000
_cell_volume 2488.465472
_symmetry_space_group_name_H-M "P N N A"
_symmetry_group_IT_number 52
_symmetry_cell_setting 'orthorhombic'
loop_
_space_group_symop_operation_xyz
x,y,z
1/2-x,-y,z
x,1/2-y,1/2-z
1/2-x,1/2+y,1/2-z
-x,-y,-z
1/2+x,y,-z
-x,1/2+y,1/2+z
1/2+x,1/2-y,1/2+z
loop_
_atom_site_type_symbol
_atom_site_label
_atom_site_fract_x
_atom_site_fract_y
_atom_site_fract_z
Si Si1 0.544405 0.501493 0.585900
Si Si2 0.376981 0.258182 0.315334
Si Si3 0.250000 0.500000 0.356083
Si Si4 0.344529 0.625626 0.100050
Si Si5 0.098950 0.531662 0.540660
Si Si6 0.172244 0.490131 0.973176
O O1 0.563722 0.681678 0.638656
O O2 0.581722 0.249605 0.597874
O O3 0.463180 0.482458 0.586326
O O4 0.570227 0.595484 0.523410
O O5 0.407415 0.250000 0.250000
O O6 0.314501 0.445948 0.315022
O O7 0.343053 0.012454 0.338229
O O8 0.277416 0.705315 0.400252
O O9 0.336298 0.461685 0.042563
O O10 0.140118 0.275448 0.543021
O O11 0.140192 0.774043 0.559061
O O12 0.250000 0.500000 0.953426
#
# Coordination Sequence:
#
# PCOD8216057 Si02
#       6
#     8   8   4   8   8   8
#     4   9  21  35  51  75 100 142 188 214 271 311
#     4  11  22  34  51  71 103 142 189 234 266 309
#     4  10  22  32  46  72  98 150 182 232 262 304
#     4  10  21  34  52  70 109 143 191 223 265 313
#     4  10  21  35  56  78 107 144 177 222 264 329
#     4  11  21  33  56  82 111 139 177 218 274 325
#
# _framework density 17.681578999999999
#
# number of rings (size 3 to 8) (size 9 to 14) (size 15 to 20)
#    0.000    1.818    1.818    2.182   10.182    4.364 
#    0.000    0.000    0.000    0.000    0.000    0.000 
#    0.000    2.909    0.000    0.000    0.000    0.000 
#
# Total GULP energy -545109.530664 kJ/mol
# GULP energy per Si atom -12388.852970 kJ/mol
# Density = 1.764134 g / cm^3
# Si number density = 17.681579 Si / 1000 Ang^3
#
#
#
# Elastic Constant Matrix: (Units=GPa)
#
#
# Indices 1 2 3 4 5 6 
#
# 1 133.4157 52.9313 42.6394 0.0000 0.0000 0.0000
# 2 52.9313 104.7437 21.8179 0.0000 0.0000 0.0000
# 3 42.6394 21.8179 64.7338 0.0000 0.0000 0.0000
# 4 0.0000 0.0000 0.0000 15.2311 0.0000 0.0000
# 5 0.0000 0.0000 0.0000 0.0000 20.4019 0.0000
# 6 0.0000 0.0000 0.0000 0.0000 0.0000 19.3691
#
#
#
# Elastic Compliance Matrix: (Units=1/GPa)
#
#
# Indices 1 2 3 4 5 6 
#
# 1 0.011103 -0.004396 -0.005832 0.000000 0.000000 0.000000
# 2 -0.004396 0.012009 -0.001152 0.000000 0.000000 0.000000
# 3 -0.005832 -0.001152 0.019677 0.000000 0.000000 0.000000
# 4 0.000000 0.000000 0.000000 0.065655 0.000000 0.000000
# 5 0.000000 0.000000 0.000000 0.000000 0.049015 0.000000
# 6 0.000000 0.000000 0.000000 0.000000 0.000000 0.051629
#
#
# Mechanical properties :
#
#
# Convention : Reuss Voigt Hill
#
# Bulk Modulus (GPa) = 49.92561 59.74115 54.83338
# Shear Modulus (GPa) = 20.96223 23.36741 22.16482
#
# Velocity S-wave (km/s) = 3.44690 3.63928 3.54440
# Velocity P-wave (km/s) = 6.64370 7.17773 6.91587
#
# Compressibility (1/GPa) = 0.02002980
#
# Stress axis : x y z
#
# Youngs Moduli (GPa) = 90.06241 83.27367 50.81955
#
# Poissons Ratio (x) = 0.36609 0.29638
# Poissons Ratio (y) = 0.39593 0.05853
# Poissons Ratio (z) = 0.52524 0.09590
#
# Static dielectric constant tensor:
#      x y z
#    x 3.333940 0.000000 0.000000 
#    y 0.000000 3.467210 0.000000 
#    z 0.000000 0.000000 2.862410 
# 
# 
# High freq. dielectric constant tensor:
#      x y z
#    x 1.679650 0.000000 0.000000 
#    y 0.000000 1.699120 0.000000 
#    z 0.000000 0.000000 1.624220 
# 
# From -- ./inp_files/37793.got.cif
#   From: 2010.06.25/outbox.cif.g09.slc.cpg/sg52_19_cif.got.tgz:37793.got - 2010.06.26 19:32:48.
