data_PCOD8216740
_publ_section_title
;
Structure prediction by ZEFSAII (Michael W. Deem and Ramdas Pophale) SiO2 
 PCOD8216740
Probable space group: P N N A
;
_chemical_formula_sum "Si O2"
_cell_formula_units_Z 40
_cell_length_a 11.639657
_cell_length_b 12.968991
_cell_length_c 13.065272
_cell_angle_alpha 90.000000
_cell_angle_beta 90.000000
_cell_angle_gamma 90.000000
_cell_volume 1972.262998
_symmetry_space_group_name_H-M "P N N A"
_symmetry_group_IT_number 52
_symmetry_cell_setting 'orthorhombic'
loop_
_space_group_symop_operation_xyz
x,y,z
1/2-x,-y,z
x,1/2-y,1/2-z
1/2-x,1/2+y,1/2-z
-x,-y,-z
1/2+x,y,-z
-x,1/2+y,1/2+z
1/2+x,1/2-y,1/2+z
loop_
_atom_site_type_symbol
_atom_site_label
_atom_site_fract_x
_atom_site_fract_y
_atom_site_fract_z
Si Si1 0.382941 0.630182 0.546919
Si Si2 0.118906 0.999204 0.371393
Si Si3 0.510732 0.829987 0.494551
Si Si4 0.960856 0.531446 0.650827
Si Si5 0.157258 0.693476 0.647870
O O1 0.420415 0.748806 0.539318
O O2 0.478412 0.572484 0.613636
O O3 0.375204 0.576214 0.435656
O O4 0.259155 0.624978 0.600265
O O5 0.055262 0.098558 0.414806
O O6 0.113995 0.003128 0.249004
O O7 0.250000 0.000000 0.408212
O O8 0.059554 0.895003 0.410790
O O9 0.616053 0.775137 0.436757
O O10 0.054879 0.617468 0.678883
O O11 0.201431 0.750000 0.750000
#
# Coordination Sequence:
#
# PCOD8216740 Si02
#       5
#     8   8   8   8   8
#     4  10  23  40  64  92 126 166 208 262 311 379
#     4  11  23  41  63  89 124 169 203 263 320 374
#     4  10  23  42  61  93 125 158 218 263 308 387
#     4  10  23  42  61  93 131 161 213 258 314 379
#     4  11  21  40  66  92 126 172 205 264 322 374
#
# _framework density 20.281269999999999
#
# number of rings (size 3 to 8) (size 9 to 14) (size 15 to 20)
#    0.000    1.600    2.000    1.800    2.800    4.800 
#    0.000    4.000    0.000    0.000    0.000    0.000 
#    0.000    0.000    0.000    0.000    0.000    0.000 
#
# Total GULP energy -496251.694287 kJ/mol
# GULP energy per Si atom -12406.292357 kJ/mol
# Density = 2.023511 g / cm^3
# Si number density = 20.281270 Si / 1000 Ang^3
#
#
#
# Elastic Constant Matrix: (Units=GPa)
#
#
# Indices 1 2 3 4 5 6 
#
# 1 61.5352 -2.6882 24.6453 0.0000 0.0000 0.0000
# 2 -2.6882 83.4489 22.9132 0.0000 0.0000 0.0000
# 3 24.6453 22.9132 106.2472 0.0000 0.0000 0.0000
# 4 0.0000 0.0000 0.0000 16.7519 0.0000 0.0000
# 5 0.0000 0.0000 0.0000 0.0000 29.2115 0.0000
# 6 0.0000 0.0000 0.0000 0.0000 0.0000 18.1343
#
#
#
# Elastic Compliance Matrix: (Units=1/GPa)
#
#
# Indices 1 2 3 4 5 6 
#
# 1 0.018181 0.001853 -0.004617 0.000000 0.000000 0.000000
# 2 0.001853 0.012927 -0.003218 0.000000 0.000000 0.000000
# 3 -0.004617 -0.003218 0.011177 0.000000 0.000000 0.000000
# 4 0.000000 0.000000 0.000000 0.059695 0.000000 0.000000
# 5 0.000000 0.000000 0.000000 0.000000 0.034233 0.000000
# 6 0.000000 0.000000 0.000000 0.000000 0.000000 0.055144
#
#
# Mechanical properties :
#
#
# Convention : Reuss Voigt Hill
#
# Bulk Modulus (GPa) = 32.97942 37.88579 35.43260
# Shear Modulus (GPa) = 23.42731 26.57695 25.00213
#
# Velocity S-wave (km/s) = 3.40239 3.62390 3.51489
# Velocity P-wave (km/s) = 5.63306 6.01921 5.82933
#
# Compressibility (1/GPa) = 0.03032194
#
# Stress axis : x y z
#
# Youngs Moduli (GPa) = 55.00254 77.35999 89.47023
#
# Poissons Ratio (x) = -0.14338 0.41308
# Poissons Ratio (y) = -0.10194 0.28788
# Poissons Ratio (z) = 0.25395 0.24892
#
# Static dielectric constant tensor:
#      x y z
#    x 3.452460 0.000000 0.000000 
#    y 0.000000 3.773920 0.000000 
#    z 0.000000 0.000000 3.646170 
# 
# 
# High freq. dielectric constant tensor:
#      x y z
#    x 1.787250 0.000000 0.000000 
#    y 0.000000 1.806310 0.000000 
#    z 0.000000 0.000000 1.795040 
# 
# From -- ./inp_files/17968.got.cif
#   From: 2010.06.25/outbox.cif.g09.slc.cpg/sg52_9_cif.got.tgz:17968.got - 2010.06.26 19:32:48.
