data_PCOD8216718
_publ_section_title
;
Structure prediction by ZEFSAII (Michael W. Deem and Ramdas Pophale) SiO2 
 PCOD8216718
Probable space group: P N N A
;
_chemical_formula_sum "Si O2"
_cell_formula_units_Z 40
_cell_length_a 12.512695
_cell_length_b 8.678464
_cell_length_c 16.225595
_cell_angle_alpha 90.000000
_cell_angle_beta 90.000000
_cell_angle_gamma 90.000000
_cell_volume 1761.953150
_symmetry_space_group_name_H-M "P N N A"
_symmetry_group_IT_number 52
_symmetry_cell_setting 'orthorhombic'
loop_
_space_group_symop_operation_xyz
x,y,z
1/2-x,-y,z
x,1/2-y,1/2-z
1/2-x,1/2+y,1/2-z
-x,-y,-z
1/2+x,y,-z
-x,1/2+y,1/2+z
1/2+x,1/2-y,1/2+z
loop_
_atom_site_type_symbol
_atom_site_label
_atom_site_fract_x
_atom_site_fract_y
_atom_site_fract_z
Si Si1 0.659655 0.883009 0.305691
Si Si2 0.391423 0.287904 0.127782
Si Si3 0.679170 0.150193 0.886254
Si Si4 0.513942 0.670414 0.038158
Si Si5 0.040637 0.514876 0.261705
O O1 0.714662 0.750000 0.250000
O O2 0.590675 0.822844 0.382731
O O3 0.750000 0.000000 0.337996
O O4 0.581123 0.961482 0.239396
O O5 0.263985 0.280958 0.137012
O O6 0.424839 0.455487 0.165162
O O7 0.453357 0.166708 0.184095
O O8 0.423096 0.245375 0.035103
O O9 0.595081 0.229339 0.949741
O O10 0.750000 0.000000 0.918406
O O11 0.616823 0.112843 0.801998
O O12 0.500000 0.500000 0.000000
#
# Coordination Sequence:
#
# PCOD8216718 Si02
#       5
#     8   8   8   8   8
#     4  12  28  49  72 101 144 198 242 296 365 441
#     4  10  24  42  71 106 141 181 238 295 360 431
#     4  10  24  45  71 106 141 197 234 299 375 437
#     4  12  26  45  70 105 148 177 246 308 365 435
#     4  10  22  47  68  99 143 180 237 295 357 433
#
# _framework density 22.702079000000001
#
# number of rings (size 3 to 8) (size 9 to 14) (size 15 to 20)
#    0.000    1.200    4.000    0.000    5.600   11.200 
#    0.000    0.000    0.000    0.000    0.000    0.000 
#    0.000    0.000    0.000    0.000    0.000    0.000 
#
# Total GULP energy -495558.281366 kJ/mol
# GULP energy per Si atom -12388.957034 kJ/mol
# Density = 2.265041 g / cm^3
# Si number density = 22.702079 Si / 1000 Ang^3
#
#
#
# Elastic Constant Matrix: (Units=GPa)
#
#
# Indices 1 2 3 4 5 6 
#
# 1 129.0196 52.2657 45.2104 0.0000 0.0000 0.0000
# 2 52.2657 68.4309 39.0883 0.0000 0.0000 0.0000
# 3 45.2104 39.0883 127.7380 0.0000 0.0000 0.0000
# 4 0.0000 0.0000 0.0000 29.0198 0.0000 0.0000
# 5 0.0000 0.0000 0.0000 0.0000 27.1030 0.0000
# 6 0.0000 0.0000 0.0000 0.0000 0.0000 45.1200
#
#
#
# Elastic Compliance Matrix: (Units=1/GPa)
#
#
# Indices 1 2 3 4 5 6 
#
# 1 0.011512 -0.007835 -0.001677 0.000000 0.000000 0.000000
# 2 -0.007835 0.023041 -0.004278 0.000000 0.000000 0.000000
# 3 -0.001677 -0.004278 0.009731 0.000000 0.000000 0.000000
# 4 0.000000 0.000000 0.000000 0.034459 0.000000 0.000000
# 5 0.000000 0.000000 0.000000 0.000000 0.036896 0.000000
# 6 0.000000 0.000000 0.000000 0.000000 0.000000 0.022163
#
#
# Mechanical properties :
#
#
# Convention : Reuss Voigt Hill
#
# Bulk Modulus (GPa) = 59.86190 66.47972 63.17081
# Shear Modulus (GPa) = 29.24831 32.82350 31.03590
#
# Velocity S-wave (km/s) = 3.59326 3.80654 3.70144
# Velocity P-wave (km/s) = 6.60614 6.97616 6.79367
#
# Compressibility (1/GPa) = 0.01670512
#
# Stress axis : x y z
#
# Youngs Moduli (GPa) = 86.86346 43.40149 102.76400
#
# Poissons Ratio (x) = 0.34004 0.17234
# Poissons Ratio (y) = 0.68056 0.43958
# Poissons Ratio (z) = 0.14568 0.18565
#
# Static dielectric constant tensor:
#      x y z
#    x 4.134220 0.000000 0.000000 
#    y 0.000000 4.368490 0.000000 
#    z 0.000000 0.000000 4.677420 
# 
# 
# High freq. dielectric constant tensor:
#      x y z
#    x 1.895160 0.000000 0.000000 
#    y 0.000000 1.902370 0.000000 
#    z 0.000000 0.000000 1.893930 
# 
# From -- ./inp_files/31921.got.cif
#   From: 2010.06.25/outbox.cif.g09.slc.cpg/sg52_16_cif.got.tgz:31921.got - 2010.06.26 19:32:48.
