data_PCOD8216105
_publ_section_title
;
Structure prediction by ZEFSAII (Michael W. Deem and Ramdas Pophale) SiO2 
 PCOD8216105
Probable space group: P N N A
;
_chemical_formula_sum "Si O2"
_cell_formula_units_Z 40
_cell_length_a 18.548059
_cell_length_b 11.175103
_cell_length_c 9.175102
_cell_angle_alpha 90.000000
_cell_angle_beta 90.000000
_cell_angle_gamma 90.000000
_cell_volume 1901.782752
_symmetry_space_group_name_H-M "P N N A"
_symmetry_group_IT_number 52
_symmetry_cell_setting 'orthorhombic'
loop_
_space_group_symop_operation_xyz
x,y,z
1/2-x,-y,z
x,1/2-y,1/2-z
1/2-x,1/2+y,1/2-z
-x,-y,-z
1/2+x,y,-z
-x,1/2+y,1/2+z
1/2+x,1/2-y,1/2+z
loop_
_atom_site_type_symbol
_atom_site_label
_atom_site_fract_x
_atom_site_fract_y
_atom_site_fract_z
Si Si1 0.653006 0.716352 0.090980
Si Si2 0.178997 0.435313 0.319746
Si Si3 0.695885 0.304750 0.968013
Si Si4 0.920289 0.451091 0.483784
Si Si5 0.834830 0.524900 0.208403
O O1 0.684196 0.750000 0.250000
O O2 0.587787 0.807988 0.048580
O O3 0.627961 0.578160 0.106485
O O4 0.718833 0.724226 0.978031
O O5 0.250000 0.500000 0.379737
O O6 0.184870 0.411172 0.148398
O O7 0.159723 0.315239 0.410076
O O8 0.114087 0.525357 0.357253
O O9 0.660168 0.349625 0.119760
O O10 0.877109 0.528826 0.361371
O O11 0.000000 0.500000 0.500000
O O12 0.750000 0.500000 0.235342
#
# Coordination Sequence:
#
# PCOD8216105 Si02
#       5
#     8   8   8   8   8
#     4   9  18  36  64  92 118 161 207 262 313 371
#     4  11  21  37  63  92 124 158 208 264 321 364
#     4  10  21  36  64  95 120 151 209 270 316 367
#     4  11  23  39  61  90 129 172 207 250 317 387
#     4   9  19  38  67  94 118 156 217 263 311 373
#
# _framework density 21.032896999999998
#
# number of rings (size 3 to 8) (size 9 to 14) (size 15 to 20)
#    0.000    2.000    2.000    2.400    5.600    0.000 
#   10.800    1.000   13.200    0.000    0.000    0.000 
#    0.000    0.000    0.000    0.000    0.000    0.000 
#
# Total GULP energy -495532.319873 kJ/mol
# GULP energy per Si atom -12388.307997 kJ/mol
# Density = 2.098503 g / cm^3
# Si number density = 21.032897 Si / 1000 Ang^3
#
#
#
# Elastic Constant Matrix: (Units=GPa)
#
#
# Indices 1 2 3 4 5 6 
#
# 1 108.5185 29.8437 38.1939 0.0000 0.0000 0.0000
# 2 29.8437 82.6114 31.5911 0.0000 0.0000 0.0000
# 3 38.1939 31.5911 83.8678 0.0000 0.0000 0.0000
# 4 0.0000 0.0000 0.0000 37.3918 0.0000 0.0000
# 5 0.0000 0.0000 0.0000 0.0000 9.2981 0.0000
# 6 0.0000 0.0000 0.0000 0.0000 0.0000 30.5808
#
#
#
# Elastic Compliance Matrix: (Units=1/GPa)
#
#
# Indices 1 2 3 4 5 6 
#
# 1 0.011397 -0.002491 -0.004252 0.000000 0.000000 0.000000
# 2 -0.002491 0.014686 -0.004398 0.000000 0.000000 0.000000
# 3 -0.004252 -0.004398 0.015516 0.000000 0.000000 0.000000
# 4 0.000000 0.000000 0.000000 0.026744 0.000000 0.000000
# 5 0.000000 0.000000 0.000000 0.000000 0.107549 0.000000
# 6 0.000000 0.000000 0.000000 0.000000 0.000000 0.032700
#
#
# Mechanical properties :
#
#
# Convention : Reuss Voigt Hill
#
# Bulk Modulus (GPa) = 51.76414 52.69501 52.22957
# Shear Modulus (GPa) = 21.06924 27.14541 24.10732
#
# Velocity S-wave (km/s) = 3.16844 3.59641 3.38919
# Velocity P-wave (km/s) = 6.16845 6.50796 6.34048
#
# Compressibility (1/GPa) = 0.01931839
#
# Stress axis : x y z
#
# Youngs Moduli (GPa) = 87.74604 68.08987 64.44862
#
# Poissons Ratio (x) = 0.16962 0.27401
# Poissons Ratio (y) = 0.21859 0.28342
# Poissons Ratio (z) = 0.37307 0.29943
#
# Static dielectric constant tensor:
#      x y z
#    x 3.236830 0.000000 0.000000 
#    y 0.000000 4.207480 0.000000 
#    z 0.000000 0.000000 3.852060 
# 
# 
# High freq. dielectric constant tensor:
#      x y z
#    x 1.758280 0.000000 0.000000 
#    y 0.000000 1.841640 0.000000 
#    z 0.000000 0.000000 1.827580 
# 
# From -- ./inp_files/11632.got.cif
#   From: 2010.06.25/outbox.cif.g09.slc.cpg/sg52_6_cif.got.tgz:11632.got - 2010.06.26 19:32:48.
