data_PCOD8216700
_publ_section_title
;
Structure prediction by ZEFSAII (Michael W. Deem and Ramdas Pophale) SiO2 
 PCOD8216700
Probable space group: P N N A
;
_chemical_formula_sum "Si O2"
_cell_formula_units_Z 40
_cell_length_a 9.344295
_cell_length_b 16.449807
_cell_length_c 11.292164
_cell_angle_alpha 90.000000
_cell_angle_beta 90.000000
_cell_angle_gamma 90.000000
_cell_volume 1735.739411
_symmetry_space_group_name_H-M "P N N A"
_symmetry_group_IT_number 52
_symmetry_cell_setting 'orthorhombic'
loop_
_space_group_symop_operation_xyz
x,y,z
1/2-x,-y,z
x,1/2-y,1/2-z
1/2-x,1/2+y,1/2-z
-x,-y,-z
1/2+x,y,-z
-x,1/2+y,1/2+z
1/2+x,1/2-y,1/2+z
loop_
_atom_site_type_symbol
_atom_site_label
_atom_site_fract_x
_atom_site_fract_y
_atom_site_fract_z
Si Si1 0.250000 0.500000 0.649348
Si Si2 0.550805 0.249973 0.389812
Si Si3 0.077686 0.087790 0.012403
Si Si4 0.250000 0.500000 0.068916
Si Si5 0.987800 0.925570 0.731089
Si Si6 0.839631 0.161815 0.451143
O O1 0.226824 0.422552 0.560679
O O2 0.386035 0.486344 0.731397
O O3 0.536739 0.250000 0.250000
O O4 0.504025 0.335984 0.447710
O O5 0.711824 0.224547 0.425693
O O6 0.432860 0.187724 0.436633
O O7 0.096357 0.107198 0.152099
O O8 0.000000 0.000000 0.000000
O O9 0.115001 0.478916 0.150097
O O10 0.221910 0.573947 0.981380
O O11 0.055858 0.848038 0.663047
#
# Coordination Sequence:
#
# PCOD8216700 Si02
#       6
#     4   8   8   4   8   8
#     4  10  22  44  78 108 142 198 240 300 376 466
#     4  12  30  49  76 110 157 197 259 320 385 460
#     4  10  25  45  75 113 146 198 251 310 383 456
#     4  12  26  48  74 116 152 196 258 310 394 456
#     4  11  24  45  78 104 153 190 252 306 377 456
#     4  12  28  49  74 112 146 204 250 317 388 459
#
# _framework density 23.044933
#
# number of rings (size 3 to 8) (size 9 to 14) (size 15 to 20)
#    0.000    0.800    2.000    3.000   16.800    1.600 
#    0.000    0.000    0.000    0.000    0.000    0.000 
#    0.000    0.000    0.000    0.000    0.000    0.000 
#
# Total GULP energy -495828.144815 kJ/mol
# GULP energy per Si atom -12395.703620 kJ/mol
# Density = 2.299248 g / cm^3
# Si number density = 23.044933 Si / 1000 Ang^3
#
#
#
# Elastic Constant Matrix: (Units=GPa)
#
#
# Indices 1 2 3 4 5 6 
#
# 1 99.3174 28.1574 44.2204 0.0000 0.0000 0.0000
# 2 28.1574 119.4552 46.5853 0.0000 0.0000 0.0000
# 3 44.2204 46.5853 162.0619 0.0000 0.0000 0.0000
# 4 0.0000 0.0000 0.0000 38.7580 0.0000 0.0000
# 5 0.0000 0.0000 0.0000 0.0000 30.4180 0.0000
# 6 0.0000 0.0000 0.0000 0.0000 0.0000 44.4567
#
#
#
# Elastic Compliance Matrix: (Units=1/GPa)
#
#
# Indices 1 2 3 4 5 6 
#
# 1 0.011764 -0.001713 -0.002718 0.000000 0.000000 0.000000
# 2 -0.001713 0.009678 -0.002314 0.000000 0.000000 0.000000
# 3 -0.002718 -0.002314 0.007577 0.000000 0.000000 0.000000
# 4 0.000000 0.000000 0.000000 0.025801 0.000000 0.000000
# 5 0.000000 0.000000 0.000000 0.000000 0.032875 0.000000
# 6 0.000000 0.000000 0.000000 0.000000 0.000000 0.022494
#
#
# Mechanical properties :
#
#
# Convention : Reuss Voigt Hill
#
# Bulk Modulus (GPa) = 64.39574 68.75117 66.57346
# Shear Modulus (GPa) = 38.80286 40.18464 39.49375
#
# Velocity S-wave (km/s) = 4.10785 4.18036 4.14426
# Velocity P-wave (km/s) = 7.10658 7.29375 7.20077
#
# Compressibility (1/GPa) = 0.01552898
#
# Stress axis : x y z
#
# Youngs Moduli (GPa) = 85.00200 103.32965 131.97328
#
# Poissons Ratio (x) = 0.17703 0.35865
# Poissons Ratio (y) = 0.14563 0.30544
# Poissons Ratio (z) = 0.23100 0.23915
#
# Static dielectric constant tensor:
#      x y z
#    x 4.402440 0.000000 0.000000 
#    y 0.000000 4.155110 0.000000 
#    z 0.000000 0.000000 4.630460 
# 
# 
# High freq. dielectric constant tensor:
#      x y z
#    x 1.912920 0.000000 0.000000 
#    y 0.000000 1.904100 0.000000 
#    z 0.000000 0.000000 1.933840 
# 
# From -- ./inp_files/16724.got.cif
#   From: 2010.06.25/outbox.cif.g09.slc.cpg/sg52_9_cif.got.tgz:16724.got - 2010.06.26 19:32:48.
