data_PCOD8216669
_publ_section_title
;
Structure prediction by ZEFSAII (Michael W. Deem and Ramdas Pophale) SiO2 
 PCOD8216669
Probable space group: P N N A
;
_chemical_formula_sum "Si O2"
_cell_formula_units_Z 56
_cell_length_a 14.607268
_cell_length_b 19.317737
_cell_length_c 8.936169
_cell_angle_alpha 90.000000
_cell_angle_beta 90.000000
_cell_angle_gamma 90.000000
_cell_volume 2521.602463
_symmetry_space_group_name_H-M "P N N A"
_symmetry_group_IT_number 52
_symmetry_cell_setting 'orthorhombic'
loop_
_space_group_symop_operation_xyz
x,y,z
1/2-x,-y,z
x,1/2-y,1/2-z
1/2-x,1/2+y,1/2-z
-x,-y,-z
1/2+x,y,-z
-x,1/2+y,1/2+z
1/2+x,1/2-y,1/2+z
loop_
_atom_site_type_symbol
_atom_site_label
_atom_site_fract_x
_atom_site_fract_y
_atom_site_fract_z
Si Si1 0.776660 0.629277 0.132881
Si Si2 0.915583 0.092843 0.294036
Si Si3 0.254073 0.579887 0.183962
Si Si4 0.445047 0.395080 0.111074
Si Si5 0.590747 0.450620 0.333103
Si Si6 0.071482 0.269681 0.914802
Si Si7 0.914826 0.634422 0.617272
O O1 0.672009 0.643281 0.182205
O O2 0.824553 0.593887 0.274441
O O3 0.825297 0.701187 0.092425
O O4 0.788972 0.580087 0.987646
O O5 0.936048 0.059665 0.458541
O O6 0.001352 0.135458 0.232494
O O7 0.888069 0.031841 0.179237
O O8 0.250000 0.500000 0.238703
O O9 0.154614 0.617124 0.186308
O O10 0.320516 0.624972 0.290936
O O11 0.501367 0.435065 0.235539
O O12 0.493769 0.325888 0.044882
O O13 0.573782 0.430402 0.505034
O O14 0.039203 0.250000 0.750000
O O15 0.077785 0.206557 0.029566
#
# Coordination Sequence:
#
# PCOD8216669 Si02
#       7
#     8   8   8   8   8   8   8
#     4  10  22  43  70  93 133 187 228 279 335 407
#     4  11  23  40  67 105 127 174 234 276 340 403
#     4  11  24  44  69 107 138 176 235 289 348 411
#     4  10  22  43  70  95 131 189 227 275 337 410
#     4  11  21  41  66  96 140 176 217 285 342 399
#     4  11  23  50  64  94 137 182 235 280 347 412
#     4  12  25  42  69 100 145 177 219 291 342 407
#
# _framework density 22.208099000000001
#
# number of rings (size 3 to 8) (size 9 to 14) (size 15 to 20)
#    0.000    1.143    2.857    5.571    0.000    4.571 
#   10.286    0.000    0.000    0.000    0.000    0.000 
#    0.000    0.000    0.000    0.000    0.000    0.000 
#
# Total GULP energy -694152.714964 kJ/mol
# GULP energy per Si atom -12395.584196 kJ/mol
# Density = 2.215755 g / cm^3
# Si number density = 22.208099 Si / 1000 Ang^3
#
#
#
# Elastic Constant Matrix: (Units=GPa)
#
#
# Indices 1 2 3 4 5 6 
#
# 1 165.4135 40.3401 60.0809 0.0000 0.0000 0.0000
# 2 40.3401 87.1477 16.0012 0.0000 0.0000 0.0000
# 3 60.0809 16.0012 99.3457 0.0000 0.0000 0.0000
# 4 0.0000 0.0000 0.0000 31.1479 0.0000 0.0000
# 5 0.0000 0.0000 0.0000 0.0000 31.2960 0.0000
# 6 0.0000 0.0000 0.0000 0.0000 0.0000 17.9540
#
#
#
# Elastic Compliance Matrix: (Units=1/GPa)
#
#
# Indices 1 2 3 4 5 6 
#
# 1 0.008477 -0.003074 -0.004632 0.000000 0.000000 0.000000
# 2 -0.003074 0.012939 -0.000225 0.000000 0.000000 0.000000
# 3 -0.004632 -0.000225 0.012903 0.000000 0.000000 0.000000
# 4 0.000000 0.000000 0.000000 0.032105 0.000000 0.000000
# 5 0.000000 0.000000 0.000000 0.000000 0.031953 0.000000
# 6 0.000000 0.000000 0.000000 0.000000 0.000000 0.055698
#
#
# Mechanical properties :
#
#
# Convention : Reuss Voigt Hill
#
# Bulk Modulus (GPa) = 54.17607 64.97235 59.57421
# Shear Modulus (GPa) = 28.39471 31.77858 30.08664
#
# Velocity S-wave (km/s) = 3.57960 3.78689 3.68470
# Velocity P-wave (km/s) = 6.44456 6.95991 6.70719
#
# Compressibility (1/GPa) = 0.01845833
#
# Stress axis : x y z
#
# Youngs Moduli (GPa) = 117.96097 77.28631 77.49986
#
# Poissons Ratio (x) = 0.23755 0.35896
# Poissons Ratio (y) = 0.36258 0.01745
# Poissons Ratio (z) = 0.54637 0.01740
#
# Static dielectric constant tensor:
#      x y z
#    x 4.184930 0.000000 0.000000 
#    y 0.000000 3.957150 0.000000 
#    z 0.000000 0.000000 4.112080 
# 
# 
# High freq. dielectric constant tensor:
#      x y z
#    x 1.885750 0.000000 0.000000 
#    y 0.000000 1.850690 0.000000 
#    z 0.000000 0.000000 1.883600 
# 
# From -- ./inp_files/10827.got.cif
#   From: 2010.06.25/outbox.cif.g09.slc.cpg/sg52_6_cif.got.tgz:10827.got - 2010.06.26 19:32:48.
