data_PCOD8216717
_publ_section_title
;
Structure prediction by ZEFSAII (Michael W. Deem and Ramdas Pophale) SiO2 
 PCOD8216717
Probable space group: P N N A
;
_chemical_formula_sum "Si O2"
_cell_formula_units_Z 32
_cell_length_a 18.850830
_cell_length_b 5.711506
_cell_length_c 11.605954
_cell_angle_alpha 90.000000
_cell_angle_beta 90.000000
_cell_angle_gamma 90.000000
_cell_volume 1249.573939
_symmetry_space_group_name_H-M "P N N A"
_symmetry_group_IT_number 52
_symmetry_cell_setting 'orthorhombic'
loop_
_space_group_symop_operation_xyz
x,y,z
1/2-x,-y,z
x,1/2-y,1/2-z
1/2-x,1/2+y,1/2-z
-x,-y,-z
1/2+x,y,-z
-x,1/2+y,1/2+z
1/2+x,1/2-y,1/2+z
loop_
_atom_site_type_symbol
_atom_site_label
_atom_site_fract_x
_atom_site_fract_y
_atom_site_fract_z
Si Si1 0.385846 0.750000 0.250000
Si Si2 0.660021 0.592272 0.936283
Si Si3 0.250000 0.500000 0.508733
Si Si4 0.377092 0.788897 0.885041
Si Si5 0.032265 0.879539 0.130138
O O1 0.338342 0.556445 0.183592
O O2 0.436424 0.637921 0.347314
O O3 0.731652 0.760421 0.934967
O O4 0.589255 0.744788 0.945485
O O5 0.653558 0.438318 0.051063
O O6 0.319531 0.512520 0.587879
O O7 0.380065 0.750000 0.750000
O O8 0.454598 0.879754 0.932030
O O9 0.020171 0.750000 0.250000
#
# Coordination Sequence:
#
# PCOD8216717 Si02
#       5
#     4   8   4   8   8
#     4  10  22  46  80 108 148 184 258 310 368 430
#     4  11  24  46  75 107 144 197 246 310 368 439
#     4  12  28  42  70 106 154 194 248 296 376 446
#     4  11  26  45  73 109 148 196 245 303 366 439
#     4   9  21  43  76 109 142 189 248 310 361 430
#
# _framework density 25.608727999999999
#
# number of rings (size 3 to 8) (size 9 to 14) (size 15 to 20)
#    0.000    1.500    0.000    3.000    3.500   10.000 
#    0.000    0.000  123.750    0.000    0.000    0.000 
#    0.000    0.000    0.000    0.000    0.000    0.000 
#
# Total GULP energy -396645.870352 kJ/mol
# GULP energy per Si atom -12395.183448 kJ/mol
# Density = 2.555044 g / cm^3
# Si number density = 25.608728 Si / 1000 Ang^3
#
#
#
# Elastic Constant Matrix: (Units=GPa)
#
#
# Indices 1 2 3 4 5 6 
#
# 1 209.3358 46.4970 48.8635 0.0000 0.0000 0.0000
# 2 46.4970 119.3620 37.2504 0.0000 0.0000 0.0000
# 3 48.8635 37.2504 97.8761 0.0000 0.0000 0.0000
# 4 0.0000 0.0000 0.0000 30.9753 0.0000 0.0000
# 5 0.0000 0.0000 0.0000 0.0000 45.8151 0.0000
# 6 0.0000 0.0000 0.0000 0.0000 0.0000 5.5116
#
#
#
# Elastic Compliance Matrix: (Units=1/GPa)
#
#
# Indices 1 2 3 4 5 6 
#
# 1 0.005633 -0.001494 -0.002243 0.000000 0.000000 0.000000
# 2 -0.001494 0.009903 -0.003023 0.000000 0.000000 0.000000
# 3 -0.002243 -0.003023 0.012488 0.000000 0.000000 0.000000
# 4 0.000000 0.000000 0.000000 0.032284 0.000000 0.000000
# 5 0.000000 0.000000 0.000000 0.000000 0.021827 0.000000
# 6 0.000000 0.000000 0.000000 0.000000 0.000000 0.181434
#
#
# Mechanical properties :
#
#
# Convention : Reuss Voigt Hill
#
# Bulk Modulus (GPa) = 68.95489 76.86619 72.91054
# Shear Modulus (GPa) = 17.73530 36.05793 26.89661
#
# Velocity S-wave (km/s) = 2.63449 3.75645 3.24434
# Velocity P-wave (km/s) = 6.01987 6.99252 6.52434
#
# Compressibility (1/GPa) = 0.01450223
#
# Stress axis : x y z
#
# Youngs Moduli (GPa) = 177.54076 100.97592 80.07964
#
# Poissons Ratio (x) = 0.15086 0.17965
# Poissons Ratio (y) = 0.26525 0.24210
# Poissons Ratio (z) = 0.39829 0.30527
#
# Static dielectric constant tensor:
#      x y z
#    x 5.235340 0.000000 0.000000 
#    y 0.000000 5.755980 0.000000 
#    z 0.000000 0.000000 4.545270 
# 
# 
# High freq. dielectric constant tensor:
#      x y z
#    x 2.044600 0.000000 0.000000 
#    y 0.000000 2.031770 0.000000 
#    z 0.000000 0.000000 2.022440 
# 
# From -- ./inp_files/21232.got.cif
#   From: 2010.06.25/outbox.cif.g09.slc.cpg/sg52_11_cif.got.tgz:21232.got - 2010.06.26 19:32:48.
