data_PCOD8216235
_publ_section_title
;
Structure prediction by ZEFSAII (Michael W. Deem and Ramdas Pophale) SiO2 
 PCOD8216235
Probable space group: P N N A
;
_chemical_formula_sum "Si O2"
_cell_formula_units_Z 48
_cell_length_a 9.024622
_cell_length_b 17.724169
_cell_length_c 14.463887
_cell_angle_alpha 90.000000
_cell_angle_beta 90.000000
_cell_angle_gamma 90.000000
_cell_volume 2313.555503
_symmetry_space_group_name_H-M "P N N A"
_symmetry_group_IT_number 52
_symmetry_cell_setting 'orthorhombic'
loop_
_space_group_symop_operation_xyz
x,y,z
1/2-x,-y,z
x,1/2-y,1/2-z
1/2-x,1/2+y,1/2-z
-x,-y,-z
1/2+x,y,-z
-x,1/2+y,1/2+z
1/2+x,1/2-y,1/2+z
loop_
_atom_site_type_symbol
_atom_site_label
_atom_site_fract_x
_atom_site_fract_y
_atom_site_fract_z
Si Si1 0.324928 0.703971 0.414052
Si Si2 0.018871 0.289088 0.604250
Si Si3 0.964529 0.641278 0.898031
Si Si4 0.791487 0.584096 0.740162
Si Si5 0.783524 0.916306 0.430773
Si Si6 0.518894 0.362026 0.211175
O O1 0.386006 0.687345 0.516056
O O2 0.416524 0.773680 0.369245
O O3 0.344951 0.630960 0.348902
O O4 0.151748 0.720712 0.423622
O O5 0.049501 0.354777 0.679344
O O6 0.066018 0.211490 0.652601
O O7 0.922846 0.583574 0.815665
O O8 0.139035 0.634732 0.915124
O O9 0.883622 0.624265 0.993650
O O10 0.750000 0.500000 0.707395
O O11 0.655619 0.621480 0.796866
O O12 0.877919 0.925873 0.335236
O O13 0.750000 0.000000 0.467046
#
# Coordination Sequence:
#
# PCOD8216235 Si02
#       6
#     8   8   8   8   8   8
#     4  11  22  40  64  94 117 165 212 259 307 378
#     4  10  21  39  64  86 122 157 211 259 304 369
#     4  12  22  38  61  92 127 166 211 260 307 387
#     4  11  23  42  64  90 128 166 211 264 318 376
#     4  12  24  38  60  94 130 166 206 257 323 379
#     4  10  21  41  61  87 122 168 202 254 322 363
#
# _framework density 20.747285999999999
#
# number of rings (size 3 to 8) (size 9 to 14) (size 15 to 20)
#    0.000    1.000    3.333    4.500    0.000    1.333 
#    3.000    4.167    0.000    0.000    0.000    0.000 
#    0.000    0.000    0.000    0.000    0.000    0.000 
#
# Total GULP energy -595168.737066 kJ/mol
# GULP energy per Si atom -12399.348689 kJ/mol
# Density = 2.070006 g / cm^3
# Si number density = 20.747286 Si / 1000 Ang^3
#
#
#
# Elastic Constant Matrix: (Units=GPa)
#
#
# Indices 1 2 3 4 5 6 
#
# 1 100.1193 15.1357 63.5806 0.0000 0.0000 0.0000
# 2 15.1357 83.2941 34.1687 0.0000 0.0000 0.0000
# 3 63.5806 34.1687 126.3449 0.0000 0.0000 0.0000
# 4 0.0000 0.0000 0.0000 28.8300 0.0000 0.0000
# 5 0.0000 0.0000 0.0000 0.0000 39.0773 0.0000
# 6 0.0000 0.0000 0.0000 0.0000 0.0000 22.2033
#
#
#
# Elastic Compliance Matrix: (Units=1/GPa)
#
#
# Indices 1 2 3 4 5 6 
#
# 1 0.014692 0.000408 -0.007504 0.000000 0.000000 0.000000
# 2 0.000408 0.013515 -0.003861 0.000000 0.000000 0.000000
# 3 -0.007504 -0.003861 0.012735 0.000000 0.000000 0.000000
# 4 0.000000 0.000000 0.000000 0.034686 0.000000 0.000000
# 5 0.000000 0.000000 0.000000 0.000000 0.025590 0.000000
# 6 0.000000 0.000000 0.000000 0.000000 0.000000 0.045038
#
#
# Mechanical properties :
#
#
# Convention : Reuss Voigt Hill
#
# Bulk Modulus (GPa) = 52.54849 59.50313 56.02581
# Shear Modulus (GPa) = 28.65145 31.14702 29.89923
#
# Velocity S-wave (km/s) = 3.72018 3.87881 3.80032
# Velocity P-wave (km/s) = 6.62086 6.98587 6.80582
#
# Compressibility (1/GPa) = 0.01903004
#
# Stress axis : x y z
#
# Youngs Moduli (GPa) = 68.06636 73.99132 78.52385
#
# Poissons Ratio (x) = -0.03023 0.58922
# Poissons Ratio (y) = -0.02780 0.30315
# Poissons Ratio (z) = 0.51075 0.28565
#
# Static dielectric constant tensor:
#      x y z
#    x 3.802680 0.000000 0.000000 
#    y 0.000000 3.691510 0.000000 
#    z 0.000000 0.000000 3.835060 
# 
# 
# High freq. dielectric constant tensor:
#      x y z
#    x 1.813190 0.000000 0.000000 
#    y 0.000000 1.796680 0.000000 
#    z 0.000000 0.000000 1.817740 
# 
# From -- ./inp_files/24718.got.cif
#   From: 2010.06.25/outbox.cif.g09.slc.cpg/sg52_13_cif.got.tgz:24718.got - 2010.06.26 19:32:48.
