data_PCOD8216171
_publ_section_title
;
Structure prediction by ZEFSAII (Michael W. Deem and Ramdas Pophale) SiO2 
 PCOD8216171
Probable space group: P N N A
;
_chemical_formula_sum "Si O2"
_cell_formula_units_Z 40
_cell_length_a 11.345275
_cell_length_b 9.655183
_cell_length_c 18.702208
_cell_angle_alpha 90.000000
_cell_angle_beta 90.000000
_cell_angle_gamma 90.000000
_cell_volume 2048.653074
_symmetry_space_group_name_H-M "P N N A"
_symmetry_group_IT_number 52
_symmetry_cell_setting 'orthorhombic'
loop_
_space_group_symop_operation_xyz
x,y,z
1/2-x,-y,z
x,1/2-y,1/2-z
1/2-x,1/2+y,1/2-z
-x,-y,-z
1/2+x,y,-z
-x,1/2+y,1/2+z
1/2+x,1/2-y,1/2+z
loop_
_atom_site_type_symbol
_atom_site_label
_atom_site_fract_x
_atom_site_fract_y
_atom_site_fract_z
Si Si1 0.326756 0.807245 0.676650
Si Si2 0.348304 0.607674 0.273994
Si Si3 0.930811 0.407903 0.171270
Si Si4 0.530655 0.158017 0.912962
Si Si5 0.360151 0.917029 0.942981
O O1 0.384983 0.750000 0.750000
O O2 0.194572 0.851986 0.698355
O O3 0.320511 0.690688 0.616694
O O4 0.407123 0.933751 0.646172
O O5 0.250000 0.500000 0.250422
O O6 0.289550 0.750000 0.250000
O O7 0.475554 0.589283 0.235970
O O8 0.365401 0.614147 0.359128
O O9 0.977200 0.309042 0.107158
O O10 0.440054 0.032306 0.905876
O O11 0.577484 0.168158 0.993691
O O12 0.250000 0.000000 0.975784
#
# Coordination Sequence:
#
# PCOD8216171 Si02
#       5
#     8   8   8   8   8
#     4  11  22  36  63  92 122 156 205 255 308 363
#     4  10  21  38  61  84 118 155 198 248 302 365
#     4  10  22  39  61  90 121 161 199 257 306 360
#     4  10  21  39  59  87 122 155 203 248 303 365
#     4  11  22  36  61  89 121 162 202 251 303 368
#
# _framework density 19.525023000000001
#
# number of rings (size 3 to 8) (size 9 to 14) (size 15 to 20)
#    0.000    1.600    2.000    3.600    2.800    3.200 
#    0.000    2.000   17.600    0.000    0.000    0.000 
#    0.000    0.000    0.000    0.000    0.000    0.000 
#
# Total GULP energy -495792.503442 kJ/mol
# GULP energy per Si atom -12394.812586 kJ/mol
# Density = 1.948058 g / cm^3
# Si number density = 19.525023 Si / 1000 Ang^3
#
#
#
# Elastic Constant Matrix: (Units=GPa)
#
#
# Indices 1 2 3 4 5 6 
#
# 1 84.2320 65.7472 36.2022 0.0000 0.0000 0.0000
# 2 65.7472 142.3052 59.7114 0.0000 0.0000 0.0000
# 3 36.2022 59.7114 91.9031 0.0000 0.0000 0.0000
# 4 0.0000 0.0000 0.0000 29.0678 0.0000 0.0000
# 5 0.0000 0.0000 0.0000 0.0000 2.2940 0.0000
# 6 0.0000 0.0000 0.0000 0.0000 0.0000 34.4972
#
#
#
# Elastic Compliance Matrix: (Units=1/GPa)
#
#
# Indices 1 2 3 4 5 6 
#
# 1 0.018959 -0.007734 -0.002443 0.000000 0.000000 0.000000
# 2 -0.007734 0.012816 -0.005280 0.000000 0.000000 0.000000
# 3 -0.002443 -0.005280 0.015274 0.000000 0.000000 0.000000
# 4 0.000000 0.000000 0.000000 0.034402 0.000000 0.000000
# 5 0.000000 0.000000 0.000000 0.000000 0.435927 0.000000
# 6 0.000000 0.000000 0.000000 0.000000 0.000000 0.028988
#
#
# Mechanical properties :
#
#
# Convention : Reuss Voigt Hill
#
# Bulk Modulus (GPa) = 61.98122 71.30687 66.64404
# Shear Modulus (GPa) = 8.58134 23.62376 16.10255
#
# Velocity S-wave (km/s) = 2.09871 3.48217 2.87490
# Velocity P-wave (km/s) = 6.13891 7.26411 6.72509
#
# Compressibility (1/GPa) = 0.01613392
#
# Stress axis : x y z
#
# Youngs Moduli (GPa) = 52.74562 78.02721 65.47017
#
# Poissons Ratio (x) = 0.60347 0.15996
# Poissons Ratio (y) = 0.40794 0.34570
# Poissons Ratio (z) = 0.12887 0.41200
#
# Static dielectric constant tensor:
#      x y z
#    x 3.473930 0.000000 0.000000 
#    y 0.000000 3.614470 0.000000 
#    z 0.000000 0.000000 3.279300 
# 
# 
# High freq. dielectric constant tensor:
#      x y z
#    x 1.756040 0.000000 0.000000 
#    y 0.000000 1.774810 0.000000 
#    z 0.000000 0.000000 1.748250 
# 
# From -- ./inp_files/31933.got.cif
#   From: 2010.06.25/outbox.cif.g09.slc.cpg/sg52_16_cif.got.tgz:31933.got - 2010.06.26 19:32:48.
