data_PCOD8216139
_publ_section_title
;
Structure prediction by ZEFSAII (Michael W. Deem and Ramdas Pophale) SiO2 
 PCOD8216139
Probable space group: P N N A
;
_chemical_formula_sum "Si O2"
_cell_formula_units_Z 48
_cell_length_a 14.293560
_cell_length_b 18.556382
_cell_length_c 8.919573
_cell_angle_alpha 90.000000
_cell_angle_beta 90.000000
_cell_angle_gamma 90.000000
_cell_volume 2365.798639
_symmetry_space_group_name_H-M "P N N A"
_symmetry_group_IT_number 52
_symmetry_cell_setting 'orthorhombic'
loop_
_space_group_symop_operation_xyz
x,y,z
1/2-x,-y,z
x,1/2-y,1/2-z
1/2-x,1/2+y,1/2-z
-x,-y,-z
1/2+x,y,-z
-x,1/2+y,1/2+z
1/2+x,1/2-y,1/2+z
loop_
_atom_site_type_symbol
_atom_site_label
_atom_site_fract_x
_atom_site_fract_y
_atom_site_fract_z
Si Si1 0.750000 0.500000 0.798355
Si Si2 0.433400 0.567911 0.647284
Si Si3 0.063823 0.438077 0.315182
Si Si4 0.984766 0.189598 0.374869
Si Si5 0.699085 0.889267 0.456100
Si Si6 0.381570 0.689610 0.865617
Si Si7 0.250000 0.000000 0.782752
O O1 0.827567 0.539302 0.697000
O O2 0.697877 0.561156 0.896417
O O3 0.462429 0.593031 0.480372
O O4 0.501437 0.508101 0.715163
O O5 0.437226 0.630468 0.769324
O O6 0.328088 0.538983 0.618955
O O7 0.039846 0.378141 0.193233
O O8 0.965792 0.250000 0.250000
O O9 0.887792 0.165024 0.449729
O O10 0.048493 0.221668 0.508906
O O11 0.793288 0.842570 0.452265
O O12 0.693615 0.941780 0.314520
O O13 0.346686 0.750000 0.750000
#
# Coordination Sequence:
#
# PCOD8216139 Si02
#       7
#     4   8   8   8   8   8   4
#     4  11  21  38  66  98 128 160 210 280 318 372
#     4  10  21  37  62  91 125 163 205 262 316 380
#     4  11  22  38  62  96 127 160 212 263 320 374
#     4  12  24  41  64  91 128 170 214 264 316 385
#     4  10  21  37  64  93 120 161 211 256 317 381
#     4  11  23  42  62  87 125 170 212 258 319 383
#     4   9  17  34  60  90 118 158 200 250 310 366
#
# _framework density 20.289131000000001
#
# number of rings (size 3 to 8) (size 9 to 14) (size 15 to 20)
#    0.000    1.333    3.333    3.000    0.000    1.333 
#    0.000    0.833    0.000    0.000    0.000    0.000 
#    0.000    0.000    0.000    0.000    0.000    0.000 
#
# Total GULP energy -595226.917363 kJ/mol
# GULP energy per Si atom -12400.560778 kJ/mol
# Density = 2.024295 g / cm^3
# Si number density = 20.289131 Si / 1000 Ang^3
#
#
#
# Elastic Constant Matrix: (Units=GPa)
#
#
# Indices 1 2 3 4 5 6 
#
# 1 71.8165 27.4472 23.2533 0.0000 0.0000 0.0000
# 2 27.4472 67.5080 23.9690 0.0000 0.0000 0.0000
# 3 23.2533 23.9690 74.0490 0.0000 0.0000 0.0000
# 4 0.0000 0.0000 0.0000 30.7976 0.0000 0.0000
# 5 0.0000 0.0000 0.0000 0.0000 16.7943 0.0000
# 6 0.0000 0.0000 0.0000 0.0000 0.0000 21.7922
#
#
#
# Elastic Compliance Matrix: (Units=1/GPa)
#
#
# Indices 1 2 3 4 5 6 
#
# 1 0.017279 -0.005761 -0.003561 0.000000 0.000000 0.000000
# 2 -0.005761 0.018657 -0.004230 0.000000 0.000000 0.000000
# 3 -0.003561 -0.004230 0.015992 0.000000 0.000000 0.000000
# 4 0.000000 0.000000 0.000000 0.032470 0.000000 0.000000
# 5 0.000000 0.000000 0.000000 0.000000 0.059544 0.000000
# 6 0.000000 0.000000 0.000000 0.000000 0.000000 0.045888
#
#
# Mechanical properties :
#
#
# Convention : Reuss Voigt Hill
#
# Bulk Modulus (GPa) = 40.28372 40.30137 40.29255
# Shear Modulus (GPa) = 22.20151 23.12376 22.66263
#
# Velocity S-wave (km/s) = 3.31154 3.37962 3.34576
# Velocity P-wave (km/s) = 5.87535 5.92755 5.90150
#
# Compressibility (1/GPa) = 0.02482393
#
# Stress axis : x y z
#
# Youngs Moduli (GPa) = 57.87297 53.59861 62.53049
#
# Poissons Ratio (x) = 0.30877 0.22270
# Poissons Ratio (y) = 0.33340 0.26451
# Poissons Ratio (z) = 0.20611 0.22673
#
# Static dielectric constant tensor:
#      x y z
#    x 3.585290 0.000000 0.000000 
#    y 0.000000 3.600110 0.000000 
#    z 0.000000 0.000000 3.544340 
# 
# 
# High freq. dielectric constant tensor:
#      x y z
#    x 1.795900 0.000000 0.000000 
#    y 0.000000 1.782380 0.000000 
#    z 0.000000 0.000000 1.794830 
# 
# From -- ./inp_files/10530.got.cif
#   From: 2010.06.25/outbox.cif.g09.slc.cpg/sg52_6_cif.got.tgz:10530.got - 2010.06.26 19:32:48.
