data_PCOD8216306
_publ_section_title
;
Structure prediction by ZEFSAII (Michael W. Deem and Ramdas Pophale) SiO2 
 PCOD8216306
Probable space group: P N N A
;
_chemical_formula_sum "Si O2"
_cell_formula_units_Z 48
_cell_length_a 10.730593
_cell_length_b 14.918848
_cell_length_c 14.500130
_cell_angle_alpha 90.000000
_cell_angle_beta 90.000000
_cell_angle_gamma 90.000000
_cell_volume 2321.298057
_symmetry_space_group_name_H-M "P N N A"
_symmetry_group_IT_number 52
_symmetry_cell_setting 'orthorhombic'
loop_
_space_group_symop_operation_xyz
x,y,z
1/2-x,-y,z
x,1/2-y,1/2-z
1/2-x,1/2+y,1/2-z
-x,-y,-z
1/2+x,y,-z
-x,1/2+y,1/2+z
1/2+x,1/2-y,1/2+z
loop_
_atom_site_type_symbol
_atom_site_label
_atom_site_fract_x
_atom_site_fract_y
_atom_site_fract_z
Si Si1 0.938489 0.120879 0.587159
Si Si2 0.227884 0.603147 0.470327
Si Si3 0.125035 0.964689 0.589444
Si Si4 0.980859 0.792864 0.997887
Si Si5 0.518220 0.179507 0.682404
Si Si6 0.714553 0.850895 0.757838
O O1 0.846476 0.097400 0.501057
O O2 0.985585 0.224795 0.582242
O O3 0.872346 0.096639 0.684237
O O4 0.050537 0.054298 0.566377
O O5 0.250000 0.500000 0.497129
O O6 0.099998 0.640863 0.516976
O O7 0.350139 0.654306 0.510435
O O8 0.205729 0.610017 0.360312
O O9 0.065736 0.906873 0.670570
O O10 0.250000 0.000000 0.634245
O O11 0.952915 0.729305 0.912018
O O12 0.450388 0.250000 0.750000
O O13 0.643374 0.142747 0.727729
O O14 0.666391 0.750000 0.750000
#
# Coordination Sequence:
#
# PCOD8216306 Si02
#       6
#     8   8   8   8   8   8
#     4  10  23  37  65  94 132 165 210 269 326 396
#     4  12  26  42  70  97 133 172 227 270 324 398
#     4  10  24  37  59  97 132 164 208 266 334 385
#     4  11  22  43  66  93 130 174 216 270 330 395
#     4  10  21  40  66  88 127 172 215 262 329 390
#     4  11  21  42  67  95 119 167 221 263 317 391
#
# _framework density 20.678084999999999
#
# number of rings (size 3 to 8) (size 9 to 14) (size 15 to 20)
#    0.000    1.333    5.000    0.500   14.000    0.000 
#    0.000    3.333    0.000    0.000    0.000    0.000 
#    0.000    0.000    0.000    0.000    0.000    0.000 
#
# Total GULP energy -594789.517425 kJ/mol
# GULP energy per Si atom -12391.448280 kJ/mol
# Density = 2.063102 g / cm^3
# Si number density = 20.678085 Si / 1000 Ang^3
#
#
#
# Elastic Constant Matrix: (Units=GPa)
#
#
# Indices 1 2 3 4 5 6 
#
# 1 97.6399 36.3713 16.2311 0.0000 0.0000 0.0000
# 2 36.3713 112.2537 2.5043 0.0000 0.0000 0.0000
# 3 16.2311 2.5043 55.0593 0.0000 0.0000 0.0000
# 4 0.0000 0.0000 0.0000 24.0155 0.0000 0.0000
# 5 0.0000 0.0000 0.0000 0.0000 26.4919 0.0000
# 6 0.0000 0.0000 0.0000 0.0000 0.0000 33.5666
#
#
#
# Elastic Compliance Matrix: (Units=1/GPa)
#
#
# Indices 1 2 3 4 5 6 
#
# 1 0.012265 -0.003897 -0.003438 0.000000 0.000000 0.000000
# 2 -0.003897 0.010156 0.000687 0.000000 0.000000 0.000000
# 3 -0.003438 0.000687 0.019145 0.000000 0.000000 0.000000
# 4 0.000000 0.000000 0.000000 0.041640 0.000000 0.000000
# 5 0.000000 0.000000 0.000000 0.000000 0.037747 0.000000
# 6 0.000000 0.000000 0.000000 0.000000 0.000000 0.029792
#
#
# Mechanical properties :
#
#
# Convention : Reuss Voigt Hill
#
# Bulk Modulus (GPa) = 35.37560 41.68514 38.53037
# Shear Modulus (GPa) = 28.82438 30.80455 29.81447
#
# Velocity S-wave (km/s) = 3.73763 3.86388 3.80127
# Velocity P-wave (km/s) = 5.98092 6.33316 6.15956
#
# Compressibility (1/GPa) = 0.02826807
#
# Stress axis : x y z
#
# Youngs Moduli (GPa) = 81.53254 98.46568 52.23399
#
# Poissons Ratio (x) = 0.38375 0.17960
# Poissons Ratio (y) = 0.31776 -0.03588
# Poissons Ratio (z) = 0.28034 -0.06764
#
# Static dielectric constant tensor:
#      x y z
#    x 3.719810 0.000000 0.000000 
#    y 0.000000 4.024520 0.000000 
#    z 0.000000 0.000000 3.809680 
# 
# 
# High freq. dielectric constant tensor:
#      x y z
#    x 1.801280 0.000000 0.000000 
#    y 0.000000 1.822280 0.000000 
#    z 0.000000 0.000000 1.790310 
# 
# From -- ./inp_files/26051.got.cif
#   From: 2010.06.25/outbox.cif.g09.slc.cpg/sg52_14_cif.got.tgz:26051.got - 2010.06.26 19:32:48.
