data_PCOD8216368
_publ_section_title
;
Structure prediction by ZEFSAII (Michael W. Deem and Ramdas Pophale) SiO2 
 PCOD8216368
Probable space group: P N N A
;
_chemical_formula_sum "Si O2"
_cell_formula_units_Z 40
_cell_length_a 24.050781
_cell_length_b 8.989635
_cell_length_c 8.710219
_cell_angle_alpha 90.000000
_cell_angle_beta 90.000000
_cell_angle_gamma 90.000000
_cell_volume 1883.216788
_symmetry_space_group_name_H-M "P N N A"
_symmetry_group_IT_number 52
_symmetry_cell_setting 'orthorhombic'
loop_
_space_group_symop_operation_xyz
x,y,z
1/2-x,-y,z
x,1/2-y,1/2-z
1/2-x,1/2+y,1/2-z
-x,-y,-z
1/2+x,y,-z
-x,1/2+y,1/2+z
1/2+x,1/2-y,1/2+z
loop_
_atom_site_type_symbol
_atom_site_label
_atom_site_fract_x
_atom_site_fract_y
_atom_site_fract_z
Si Si1 0.447618 0.929612 0.421210
Si Si2 0.737672 0.728276 0.429682
Si Si3 0.327066 0.958334 0.051232
Si Si4 0.840376 0.395535 0.853765
Si Si5 0.550004 0.403105 0.563805
O O1 0.444347 0.765908 0.497236
O O2 0.458641 0.907728 0.243660
O O3 0.500000 0.000000 0.500000
O O4 0.393514 0.035225 0.443567
O O5 0.745727 0.750000 0.250000
O O6 0.700524 0.582722 0.446921
O O7 0.798477 0.699943 0.507496
O O8 0.706548 0.863246 0.517458
O O9 0.391845 0.974190 0.012960
O O10 0.316641 0.982772 0.233714
O O11 0.856396 0.250000 0.750000
O O12 0.500000 0.500000 0.500000
#
# Coordination Sequence:
#
# PCOD8216368 Si02
#       5
#     8   8   8   8   8
#     4  10  23  40  64  99 124 167 227 263 330 399
#     4  10  21  42  65  95 132 166 215 283 330 384
#     4   9  21  45  61  92 128 172 222 255 334 412
#     4   9  20  42  67  92 128 177 218 271 328 412
#     4  10  23  44  65  90 134 170 209 280 324 395
#
# _framework density 21.240251000000001
#
# number of rings (size 3 to 8) (size 9 to 14) (size 15 to 20)
#    0.000    2.400    0.000    0.000    8.400    1.600 
#   50.400    0.000    0.000    0.000    0.000    0.000 
#    0.000    0.000    0.000    0.000    0.000    0.000 
#
# Total GULP energy -495651.631918 kJ/mol
# GULP energy per Si atom -12391.290798 kJ/mol
# Density = 2.119191 g / cm^3
# Si number density = 21.240251 Si / 1000 Ang^3
#
#
#
# Elastic Constant Matrix: (Units=GPa)
#
#
# Indices 1 2 3 4 5 6 
#
# 1 175.6298 60.5869 71.6010 0.0000 0.0000 0.0000
# 2 60.5869 78.0217 42.8686 0.0000 0.0000 0.0000
# 3 71.6010 42.8686 96.3013 0.0000 0.0000 0.0000
# 4 0.0000 0.0000 0.0000 30.3620 0.0000 0.0000
# 5 0.0000 0.0000 0.0000 0.0000 39.6890 0.0000
# 6 0.0000 0.0000 0.0000 0.0000 0.0000 48.6525
#
#
#
# Elastic Compliance Matrix: (Units=1/GPa)
#
#
# Indices 1 2 3 4 5 6 
#
# 1 0.009225 -0.004494 -0.004858 0.000000 0.000000 0.000000
# 2 -0.004494 0.019156 -0.005186 0.000000 0.000000 0.000000
# 3 -0.004858 -0.005186 0.016305 0.000000 0.000000 0.000000
# 4 0.000000 0.000000 0.000000 0.032936 0.000000 0.000000
# 5 0.000000 0.000000 0.000000 0.000000 0.025196 0.000000
# 6 0.000000 0.000000 0.000000 0.000000 0.000000 0.020554
#
#
# Mechanical properties :
#
#
# Convention : Reuss Voigt Hill
#
# Bulk Modulus (GPa) = 64.06482 77.78510 70.92496
# Shear Modulus (GPa) = 31.71570 35.40046 33.55808
#
# Velocity S-wave (km/s) = 3.86837 4.08691 3.97914
# Velocity P-wave (km/s) = 7.08377 7.67929 7.38754
#
# Compressibility (1/GPa) = 0.01560919
#
# Stress axis : x y z
#
# Youngs Moduli (GPa) = 108.40495 52.20245 61.33208
#
# Poissons Ratio (x) = 0.23460 0.29796
# Poissons Ratio (y) = 0.48718 0.31807
# Poissons Ratio (z) = 0.52664 0.27072
#
# Static dielectric constant tensor:
#      x y z
#    x 4.082810 0.000000 0.000000 
#    y 0.000000 6.301860 0.000000 
#    z 0.000000 0.000000 3.689390 
# 
# 
# High freq. dielectric constant tensor:
#      x y z
#    x 1.840360 0.000000 0.000000 
#    y 0.000000 1.840320 0.000000 
#    z 0.000000 0.000000 1.813740 
# 
# From -- ./inp_files/13952.got.cif
#   From: 2010.06.25/outbox.cif.g09.slc.cpg/sg52_7_cif.got.tgz:13952.got - 2010.06.26 19:32:48.
