data_PCOD8216548
_publ_section_title
;
Structure prediction by ZEFSAII (Michael W. Deem and Ramdas Pophale) SiO2 
 PCOD8216548
Probable space group: P N N A
;
_chemical_formula_sum "Si O2"
_cell_formula_units_Z 36
_cell_length_a 21.086758
_cell_length_b 15.578380
_cell_length_c 5.089229
_cell_angle_alpha 90.000000
_cell_angle_beta 90.000000
_cell_angle_gamma 90.000000
_cell_volume 1671.799151
_symmetry_space_group_name_H-M "P N N A"
_symmetry_group_IT_number 52
_symmetry_cell_setting 'orthorhombic'
loop_
_space_group_symop_operation_xyz
x,y,z
1/2-x,-y,z
x,1/2-y,1/2-z
1/2-x,1/2+y,1/2-z
-x,-y,-z
1/2+x,y,-z
-x,1/2+y,1/2+z
1/2+x,1/2-y,1/2+z
loop_
_atom_site_type_symbol
_atom_site_label
_atom_site_fract_x
_atom_site_fract_y
_atom_site_fract_z
Si Si1 0.847918 0.613229 0.700296
Si Si2 0.535950 0.750000 0.750000
Si Si3 0.548651 0.250000 0.750000
Si Si4 0.363368 0.174909 0.561286
Si Si5 0.176919 0.492688 0.783681
Si Si6 0.751992 0.250000 0.750000
O O1 0.909058 0.665498 0.799850
O O2 0.861950 0.558787 0.438391
O O3 0.791928 0.678255 0.615277
O O4 0.826196 0.551571 0.933902
O O5 0.492151 0.726651 0.504733
O O6 0.583798 0.829179 0.672293
O O7 0.389629 0.250000 0.750000
O O8 0.293863 0.202333 0.466184
O O9 0.357431 0.084679 0.706233
O O10 0.250000 0.500000 0.694794
#
# Coordination Sequence:
#
# PCOD8216548 Si02
#       6
#     8   4   4   8   8   4
#     4  11  25  42  68 100 136 176 218 275 337 401
#     4  11  24  45  72  93 124 191 232 280 314 395
#     4  11  24  49  70  91 136 181 236 270 328 389
#     4  11  24  42  70  96 135 174 226 271 342 398
#     4  12  24  41  66 106 142 165 214 277 347 407
#     4  10  22  40  66 100 130 182 214 268 344 416
#
# _framework density 21.533687
#
# number of rings (size 3 to 8) (size 9 to 14) (size 15 to 20)
#    0.000    0.889    3.333    3.333    6.222    1.778 
#    0.000    6.667    0.000    0.000    0.000    0.000 
#    0.000    0.000    0.000    0.000    0.000    0.000 
#
# Total GULP energy -446410.702493 kJ/mol
# GULP energy per Si atom -12400.297291 kJ/mol
# Density = 2.148468 g / cm^3
# Si number density = 21.533687 Si / 1000 Ang^3
#
#
#
# Elastic Constant Matrix: (Units=GPa)
#
#
# Indices 1 2 3 4 5 6 
#
# 1 108.5287 44.3179 35.5828 0.0000 0.0000 0.0000
# 2 44.3179 142.8624 51.9415 0.0000 0.0000 0.0000
# 3 35.5828 51.9415 119.9756 0.0000 0.0000 0.0000
# 4 0.0000 0.0000 0.0000 41.9335 0.0000 0.0000
# 5 0.0000 0.0000 0.0000 0.0000 36.1192 0.0000
# 6 0.0000 0.0000 0.0000 0.0000 0.0000 11.2594
#
#
#
# Elastic Compliance Matrix: (Units=1/GPa)
#
#
# Indices 1 2 3 4 5 6 
#
# 1 0.010985 -0.002639 -0.002116 0.000000 0.000000 0.000000
# 2 -0.002639 0.008941 -0.003088 0.000000 0.000000 0.000000
# 3 -0.002116 -0.003088 0.010300 0.000000 0.000000 0.000000
# 4 0.000000 0.000000 0.000000 0.023847 0.000000 0.000000
# 5 0.000000 0.000000 0.000000 0.000000 0.027686 0.000000
# 6 0.000000 0.000000 0.000000 0.000000 0.000000 0.088815
#
#
# Mechanical properties :
#
#
# Convention : Reuss Voigt Hill
#
# Bulk Modulus (GPa) = 68.77258 70.56123 69.66690
# Shear Modulus (GPa) = 26.16341 33.83072 29.99706
#
# Velocity S-wave (km/s) = 3.48946 3.96796 3.73638
# Velocity P-wave (km/s) = 6.94562 7.33702 7.14400
#
# Compressibility (1/GPa) = 0.01454068
#
# Stress axis : x y z
#
# Youngs Moduli (GPa) = 91.03082 111.84290 97.09134
#
# Poissons Ratio (x) = 0.29510 0.20542
# Poissons Ratio (y) = 0.24019 0.29985
# Poissons Ratio (z) = 0.19260 0.34541
#
# Static dielectric constant tensor:
#      x y z
#    x 3.979070 0.000000 0.000000 
#    y 0.000000 3.912230 0.000000 
#    z 0.000000 0.000000 4.011560 
# 
# 
# High freq. dielectric constant tensor:
#      x y z
#    x 1.845410 0.000000 0.000000 
#    y 0.000000 1.839010 0.000000 
#    z 0.000000 0.000000 1.853050 
# 
# From -- ./inp_files/4119.got.cif
#   From: 2010.06.25/outbox.cif.g09.slc.cpg/sg52_3_cif.got.tgz:4119.got - 2010.06.26 19:32:48.
