data_PCOD8216601
_publ_section_title
;
Structure prediction by ZEFSAII (Michael W. Deem and Ramdas Pophale) SiO2 
 PCOD8216601
Probable space group: P N N A
;
_chemical_formula_sum "Si O2"
_cell_formula_units_Z 64
_cell_length_a 17.051439
_cell_length_b 14.969095
_cell_length_c 10.947239
_cell_angle_alpha 90.000000
_cell_angle_beta 90.000000
_cell_angle_gamma 90.000000
_cell_volume 2794.223752
_symmetry_space_group_name_H-M "P N N A"
_symmetry_group_IT_number 52
_symmetry_cell_setting 'orthorhombic'
loop_
_space_group_symop_operation_xyz
x,y,z
1/2-x,-y,z
x,1/2-y,1/2-z
1/2-x,1/2+y,1/2-z
-x,-y,-z
1/2+x,y,-z
-x,1/2+y,1/2+z
1/2+x,1/2-y,1/2+z
loop_
_atom_site_type_symbol
_atom_site_label
_atom_site_fract_x
_atom_site_fract_y
_atom_site_fract_z
Si Si1 0.284125 0.303654 0.630757
Si Si2 0.931084 0.891637 0.933642
Si Si3 0.906092 0.039882 0.127156
Si Si4 0.183234 0.432333 0.239259
Si Si5 0.586884 0.558975 0.910523
Si Si6 0.406697 0.558818 0.876805
Si Si7 0.291512 0.199271 0.377114
Si Si8 0.886327 0.745074 0.379242
O O1 0.317093 0.250000 0.750000
O O2 0.329675 0.397225 0.624476
O O3 0.289710 0.256899 0.499038
O O4 0.190784 0.316335 0.646831
O O5 0.855905 0.872511 0.846154
O O6 0.014201 0.900968 0.862948
O O7 0.939002 0.804145 0.019556
O O8 0.910979 0.983389 0.003310
O O9 0.897816 0.969401 0.236806
O O10 0.250000 0.500000 0.290202
O O11 0.108036 0.486681 0.192105
O O12 0.220475 0.372660 0.130592
O O13 0.495718 0.576874 0.915626
O O14 0.624609 0.652939 0.879696
O O15 0.623242 0.522536 0.038865
O O16 0.363175 0.652057 0.911037
O O17 0.286059 0.250000 0.250000
O O18 0.933795 0.750000 0.250000
#
# Coordination Sequence:
#
# PCOD8216601 Si02
#       8
#     8   8   8   8   8   8   8   8
#     4  11  26  46  66 104 142 184 239 290 355 420
#     4  11  24  43  69 107 137 185 234 290 358 423
#     4  11  25  43  71 101 145 182 237 289 357 429
#     4  10  22  41  67 100 139 181 232 290 346 426
#     4  10  23  40  69  97 136 183 234 281 359 422
#     4  11  22  45  67  99 136 185 233 294 347 426
#     4  11  24  41  68 102 139 182 233 293 353 418
#     4  11  24  43  67  98 136 181 236 285 350 416
#
# _framework density 22.904395000000001
#
# number of rings (size 3 to 8) (size 9 to 14) (size 15 to 20)
#    0.000    1.250    2.500    2.250    7.000    0.500 
#    0.000    1.875    0.000    0.000    0.000    0.000 
#    0.000    0.000    0.000    0.000    0.000    0.000 
#
# Total GULP energy -793254.777465 kJ/mol
# GULP energy per Si atom -12394.605898 kJ/mol
# Density = 2.285226 g / cm^3
# Si number density = 22.904395 Si / 1000 Ang^3
#
#
#
# Elastic Constant Matrix: (Units=GPa)
#
#
# Indices 1 2 3 4 5 6 
#
# 1 76.4733 32.5203 17.4815 0.0000 0.0000 0.0000
# 2 32.5203 91.0432 22.5402 0.0000 0.0000 0.0000
# 3 17.4815 22.5402 108.8452 0.0000 0.0000 0.0000
# 4 0.0000 0.0000 0.0000 34.2391 0.0000 0.0000
# 5 0.0000 0.0000 0.0000 0.0000 3.2361 0.0000
# 6 0.0000 0.0000 0.0000 0.0000 0.0000 17.4295
#
#
#
# Elastic Compliance Matrix: (Units=1/GPa)
#
#
# Indices 1 2 3 4 5 6 
#
# 1 0.015626 -0.005228 -0.001427 0.000000 0.000000 0.000000
# 2 -0.005228 0.013327 -0.001920 0.000000 0.000000 0.000000
# 3 -0.001427 -0.001920 0.009814 0.000000 0.000000 0.000000
# 4 0.000000 0.000000 0.000000 0.029206 0.000000 0.000000
# 5 0.000000 0.000000 0.000000 0.000000 0.309010 0.000000
# 6 0.000000 0.000000 0.000000 0.000000 0.000000 0.057374
#
#
# Mechanical properties :
#
#
# Convention : Reuss Voigt Hill
#
# Bulk Modulus (GPa) = 46.26152 46.82731 46.54442
# Shear Modulus (GPa) = 10.90005 24.56893 17.73449
#
# Velocity S-wave (km/s) = 2.18386 3.27872 2.78561
# Velocity P-wave (km/s) = 5.15757 5.90105 5.54179
#
# Compressibility (1/GPa) = 0.02161624
#
# Stress axis : x y z
#
# Youngs Moduli (GPa) = 63.99603 75.03752 101.89360
#
# Poissons Ratio (x) = 0.39232 0.14540
# Poissons Ratio (y) = 0.33459 0.19564
# Poissons Ratio (z) = 0.09132 0.14408
#
# Static dielectric constant tensor:
#      x y z
#    x 4.039360 0.000000 0.000000 
#    y 0.000000 4.304280 0.000000 
#    z 0.000000 0.000000 4.731720 
# 
# 
# High freq. dielectric constant tensor:
#      x y z
#    x 1.894720 0.000000 0.000000 
#    y 0.000000 1.901860 0.000000 
#    z 0.000000 0.000000 1.915410 
# 
# From -- ./inp_files/20902.got.cif
#   From: 2010.06.25/outbox.cif.g09.slc.cpg/sg52_11_cif.got.tgz:20902.got - 2010.06.26 19:32:48.
