data_PCOD8216698
_publ_section_title
;
Structure prediction by ZEFSAII (Michael W. Deem and Ramdas Pophale) SiO2 
 PCOD8216698
Probable space group: P N N A
;
_chemical_formula_sum "Si O2"
_cell_formula_units_Z 40
_cell_length_a 19.377561
_cell_length_b 7.398634
_cell_length_c 11.894310
_cell_angle_alpha 90.000000
_cell_angle_beta 90.000000
_cell_angle_gamma 90.000000
_cell_volume 1705.257271
_symmetry_space_group_name_H-M "P N N A"
_symmetry_group_IT_number 52
_symmetry_cell_setting 'orthorhombic'
loop_
_space_group_symop_operation_xyz
x,y,z
1/2-x,-y,z
x,1/2-y,1/2-z
1/2-x,1/2+y,1/2-z
-x,-y,-z
1/2+x,y,-z
-x,1/2+y,1/2+z
1/2+x,1/2-y,1/2+z
loop_
_atom_site_type_symbol
_atom_site_label
_atom_site_fract_x
_atom_site_fract_y
_atom_site_fract_z
Si Si1 0.362878 0.800746 0.379412
Si Si2 0.233496 0.806292 0.976482
Si Si3 0.866833 0.750000 0.250000
Si Si4 0.750000 0.000000 0.297521
Si Si5 0.030897 0.188854 0.545162
Si Si6 0.387286 0.281035 0.121431
O O1 0.364793 0.750000 0.250000
O O2 0.290423 0.749770 0.432545
O O3 0.429195 0.709712 0.442498
O O4 0.373401 0.010810 0.404718
O O5 0.163127 0.835957 0.044746
O O6 0.250000 0.000000 0.922043
O O7 0.224235 0.665492 0.875618
O O8 0.815704 0.922627 0.225495
O O9 0.912629 0.815803 0.354785
O O10 0.964073 0.292719 0.592432
O O11 0.000000 0.000000 0.500000
O O12 0.369727 0.250000 0.250000
#
# Coordination Sequence:
#
# PCOD8216698 Si02
#       6
#     8   8   4   4   8   8
#     4  11  22  42  69 106 150 194 258 330 395 475
#     4  12  24  45  72 108 148 198 259 325 398 470
#     4  12  24  48  80 114 160 210 270 332 408 492
#     4  12  26  46  76 112 152 196 258 322 392 480
#     4  10  22  44  74 104 156 210 261 329 401 480
#     4  11  21  40  69 103 143 202 258 317 393 477
#
# _framework density 23.456869999999999
#
# number of rings (size 3 to 8) (size 9 to 14) (size 15 to 20)
#    0.000    0.800    5.000    3.000    1.400    0.000 
#    0.000    8.000   11.000    0.000    0.000    0.000 
#    0.000    0.000    0.000    0.000    0.000    0.000 
#
# Total GULP energy -495542.936437 kJ/mol
# GULP energy per Si atom -12388.573411 kJ/mol
# Density = 2.340348 g / cm^3
# Si number density = 23.456870 Si / 1000 Ang^3
#
#
#
# Elastic Constant Matrix: (Units=GPa)
#
#
# Indices 1 2 3 4 5 6 
#
# 1 188.0253 46.9606 74.3239 0.0000 0.0000 0.0000
# 2 46.9606 92.8784 24.9832 0.0000 0.0000 0.0000
# 3 74.3239 24.9832 142.8946 0.0000 0.0000 0.0000
# 4 0.0000 0.0000 0.0000 38.7842 0.0000 0.0000
# 5 0.0000 0.0000 0.0000 0.0000 60.3384 0.0000
# 6 0.0000 0.0000 0.0000 0.0000 0.0000 15.9647
#
#
#
# Elastic Compliance Matrix: (Units=1/GPa)
#
#
# Indices 1 2 3 4 5 6 
#
# 1 0.007335 -0.002815 -0.003323 0.000000 0.000000 0.000000
# 2 -0.002815 0.012378 -0.000700 0.000000 0.000000 0.000000
# 3 -0.003323 -0.000700 0.008849 0.000000 0.000000 0.000000
# 4 0.000000 0.000000 0.000000 0.025784 0.000000 0.000000
# 5 0.000000 0.000000 0.000000 0.000000 0.016573 0.000000
# 6 0.000000 0.000000 0.000000 0.000000 0.000000 0.062638
#
#
# Mechanical properties :
#
#
# Convention : Reuss Voigt Hill
#
# Bulk Modulus (GPa) = 67.17553 79.59263 73.38408
# Shear Modulus (GPa) = 32.85254 41.51951 37.18603
#
# Velocity S-wave (km/s) = 3.74645 4.21174 3.98589
# Velocity P-wave (km/s) = 6.88583 7.59321 7.24815
#
# Compressibility (1/GPa) = 0.01488637
#
# Stress axis : x y z
#
# Youngs Moduli (GPa) = 136.33258 80.78658 113.00741
#
# Poissons Ratio (x) = 0.22740 0.37553
# Poissons Ratio (y) = 0.38375 0.07912
# Poissons Ratio (z) = 0.45304 0.05656
#
# Static dielectric constant tensor:
#      x y z
#    x 4.920680 0.000000 0.000000 
#    y 0.000000 4.225900 0.000000 
#    z 0.000000 0.000000 4.116120 
# 
# 
# High freq. dielectric constant tensor:
#      x y z
#    x 1.949060 0.000000 0.000000 
#    y 0.000000 1.913700 0.000000 
#    z 0.000000 0.000000 1.950300 
# 
# From -- ./inp_files/20401.got.cif
#   From: 2010.06.25/outbox.cif.g09.slc.cpg/sg52_11_cif.got.tgz:20401.got - 2010.06.26 19:32:48.
