data_PCOD8216593
_publ_section_title
;
Structure prediction by ZEFSAII (Michael W. Deem and Ramdas Pophale) SiO2 
 PCOD8216593
Probable space group: P N N A
;
_chemical_formula_sum "Si O2"
_cell_formula_units_Z 40
_cell_length_a 10.546178
_cell_length_b 15.088867
_cell_length_c 12.113935
_cell_angle_alpha 90.000000
_cell_angle_beta 90.000000
_cell_angle_gamma 90.000000
_cell_volume 1927.688989
_symmetry_space_group_name_H-M "P N N A"
_symmetry_group_IT_number 52
_symmetry_cell_setting 'orthorhombic'
loop_
_space_group_symop_operation_xyz
x,y,z
1/2-x,-y,z
x,1/2-y,1/2-z
1/2-x,1/2+y,1/2-z
-x,-y,-z
1/2+x,y,-z
-x,1/2+y,1/2+z
1/2+x,1/2-y,1/2+z
loop_
_atom_site_type_symbol
_atom_site_label
_atom_site_fract_x
_atom_site_fract_y
_atom_site_fract_z
Si Si1 0.517402 0.152987 0.292823
Si Si2 0.261315 0.598750 0.435766
Si Si3 0.374576 0.940408 0.505710
Si Si4 0.773078 0.653867 0.797227
Si Si5 0.989838 0.905870 0.059611
O O1 0.556279 0.250000 0.250000
O O2 0.612706 0.124369 0.389422
O O3 0.372909 0.152439 0.337623
O O4 0.534444 0.084530 0.190463
O O5 0.250000 0.500000 0.484891
O O6 0.294042 0.589222 0.306647
O O7 0.124607 0.647140 0.454070
O O8 0.374326 0.648565 0.502234
O O9 0.362446 0.879581 0.396081
O O10 0.250000 0.000000 0.519493
O O11 0.500000 0.000000 0.500000
O O12 0.812567 0.750000 0.750000
O O13 0.000000 0.000000 0.000000
#
# Coordination Sequence:
#
# PCOD8216593 Si02
#       5
#     8   8   8   8   8
#     4  10  23  43  65  94 136 174 218 283 344 397
#     4   9  18  34  58  84 116 154 205 256 318 384
#     4  12  25  44  70  99 136 181 232 276 345 415
#     4  10  22  41  66  91 128 179 221 269 343 410
#     4   9  19  34  59  87 118 158 204 260 321 384
#
# _framework density 20.750236000000001
#
# number of rings (size 3 to 8) (size 9 to 14) (size 15 to 20)
#    0.000    2.000    2.000    0.600    8.400    2.400 
#    0.000    1.000    0.000    0.000    0.000    0.000 
#    0.000    0.000    0.000    0.000    0.000    0.000 
#
# Total GULP energy -495559.841054 kJ/mol
# GULP energy per Si atom -12388.996026 kJ/mol
# Density = 2.070301 g / cm^3
# Si number density = 20.750236 Si / 1000 Ang^3
#
#
#
# Elastic Constant Matrix: (Units=GPa)
#
#
# Indices 1 2 3 4 5 6 
#
# 1 161.0909 36.0880 95.5869 0.0000 0.0000 0.0000
# 2 36.0880 80.4879 51.2632 0.0000 0.0000 0.0000
# 3 95.5869 51.2632 159.1324 0.0000 0.0000 0.0000
# 4 0.0000 0.0000 0.0000 37.4870 0.0000 0.0000
# 5 0.0000 0.0000 0.0000 0.0000 44.3284 0.0000
# 6 0.0000 0.0000 0.0000 0.0000 0.0000 20.4927
#
#
#
# Elastic Compliance Matrix: (Units=1/GPa)
#
#
# Indices 1 2 3 4 5 6 
#
# 1 0.009687 -0.000802 -0.005560 0.000000 0.000000 0.000000
# 2 -0.000802 0.015698 -0.004575 0.000000 0.000000 0.000000
# 3 -0.005560 -0.004575 0.011098 0.000000 0.000000 0.000000
# 4 0.000000 0.000000 0.000000 0.026676 0.000000 0.000000
# 5 0.000000 0.000000 0.000000 0.000000 0.022559 0.000000
# 6 0.000000 0.000000 0.000000 0.000000 0.000000 0.048798
#
#
# Mechanical properties :
#
#
# Convention : Reuss Voigt Hill
#
# Bulk Modulus (GPa) = 68.45746 85.17636 76.81691
# Shear Modulus (GPa) = 31.00609 34.97981 32.99295
#
# Velocity S-wave (km/s) = 3.86975 4.11025 3.99181
# Velocity P-wave (km/s) = 7.28213 7.97891 7.63847
#
# Compressibility (1/GPa) = 0.01460761
#
# Stress axis : x y z
#
# Youngs Moduli (GPa) = 103.23595 63.70337 90.10783
#
# Poissons Ratio (x) = 0.05108 0.50101
# Poissons Ratio (y) = 0.08278 0.41227
# Poissons Ratio (z) = 0.57401 0.29146
#
# Static dielectric constant tensor:
#      x y z
#    x 5.555920 0.000000 0.000000 
#    y 0.000000 3.716150 0.000000 
#    z 0.000000 0.000000 4.031340 
# 
# 
# High freq. dielectric constant tensor:
#      x y z
#    x 1.813940 0.000000 0.000000 
#    y 0.000000 1.789950 0.000000 
#    z 0.000000 0.000000 1.814590 
# 
# From -- ./inp_files/18015.got.cif
#   From: 2010.06.25/outbox.cif.g09.slc.cpg/sg52_10_cif.got.tgz:18015.got - 2010.06.26 19:32:48.
