data_PCOD8216266
_publ_section_title
;
Structure prediction by ZEFSAII (Michael W. Deem and Ramdas Pophale) SiO2 
 PCOD8216266
Probable space group: P N N A
;
_chemical_formula_sum "Si O2"
_cell_formula_units_Z 52
_cell_length_a 7.507451
_cell_length_b 26.973428
_cell_length_c 13.311020
_cell_angle_alpha 90.000000
_cell_angle_beta 90.000000
_cell_angle_gamma 90.000000
_cell_volume 2695.504032
_symmetry_space_group_name_H-M "P N N A"
_symmetry_group_IT_number 52
_symmetry_cell_setting 'orthorhombic'
loop_
_space_group_symop_operation_xyz
x,y,z
1/2-x,-y,z
x,1/2-y,1/2-z
1/2-x,1/2+y,1/2-z
-x,-y,-z
1/2+x,y,-z
-x,1/2+y,1/2+z
1/2+x,1/2-y,1/2+z
loop_
_atom_site_type_symbol
_atom_site_label
_atom_site_fract_x
_atom_site_fract_y
_atom_site_fract_z
Si Si1 0.718591 0.674472 0.386546
Si Si2 0.423903 0.527785 0.405662
Si Si3 0.750000 0.000000 0.544996
Si Si4 0.331412 0.861053 0.100104
Si Si5 0.250000 0.000000 0.777381
Si Si6 0.014130 0.852245 0.253047
Si Si7 0.936649 0.558720 0.119911
Si Si8 0.878031 0.750000 0.250000
O O1 0.513786 0.663421 0.361911
O O2 0.750771 0.669785 0.506390
O O3 0.758804 0.730250 0.344405
O O4 0.850787 0.637264 0.325351
O O5 0.250000 0.500000 0.361660
O O6 0.500000 0.500000 0.500000
O O7 0.369629 0.583225 0.436188
O O8 0.588968 0.527071 0.331923
O O9 0.820840 0.952371 0.480385
O O10 0.601282 0.978914 0.617752
O O11 0.198029 0.862082 0.194593
O O12 0.318515 0.954006 0.714504
O O13 0.999552 0.885133 0.355684
O O14 0.003687 0.794927 0.289386
#
# Coordination Sequence:
#
# PCOD8216266 Si02
#       8
#     8   8   4   8   4   8   8   4
#     4  10  21  40  59  90 126 165 207 257 314 376
#     4  12  25  35  53  94 139 177 209 246 297 389
#     4   9  22  42  63  86 122 166 215 264 328 373
#     4  12  22  37  65  90 128 178 201 251 328 371
#     4  11  24  36  59  92 130 166 217 252 306 381
#     4  10  22  40  65  92 126 160 213 266 318 383
#     4  10  21  42  63  87 123 162 211 268 316 382
#     4   8  22  42  60  88 124 156 214 274 302 386
#
# _framework density 19.291383
#
# number of rings (size 3 to 8) (size 9 to 14) (size 15 to 20)
#    0.923    0.615    2.308    2.769    5.385    0.615 
#    2.769    3.077    0.000    0.000    0.000    0.000 
#    0.000    0.000    0.000    0.000    0.000    0.000 
#
# Total GULP energy -644217.578229 kJ/mol
# GULP energy per Si atom -12388.799581 kJ/mol
# Density = 1.924748 g / cm^3
# Si number density = 19.291383 Si / 1000 Ang^3
#
#
#
# Elastic Constant Matrix: (Units=GPa)
#
#
# Indices 1 2 3 4 5 6 
#
# 1 141.1483 39.6537 41.5320 0.0000 0.0000 0.0000
# 2 39.6537 135.4724 51.9951 0.0000 0.0000 0.0000
# 3 41.5320 51.9951 69.1983 0.0000 0.0000 0.0000
# 4 0.0000 0.0000 0.0000 53.2687 0.0000 0.0000
# 5 0.0000 0.0000 0.0000 0.0000 20.3841 0.0000
# 6 0.0000 0.0000 0.0000 0.0000 0.0000 29.9152
#
#
#
# Elastic Compliance Matrix: (Units=1/GPa)
#
#
# Indices 1 2 3 4 5 6 
#
# 1 0.008659 -0.000759 -0.004627 0.000000 0.000000 0.000000
# 2 -0.000759 0.010440 -0.007389 0.000000 0.000000 0.000000
# 3 -0.004627 -0.007389 0.022780 0.000000 0.000000 0.000000
# 4 0.000000 0.000000 0.000000 0.018773 0.000000 0.000000
# 5 0.000000 0.000000 0.000000 0.000000 0.049058 0.000000
# 6 0.000000 0.000000 0.000000 0.000000 0.000000 0.033428
#
#
# Mechanical properties :
#
#
# Convention : Reuss Voigt Hill
#
# Bulk Modulus (GPa) = 61.23767 68.02008 64.62887
# Shear Modulus (GPa) = 28.71410 34.88946 31.80178
#
# Velocity S-wave (km/s) = 3.86222 4.25732 4.06457
# Velocity P-wave (km/s) = 7.19037 7.71377 7.45666
#
# Compressibility (1/GPa) = 0.01632982
#
# Stress axis : x y z
#
# Youngs Moduli (GPa) = 115.48111 95.78974 43.89756
#
# Poissons Ratio (x) = 0.07268 0.20312
# Poissons Ratio (y) = 0.08762 0.32435
# Poissons Ratio (z) = 0.53435 0.70777
#
# Static dielectric constant tensor:
#      x y z
#    x 3.737730 0.000000 0.000000 
#    y 0.000000 3.307600 0.000000 
#    z 0.000000 0.000000 2.948740 
# 
# 
# High freq. dielectric constant tensor:
#      x y z
#    x 1.769260 0.000000 0.000000 
#    y 0.000000 1.734130 0.000000 
#    z 0.000000 0.000000 1.733650 
# 
# From -- ./inp_files/17110.got.cif
#   From: 2010.06.25/outbox.cif.g09.slc.cpg/sg52_9_cif.got.tgz:17110.got - 2010.06.26 19:32:48.
