data_PCOD8216398
_publ_section_title
;
Structure prediction by ZEFSAII (Michael W. Deem and Ramdas Pophale) SiO2 
 PCOD8216398
Probable space group: P N N A
;
_chemical_formula_sum "Si O2"
_cell_formula_units_Z 40
_cell_length_a 18.262744
_cell_length_b 7.206275
_cell_length_c 12.588903
_cell_angle_alpha 90.000000
_cell_angle_beta 90.000000
_cell_angle_gamma 90.000000
_cell_volume 1656.779644
_symmetry_space_group_name_H-M "P N N A"
_symmetry_group_IT_number 52
_symmetry_cell_setting 'orthorhombic'
loop_
_space_group_symop_operation_xyz
x,y,z
1/2-x,-y,z
x,1/2-y,1/2-z
1/2-x,1/2+y,1/2-z
-x,-y,-z
1/2+x,y,-z
-x,1/2+y,1/2+z
1/2+x,1/2-y,1/2+z
loop_
_atom_site_type_symbol
_atom_site_label
_atom_site_fract_x
_atom_site_fract_y
_atom_site_fract_z
Si Si1 0.131749 0.250000 0.250000
Si Si2 0.250000 0.000000 0.347582
Si Si3 0.750000 0.000000 0.179316
Si Si4 0.567654 0.503688 0.580979
Si Si5 0.609761 0.559546 0.192452
Si Si6 0.001762 0.750000 0.250000
Si Si7 0.817596 0.244743 0.017016
O O1 0.182256 0.427921 0.222743
O O2 0.081272 0.313849 0.350875
O O3 0.224744 0.826440 0.417464
O O4 0.679006 0.033485 0.250520
O O5 0.740067 0.814760 0.108143
O O6 0.500000 0.500000 0.500000
O O7 0.554231 0.674002 0.659495
O O8 0.640066 0.555831 0.514777
O O9 0.585494 0.750000 0.250000
O O10 0.544310 0.414948 0.197593
O O11 0.628022 0.602168 0.068828
#
# Coordination Sequence:
#
# PCOD8216398 Si02
#       7
#     4   4   4   8   8   4   8
#     4  12  28  49  76 107 150 196 256 318 378 442
#     4  12  25  45  76 104 142 186 252 318 378 448
#     4  10  21  43  66 106 148 176 246 312 374 442
#     4  12  28  49  74 107 152 203 253 306 368 463
#     4  10  24  41  68 107 148 191 242 307 373 440
#     4  12  28  45  76 101 156 196 250 300 370 442
#     4  11  24  42  71 105 141 194 244 306 381 440
#
# _framework density 24.143222999999999
#
# number of rings (size 3 to 8) (size 9 to 14) (size 15 to 20)
#    0.000    0.800    0.000    6.600   14.000    0.800 
#    0.000    0.000    0.000    0.000    0.000    0.000 
#    0.000    0.000    0.000    0.000    0.000    0.000 
#
# Total GULP energy -496127.634705 kJ/mol
# GULP energy per Si atom -12403.190868 kJ/mol
# Density = 2.408827 g / cm^3
# Si number density = 24.143223 Si / 1000 Ang^3
#
#
#
# Elastic Constant Matrix: (Units=GPa)
#
#
# Indices 1 2 3 4 5 6 
#
# 1 71.3752 32.2267 26.4635 0.0000 0.0000 0.0000
# 2 32.2267 97.3748 26.4595 0.0000 0.0000 0.0000
# 3 26.4635 26.4595 104.8516 0.0000 0.0000 0.0000
# 4 0.0000 0.0000 0.0000 58.5822 0.0000 0.0000
# 5 0.0000 0.0000 0.0000 0.0000 28.9966 0.0000
# 6 0.0000 0.0000 0.0000 0.0000 0.0000 58.4911
#
#
#
# Elastic Compliance Matrix: (Units=1/GPa)
#
#
# Indices 1 2 3 4 5 6 
#
# 1 0.017392 -0.004899 -0.003153 0.000000 0.000000 0.000000
# 2 -0.004899 0.012406 -0.001894 0.000000 0.000000 0.000000
# 3 -0.003153 -0.001894 0.010811 0.000000 0.000000 0.000000
# 4 0.000000 0.000000 0.000000 0.017070 0.000000 0.000000
# 5 0.000000 0.000000 0.000000 0.000000 0.034487 0.000000
# 6 0.000000 0.000000 0.000000 0.000000 0.000000 0.017097
#
#
# Mechanical properties :
#
#
# Convention : Reuss Voigt Hill
#
# Bulk Modulus (GPa) = 48.27269 49.32233 48.79751
# Shear Modulus (GPa) = 36.74862 41.77744 39.26303
#
# Velocity S-wave (km/s) = 3.90565 4.16432 4.03706
# Velocity P-wave (km/s) = 6.35425 6.60269 6.47966
#
# Compressibility (1/GPa) = 0.02071565
#
# Stress axis : x y z
#
# Youngs Moduli (GPa) = 57.49931 80.60845 92.49755
#
# Poissons Ratio (x) = 0.39490 0.29166
# Poissons Ratio (y) = 0.28169 0.17520
# Poissons Ratio (z) = 0.18130 0.15268
#
# Static dielectric constant tensor:
#      x y z
#    x 4.318310 0.000000 0.000000 
#    y 0.000000 4.334190 0.000000 
#    z 0.000000 0.000000 4.970810 
# 
# 
# High freq. dielectric constant tensor:
#      x y z
#    x 1.958260 0.000000 0.000000 
#    y 0.000000 1.956160 0.000000 
#    z 0.000000 0.000000 1.967820 
# 
# From -- ./inp_files/20412.got.cif
#   From: 2010.06.25/outbox.cif.g09.slc.cpg/sg52_11_cif.got.tgz:20412.got - 2010.06.26 19:32:48.
