data_PCOD8216568
_publ_section_title
;
Structure prediction by ZEFSAII (Michael W. Deem and Ramdas Pophale) SiO2 
 PCOD8216568
Probable space group: P N N A
;
_chemical_formula_sum "Si O2"
_cell_formula_units_Z 48
_cell_length_a 15.745046
_cell_length_b 8.120870
_cell_length_c 18.263371
_cell_angle_alpha 90.000000
_cell_angle_beta 90.000000
_cell_angle_gamma 90.000000
_cell_volume 2335.218021
_symmetry_space_group_name_H-M "P N N A"
_symmetry_group_IT_number 52
_symmetry_cell_setting 'orthorhombic'
loop_
_space_group_symop_operation_xyz
x,y,z
1/2-x,-y,z
x,1/2-y,1/2-z
1/2-x,1/2+y,1/2-z
-x,-y,-z
1/2+x,y,-z
-x,1/2+y,1/2+z
1/2+x,1/2-y,1/2+z
loop_
_atom_site_type_symbol
_atom_site_label
_atom_site_fract_x
_atom_site_fract_y
_atom_site_fract_z
Si Si1 0.957519 0.329247 0.483128
Si Si2 0.750000 0.500000 0.054230
Si Si3 0.645533 0.616839 0.925021
Si Si4 0.272424 0.687432 0.328199
Si Si5 0.303709 0.163523 0.880833
Si Si6 0.443610 0.833709 0.355661
Si Si7 0.083114 0.750000 0.750000
O O1 0.933907 0.237507 0.558621
O O2 0.866822 0.361511 0.447323
O O3 0.000000 0.500000 0.500000
O O4 0.018040 0.217559 0.433586
O O5 0.750421 0.665328 0.106150
O O6 0.668681 0.516246 0.999950
O O7 0.729314 0.706587 0.893417
O O8 0.610241 0.499583 0.861909
O O9 0.250000 0.500000 0.341450
O O10 0.237660 0.750000 0.250000
O O11 0.375239 0.697078 0.330144
O O12 0.355636 0.154569 0.805032
O O13 0.250000 0.000000 0.879583
O O14 0.519931 0.865018 0.297897
#
# Coordination Sequence:
#
# PCOD8216568 Si02
#       7
#     8   4   8   8   8   8   4
#     4  10  23  39  61  96 131 165 209 268 334 380
#     4  10  22  40  72 100 126 164 226 272 328 380
#     4  11  22  41  64  98 125 173 217 260 330 393
#     4  12  24  39  67  93 128 173 219 262 318 404
#     4  10  24  44  69  94 128 173 226 274 330 399
#     4  11  21  41  65  88 137 164 206 275 322 388
#     4  10  24  44  64  94 130 172 216 274 338 386
#
# _framework density 20.554827
#
# number of rings (size 3 to 8) (size 9 to 14) (size 15 to 20)
#    0.000    1.333    2.500    2.500    3.500    2.667 
#    0.000    0.000    3.667    0.000    0.000    0.000 
#    0.000    0.000    0.000    0.000    0.000    0.000 
#
# Total GULP energy -594915.982997 kJ/mol
# GULP energy per Si atom -12394.082979 kJ/mol
# Density = 2.050804 g / cm^3
# Si number density = 20.554827 Si / 1000 Ang^3
#
#
#
# Elastic Constant Matrix: (Units=GPa)
#
#
# Indices 1 2 3 4 5 6 
#
# 1 96.8310 68.8652 32.4272 0.0000 0.0000 0.0000
# 2 68.8652 132.6379 40.8808 0.0000 0.0000 0.0000
# 3 32.4272 40.8808 84.0271 0.0000 0.0000 0.0000
# 4 0.0000 0.0000 0.0000 12.7429 0.0000 0.0000
# 5 0.0000 0.0000 0.0000 0.0000 28.7215 0.0000
# 6 0.0000 0.0000 0.0000 0.0000 0.0000 33.6306
#
#
#
# Elastic Compliance Matrix: (Units=1/GPa)
#
#
# Indices 1 2 3 4 5 6 
#
# 1 0.016858 -0.007938 -0.002644 0.000000 0.000000 0.000000
# 2 -0.007938 0.012607 -0.003070 0.000000 0.000000 0.000000
# 3 -0.002644 -0.003070 0.014415 0.000000 0.000000 0.000000
# 4 0.000000 0.000000 0.000000 0.078475 0.000000 0.000000
# 5 0.000000 0.000000 0.000000 0.000000 0.034817 0.000000
# 6 0.000000 0.000000 0.000000 0.000000 0.000000 0.029735
#
#
# Mechanical properties :
#
#
# Convention : Reuss Voigt Hill
#
# Bulk Modulus (GPa) = 60.32761 66.42693 63.37727
# Shear Modulus (GPa) = 22.75464 26.44053 24.59758
#
# Velocity S-wave (km/s) = 3.33080 3.59045 3.46306
# Velocity P-wave (km/s) = 6.64873 7.04099 6.84767
#
# Compressibility (1/GPa) = 0.01657616
#
# Stress axis : x y z
#
# Youngs Moduli (GPa) = 59.31964 79.32219 69.37253
#
# Poissons Ratio (x) = 0.62963 0.18341
# Poissons Ratio (y) = 0.47086 0.21299
# Poissons Ratio (z) = 0.15683 0.24354
#
# Static dielectric constant tensor:
#      x y z
#    x 4.145180 0.000000 0.000000 
#    y 0.000000 3.723800 0.000000 
#    z 0.000000 0.000000 4.896900 
# 
# 
# High freq. dielectric constant tensor:
#      x y z
#    x 1.810790 0.000000 0.000000 
#    y 0.000000 1.791960 0.000000 
#    z 0.000000 0.000000 1.806950 
# 
# From -- ./inp_files/33091.got.cif
#   From: 2010.06.25/outbox.cif.g09.slc.cpg/sg52_17_cif.got.tgz:33091.got - 2010.06.26 19:32:48.
