data_PCOD8216779
_publ_section_title
;
Structure prediction by ZEFSAII (Michael W. Deem and Ramdas Pophale) SiO2 
 PCOD8216779
Probable space group: P N N A
;
_chemical_formula_sum "Si O2"
_cell_formula_units_Z 28
_cell_length_a 5.265900
_cell_length_b 32.680529
_cell_length_c 6.802079
_cell_angle_alpha 90.000000
_cell_angle_beta 90.000000
_cell_angle_gamma 90.000000
_cell_volume 1170.586084
_symmetry_space_group_name_H-M "P N N A"
_symmetry_group_IT_number 52
_symmetry_cell_setting 'orthorhombic'
loop_
_space_group_symop_operation_xyz
x,y,z
1/2-x,-y,z
x,1/2-y,1/2-z
1/2-x,1/2+y,1/2-z
-x,-y,-z
1/2+x,y,-z
-x,1/2+y,1/2+z
1/2+x,1/2-y,1/2+z
loop_
_atom_site_type_symbol
_atom_site_label
_atom_site_fract_x
_atom_site_fract_y
_atom_site_fract_z
Si Si1 0.282361 0.877288 0.781682
Si Si2 0.282518 0.912287 0.219271
Si Si3 0.250000 0.000000 0.367370
Si Si4 0.779422 0.209264 0.372759
O O1 0.544091 0.890401 0.672549
O O2 0.250936 0.828461 0.778040
O O3 0.044663 0.899176 0.672385
O O4 0.317030 0.894768 0.000428
O O5 0.249675 0.961049 0.222952
O O6 0.500000 0.000000 0.500000
O O7 0.741983 0.250000 0.250000
O O8 0.560786 0.207487 0.536841
#
# Coordination Sequence:
#
# PCOD8216779 Si02
#       4
#     8   8   4   8
#     4  10  23  42  70  98 136 185 240 279 359 428
#     4  10  23  42  70  97 141 188 236 286 356 427
#     4  12  26  42  66 106 144 180 240 300 352 412
#     4  12  28  46  75 108 146 185 243 305 361 425
#
# _framework density 23.919640000000001
#
# number of rings (size 3 to 8) (size 9 to 14) (size 15 to 20)
#    0.000    1.143    0.000    4.286    8.000   11.429 
#    0.000    0.000    0.000    0.000    0.000    0.000 
#    0.000    0.000    0.000    0.000    0.000    0.000 
#
# Total GULP energy -347080.746589 kJ/mol
# GULP energy per Si atom -12395.740950 kJ/mol
# Density = 2.386520 g / cm^3
# Si number density = 23.919640 Si / 1000 Ang^3
#
#
#
# Elastic Constant Matrix: (Units=GPa)
#
#
# Indices 1 2 3 4 5 6 
#
# 1 198.8167 3.7094 -20.9419 0.0000 0.0000 0.0000
# 2 3.7094 185.6489 23.6009 0.0000 0.0000 0.0000
# 3 -20.9419 23.6009 74.4833 0.0000 0.0000 0.0000
# 4 0.0000 0.0000 0.0000 49.2749 0.0000 0.0000
# 5 0.0000 0.0000 0.0000 0.0000 -3.1056 0.0000
# 6 0.0000 0.0000 0.0000 0.0000 0.0000 40.5888
#
#
#
# Elastic Compliance Matrix: (Units=1/GPa)
#
#
# Indices 1 2 3 4 5 6 
#
# 1 0.005199 -0.000302 0.001558 0.000000 0.000000 0.000000
# 2 -0.000302 0.005630 -0.001869 0.000000 0.000000 0.000000
# 3 0.001558 -0.001869 0.014456 0.000000 0.000000 0.000000
# 4 0.000000 0.000000 0.000000 0.020294 0.000000 0.000000
# 5 0.000000 0.000000 0.000000 0.000000 -0.321996 0.000000
# 6 0.000000 0.000000 0.000000 0.000000 0.000000 0.024637
#
#
# Mechanical properties :
#
#
# Convention : Reuss Voigt Hill
#
# Bulk Modulus (GPa) = 41.56431 52.40952 46.98692
# Shear Modulus (GPa) = -20.61580 47.52365 13.45393
#
# Velocity S-wave (km/s) = -2.93896 4.46219 2.37420
# Velocity P-wave (km/s) = 2.42852 6.96466 5.21556
#
# Compressibility (1/GPa) = 0.02405910
#
# Stress axis : x y z
#
# Youngs Moduli (GPa) = 192.32799 177.61598 69.17584
#
# Poissons Ratio (x) = 0.05362 -0.10774
# Poissons Ratio (y) = 0.05806 0.12928
# Poissons Ratio (z) = -0.29956 0.33194
#
# Static dielectric constant tensor:
#      x y z
#    x 6.764340 0.000000 0.000000 
#    y 0.000000 4.454380 0.000000 
#    z 0.000000 0.000000 4.857480 
# 
# 
# High freq. dielectric constant tensor:
#      x y z
#    x 1.993950 0.000000 0.000000 
#    y 0.000000 1.956820 0.000000 
#    z 0.000000 0.000000 1.936700 
# 
# From -- ./inp_files/6690.got.cif
#   From: 2010.06.25/outbox.cif.g09.slc.cpg/sg52_4_cif.got.tgz:6690.got - 2010.06.26 19:32:48.
