data_PCOD8216608
_publ_section_title
;
Structure prediction by ZEFSAII (Michael W. Deem and Ramdas Pophale) SiO2 
 PCOD8216608
Probable space group: P N N A
;
_chemical_formula_sum "Si O2"
_cell_formula_units_Z 36
_cell_length_a 9.056441
_cell_length_b 13.114252
_cell_length_c 11.893035
_cell_angle_alpha 90.000000
_cell_angle_beta 90.000000
_cell_angle_gamma 90.000000
_cell_volume 1412.517327
_symmetry_space_group_name_H-M "P N N A"
_symmetry_group_IT_number 52
_symmetry_cell_setting 'orthorhombic'
loop_
_space_group_symop_operation_xyz
x,y,z
1/2-x,-y,z
x,1/2-y,1/2-z
1/2-x,1/2+y,1/2-z
-x,-y,-z
1/2+x,y,-z
-x,1/2+y,1/2+z
1/2+x,1/2-y,1/2+z
loop_
_atom_site_type_symbol
_atom_site_label
_atom_site_fract_x
_atom_site_fract_y
_atom_site_fract_z
Si Si1 0.635774 0.180815 0.966749
Si Si2 0.836920 0.338206 0.341472
Si Si3 0.146616 0.093581 0.485487
Si Si4 0.750000 0.500000 0.681829
Si Si5 0.539212 0.999743 0.312135
O O1 0.461336 0.176770 0.939774
O O2 0.717424 0.100330 0.888840
O O3 0.676797 0.154331 0.097103
O O4 0.703479 0.294778 0.948243
O O5 0.849105 0.250000 0.250000
O O6 0.858051 0.445801 0.279466
O O7 0.122817 0.092870 0.622746
O O8 0.250000 0.000000 0.447253
O O9 0.993145 0.078459 0.416552
O O10 0.612531 0.535050 0.756535
#
# Coordination Sequence:
#
# PCOD8216608 Si02
#       5
#     8   8   8   4   8
#     4  11  26  45  76 103 143 193 242 296 365 444
#     4  11  23  49  70 105 147 192 236 308 361 428
#     4  11  22  42  73 109 134 187 250 293 350 435
#     4  10  24  48  70 102 152 192 226 300 376 428
#     4  10  22  41  73 100 147 187 237 300 359 421
#
# _framework density 25.486411
#
# number of rings (size 3 to 8) (size 9 to 14) (size 15 to 20)
#    0.000    1.333    3.333    1.333    3.111    3.556 
#   14.000    0.000    4.889    0.000    0.000    0.000 
#    0.000    0.000    0.000    0.000    0.000    0.000 
#
# Total GULP energy -446018.888384 kJ/mol
# GULP energy per Si atom -12389.413566 kJ/mol
# Density = 2.542840 g / cm^3
# Si number density = 25.486411 Si / 1000 Ang^3
#
#
#
# Elastic Constant Matrix: (Units=GPa)
#
#
# Indices 1 2 3 4 5 6 
#
# 1 82.6390 43.4552 62.1169 0.0000 0.0000 0.0000
# 2 43.4552 156.6076 43.9720 0.0000 0.0000 0.0000
# 3 62.1169 43.9720 137.1719 0.0000 0.0000 0.0000
# 4 0.0000 0.0000 0.0000 22.6009 0.0000 0.0000
# 5 0.0000 0.0000 0.0000 0.0000 48.7174 0.0000
# 6 0.0000 0.0000 0.0000 0.0000 0.0000 29.9837
#
#
#
# Elastic Compliance Matrix: (Units=1/GPa)
#
#
# Indices 1 2 3 4 5 6 
#
# 1 0.019755 -0.003263 -0.007900 0.000000 0.000000 0.000000
# 2 -0.003263 0.007556 -0.000944 0.000000 0.000000 0.000000
# 3 -0.007900 -0.000944 0.011170 0.000000 0.000000 0.000000
# 4 0.000000 0.000000 0.000000 0.044246 0.000000 0.000000
# 5 0.000000 0.000000 0.000000 0.000000 0.020527 0.000000
# 6 0.000000 0.000000 0.000000 0.000000 0.000000 0.033351
#
#
# Mechanical properties :
#
#
# Convention : Reuss Voigt Hill
#
# Bulk Modulus (GPa) = 70.09633 75.05629 72.57631
# Shear Modulus (GPa) = 30.19775 35.38536 32.79156
#
# Velocity S-wave (km/s) = 3.44591 3.73017 3.59085
# Velocity P-wave (km/s) = 6.58753 6.93294 6.76244
#
# Compressibility (1/GPa) = 0.01426608
#
# Stress axis : x y z
#
# Youngs Moduli (GPa) = 50.62070 132.34366 89.52473
#
# Poissons Ratio (x) = 0.43190 0.70721
# Poissons Ratio (y) = 0.16520 0.08454
# Poissons Ratio (z) = 0.39988 0.12498
#
# Static dielectric constant tensor:
#      x y z
#    x 4.741270 0.000000 0.000000 
#    y 0.000000 4.498720 0.000000 
#    z 0.000000 0.000000 4.984680 
# 
# 
# High freq. dielectric constant tensor:
#      x y z
#    x 2.015440 0.000000 0.000000 
#    y 0.000000 2.009380 0.000000 
#    z 0.000000 0.000000 2.032110 
# 
# From -- ./inp_files/17786.got.cif
#   From: 2010.06.25/outbox.cif.g09.slc.cpg/sg52_9_cif.got.tgz:17786.got - 2010.06.26 19:32:48.
