data_PCOD8216628
_publ_section_title
;
Structure prediction by ZEFSAII (Michael W. Deem and Ramdas Pophale) SiO2 
 PCOD8216628
Probable space group: P N N A
;
_chemical_formula_sum "Si O2"
_cell_formula_units_Z 40
_cell_length_a 9.115357
_cell_length_b 20.585480
_cell_length_c 9.172694
_cell_angle_alpha 90.000000
_cell_angle_beta 90.000000
_cell_angle_gamma 90.000000
_cell_volume 1721.200986
_symmetry_space_group_name_H-M "P N N A"
_symmetry_group_IT_number 52
_symmetry_cell_setting 'orthorhombic'
loop_
_space_group_symop_operation_xyz
x,y,z
1/2-x,-y,z
x,1/2-y,1/2-z
1/2-x,1/2+y,1/2-z
-x,-y,-z
1/2+x,y,-z
-x,1/2+y,1/2+z
1/2+x,1/2-y,1/2+z
loop_
_atom_site_type_symbol
_atom_site_label
_atom_site_fract_x
_atom_site_fract_y
_atom_site_fract_z
Si Si1 0.981499 0.565301 0.089665
Si Si2 0.929794 0.744624 0.414801
Si Si3 0.156068 0.830968 0.914641
Si Si4 0.393927 0.041376 0.096324
Si Si5 0.796185 0.358149 0.092540
O O1 0.035956 0.555587 0.250540
O O2 0.807794 0.578614 0.099196
O O3 0.073354 0.626876 0.022619
O O4 0.000000 0.500000 0.000000
O O5 0.993192 0.750000 0.250000
O O6 0.830083 0.680272 0.421784
O O7 0.816222 0.801668 0.457159
O O8 0.062492 0.732873 0.529958
O O9 0.120035 0.844430 0.745233
O O10 0.129983 0.890822 0.018168
O O11 0.250000 0.000000 0.122706
O O12 0.500000 0.000000 0.000000
#
# Coordination Sequence:
#
# PCOD8216628 Si02
#       5
#     8   8   8   8   8
#     4  12  25  44  67  99 139 180 227 285 347 413
#     4  10  22  42  66  97 132 172 222 277 335 401
#     4  11  23  43  68  97 132 175 223 276 331 400
#     4  12  24  41  65  96 131 176 226 278 339 407
#     4  11  24  44  68  99 136 179 228 282 343 411
#
# _framework density 23.239587
#
# number of rings (size 3 to 8) (size 9 to 14) (size 15 to 20)
#    0.000    0.800    0.000    9.000    0.000    1.600 
#    0.000    5.000    0.000    0.000    0.000    0.000 
#    0.000    0.000    0.000    0.000    0.000    0.000 
#
# Total GULP energy -495963.561487 kJ/mol
# GULP energy per Si atom -12399.089037 kJ/mol
# Density = 2.318669 g / cm^3
# Si number density = 23.239587 Si / 1000 Ang^3
#
#
#
# Elastic Constant Matrix: (Units=GPa)
#
#
# Indices 1 2 3 4 5 6 
#
# 1 87.8916 -5.4851 60.1280 0.0000 0.0000 0.0000
# 2 -5.4851 66.1400 37.4950 0.0000 0.0000 0.0000
# 3 60.1280 37.4950 175.4279 0.0000 0.0000 0.0000
# 4 0.0000 0.0000 0.0000 47.1683 0.0000 0.0000
# 5 0.0000 0.0000 0.0000 0.0000 38.8482 0.0000
# 6 0.0000 0.0000 0.0000 0.0000 0.0000 43.1992
#
#
#
# Elastic Compliance Matrix: (Units=1/GPa)
#
#
# Indices 1 2 3 4 5 6 
#
# 1 0.016261 0.005130 -0.006670 0.000000 0.000000 0.000000
# 2 0.005130 0.018822 -0.005781 0.000000 0.000000 0.000000
# 3 -0.006670 -0.005781 0.009222 0.000000 0.000000 0.000000
# 4 0.000000 0.000000 0.000000 0.021201 0.000000 0.000000
# 5 0.000000 0.000000 0.000000 0.000000 0.025741 0.000000
# 6 0.000000 0.000000 0.000000 0.000000 0.000000 0.023149
#
#
# Mechanical properties :
#
#
# Convention : Reuss Voigt Hill
#
# Bulk Modulus (GPa) = 33.71274 57.08170 45.39722
# Shear Modulus (GPa) = 35.99057 41.66457 38.82757
#
# Velocity S-wave (km/s) = 3.93959 4.23877 4.09192
# Velocity P-wave (km/s) = 5.93565 6.96935 6.47317
#
# Compressibility (1/GPa) = 0.02966238
#
# Stress axis : x y z
#
# Youngs Moduli (GPa) = 61.49822 53.12876 108.43604
#
# Poissons Ratio (x) = -0.27253 0.72324
# Poissons Ratio (y) = -0.31546 0.62688
# Poissons Ratio (z) = 0.41018 0.30714
#
# Static dielectric constant tensor:
#      x y z
#    x 4.476170 0.000000 0.000000 
#    y 0.000000 4.490110 0.000000 
#    z 0.000000 0.000000 4.184150 
# 
# 
# High freq. dielectric constant tensor:
#      x y z
#    x 1.930610 0.000000 0.000000 
#    y 0.000000 1.943010 0.000000 
#    z 0.000000 0.000000 1.919970 
# 
# From -- ./inp_files/7393.got.cif
#   From: 2010.06.25/outbox.cif.g09.slc.cpg/sg52_4_cif.got.tgz:7393.got - 2010.06.26 19:32:48.
