data_PCOD8216524
_publ_section_title
;
Structure prediction by ZEFSAII (Michael W. Deem and Ramdas Pophale) SiO2 
 PCOD8216524
Probable space group: P N N A
;
_chemical_formula_sum "Si O2"
_cell_formula_units_Z 40
_cell_length_a 8.718295
_cell_length_b 8.762245
_cell_length_c 24.223218
_cell_angle_alpha 90.000000
_cell_angle_beta 90.000000
_cell_angle_gamma 90.000000
_cell_volume 1850.456116
_symmetry_space_group_name_H-M "P N N A"
_symmetry_group_IT_number 52
_symmetry_cell_setting 'orthorhombic'
loop_
_space_group_symop_operation_xyz
x,y,z
1/2-x,-y,z
x,1/2-y,1/2-z
1/2-x,1/2+y,1/2-z
-x,-y,-z
1/2+x,y,-z
-x,1/2+y,1/2+z
1/2+x,1/2-y,1/2+z
loop_
_atom_site_type_symbol
_atom_site_label
_atom_site_fract_x
_atom_site_fract_y
_atom_site_fract_z
Si Si1 0.939100 0.170286 0.803318
Si Si2 0.095087 0.185844 0.193979
Si Si3 0.897848 0.894301 0.091215
Si Si4 0.239765 0.681255 0.990314
Si Si5 0.047313 0.193397 0.071687
O O1 0.016447 0.250000 0.750000
O O2 0.770689 0.243199 0.811641
O O3 0.050390 0.198716 0.854840
O O4 0.919090 0.991872 0.796558
O O5 0.017105 0.250000 0.250000
O O6 0.016687 0.238862 0.136185
O O7 0.867089 0.760022 0.048375
O O8 0.750000 0.000000 0.103514
O O9 0.031174 0.008397 0.068083
O O10 0.250000 0.500000 0.990748
O O11 0.072424 0.724322 0.968860
O O12 0.283221 0.751442 0.051037
#
# Coordination Sequence:
#
# PCOD8216524 Si02
#       5
#     8   8   8   8   8
#     4   9  18  35  59  87 113 149 197 245 291 352
#     4   9  19  37  59  86 116 149 195 241 297 352
#     4   9  20  39  59  82 120 158 203 239 296 368
#     4  11  23  39  57  90 122 154 200 248 303 353
#     4  10  22  40  61  86 117 162 195 247 295 363
#
# _framework density 21.616289999999999
#
# number of rings (size 3 to 8) (size 9 to 14) (size 15 to 20)
#    0.000    2.400    0.000    1.200    2.800    1.600 
#   14.400   10.000    0.000    0.000    0.000    0.000 
#    0.000    0.000    0.000    0.000    0.000    0.000 
#
# Total GULP energy -495580.885345 kJ/mol
# GULP energy per Si atom -12389.522134 kJ/mol
# Density = 2.156709 g / cm^3
# Si number density = 21.616290 Si / 1000 Ang^3
#
#
#
# Elastic Constant Matrix: (Units=GPa)
#
#
# Indices 1 2 3 4 5 6 
#
# 1 43.3349 27.3886 46.3200 0.0000 0.0000 0.0000
# 2 27.3886 83.6565 53.5463 0.0000 0.0000 0.0000
# 3 46.3200 53.5463 161.6398 0.0000 0.0000 0.0000
# 4 0.0000 0.0000 0.0000 39.1826 0.0000 0.0000
# 5 0.0000 0.0000 0.0000 0.0000 35.6365 0.0000
# 6 0.0000 0.0000 0.0000 0.0000 0.0000 23.4703
#
#
#
# Elastic Compliance Matrix: (Units=1/GPa)
#
#
# Indices 1 2 3 4 5 6 
#
# 1 0.035893 -0.006558 -0.008113 0.000000 0.000000 0.000000
# 2 -0.006558 0.016369 -0.003543 0.000000 0.000000 0.000000
# 3 -0.008113 -0.003543 0.009685 0.000000 0.000000 0.000000
# 4 0.000000 0.000000 0.000000 0.025522 0.000000 0.000000
# 5 0.000000 0.000000 0.000000 0.000000 0.028061 0.000000
# 6 0.000000 0.000000 0.000000 0.000000 0.000000 0.042607
#
#
# Mechanical properties :
#
#
# Convention : Reuss Voigt Hill
#
# Bulk Modulus (GPa) = 39.18789 60.34900 49.76844
# Shear Modulus (GPa) = 24.62194 30.41631 27.51912
#
# Velocity S-wave (km/s) = 3.37864 3.75520 3.57189
# Velocity P-wave (km/s) = 5.77828 6.83966 6.33125
#
# Compressibility (1/GPa) = 0.02551809
#
# Stress axis : x y z
#
# Youngs Moduli (GPa) = 27.86069 61.09269 103.25020
#
# Poissons Ratio (x) = 0.40065 0.83767
# Poissons Ratio (y) = 0.18271 0.36582
# Poissons Ratio (z) = 0.22604 0.21646
#
# Static dielectric constant tensor:
#      x y z
#    x 3.957080 0.000000 0.000000 
#    y 0.000000 3.715330 0.000000 
#    z 0.000000 0.000000 4.274040 
# 
# 
# High freq. dielectric constant tensor:
#      x y z
#    x 1.832540 0.000000 0.000000 
#    y 0.000000 1.828110 0.000000 
#    z 0.000000 0.000000 1.863300 
# 
# From -- ./inp_files/39200.got.cif
#   From: 2010.06.25/outbox.cif.g09.slc.cpg/sg52_20_cif.got.tgz:39200.got - 2010.06.26 19:32:48.
