data_PCOD8216197
_publ_section_title
;
Structure prediction by ZEFSAII (Michael W. Deem and Ramdas Pophale) SiO2 
 PCOD8216197
Probable space group: P N N A
;
_chemical_formula_sum "Si O2"
_cell_formula_units_Z 56
_cell_length_a 19.482612
_cell_length_b 9.457280
_cell_length_c 14.866210
_cell_angle_alpha 90.000000
_cell_angle_beta 90.000000
_cell_angle_gamma 90.000000
_cell_volume 2739.136608
_symmetry_space_group_name_H-M "P N N A"
_symmetry_group_IT_number 52
_symmetry_cell_setting 'orthorhombic'
loop_
_space_group_symop_operation_xyz
x,y,z
1/2-x,-y,z
x,1/2-y,1/2-z
1/2-x,1/2+y,1/2-z
-x,-y,-z
1/2+x,y,-z
-x,1/2+y,1/2+z
1/2+x,1/2-y,1/2+z
loop_
_atom_site_type_symbol
_atom_site_label
_atom_site_fract_x
_atom_site_fract_y
_atom_site_fract_z
Si Si1 0.750000 0.000000 0.449176
Si Si2 0.400799 0.986056 0.262545
Si Si3 0.589662 0.589991 0.568967
Si Si4 0.319822 0.332079 0.100077
Si Si5 0.447690 0.413750 0.746909
Si Si6 0.857536 0.651870 0.166628
Si Si7 0.710236 0.250000 0.750000
Si Si8 0.061123 0.391755 0.574032
O O1 0.802671 0.072985 0.515663
O O2 0.711086 0.112673 0.386676
O O3 0.473969 0.913851 0.285741
O O4 0.339246 0.882123 0.234436
O O5 0.412969 0.080356 0.176001
O O6 0.377760 0.086487 0.343351
O O7 0.649539 0.698612 0.548073
O O8 0.514902 0.646387 0.538663
O O9 0.605013 0.447505 0.511892
O O10 0.256168 0.284240 0.162632
O O11 0.422531 0.250000 0.750000
O O12 0.397817 0.508414 0.808697
O O13 0.442777 0.481375 0.647480
O O14 0.834995 0.750000 0.250000
O O15 0.907038 0.746041 0.105788
#
# Coordination Sequence:
#
# PCOD8216197 Si02
#       8
#     4   8   8   8   8   8   4   8
#     4  12  28  44  64  98 132 166 226 274 322 406
#     4  11  21  39  63  94 134 177 211 261 321 393
#     4  10  21  38  66  93 131 170 222 263 323 376
#     4  12  24  40  60  95 136 183 218 259 321 396
#     4  10  21  40  71  97 124 164 220 277 336 387
#     4  10  24  49  69  89 125 167 213 281 342 387
#     4  12  22  38  58  92 142 176 216 246 318 394
#     4   9  21  42  66  98 124 166 224 275 322 387
#
# _framework density 20.444398
#
# number of rings (size 3 to 8) (size 9 to 14) (size 15 to 20)
#    0.000    1.429    3.571    0.857    4.000    2.857 
#    5.143    1.429    0.000    0.000    0.000    0.000 
#    0.000    0.000    0.000    0.000    0.000    0.000 
#
# Total GULP energy -694133.728298 kJ/mol
# GULP energy per Si atom -12395.245148 kJ/mol
# Density = 2.039787 g / cm^3
# Si number density = 20.444398 Si / 1000 Ang^3
#
#
#
# Elastic Constant Matrix: (Units=GPa)
#
#
# Indices 1 2 3 4 5 6 
#
# 1 67.8499 42.0140 45.0077 0.0000 0.0000 0.0000
# 2 42.0140 119.3065 40.4727 0.0000 0.0000 0.0000
# 3 45.0077 40.4727 96.0074 0.0000 0.0000 0.0000
# 4 0.0000 0.0000 0.0000 24.3375 0.0000 0.0000
# 5 0.0000 0.0000 0.0000 0.0000 30.8417 0.0000
# 6 0.0000 0.0000 0.0000 0.0000 0.0000 40.2338
#
#
#
# Elastic Compliance Matrix: (Units=1/GPa)
#
#
# Indices 1 2 3 4 5 6 
#
# 1 0.024063 -0.005422 -0.008995 0.000000 0.000000 0.000000
# 2 -0.005422 0.011002 -0.002096 0.000000 0.000000 0.000000
# 3 -0.008995 -0.002096 0.015516 0.000000 0.000000 0.000000
# 4 0.000000 0.000000 0.000000 0.041089 0.000000 0.000000
# 5 0.000000 0.000000 0.000000 0.000000 0.032424 0.000000
# 6 0.000000 0.000000 0.000000 0.000000 0.000000 0.024855
#
#
# Mechanical properties :
#
#
# Convention : Reuss Voigt Hill
#
# Bulk Modulus (GPa) = 56.96437 59.79475 58.37956
# Shear Modulus (GPa) = 26.62038 29.46055 28.04047
#
# Velocity S-wave (km/s) = 3.61236 3.80018 3.70746
# Velocity P-wave (km/s) = 6.73219 6.96894 6.85159
#
# Compressibility (1/GPa) = 0.01755483
#
# Stress axis : x y z
#
# Youngs Moduli (GPa) = 41.55838 90.88951 64.44926
#
# Poissons Ratio (x) = 0.49284 0.57969
# Poissons Ratio (y) = 0.22535 0.13509
# Poissons Ratio (z) = 0.37380 0.19052
#
# Static dielectric constant tensor:
#      x y z
#    x 3.865740 0.000000 0.000000 
#    y 0.000000 4.256970 0.000000 
#    z 0.000000 0.000000 3.706830 
# 
# 
# High freq. dielectric constant tensor:
#      x y z
#    x 1.798460 0.000000 0.000000 
#    y 0.000000 1.802000 0.000000 
#    z 0.000000 0.000000 1.797420 
# 
# From -- ./inp_files/28836.got.cif
#   From: 2010.06.25/outbox.cif.g09.slc.cpg/sg52_15_cif.got.tgz:28836.got - 2010.06.26 19:32:48.
