data_PCOD8216334
_publ_section_title
;
Structure prediction by ZEFSAII (Michael W. Deem and Ramdas Pophale) SiO2 
 PCOD8216334
Probable space group: P N N A
;
_chemical_formula_sum "Si O2"
_cell_formula_units_Z 36
_cell_length_a 5.031823
_cell_length_b 18.486463
_cell_length_c 16.166388
_cell_angle_alpha 90.000000
_cell_angle_beta 90.000000
_cell_angle_gamma 90.000000
_cell_volume 1503.807269
_symmetry_space_group_name_H-M "P N N A"
_symmetry_group_IT_number 52
_symmetry_cell_setting 'orthorhombic'
loop_
_space_group_symop_operation_xyz
x,y,z
1/2-x,-y,z
x,1/2-y,1/2-z
1/2-x,1/2+y,1/2-z
-x,-y,-z
1/2+x,y,-z
-x,1/2+y,1/2+z
1/2+x,1/2-y,1/2+z
loop_
_atom_site_type_symbol
_atom_site_label
_atom_site_fract_x
_atom_site_fract_y
_atom_site_fract_z
Si Si1 0.447653 0.777884 0.954512
Si Si2 0.573498 0.891021 0.543604
Si Si3 0.750000 0.000000 0.057252
Si Si4 0.279712 0.083249 0.274002
Si Si5 0.273070 0.130325 0.818378
O O1 0.507814 0.693644 0.962829
O O2 0.325532 0.795594 0.863460
O O3 0.238153 0.810732 0.023009
O O4 0.280319 0.923066 0.525665
O O5 0.727711 0.910804 0.627508
O O6 0.754634 0.070606 0.112090
O O7 0.500000 0.000000 0.000000
O O8 0.569377 0.112400 0.253790
O O9 0.060557 0.132748 0.226492
O O10 0.250000 0.000000 0.245293
#
# Coordination Sequence:
#
# PCOD8216334 Si02
#       5
#     8   8   4   8   8
#     4  10  21  41  64  91 126 166 219 269 313 384
#     4  10  23  43  67  92 121 167 223 275 328 387
#     4  12  22  36  60  90 126 176 218 248 310 388
#     4  12  24  42  63  94 137 171 214 276 329 389
#     4  12  23  40  62  94 134 173 211 268 330 386
#
# _framework density 23.939239000000001
#
# number of rings (size 3 to 8) (size 9 to 14) (size 15 to 20)
#    0.000    0.889    2.222    5.333    0.000    1.778 
#    0.000    2.222    0.000    0.000    0.000    0.000 
#    0.000    0.000    0.000    0.000    0.000    0.000 
#
# Total GULP energy -445979.744691 kJ/mol
# GULP energy per Si atom -12388.326241 kJ/mol
# Density = 2.388475 g / cm^3
# Si number density = 23.939239 Si / 1000 Ang^3
#
#
#
# Elastic Constant Matrix: (Units=GPa)
#
#
# Indices 1 2 3 4 5 6 
#
# 1 157.5827 32.7042 44.1046 0.0000 0.0000 0.0000
# 2 32.7042 20.4909 7.2413 0.0000 0.0000 0.0000
# 3 44.1046 7.2413 104.2201 0.0000 0.0000 0.0000
# 4 0.0000 0.0000 0.0000 32.6610 0.0000 0.0000
# 5 0.0000 0.0000 0.0000 0.0000 55.1149 0.0000
# 6 0.0000 0.0000 0.0000 0.0000 0.0000 13.4558
#
#
#
# Elastic Compliance Matrix: (Units=1/GPa)
#
#
# Indices 1 2 3 4 5 6 
#
# 1 0.010530 -0.015615 -0.003371 0.000000 0.000000 0.000000
# 2 -0.015615 0.073186 0.001523 0.000000 0.000000 0.000000
# 3 -0.003371 0.001523 0.010916 0.000000 0.000000 0.000000
# 4 0.000000 0.000000 0.000000 0.030618 0.000000 0.000000
# 5 0.000000 0.000000 0.000000 0.000000 0.018144 0.000000
# 6 0.000000 0.000000 0.000000 0.000000 0.000000 0.074317
#
#
# Mechanical properties :
#
#
# Convention : Reuss Voigt Hill
#
# Bulk Modulus (GPa) = 16.74882 50.04380 33.39631
# Shear Modulus (GPa) = 18.34594 33.46258 25.90426
#
# Velocity S-wave (km/s) = 2.77131 3.74279 3.29307
# Velocity P-wave (km/s) = 4.15353 6.29507 5.33290
#
# Compressibility (1/GPa) = 0.05970571
#
# Stress axis : x y z
#
# Youngs Moduli (GPa) = 94.96536 13.66375 91.60925
#
# Poissons Ratio (x) = 0.21336 0.30884
# Poissons Ratio (y) = 1.48290 -0.13953
# Poissons Ratio (z) = 0.32015 -0.02081
#
# Static dielectric constant tensor:
#      x y z
#    x 5.010620 0.000000 0.000000 
#    y 0.000000 4.278810 0.000000 
#    z 0.000000 0.000000 4.178840 
# 
# 
# High freq. dielectric constant tensor:
#      x y z
#    x 1.976850 0.000000 0.000000 
#    y 0.000000 1.931550 0.000000 
#    z 0.000000 0.000000 1.947600 
# 
# From -- ./inp_files/23576.got.cif
#   From: 2010.06.25/outbox.cif.g09.slc.cpg/sg52_12_cif.got.tgz:23576.got - 2010.06.26 19:32:48.
