data_PCOD8216638
_publ_section_title
;
Structure prediction by ZEFSAII (Michael W. Deem and Ramdas Pophale) SiO2 
 PCOD8216638
Probable space group: P N N A
;
_chemical_formula_sum "Si O2"
_cell_formula_units_Z 40
_cell_length_a 12.033053
_cell_length_b 24.061939
_cell_length_c 6.350916
_cell_angle_alpha 90.000000
_cell_angle_beta 90.000000
_cell_angle_gamma 90.000000
_cell_volume 1838.835247
_symmetry_space_group_name_H-M "P N N A"
_symmetry_group_IT_number 52
_symmetry_cell_setting 'orthorhombic'
loop_
_space_group_symop_operation_xyz
x,y,z
1/2-x,-y,z
x,1/2-y,1/2-z
1/2-x,1/2+y,1/2-z
-x,-y,-z
1/2+x,y,-z
-x,1/2+y,1/2+z
1/2+x,1/2-y,1/2+z
loop_
_atom_site_type_symbol
_atom_site_label
_atom_site_fract_x
_atom_site_fract_y
_atom_site_fract_z
Si Si1 0.681200 0.841184 0.562005
Si Si2 0.091805 0.576559 0.749217
Si Si3 0.965295 0.336525 0.554157
Si Si4 0.877500 0.250000 0.250000
Si Si5 0.644216 0.103383 0.841659
Si Si6 0.250000 0.500000 0.553176
O O1 0.651383 0.899630 0.455026
O O2 0.698760 0.791904 0.390574
O O3 0.792679 0.851959 0.694770
O O4 0.576791 0.824073 0.711110
O O5 0.117595 0.617497 0.550197
O O6 0.143756 0.516087 0.698412
O O7 0.958600 0.574965 0.787092
O O8 0.958812 0.282084 0.408648
O O9 0.091788 0.361163 0.538972
O O10 0.721540 0.053342 0.914642
#
# Coordination Sequence:
#
# PCOD8216638 Si02
#       6
#     8   8   8   4   8   4
#     4  11  21  45  68 100 141 172 231 294 338 427
#     4   9  23  39  64  98 134 176 234 275 341 408
#     4   9  21  44  63  96 138 171 225 287 337 415
#     4  10  22  44  70  98 132 174 226 292 360 408
#     4  10  22  42  68  97 139 183 224 280 347 406
#     4  12  20  44  68  98 142 190 232 284 340 418
#
# _framework density 21.7529
#
# number of rings (size 3 to 8) (size 9 to 14) (size 15 to 20)
#    1.200    0.800    2.000    1.200    0.000    2.400 
#    3.600    3.000    0.000    0.000    0.000    0.000 
#    0.000    0.000    0.000    0.000    0.000    0.000 
#
# Total GULP energy -495527.687819 kJ/mol
# GULP energy per Si atom -12388.192195 kJ/mol
# Density = 2.170339 g / cm^3
# Si number density = 21.752900 Si / 1000 Ang^3
#
#
#
# Elastic Constant Matrix: (Units=GPa)
#
#
# Indices 1 2 3 4 5 6 
#
# 1 111.5190 49.5043 38.0543 0.0000 0.0000 0.0000
# 2 49.5043 110.1323 43.7270 0.0000 0.0000 0.0000
# 3 38.0543 43.7270 100.0954 0.0000 0.0000 0.0000
# 4 0.0000 0.0000 0.0000 35.3379 0.0000 0.0000
# 5 0.0000 0.0000 0.0000 0.0000 25.3088 0.0000
# 6 0.0000 0.0000 0.0000 0.0000 0.0000 34.5808
#
#
#
# Elastic Compliance Matrix: (Units=1/GPa)
#
#
# Indices 1 2 3 4 5 6 
#
# 1 0.011741 -0.004241 -0.002611 0.000000 0.000000 0.000000
# 2 -0.004241 0.012517 -0.003856 0.000000 0.000000 0.000000
# 3 -0.002611 -0.003856 0.012668 0.000000 0.000000 0.000000
# 4 0.000000 0.000000 0.000000 0.028298 0.000000 0.000000
# 5 0.000000 0.000000 0.000000 0.000000 0.039512 0.000000
# 6 0.000000 0.000000 0.000000 0.000000 0.000000 0.028918
#
#
# Mechanical properties :
#
#
# Convention : Reuss Voigt Hill
#
# Bulk Modulus (GPa) = 64.47416 64.92421 64.69918
# Shear Modulus (GPa) = 31.20353 31.74291 31.47322
#
# Velocity S-wave (km/s) = 3.79153 3.82416 3.80788
# Velocity P-wave (km/s) = 6.99080 7.02922 7.01003
#
# Compressibility (1/GPa) = 0.01551009
#
# Stress axis : x y z
#
# Youngs Moduli (GPa) = 85.17516 79.89051 78.94166
#
# Poissons Ratio (x) = 0.33879 0.20611
# Poissons Ratio (y) = 0.36120 0.30439
# Poissons Ratio (z) = 0.22239 0.30805
#
# Static dielectric constant tensor:
#      x y z
#    x 3.662160 0.000000 0.000000 
#    y 0.000000 3.819410 0.000000 
#    z 0.000000 0.000000 3.739240 
# 
# 
# High freq. dielectric constant tensor:
#      x y z
#    x 1.839020 0.000000 0.000000 
#    y 0.000000 1.851910 0.000000 
#    z 0.000000 0.000000 1.840660 
# 
# From -- ./inp_files/2309.got.cif
#   From: 2010.06.25/outbox.cif.g09.slc.cpg/sg52_2_cif.got.tgz:2309.got - 2010.06.26 19:32:48.
