data_PCOD8216175
_publ_section_title
;
Structure prediction by ZEFSAII (Michael W. Deem and Ramdas Pophale) SiO2 
 PCOD8216175
Probable space group: P N N A
;
_chemical_formula_sum "Si O2"
_cell_formula_units_Z 28
_cell_length_a 21.479746
_cell_length_b 7.811988
_cell_length_c 7.746849
_cell_angle_alpha 90.000000
_cell_angle_beta 90.000000
_cell_angle_gamma 90.000000
_cell_volume 1299.917528
_symmetry_space_group_name_H-M "P N N A"
_symmetry_group_IT_number 52
_symmetry_cell_setting 'orthorhombic'
loop_
_space_group_symop_operation_xyz
x,y,z
1/2-x,-y,z
x,1/2-y,1/2-z
1/2-x,1/2+y,1/2-z
-x,-y,-z
1/2+x,y,-z
-x,1/2+y,1/2+z
1/2+x,1/2-y,1/2+z
loop_
_atom_site_type_symbol
_atom_site_label
_atom_site_fract_x
_atom_site_fract_y
_atom_site_fract_z
Si Si1 0.639254 0.750000 0.250000
Si Si2 0.697824 0.867005 0.900088
Si Si3 0.923305 0.560121 0.684768
Si Si4 0.551673 0.060660 0.210317
O O1 0.680401 0.729767 0.422645
O O2 0.597666 0.582342 0.212188
O O3 0.727695 0.750000 0.750000
O O4 0.750000 0.000000 0.958212
O O5 0.639151 0.950710 0.801096
O O6 0.909578 0.750000 0.750000
O O7 0.947487 0.554539 0.492878
O O8 0.981912 0.474661 0.787658
O O9 0.576288 0.250000 0.250000
#
# Coordination Sequence:
#
# PCOD8216175 Si02
#       4
#     4   8   8   8
#     4  10  24  46  66 102 134 168 230 276 328 404
#     4  11  25  45  66  97 131 179 229 275 336 398
#     4  10  21  38  61  97 131 167 220 269 328 397
#     4  10  21  38  64  97 130 171 213 269 337 390
#
# _framework density 21.539826999999999
#
# number of rings (size 3 to 8) (size 9 to 14) (size 15 to 20)
#    0.000    1.714    1.429    1.714    4.000    2.286 
#   10.286    0.000    0.000    0.000    0.000    0.000 
#    0.000    0.000    0.000    0.000    0.000    0.000 
#
# Total GULP energy -347030.430052 kJ/mol
# GULP energy per Si atom -12393.943930 kJ/mol
# Density = 2.149080 g / cm^3
# Si number density = 21.539827 Si / 1000 Ang^3
#
#
#
# Elastic Constant Matrix: (Units=GPa)
#
#
# Indices 1 2 3 4 5 6 
#
# 1 101.3715 49.5612 52.8501 0.0000 0.0000 0.0000
# 2 49.5612 155.6399 43.7865 0.0000 0.0000 0.0000
# 3 52.8501 43.7865 80.6583 0.0000 0.0000 0.0000
# 4 0.0000 0.0000 0.0000 45.0525 0.0000 0.0000
# 5 0.0000 0.0000 0.0000 0.0000 204.2379 0.0000
# 6 0.0000 0.0000 0.0000 0.0000 0.0000 50.7967
#
#
#
# Elastic Compliance Matrix: (Units=1/GPa)
#
#
# Indices 1 2 3 4 5 6 
#
# 1 0.015763 -0.002495 -0.008974 0.000000 0.000000 0.000000
# 2 -0.002495 0.007978 -0.002696 0.000000 0.000000 0.000000
# 3 -0.008974 -0.002696 0.019742 0.000000 0.000000 0.000000
# 4 0.000000 0.000000 0.000000 0.022196 0.000000 0.000000
# 5 0.000000 0.000000 0.000000 0.000000 0.004896 0.000000
# 6 0.000000 0.000000 0.000000 0.000000 0.000000 0.019686
#
#
# Mechanical properties :
#
#
# Convention : Reuss Voigt Hill
#
# Bulk Modulus (GPa) = 65.99588 70.00726 68.00157
# Shear Modulus (GPa) = 40.43881 72.78221 56.61051
#
# Velocity S-wave (km/s) = 4.33759 5.81919 5.13214
# Velocity P-wave (km/s) = 7.46939 8.81603 8.17050
#
# Compressibility (1/GPa) = 0.01515246
#
# Stress axis : x y z
#
# Youngs Moduli (GPa) = 63.43913 125.34333 50.65355
#
# Poissons Ratio (x) = 0.31271 0.45458
# Poissons Ratio (y) = 0.15827 0.13658
# Poissons Ratio (z) = 0.56932 0.33797
#
# Static dielectric constant tensor:
#      x y z
#    x 4.008610 0.000000 0.000000 
#    y 0.000000 3.646920 0.000000 
#    z 0.000000 0.000000 3.719300 
# 
# 
# High freq. dielectric constant tensor:
#      x y z
#    x 1.845260 0.000000 0.000000 
#    y 0.000000 1.854260 0.000000 
#    z 0.000000 0.000000 1.840310 
# 
# From -- ./inp_files/11371.got.cif
#   From: 2010.06.25/outbox.cif.g09.slc.cpg/sg52_6_cif.got.tgz:11371.got - 2010.06.26 19:32:48.
