data_PCOD8216773
_publ_section_title
;
Structure prediction by ZEFSAII (Michael W. Deem and Ramdas Pophale) SiO2 
 PCOD8216773
Probable space group: P N N A
;
_chemical_formula_sum "Si O2"
_cell_formula_units_Z 24
_cell_length_a 12.764093
_cell_length_b 16.445309
_cell_length_c 5.208044
_cell_angle_alpha 90.000000
_cell_angle_beta 90.000000
_cell_angle_gamma 90.000000
_cell_volume 1093.217670
_symmetry_space_group_name_H-M "P N N A"
_symmetry_group_IT_number 52
_symmetry_cell_setting 'orthorhombic'
loop_
_space_group_symop_operation_xyz
x,y,z
1/2-x,-y,z
x,1/2-y,1/2-z
1/2-x,1/2+y,1/2-z
-x,-y,-z
1/2+x,y,-z
-x,1/2+y,1/2+z
1/2+x,1/2-y,1/2+z
loop_
_atom_site_type_symbol
_atom_site_label
_atom_site_fract_x
_atom_site_fract_y
_atom_site_fract_z
Si Si1 0.185268 0.153274 0.580290
Si Si2 0.001494 0.750000 0.250000
Si Si3 0.189969 0.656823 0.401126
Si Si4 0.250000 0.000000 0.330591
O O1 0.258521 0.195075 0.362188
O O2 0.177119 0.056723 0.514902
O O3 0.069242 0.191096 0.573648
O O4 0.235629 0.172850 0.856533
O O5 0.074044 0.694100 0.435391
O O6 0.180241 0.559042 0.351501
#
# Coordination Sequence:
#
# PCOD8216773 Si02
#       4
#     8   4   8   4
#     4  10  23  42  66  92 132 166 210 266 312 379
#     4  12  24  40  70 100 124 170 218 258 328 370
#     4  10  23  42  66  92 132 166 210 266 312 379
#     4   8  22  46  62  88 140 166 198 278 306 380
#
# _framework density 21.953541000000001
#
# number of rings (size 3 to 8) (size 9 to 14) (size 15 to 20)
#    2.000    0.000    0.000    3.000    0.000    6.667 
#    0.000    3.333    0.000    0.000    0.000    0.000 
#    0.000    0.000    0.000    0.000    0.000    0.000 
#
# Total GULP energy -297350.827347 kJ/mol
# GULP energy per Si atom -12389.617806 kJ/mol
# Density = 2.190357 g / cm^3
# Si number density = 21.953541 Si / 1000 Ang^3
#
#
#
# Elastic Constant Matrix: (Units=GPa)
#
#
# Indices 1 2 3 4 5 6 
#
# 1 156.0379 84.5900 50.3600 0.0000 0.0000 0.0000
# 2 84.5900 141.1298 49.6415 0.0000 0.0000 0.0000
# 3 50.3600 49.6415 140.1019 0.0000 0.0000 0.0000
# 4 0.0000 0.0000 0.0000 50.8667 0.0000 0.0000
# 5 0.0000 0.0000 0.0000 0.0000 7.7899 0.0000
# 6 0.0000 0.0000 0.0000 0.0000 0.0000 43.7588
#
#
#
# Elastic Compliance Matrix: (Units=1/GPa)
#
#
# Indices 1 2 3 4 5 6 
#
# 1 0.009816 -0.005303 -0.001649 0.000000 0.000000 0.000000
# 2 -0.005303 0.010960 -0.001977 0.000000 0.000000 0.000000
# 3 -0.001649 -0.001977 0.008431 0.000000 0.000000 0.000000
# 4 0.000000 0.000000 0.000000 0.019659 0.000000 0.000000
# 5 0.000000 0.000000 0.000000 0.000000 0.128372 0.000000
# 6 0.000000 0.000000 0.000000 0.000000 0.000000 0.022853
#
#
# Mechanical properties :
#
#
# Convention : Reuss Voigt Hill
#
# Bulk Modulus (GPa) = 88.12523 89.60585 88.86554
# Shear Modulus (GPa) = 22.54972 37.32829 29.93901
#
# Velocity S-wave (km/s) = 3.20841 4.12798 3.69690
# Velocity P-wave (km/s) = 7.34534 7.97653 7.66743
#
# Compressibility (1/GPa) = 0.01134749
#
# Stress axis : x y z
#
# Youngs Moduli (GPa) = 101.87436 91.24257 118.60991
#
# Poissons Ratio (x) = 0.48389 0.19562
# Poissons Ratio (y) = 0.54028 0.23449
# Poissons Ratio (z) = 0.16802 0.18039
#
# Static dielectric constant tensor:
#      x y z
#    x 3.530530 0.000000 0.000000 
#    y 0.000000 4.314650 0.000000 
#    z 0.000000 0.000000 3.693730 
# 
# 
# High freq. dielectric constant tensor:
#      x y z
#    x 1.823920 0.000000 0.000000 
#    y 0.000000 1.906450 0.000000 
#    z 0.000000 0.000000 1.856480 
# 
# From -- ./inp_files/824.got.cif
#   From: 2010.06.25/outbox.cif.g09.slc.cpg/sg52_1_cif.got.tgz:824.got - 2010.06.26 19:32:48.
