data_PCOD8216137
_publ_section_title
;
Structure prediction by ZEFSAII (Michael W. Deem and Ramdas Pophale) SiO2 
 PCOD8216137
Probable space group: P N N A
;
_chemical_formula_sum "Si O2"
_cell_formula_units_Z 32
_cell_length_a 5.085226
_cell_length_b 16.078337
_cell_length_c 16.918756
_cell_angle_alpha 90.000000
_cell_angle_beta 90.000000
_cell_angle_gamma 90.000000
_cell_volume 1383.310945
_symmetry_space_group_name_H-M "P N N A"
_symmetry_group_IT_number 52
_symmetry_cell_setting 'orthorhombic'
loop_
_space_group_symop_operation_xyz
x,y,z
1/2-x,-y,z
x,1/2-y,1/2-z
1/2-x,1/2+y,1/2-z
-x,-y,-z
1/2+x,y,-z
-x,1/2+y,1/2+z
1/2+x,1/2-y,1/2+z
loop_
_atom_site_type_symbol
_atom_site_label
_atom_site_fract_x
_atom_site_fract_y
_atom_site_fract_z
Si Si1 0.975595 0.856472 0.036780
Si Si2 0.803438 0.160985 0.283114
Si Si3 0.174035 0.906618 0.204025
Si Si4 0.319025 0.668670 0.963344
O O1 0.896559 0.762817 0.011313
O O2 0.090492 0.858821 0.124593
O O3 0.689747 0.899896 0.023014
O O4 0.712491 0.250000 0.250000
O O5 0.583175 0.093460 0.259291
O O6 0.808048 0.162266 0.377248
O O7 0.087872 0.139816 0.247546
O O8 0.250000 0.000000 0.182930
O O9 0.603734 0.625543 0.977425
#
# Coordination Sequence:
#
# PCOD8216137 Si02
#       4
#     8   8   8   8
#     4  10  21  37  61  93 133 169 209 250 313 393
#     4  12  24  42  69  95 126 172 220 268 314 379
#     4  12  26  42  63  96 136 174 212 264 325 381
#     4  10  21  38  64  96 126 158 212 274 318 368
#
# _framework density 23.132905000000001
#
# number of rings (size 3 to 8) (size 9 to 14) (size 15 to 20)
#    0.000    1.000    2.500    4.500    7.000    1.000 
#    0.000    0.000    0.000   15.000    0.000    0.000 
#    0.000    0.000    0.000    0.000    0.000    0.000 
#
# Total GULP energy -396476.331142 kJ/mol
# GULP energy per Si atom -12389.885348 kJ/mol
# Density = 2.308025 g / cm^3
# Si number density = 23.132905 Si / 1000 Ang^3
#
#
#
# Elastic Constant Matrix: (Units=GPa)
#
#
# Indices 1 2 3 4 5 6 
#
# 1 221.7095 17.9160 91.6848 0.0000 0.0000 0.0000
# 2 17.9160 27.2939 7.3585 0.0000 0.0000 0.0000
# 3 91.6848 7.3585 147.5355 0.0000 0.0000 0.0000
# 4 0.0000 0.0000 0.0000 11.9832 0.0000 0.0000
# 5 0.0000 0.0000 0.0000 0.0000 45.8068 0.0000
# 6 0.0000 0.0000 0.0000 0.0000 0.0000 20.1969
#
#
#
# Elastic Compliance Matrix: (Units=1/GPa)
#
#
# Indices 1 2 3 4 5 6 
#
# 1 0.006324 -0.003134 -0.003774 0.000000 0.000000 0.000000
# 2 -0.003134 0.038691 0.000018 0.000000 0.000000 0.000000
# 3 -0.003774 0.000018 0.009122 0.000000 0.000000 0.000000
# 4 0.000000 0.000000 0.000000 0.083450 0.000000 0.000000
# 5 0.000000 0.000000 0.000000 0.000000 0.021831 0.000000
# 6 0.000000 0.000000 0.000000 0.000000 0.000000 0.049512
#
#
# Mechanical properties :
#
#
# Convention : Reuss Voigt Hill
#
# Bulk Modulus (GPa) = 24.77866 70.05084 47.41475
# Shear Modulus (GPa) = 21.17181 34.23603 27.70392
#
# Velocity S-wave (km/s) = 3.02855 3.85121 3.46439
# Velocity P-wave (km/s) = 4.79209 7.07979 6.04515
#
# Compressibility (1/GPa) = 0.04035731
#
# Stress axis : x y z
#
# Youngs Moduli (GPa) = 158.12076 25.84609 109.62051
#
# Poissons Ratio (x) = 0.08100 0.41369
# Poissons Ratio (y) = 0.49553 -0.00195
# Poissons Ratio (z) = 0.59673 -0.00046
#
# Static dielectric constant tensor:
#      x y z
#    x 5.221570 0.000000 0.000000 
#    y 0.000000 3.679990 0.000000 
#    z 0.000000 0.000000 3.964400 
# 
# 
# High freq. dielectric constant tensor:
#      x y z
#    x 1.959880 0.000000 0.000000 
#    y 0.000000 1.859160 0.000000 
#    z 0.000000 0.000000 1.913420 
# 
# From -- ./inp_files/23459.got.cif
#   From: 2010.06.25/outbox.cif.g09.slc.cpg/sg52_12_cif.got.tgz:23459.got - 2010.06.26 19:32:48.
