data_PCOD8216710
_publ_section_title
;
Structure prediction by ZEFSAII (Michael W. Deem and Ramdas Pophale) SiO2 
 PCOD8216710
Probable space group: P N N A
;
_chemical_formula_sum "Si O2"
_cell_formula_units_Z 60
_cell_length_a 24.159053
_cell_length_b 8.595711
_cell_length_c 11.148292
_cell_angle_alpha 90.000000
_cell_angle_beta 90.000000
_cell_angle_gamma 90.000000
_cell_volume 2315.101559
_symmetry_space_group_name_H-M "P N N A"
_symmetry_group_IT_number 52
_symmetry_cell_setting 'orthorhombic'
loop_
_space_group_symop_operation_xyz
x,y,z
1/2-x,-y,z
x,1/2-y,1/2-z
1/2-x,1/2+y,1/2-z
-x,-y,-z
1/2+x,y,-z
-x,1/2+y,1/2+z
1/2+x,1/2-y,1/2+z
loop_
_atom_site_type_symbol
_atom_site_label
_atom_site_fract_x
_atom_site_fract_y
_atom_site_fract_z
Si Si1 0.644322 0.338734 0.130988
Si Si2 0.539706 0.610673 0.926595
Si Si3 0.763507 0.815000 0.979760
Si Si4 0.143222 0.767936 0.019932
Si Si5 0.416512 0.492515 0.310701
Si Si6 0.548442 0.349705 0.451400
Si Si7 0.836910 0.750000 0.750000
Si Si8 0.396010 0.086123 0.790316
O O1 0.628304 0.250000 0.250000
O O2 0.703490 0.273808 0.086256
O O3 0.594540 0.289004 0.040951
O O4 0.640346 0.519581 0.176373
O O5 0.601151 0.619800 0.987843
O O6 0.539785 0.566890 0.787295
O O7 0.513475 0.784323 0.933629
O O8 0.500000 0.500000 0.000000
O O9 0.750000 0.000000 0.001896
O O10 0.706727 0.717661 0.962430
O O11 0.799250 0.789034 0.862760
O O12 0.123012 0.858163 0.138339
O O13 0.144238 0.879683 0.903093
O O14 0.450612 0.571614 0.418385
O O15 0.376702 0.603297 0.232202
O O16 0.557931 0.468243 0.340374
O O17 0.423717 0.250000 0.750000
#
# Coordination Sequence:
#
# PCOD8216710 Si02
#       8
#     8   8   8   8   8   8   4   8
#     4  10  22  45  83 117 157 220 278 340 424 511
#     4  12  29  48  81 115 167 216 288 353 433 521
#     4  12  24  47  81 118 169 222 278 352 431 512
#     4  11  27  50  74 121 164 214 283 344 429 512
#     4  11  24  50  77 119 164 216 280 349 424 523
#     4  10  23  50  79 114 158 224 272 346 433 507
#     4  12  24  42  84 114 166 218 268 344 432 498
#     4  10  24  47  80 116 166 209 281 344 416 508
#
# _framework density 25.916791
#
# number of rings (size 3 to 8) (size 9 to 14) (size 15 to 20)
#    0.000    1.067    2.667    2.800    3.733    6.933 
#    0.000    4.667    0.000    0.000    0.000    0.000 
#    0.000    0.000    0.000    0.000    0.000    0.000 
#
# Total GULP energy -743627.183627 kJ/mol
# GULP energy per Si atom -12393.786394 kJ/mol
# Density = 2.585780 g / cm^3
# Si number density = 25.916791 Si / 1000 Ang^3
#
#
#
# Elastic Constant Matrix: (Units=GPa)
#
#
# Indices 1 2 3 4 5 6 
#
# 1 154.8446 52.1892 58.5776 0.0000 0.0000 0.0000
# 2 52.1892 130.0677 63.2903 0.0000 0.0000 0.0000
# 3 58.5776 63.2903 155.8173 0.0000 0.0000 0.0000
# 4 0.0000 0.0000 0.0000 50.3826 0.0000 0.0000
# 5 0.0000 0.0000 0.0000 0.0000 32.9892 0.0000
# 6 0.0000 0.0000 0.0000 0.0000 0.0000 25.7369
#
#
#
# Elastic Compliance Matrix: (Units=1/GPa)
#
#
# Indices 1 2 3 4 5 6 
#
# 1 0.007994 -0.002175 -0.002122 0.000000 0.000000 0.000000
# 2 -0.002175 0.010174 -0.003315 0.000000 0.000000 0.000000
# 3 -0.002122 -0.003315 0.008562 0.000000 0.000000 0.000000
# 4 0.000000 0.000000 0.000000 0.019848 0.000000 0.000000
# 5 0.000000 0.000000 0.000000 0.000000 0.030313 0.000000
# 6 0.000000 0.000000 0.000000 0.000000 0.000000 0.038855
#
#
# Mechanical properties :
#
#
# Convention : Reuss Voigt Hill
#
# Bulk Modulus (GPa) = 86.90765 87.64931 87.27848
# Shear Modulus (GPa) = 37.09087 39.59992 38.34540
#
# Velocity S-wave (km/s) = 3.78716 3.91316 3.85068
# Velocity P-wave (km/s) = 7.26151 7.36953 7.31572
#
# Compressibility (1/GPa) = 0.01150647
#
# Stress axis : x y z
#
# Youngs Moduli (GPa) = 125.09660 98.28953 116.79766
#
# Poissons Ratio (x) = 0.21379 0.24781
# Poissons Ratio (y) = 0.27210 0.38716
# Poissons Ratio (z) = 0.26542 0.32581
#
# Static dielectric constant tensor:
#      x y z
#    x 4.680990 0.000000 0.000000 
#    y 0.000000 6.109460 0.000000 
#    z 0.000000 0.000000 5.243860 
# 
# 
# High freq. dielectric constant tensor:
#      x y z
#    x 2.030330 0.000000 0.000000 
#    y 0.000000 2.045120 0.000000 
#    z 0.000000 0.000000 2.050760 
# 
# From -- ./inp_files/22909.got.cif
#   From: 2010.06.25/outbox.cif.g09.slc.cpg/sg52_12_cif.got.tgz:22909.got - 2010.06.26 19:32:48.
