data_PCOD8216964
_publ_section_title
;
Structure prediction by ZEFSAII (Michael W. Deem and Ramdas Pophale) SiO2 
 PCOD8216964
Probable space group: P N N A
;
_chemical_formula_sum "Si O2"
_cell_formula_units_Z 32
_cell_length_a 5.042549
_cell_length_b 19.498821
_cell_length_c 13.899600
_cell_angle_alpha 90.000000
_cell_angle_beta 90.000000
_cell_angle_gamma 90.000000
_cell_volume 1366.660939
_symmetry_space_group_name_H-M "P N N A"
_symmetry_group_IT_number 52
_symmetry_cell_setting 'orthorhombic'
loop_
_space_group_symop_operation_xyz
x,y,z
1/2-x,-y,z
x,1/2-y,1/2-z
1/2-x,1/2+y,1/2-z
-x,-y,-z
1/2+x,y,-z
-x,1/2+y,1/2+z
1/2+x,1/2-y,1/2+z
loop_
_atom_site_type_symbol
_atom_site_label
_atom_site_fract_x
_atom_site_fract_y
_atom_site_fract_z
Si Si1 0.428360 0.250000 0.750000
Si Si2 0.686960 0.426701 0.856976
Si Si3 0.806630 0.602902 0.263485
Si Si4 0.750000 0.000000 0.068264
Si Si5 0.694851 0.213449 0.556784
O O1 0.242216 0.315530 0.734900
O O2 0.625308 0.243992 0.659832
O O3 0.750000 0.500000 0.905277
O O4 0.397495 0.432027 0.810059
O O5 0.693084 0.369426 0.939645
O O6 0.894069 0.409175 0.771649
O O7 0.762792 0.568881 0.367488
O O8 0.500000 0.000000 0.000000
O O9 0.484325 0.238471 0.476234
#
# Coordination Sequence:
#
# PCOD8216964 Si02
#       5
#     4   8   8   4   8
#     4  10  26  46  72  96 144 192 230 298 366 416
#     4  11  21  41  69  94 133 177 222 282 349 418
#     4  11  23  42  67  98 131 188 236 281 357 431
#     4  12  24  40  66 104 138 180 240 302 356 424
#     4  11  25  42  66 102 136 175 234 282 343 430
#
# _framework density 23.414729000000001
#
# number of rings (size 3 to 8) (size 9 to 14) (size 15 to 20)
#    0.000    1.000    2.500    4.500    0.000   12.000 
#    0.000    0.000    0.000    0.000    0.000    0.000 
#    0.000    0.000    0.000    0.000    0.000    0.000 
#
# Total GULP energy -396906.832022 kJ/mol
# GULP energy per Si atom -12403.338501 kJ/mol
# Density = 2.336144 g / cm^3
# Si number density = 23.414729 Si / 1000 Ang^3
#
#
#
# Elastic Constant Matrix: (Units=GPa)
#
#
# Indices 1 2 3 4 5 6 
#
# 1 102.7178 5.5435 19.6697 0.0000 0.0000 0.0000
# 2 5.5435 104.5310 8.6860 0.0000 0.0000 0.0000
# 3 19.6697 8.6860 85.6864 0.0000 0.0000 0.0000
# 4 0.0000 0.0000 0.0000 41.4302 0.0000 0.0000
# 5 0.0000 0.0000 0.0000 0.0000 33.0317 0.0000
# 6 0.0000 0.0000 0.0000 0.0000 0.0000 21.9646
#
#
#
# Elastic Compliance Matrix: (Units=1/GPa)
#
#
# Indices 1 2 3 4 5 6 
#
# 1 0.010196 -0.000349 -0.002305 0.000000 0.000000 0.000000
# 2 -0.000349 0.009660 -0.000899 0.000000 0.000000 0.000000
# 3 -0.002305 -0.000899 0.012291 0.000000 0.000000 0.000000
# 4 0.000000 0.000000 0.000000 0.024137 0.000000 0.000000
# 5 0.000000 0.000000 0.000000 0.000000 0.030274 0.000000
# 6 0.000000 0.000000 0.000000 0.000000 0.000000 0.045528
#
#
# Mechanical properties :
#
#
# Convention : Reuss Voigt Hill
#
# Bulk Modulus (GPa) = 39.93675 40.08152 40.00914
# Shear Modulus (GPa) = 33.88957 36.55438 35.22198
#
# Velocity S-wave (km/s) = 3.80855 3.95545 3.88269
# Velocity P-wave (km/s) = 6.03600 6.16571 6.10120
#
# Compressibility (1/GPa) = 0.02503959
#
# Stress axis : x y z
#
# Youngs Moduli (GPa) = 98.08103 103.52223 81.36213
#
# Poissons Ratio (x) = 0.03615 0.18754
# Poissons Ratio (y) = 0.03425 0.07315
# Poissons Ratio (z) = 0.22608 0.09307
#
# Static dielectric constant tensor:
#      x y z
#    x 4.372040 0.000000 0.000000 
#    y 0.000000 4.526800 0.000000 
#    z 0.000000 0.000000 4.152380 
# 
# 
# High freq. dielectric constant tensor:
#      x y z
#    x 1.945470 0.000000 0.000000 
#    y 0.000000 1.927690 0.000000 
#    z 0.000000 0.000000 1.917620 
# 
# From -- ./inp_files/15969.got.cif
#   From: 2010.06.25/outbox.cif.g09.slc.cpg/sg52_8_cif.got.tgz:15969.got - 2010.06.26 19:32:48.
