data_PCOD8216375
_publ_section_title
;
Structure prediction by ZEFSAII (Michael W. Deem and Ramdas Pophale) SiO2 
 PCOD8216375
Probable space group: P N N A
;
_chemical_formula_sum "Si O2"
_cell_formula_units_Z 56
_cell_length_a 26.171643
_cell_length_b 5.231913
_cell_length_c 19.321229
_cell_angle_alpha 90.000000
_cell_angle_beta 90.000000
_cell_angle_gamma 90.000000
_cell_volume 2645.612593
_symmetry_space_group_name_H-M "P N N A"
_symmetry_group_IT_number 52
_symmetry_cell_setting 'orthorhombic'
loop_
_space_group_symop_operation_xyz
x,y,z
1/2-x,-y,z
x,1/2-y,1/2-z
1/2-x,1/2+y,1/2-z
-x,-y,-z
1/2+x,y,-z
-x,1/2+y,1/2+z
1/2+x,1/2-y,1/2+z
loop_
_atom_site_type_symbol
_atom_site_label
_atom_site_fract_x
_atom_site_fract_y
_atom_site_fract_z
Si Si1 0.941159 0.444032 0.499233
Si Si2 0.691365 0.025869 0.543536
Si Si3 0.118083 0.705413 0.380408
Si Si4 0.894208 0.929899 0.440757
Si Si5 0.803900 0.876608 0.823994
Si Si6 0.454552 0.994541 0.294447
Si Si7 0.429295 0.005516 0.705610
O O1 0.920341 0.483311 0.577999
O O2 0.919933 0.653184 0.446540
O O3 0.000000 0.500000 0.500000
O O4 0.927031 0.153883 0.477546
O O5 0.661749 0.114123 0.474429
O O6 0.683639 0.192574 0.612336
O O7 0.750000 0.000000 0.522373
O O8 0.664127 0.762368 0.565348
O O9 0.147573 0.568239 0.316934
O O10 0.086301 0.956870 0.355888
O O11 0.890951 0.991754 0.359372
O O12 0.797726 0.750000 0.750000
O O13 0.750000 0.000000 0.842754
O O14 0.453362 0.250000 0.250000
O O15 0.512353 0.954199 0.322076
O O16 0.436658 0.750000 0.250000
O O17 0.424216 0.750000 0.750000
O O18 0.412472 0.250000 0.750000
#
# Coordination Sequence:
#
# PCOD8216375 Si02
#       7
#     8   8   8   8   8   8   8
#     4  11  23  40  64  95 132 171 217 272 327 396
#     4  11  24  44  64  90 126 169 224 281 332 390
#     4  11  25  40  59  88 128 170 221 278 325 390
#     4  11  23  41  68  97 127 174 219 267 337 400
#     4  12  26  43  63  87 125 175 231 282 336 380
#     4  10  24  38  57  88 128 173 214 262 322 387
#     4  10  21  42  66  96 135 171 212 263 326 405
#
# _framework density 21.167121000000002
#
# number of rings (size 3 to 8) (size 9 to 14) (size 15 to 20)
#    0.000    1.143    2.857    2.571    4.000    3.429 
#    0.000    0.000    0.000    0.857    0.000    0.000 
#    0.000    0.000    0.000    0.000    0.000    0.000 
#
# Total GULP energy -694083.608440 kJ/mol
# GULP energy per Si atom -12394.350151 kJ/mol
# Density = 2.111894 g / cm^3
# Si number density = 21.167121 Si / 1000 Ang^3
#
#
#
# Elastic Constant Matrix: (Units=GPa)
#
#
# Indices 1 2 3 4 5 6 
#
# 1 137.9788 32.6141 71.1480 0.0000 0.0000 0.0000
# 2 32.6141 99.4444 32.2173 0.0000 0.0000 0.0000
# 3 71.1480 32.2173 117.6389 0.0000 0.0000 0.0000
# 4 0.0000 0.0000 0.0000 33.2078 0.0000 0.0000
# 5 0.0000 0.0000 0.0000 0.0000 32.0783 0.0000
# 6 0.0000 0.0000 0.0000 0.0000 0.0000 19.4774
#
#
#
# Elastic Compliance Matrix: (Units=1/GPa)
#
#
# Indices 1 2 3 4 5 6 
#
# 1 0.010747 -0.001557 -0.006074 0.000000 0.000000 0.000000
# 2 -0.001557 0.011261 -0.002142 0.000000 0.000000 0.000000
# 3 -0.006074 -0.002142 0.012761 0.000000 0.000000 0.000000
# 4 0.000000 0.000000 0.000000 0.030113 0.000000 0.000000
# 5 0.000000 0.000000 0.000000 0.000000 0.031174 0.000000
# 6 0.000000 0.000000 0.000000 0.000000 0.000000 0.051341
#
#
# Mechanical properties :
#
#
# Convention : Reuss Voigt Hill
#
# Bulk Modulus (GPa) = 65.69081 69.66901 67.67991
# Shear Modulus (GPa) = 29.06692 31.55822 30.31257
#
# Velocity S-wave (km/s) = 3.70971 3.86542 3.78836
# Velocity P-wave (km/s) = 7.03214 7.27373 7.15395
#
# Compressibility (1/GPa) = 0.01522283
#
# Stress axis : x y z
#
# Youngs Moduli (GPa) = 93.04642 88.80577 78.36656
#
# Poissons Ratio (x) = 0.13828 0.47596
# Poissons Ratio (y) = 0.14488 0.16787
# Poissons Ratio (z) = 0.56512 0.19024
#
# Static dielectric constant tensor:
#      x y z
#    x 3.500630 0.000000 0.000000 
#    y 0.000000 3.950480 0.000000 
#    z 0.000000 0.000000 3.845730 
# 
# 
# High freq. dielectric constant tensor:
#      x y z
#    x 1.822490 0.000000 0.000000 
#    y 0.000000 1.841600 0.000000 
#    z 0.000000 0.000000 1.815190 
# 
# From -- ./inp_files/38152.got.cif
#   From: 2010.06.25/outbox.cif.g09.slc.cpg/sg52_20_cif.got.tgz:38152.got - 2010.06.26 19:32:48.
