data_PCOD8216346
_publ_section_title
;
Structure prediction by ZEFSAII (Michael W. Deem and Ramdas Pophale) SiO2 
 PCOD8216346
Probable space group: P N N A
;
_chemical_formula_sum "Si O2"
_cell_formula_units_Z 64
_cell_length_a 10.189894
_cell_length_b 29.828931
_cell_length_c 10.054238
_cell_angle_alpha 90.000000
_cell_angle_beta 90.000000
_cell_angle_gamma 90.000000
_cell_volume 3056.022288
_symmetry_space_group_name_H-M "P N N A"
_symmetry_group_IT_number 52
_symmetry_cell_setting 'orthorhombic'
loop_
_space_group_symop_operation_xyz
x,y,z
1/2-x,-y,z
x,1/2-y,1/2-z
1/2-x,1/2+y,1/2-z
-x,-y,-z
1/2+x,y,-z
-x,1/2+y,1/2+z
1/2+x,1/2-y,1/2+z
loop_
_atom_site_type_symbol
_atom_site_label
_atom_site_fract_x
_atom_site_fract_y
_atom_site_fract_z
Si Si1 0.197694 0.809785 0.501401
Si Si2 0.318135 0.046653 0.168825
Si Si3 0.051062 0.256029 0.907077
Si Si4 0.117500 0.528458 0.055880
Si Si5 0.653153 0.892948 0.063247
Si Si6 0.097304 0.160182 0.021028
Si Si7 0.093475 0.891396 0.637037
Si Si8 0.178851 0.130707 0.291846
O O1 0.335124 0.789877 0.549229
O O2 0.086907 0.772457 0.470629
O O3 0.157582 0.842585 0.620865
O O4 0.211812 0.841544 0.371513
O O5 0.421299 0.040668 0.291031
O O6 0.221872 0.085192 0.221255
O O7 0.250000 0.000000 0.137335
O O8 0.373293 0.062976 0.027361
O O9 0.035581 0.250000 0.750000
O O10 0.099580 0.209217 0.962599
O O11 0.250000 0.500000 0.058174
O O12 0.146312 0.572731 0.969350
O O13 0.000000 0.500000 0.000000
O O14 0.798849 0.872172 0.053812
O O15 0.623390 0.908099 0.213662
O O16 0.550357 0.857459 0.004257
O O17 0.128765 0.164190 0.177254
O O18 0.938679 0.884564 0.611270
#
# Coordination Sequence:
#
# PCOD8216346 Si02
#       8
#     8   8   8   8   8   8   8   8
#     4  12  25  44  67  98 134 180 224 288 336 420
#     4  10  21  41  68  97 135 177 225 269 336 416
#     4  12  28  42  68 103 135 175 239 282 342 417
#     4  11  24  39  63  96 130 173 218 280 332 393
#     4  10  23  42  69  94 132 180 212 279 341 401
#     4  10  23  44  64  94 135 171 219 275 340 399
#     4  11  22  43  66  95 134 166 229 276 341 393
#     4  10  22  44  67  94 132 183 215 269 356 401
#
# _framework density 20.942254999999999
#
# number of rings (size 3 to 8) (size 9 to 14) (size 15 to 20)
#    0.000    1.250    2.500    3.000    5.250    2.500 
#    0.000    8.750    0.000    0.000    0.000    0.000 
#    0.000    0.000    0.000    0.000    0.000    0.000 
#
# Total GULP energy -793369.308403 kJ/mol
# GULP energy per Si atom -12396.395444 kJ/mol
# Density = 2.089459 g / cm^3
# Si number density = 20.942255 Si / 1000 Ang^3
#
#
#
# Elastic Constant Matrix: (Units=GPa)
#
#
# Indices 1 2 3 4 5 6 
#
# 1 73.9078 8.7219 21.0321 0.0000 0.0000 0.0000
# 2 8.7219 96.9713 49.6468 0.0000 0.0000 0.0000
# 3 21.0321 49.6468 121.5890 0.0000 0.0000 0.0000
# 4 0.0000 0.0000 0.0000 40.8484 0.0000 0.0000
# 5 0.0000 0.0000 0.0000 0.0000 31.1164 0.0000
# 6 0.0000 0.0000 0.0000 0.0000 0.0000 31.8705
#
#
#
# Elastic Compliance Matrix: (Units=1/GPa)
#
#
# Indices 1 2 3 4 5 6 
#
# 1 0.014231 -0.000025 -0.002451 0.000000 0.000000 0.000000
# 2 -0.000025 0.013038 -0.005319 0.000000 0.000000 0.000000
# 3 -0.002451 -0.005319 0.010820 0.000000 0.000000 0.000000
# 4 0.000000 0.000000 0.000000 0.024481 0.000000 0.000000
# 5 0.000000 0.000000 0.000000 0.000000 0.032137 0.000000
# 6 0.000000 0.000000 0.000000 0.000000 0.000000 0.031377
#
#
# Mechanical properties :
#
#
# Convention : Reuss Voigt Hill
#
# Bulk Modulus (GPa) = 44.44841 50.14108 47.29475
# Shear Modulus (GPa) = 33.51767 34.97154 34.24460
#
# Velocity S-wave (km/s) = 4.00494 4.09088 4.04814
# Velocity P-wave (km/s) = 6.53119 6.80502 6.66951
#
# Compressibility (1/GPa) = 0.02249799
#
# Stress axis : x y z
#
# Youngs Moduli (GPa) = 70.26946 76.69941 92.41770
#
# Poissons Ratio (x) = 0.00191 0.22656
# Poissons Ratio (y) = 0.00175 0.49160
# Poissons Ratio (z) = 0.17226 0.40799
#
# Static dielectric constant tensor:
#      x y z
#    x 3.722320 0.000000 0.000000 
#    y 0.000000 4.089440 0.000000 
#    z 0.000000 0.000000 4.167260 
# 
# 
# High freq. dielectric constant tensor:
#      x y z
#    x 1.816910 0.000000 0.000000 
#    y 0.000000 1.828830 0.000000 
#    z 0.000000 0.000000 1.831230 
# 
# From -- ./inp_files/9132.got.cif
#   From: 2010.06.25/outbox.cif.g09.slc.cpg/sg52_5_cif.got.tgz:9132.got - 2010.06.26 19:32:48.
