data_PCOD8216986
_publ_section_title
;
Structure prediction by ZEFSAII (Michael W. Deem and Ramdas Pophale) SiO2 
 PCOD8216986
Probable space group: P N N A
;
_chemical_formula_sum "Si O2"
_cell_formula_units_Z 48
_cell_length_a 8.628412
_cell_length_b 17.030539
_cell_length_c 19.323191
_cell_angle_alpha 90.000000
_cell_angle_beta 90.000000
_cell_angle_gamma 90.000000
_cell_volume 2839.475423
_symmetry_space_group_name_H-M "P N N A"
_symmetry_group_IT_number 52
_symmetry_cell_setting 'orthorhombic'
loop_
_space_group_symop_operation_xyz
x,y,z
1/2-x,-y,z
x,1/2-y,1/2-z
1/2-x,1/2+y,1/2-z
-x,-y,-z
1/2+x,y,-z
-x,1/2+y,1/2+z
1/2+x,1/2-y,1/2+z
loop_
_atom_site_type_symbol
_atom_site_label
_atom_site_fract_x
_atom_site_fract_y
_atom_site_fract_z
Si Si1 0.062590 0.636018 0.575042
Si Si2 0.844801 0.068711 0.733524
Si Si3 0.926464 0.480236 0.625413
Si Si4 0.051065 0.780660 0.326039
Si Si5 0.921442 0.670748 0.433151
Si Si6 0.856151 0.697199 0.691130
O O1 0.244419 0.646082 0.568926
O O2 0.032369 0.543142 0.584979
O O3 0.974988 0.679189 0.512078
O O4 0.997821 0.679046 0.641963
O O5 0.953075 0.024929 0.791086
O O6 0.940931 0.123591 0.680011
O O7 0.721397 0.118637 0.778714
O O8 0.750000 0.000000 0.692740
O O9 0.750000 0.500000 0.605783
O O10 0.966127 0.394498 0.597979
O O11 0.997925 0.750000 0.250000
O O12 0.221746 0.748905 0.345031
O O13 0.939258 0.751306 0.387831
O O14 0.934559 0.750000 0.750000
#
# Coordination Sequence:
#
# PCOD8216986 Si02
#       6
#     8   8   8   8   8   8
#     4  12  23  33  50  75 108 141 177 216 267 317
#     4   9  15  30  60  75 102 133 183 212 263 314
#     4  11  18  34  52  72 107 140 175 208 256 324
#     4   9  17  33  54  73 103 141 180 215 256 319
#     4  12  23  34  48  76 107 146 176 215 262 318
#     4   9  17  33  52  74 100 137 171 215 259 312
#
# _framework density 16.904530999999999
#
# number of rings (size 3 to 8) (size 9 to 14) (size 15 to 20)
#    0.000    2.000    6.667    3.000    0.000    0.667 
#    0.000    0.000    0.000    0.000    0.000   10.500 
#    0.000    0.000    0.000    0.000    0.000    0.000 
#
# Total GULP energy -594683.127069 kJ/mol
# GULP energy per Si atom -12389.231814 kJ/mol
# Density = 1.686606 g / cm^3
# Si number density = 16.904531 Si / 1000 Ang^3
#
#
#
# Elastic Constant Matrix: (Units=GPa)
#
#
# Indices 1 2 3 4 5 6 
#
# 1 86.5173 25.3299 28.4497 0.0000 0.0000 0.0000
# 2 25.3299 76.3674 43.5425 0.0000 0.0000 0.0000
# 3 28.4497 43.5425 73.0807 0.0000 0.0000 0.0000
# 4 0.0000 0.0000 0.0000 28.5285 0.0000 0.0000
# 5 0.0000 0.0000 0.0000 0.0000 17.1332 0.0000
# 6 0.0000 0.0000 0.0000 0.0000 0.0000 29.0413
#
#
#
# Elastic Compliance Matrix: (Units=1/GPa)
#
#
# Indices 1 2 3 4 5 6 
#
# 1 0.013504 -0.002244 -0.003920 0.000000 0.000000 0.000000
# 2 -0.002244 0.020205 -0.011165 0.000000 0.000000 0.000000
# 3 -0.003920 -0.011165 0.021862 0.000000 0.000000 0.000000
# 4 0.000000 0.000000 0.000000 0.035053 0.000000 0.000000
# 5 0.000000 0.000000 0.000000 0.000000 0.058366 0.000000
# 6 0.000000 0.000000 0.000000 0.000000 0.000000 0.034434
#
#
# Mechanical properties :
#
#
# Convention : Reuss Voigt Hill
#
# Bulk Modulus (GPa) = 47.81693 47.84550 47.83122
# Shear Modulus (GPa) = 22.21711 24.18350 23.20031
#
# Velocity S-wave (km/s) = 3.62922 3.78642 3.70865
# Velocity P-wave (km/s) = 6.77566 6.89063 6.83338
#
# Compressibility (1/GPa) = 0.02091310
#
# Stress axis : x y z
#
# Youngs Moduli (GPa) = 74.04963 49.49352 45.74234
#
# Poissons Ratio (x) = 0.11107 0.17932
# Poissons Ratio (y) = 0.16617 0.51070
# Poissons Ratio (z) = 0.29028 0.55258
#
# Static dielectric constant tensor:
#      x y z
#    x 2.934320 0.000000 0.000000 
#    y 0.000000 3.401600 0.000000 
#    z 0.000000 0.000000 3.195180 
# 
# 
# High freq. dielectric constant tensor:
#      x y z
#    x 1.631470 0.000000 0.000000 
#    y 0.000000 1.647870 0.000000 
#    z 0.000000 0.000000 1.629550 
# 
# From -- ./inp_files/31511.got.cif
#   From: 2010.06.25/outbox.cif.g09.slc.cpg/sg52_16_cif.got.tgz:31511.got - 2010.06.26 19:32:48.
