data_PCOD8216582
_publ_section_title
;
Structure prediction by ZEFSAII (Michael W. Deem and Ramdas Pophale) SiO2 
 PCOD8216582
Probable space group: P N N A
;
_chemical_formula_sum "Si O2"
_cell_formula_units_Z 40
_cell_length_a 30.600991
_cell_length_b 5.178757
_cell_length_c 12.635422
_cell_angle_alpha 90.000000
_cell_angle_beta 90.000000
_cell_angle_gamma 90.000000
_cell_volume 2002.399719
_symmetry_space_group_name_H-M "P N N A"
_symmetry_group_IT_number 52
_symmetry_cell_setting 'orthorhombic'
loop_
_space_group_symop_operation_xyz
x,y,z
1/2-x,-y,z
x,1/2-y,1/2-z
1/2-x,1/2+y,1/2-z
-x,-y,-z
1/2+x,y,-z
-x,1/2+y,1/2+z
1/2+x,1/2-y,1/2+z
loop_
_atom_site_type_symbol
_atom_site_label
_atom_site_fract_x
_atom_site_fract_y
_atom_site_fract_z
Si Si1 0.380406 0.696475 0.522883
Si Si2 0.468663 0.876115 0.084803
Si Si3 0.075777 0.750000 0.250000
Si Si4 0.853453 0.327680 0.912803
Si Si5 0.029541 0.750000 0.750000
Si Si6 0.720506 0.750000 0.750000
Si Si7 0.588106 0.250000 0.250000
O O1 0.428433 0.757316 0.474609
O O2 0.366469 0.407178 0.491168
O O3 0.380666 0.750688 0.647846
O O4 0.346556 0.908508 0.478112
O O5 0.499585 0.675838 0.147723
O O6 0.453890 0.066824 0.178909
O O7 0.500000 0.000000 0.000000
O O8 0.108344 0.599207 0.170597
O O9 0.808677 0.256831 0.855298
O O10 0.059080 0.501761 0.732591
O O11 0.750000 0.500000 0.742623
#
# Coordination Sequence:
#
# PCOD8216582 Si02
#       7
#     8   8   4   8   4   4   4
#     4  11  23  40  57  84 115 170 208 254 303 363
#     4  11  22  36  55  78 112 162 214 278 321 350
#     4   9  21  38  52  82 111 164 200 245 308 376
#     4  10  22  41  64  86 129 158 190 229 313 383
#     4  12  24  38  51  78 109 151 210 288 322 343
#     4  11  22  40  72 112 132 146 182 238 294 380
#     4  12  25  38  57  80 112 153 222 263 294 345
#
# _framework density 19.976030999999999
#
# number of rings (size 3 to 8) (size 9 to 14) (size 15 to 20)
#    0.000    1.200    2.000    4.200    2.800    8.000 
#    0.000    0.000    0.000    0.000    0.000   14.000 
#    0.000    0.000    0.000    0.000    0.000    0.000 
#
# Total GULP energy -495804.528101 kJ/mol
# GULP energy per Si atom -12395.113203 kJ/mol
# Density = 1.993056 g / cm^3
# Si number density = 19.976031 Si / 1000 Ang^3
#
#
#
# Elastic Constant Matrix: (Units=GPa)
#
#
# Indices 1 2 3 4 5 6 
#
# 1 76.4066 25.5833 40.5269 0.0000 0.0000 0.0000
# 2 25.5833 100.1681 33.8753 0.0000 0.0000 0.0000
# 3 40.5269 33.8753 144.5255 0.0000 0.0000 0.0000
# 4 0.0000 0.0000 0.0000 34.9720 0.0000 0.0000
# 5 0.0000 0.0000 0.0000 0.0000 15.0665 0.0000
# 6 0.0000 0.0000 0.0000 0.0000 0.0000 13.2282
#
#
#
# Elastic Compliance Matrix: (Units=1/GPa)
#
#
# Indices 1 2 3 4 5 6 
#
# 1 0.016068 -0.002802 -0.003849 0.000000 0.000000 0.000000
# 2 -0.002802 0.011331 -0.001870 0.000000 0.000000 0.000000
# 3 -0.003849 -0.001870 0.008437 0.000000 0.000000 0.000000
# 4 0.000000 0.000000 0.000000 0.028594 0.000000 0.000000
# 5 0.000000 0.000000 0.000000 0.000000 0.066373 0.000000
# 6 0.000000 0.000000 0.000000 0.000000 0.000000 0.075596
#
#
# Mechanical properties :
#
#
# Convention : Reuss Voigt Hill
#
# Bulk Modulus (GPa) = 53.20980 57.89679 55.55330
# Shear Modulus (GPa) = 21.76700 27.39430 24.58065
#
# Velocity S-wave (km/s) = 3.30457 3.70720 3.51166
# Velocity P-wave (km/s) = 6.42300 6.88263 6.65678
#
# Compressibility (1/GPa) = 0.01879353
#
# Stress axis : x y z
#
# Youngs Moduli (GPa) = 62.23733 88.25064 118.52846
#
# Poissons Ratio (x) = 0.24729 0.45619
# Poissons Ratio (y) = 0.17440 0.22167
# Poissons Ratio (z) = 0.23954 0.16505
#
# Static dielectric constant tensor:
#      x y z
#    x 3.424410 0.000000 0.000000 
#    y 0.000000 3.531800 0.000000 
#    z 0.000000 0.000000 4.313300 
# 
# 
# High freq. dielectric constant tensor:
#      x y z
#    x 1.745250 0.000000 0.000000 
#    y 0.000000 1.782430 0.000000 
#    z 0.000000 0.000000 1.794180 
# 
# From -- ./inp_files/22720.got.cif
#   From: 2010.06.25/outbox.cif.g09.slc.cpg/sg52_12_cif.got.tgz:22720.got - 2010.06.26 19:32:48.
