data_PCOD8216332
_publ_section_title
;
Structure prediction by ZEFSAII (Michael W. Deem and Ramdas Pophale) SiO2 
 PCOD8216332
Probable space group: P N N A
;
_chemical_formula_sum "Si O2"
_cell_formula_units_Z 48
_cell_length_a 11.514158
_cell_length_b 18.254736
_cell_length_c 11.368186
_cell_angle_alpha 90.000000
_cell_angle_beta 90.000000
_cell_angle_gamma 90.000000
_cell_volume 2389.455308
_symmetry_space_group_name_H-M "P N N A"
_symmetry_group_IT_number 52
_symmetry_cell_setting 'orthorhombic'
loop_
_space_group_symop_operation_xyz
x,y,z
1/2-x,-y,z
x,1/2-y,1/2-z
1/2-x,1/2+y,1/2-z
-x,-y,-z
1/2+x,y,-z
-x,1/2+y,1/2+z
1/2+x,1/2-y,1/2+z
loop_
_atom_site_type_symbol
_atom_site_label
_atom_site_fract_x
_atom_site_fract_y
_atom_site_fract_z
Si Si1 0.184184 0.925195 0.087665
Si Si2 0.947534 0.324716 0.178659
Si Si3 0.019697 0.142514 0.809112
Si Si4 0.076451 0.795458 0.406206
Si Si5 0.306053 0.829813 0.272212
Si Si6 0.271558 0.084129 0.823893
O O1 0.055809 0.927269 0.146400
O O2 0.260930 0.863400 0.150870
O O3 0.250000 0.000000 0.111819
O O4 0.166536 0.909494 0.950048
O O5 0.930051 0.250000 0.250000
O O6 0.850658 0.381574 0.222861
O O7 0.072713 0.367039 0.187026
O O8 0.929869 0.306927 0.042989
O O9 0.011306 0.152672 0.667883
O O10 0.957878 0.211942 0.873682
O O11 0.152728 0.129854 0.840171
O O12 0.205674 0.821306 0.369055
O O13 0.356352 0.750000 0.250000
O O14 0.250000 0.000000 0.788471
#
# Coordination Sequence:
#
# PCOD8216332 Si02
#       6
#     8   8   8   8   8   8
#     4  10  22  39  68  91 123 172 213 260 318 378
#     4  11  26  37  66  95 126 164 213 269 318 377
#     4  10  22  41  67  89 131 166 214 265 325 384
#     4  10  21  42  65  93 120 170 209 267 320 375
#     4  10  21  41  62  91 127 155 213 264 313 379
#     4  11  27  42  62  99 135 169 215 263 324 384
#
# _framework density 20.088260999999999
#
# number of rings (size 3 to 8) (size 9 to 14) (size 15 to 20)
#    0.000    1.667    3.333    1.000   14.000    1.333 
#    0.000    4.167    0.000    0.000    0.000    0.000 
#    0.000    0.000    0.000    0.000    0.000    0.000 
#
# Total GULP energy -594755.820104 kJ/mol
# GULP energy per Si atom -12390.746252 kJ/mol
# Density = 2.004254 g / cm^3
# Si number density = 20.088261 Si / 1000 Ang^3
#
#
#
# Elastic Constant Matrix: (Units=GPa)
#
#
# Indices 1 2 3 4 5 6 
#
# 1 116.9667 27.4483 24.8956 0.0000 0.0000 0.0000
# 2 27.4483 65.2299 41.3372 0.0000 0.0000 0.0000
# 3 24.8956 41.3372 144.5283 0.0000 0.0000 0.0000
# 4 0.0000 0.0000 0.0000 27.6767 0.0000 0.0000
# 5 0.0000 0.0000 0.0000 0.0000 31.4683 0.0000
# 6 0.0000 0.0000 0.0000 0.0000 0.0000 21.7245
#
#
#
# Elastic Compliance Matrix: (Units=1/GPa)
#
#
# Indices 1 2 3 4 5 6 
#
# 1 0.009529 -0.003627 -0.000604 0.000000 0.000000 0.000000
# 2 -0.003627 0.020105 -0.005125 0.000000 0.000000 0.000000
# 3 -0.000604 -0.005125 0.008489 0.000000 0.000000 0.000000
# 4 0.000000 0.000000 0.000000 0.036131 0.000000 0.000000
# 5 0.000000 0.000000 0.000000 0.000000 0.031778 0.000000
# 6 0.000000 0.000000 0.000000 0.000000 0.000000 0.046031
#
#
# Mechanical properties :
#
#
# Convention : Reuss Voigt Hill
#
# Bulk Modulus (GPa) = 51.52019 57.12077 54.32048
# Shear Modulus (GPa) = 28.20933 31.71017 29.95975
#
# Velocity S-wave (km/s) = 3.75142 3.97740 3.86606
# Velocity P-wave (km/s) = 6.66835 7.04199 6.85771
#
# Compressibility (1/GPa) = 0.01940987
#
# Stress axis : x y z
#
# Youngs Moduli (GPa) = 104.94114 49.73959 117.79853
#
# Poissons Ratio (x) = 0.18041 0.07116
# Poissons Ratio (y) = 0.38062 0.60377
# Poissons Ratio (z) = 0.06339 0.25494
#
# Static dielectric constant tensor:
#      x y z
#    x 3.927540 0.000000 0.000000 
#    y 0.000000 3.628460 0.000000 
#    z 0.000000 0.000000 3.624610 
# 
# 
# High freq. dielectric constant tensor:
#      x y z
#    x 1.802400 0.000000 0.000000 
#    y 0.000000 1.767000 0.000000 
#    z 0.000000 0.000000 1.780330 
# 
# From -- ./inp_files/18192.got.cif
#   From: 2010.06.25/outbox.cif.g09.slc.cpg/sg52_10_cif.got.tgz:18192.got - 2010.06.26 19:32:48.
