data_PCOD8216903
_publ_section_title
;
Structure prediction by ZEFSAII (Michael W. Deem and Ramdas Pophale) SiO2 
 PCOD8216903
Probable space group: P N N A
;
_chemical_formula_sum "Si O2"
_cell_formula_units_Z 64
_cell_length_a 18.163568
_cell_length_b 11.812578
_cell_length_c 14.088388
_cell_angle_alpha 90.000000
_cell_angle_beta 90.000000
_cell_angle_gamma 90.000000
_cell_volume 3022.784295
_symmetry_space_group_name_H-M "P N N A"
_symmetry_group_IT_number 52
_symmetry_cell_setting 'orthorhombic'
loop_
_space_group_symop_operation_xyz
x,y,z
1/2-x,-y,z
x,1/2-y,1/2-z
1/2-x,1/2+y,1/2-z
-x,-y,-z
1/2+x,y,-z
-x,1/2+y,1/2+z
1/2+x,1/2-y,1/2+z
loop_
_atom_site_type_symbol
_atom_site_label
_atom_site_fract_x
_atom_site_fract_y
_atom_site_fract_z
Si Si1 0.331208 0.502805 0.972223
Si Si2 0.332625 0.247828 0.932614
Si Si3 0.428701 0.890694 0.940942
Si Si4 0.174523 0.284354 0.855591
Si Si5 0.038889 0.991395 0.204498
Si Si6 0.831198 0.450240 0.566992
Si Si7 0.041246 0.448961 0.090563
Si Si8 0.487578 0.300651 0.613371
O O1 0.250000 0.500000 0.013233
O O2 0.359133 0.376573 0.951137
O O3 0.333729 0.581286 0.876787
O O4 0.374424 0.559518 0.058906
O O5 0.257693 0.242450 0.873365
O O6 0.399317 0.193518 0.872094
O O7 0.321949 0.179361 0.031286
O O8 0.382956 0.777100 0.923974
O O9 0.468702 0.932633 0.845328
O O10 0.494253 0.863419 0.013978
O O11 0.370984 0.981195 0.982262
O O12 0.152973 0.250000 0.750000
O O13 0.117661 0.952499 0.161385
O O14 0.035269 0.967807 0.317686
O O15 0.029039 0.127545 0.194081
O O16 0.750000 0.500000 0.589919
O O17 0.014200 0.326270 0.117712
O O18 0.000000 0.500000 0.000000
#
# Coordination Sequence:
#
# PCOD8216903 Si02
#       8
#     8   8   8   8   8   8   8   8
#     4  10  24  45  64  88 133 175 217 269 327 390
#     4  11  21  43  65  94 133 174 213 268 327 399
#     4  11  21  39  67  96 134 163 216 277 327 384
#     4  11  25  41  64  97 130 177 220 272 335 398
#     4  11  25  39  66 104 130 166 227 279 322 395
#     4  11  21  42  69  98 131 172 217 268 334 390
#     4  12  25  42  64  95 130 179 220 269 336 392
#     4  11  21  42  66  93 133 172 217 273 329 395
#
# _framework density 21.172533000000001
#
# number of rings (size 3 to 8) (size 9 to 14) (size 15 to 20)
#    0.000    1.000    6.250    1.125    1.750    1.500 
#    6.750    1.875    0.000    0.000    0.000    0.000 
#    0.000    0.000    0.000    0.000    0.000    0.000 
#
# Total GULP energy -793381.888003 kJ/mol
# GULP energy per Si atom -12396.592000 kJ/mol
# Density = 2.112434 g / cm^3
# Si number density = 21.172533 Si / 1000 Ang^3
#
#
#
# Elastic Constant Matrix: (Units=GPa)
#
#
# Indices 1 2 3 4 5 6 
#
# 1 116.3856 27.5992 37.1210 0.0000 0.0000 0.0000
# 2 27.5992 107.2841 32.6326 0.0000 0.0000 0.0000
# 3 37.1210 32.6326 130.1894 0.0000 0.0000 0.0000
# 4 0.0000 0.0000 0.0000 17.9954 0.0000 0.0000
# 5 0.0000 0.0000 0.0000 0.0000 18.9019 0.0000
# 6 0.0000 0.0000 0.0000 0.0000 0.0000 30.7929
#
#
#
# Elastic Compliance Matrix: (Units=1/GPa)
#
#
# Indices 1 2 3 4 5 6 
#
# 1 0.009763 -0.001802 -0.002332 0.000000 0.000000 0.000000
# 2 -0.001802 0.010423 -0.002099 0.000000 0.000000 0.000000
# 3 -0.002332 -0.002099 0.008872 0.000000 0.000000 0.000000
# 4 0.000000 0.000000 0.000000 0.055570 0.000000 0.000000
# 5 0.000000 0.000000 0.000000 0.000000 0.052905 0.000000
# 6 0.000000 0.000000 0.000000 0.000000 0.000000 0.032475
#
#
# Mechanical properties :
#
#
# Convention : Reuss Voigt Hill
#
# Bulk Modulus (GPa) = 60.26875 60.95165 60.61020
# Shear Modulus (GPa) = 26.59507 30.63848 28.61678
#
# Velocity S-wave (km/s) = 3.54801 3.80819 3.68040
# Velocity P-wave (km/s) = 6.73141 6.94168 6.83735
#
# Compressibility (1/GPa) = 0.01659235
#
# Stress axis : x y z
#
# Youngs Moduli (GPa) = 102.42413 95.94119 112.71281
#
# Poissons Ratio (x) = 0.17292 0.26285
# Poissons Ratio (y) = 0.18460 0.23655
# Poissons Ratio (z) = 0.23886 0.20135
#
# Static dielectric constant tensor:
#      x y z
#    x 4.152460 0.000000 0.000000 
#    y 0.000000 4.053990 0.000000 
#    z 0.000000 0.000000 3.672210 
# 
# 
# High freq. dielectric constant tensor:
#      x y z
#    x 1.847810 0.000000 0.000000 
#    y 0.000000 1.837250 0.000000 
#    z 0.000000 0.000000 1.803470 
# 
# From -- ./inp_files/28309.got.cif
#   From: 2010.06.25/outbox.cif.g09.slc.cpg/sg52_15_cif.got.tgz:28309.got - 2010.06.26 19:32:48.
