data_PCOD8216339
_publ_section_title
;
Structure prediction by ZEFSAII (Michael W. Deem and Ramdas Pophale) SiO2 
 PCOD8216339
Probable space group: P N N A
;
_chemical_formula_sum "Si O2"
_cell_formula_units_Z 32
_cell_length_a 23.777879
_cell_length_b 8.290850
_cell_length_c 7.612086
_cell_angle_alpha 90.000000
_cell_angle_beta 90.000000
_cell_angle_gamma 90.000000
_cell_volume 1500.637713
_symmetry_space_group_name_H-M "P N N A"
_symmetry_group_IT_number 52
_symmetry_cell_setting 'orthorhombic'
loop_
_space_group_symop_operation_xyz
x,y,z
1/2-x,-y,z
x,1/2-y,1/2-z
1/2-x,1/2+y,1/2-z
-x,-y,-z
1/2+x,y,-z
-x,1/2+y,1/2+z
1/2+x,1/2-y,1/2+z
loop_
_atom_site_type_symbol
_atom_site_label
_atom_site_fract_x
_atom_site_fract_y
_atom_site_fract_z
Si Si1 0.373058 0.022391 0.636313
Si Si2 0.712177 0.349591 0.923177
Si Si3 0.219716 0.750000 0.750000
Si Si4 0.452002 0.750000 0.750000
Si Si5 0.980163 0.177505 0.437077
O O1 0.349310 0.911642 0.479978
O O2 0.413560 0.909989 0.751752
O O3 0.319696 0.090299 0.745981
O O4 0.411507 0.170865 0.563333
O O5 0.750000 0.500000 0.871458
O O6 0.702244 0.250000 0.750000
O O7 0.741326 0.243709 0.077261
O O8 0.492544 0.710314 0.585101
O O9 0.001304 0.250000 0.250000
O O10 0.000000 0.000000 0.500000
#
# Coordination Sequence:
#
# PCOD8216339 Si02
#       5
#     8   8   4   4   8
#     4  10  21  41  65  91 128 168 214 265 329 389
#     4  10  23  41  64  94 126 165 215 269 326 399
#     4  10  21  44  62  90 130 164 211 270 328 392
#     4  10  23  40  66  94 126 178 211 270 332 390
#     4  10  22  42  62  93 130 166 218 273 319 402
#
# _framework density 21.324268
#
# number of rings (size 3 to 8) (size 9 to 14) (size 15 to 20)
#    0.000    2.000    1.250    0.750    0.000   13.000 
#    9.000    5.000    0.000    0.000    0.000    0.000 
#    0.000    0.000    0.000    0.000    0.000    0.000 
#
# Total GULP energy -396474.907442 kJ/mol
# GULP energy per Si atom -12389.840858 kJ/mol
# Density = 2.127573 g / cm^3
# Si number density = 21.324268 Si / 1000 Ang^3
#
#
#
# Elastic Constant Matrix: (Units=GPa)
#
#
# Indices 1 2 3 4 5 6 
#
# 1 108.0059 31.5832 67.4877 0.0000 0.0000 0.0000
# 2 31.5832 75.7505 65.1962 0.0000 0.0000 0.0000
# 3 67.4877 65.1962 181.8487 0.0000 0.0000 0.0000
# 4 0.0000 0.0000 0.0000 46.2524 0.0000 0.0000
# 5 0.0000 0.0000 0.0000 0.0000 176.3945 0.0000
# 6 0.0000 0.0000 0.0000 0.0000 0.0000 37.4806
#
#
#
# Elastic Compliance Matrix: (Units=1/GPa)
#
#
# Indices 1 2 3 4 5 6 
#
# 1 0.012207 -0.001722 -0.003913 0.000000 0.000000 0.000000
# 2 -0.001722 0.019335 -0.006293 0.000000 0.000000 0.000000
# 3 -0.003913 -0.006293 0.009208 0.000000 0.000000 0.000000
# 4 0.000000 0.000000 0.000000 0.021621 0.000000 0.000000
# 5 0.000000 0.000000 0.000000 0.000000 0.005669 0.000000
# 6 0.000000 0.000000 0.000000 0.000000 0.000000 0.026681
#
#
# Mechanical properties :
#
#
# Convention : Reuss Voigt Hill
#
# Bulk Modulus (GPa) = 59.19176 77.12658 68.15917
# Shear Modulus (GPa) = 40.25509 65.44801 52.85155
#
# Velocity S-wave (km/s) = 4.34955 5.54603 4.98382
# Velocity P-wave (km/s) = 7.28306 8.78966 8.07159
#
# Compressibility (1/GPa) = 0.01689424
#
# Stress axis : x y z
#
# Youngs Moduli (GPa) = 81.91784 51.71852 108.60701
#
# Poissons Ratio (x) = 0.08905 0.42499
# Poissons Ratio (y) = 0.14105 0.68348
# Poissons Ratio (z) = 0.32055 0.32547
#
# Static dielectric constant tensor:
#      x y z
#    x 4.431210 0.000000 0.000000 
#    y 0.000000 3.752010 0.000000 
#    z 0.000000 0.000000 3.957200 
# 
# 
# High freq. dielectric constant tensor:
#      x y z
#    x 1.853360 0.000000 0.000000 
#    y 0.000000 1.835960 0.000000 
#    z 0.000000 0.000000 1.818480 
# 
# From -- ./inp_files/13904.got.cif
#   From: 2010.06.25/outbox.cif.g09.slc.cpg/sg52_7_cif.got.tgz:13904.got - 2010.06.26 19:32:48.
