data_PCOD8216783
_publ_section_title
;
Structure prediction by ZEFSAII (Michael W. Deem and Ramdas Pophale) SiO2 
 PCOD8216783
Probable space group: P N N A
;
_chemical_formula_sum "Si O2"
_cell_formula_units_Z 28
_cell_length_a 7.302526
_cell_length_b 10.829046
_cell_length_c 16.342043
_cell_angle_alpha 90.000000
_cell_angle_beta 90.000000
_cell_angle_gamma 90.000000
_cell_volume 1292.318791
_symmetry_space_group_name_H-M "P N N A"
_symmetry_group_IT_number 52
_symmetry_cell_setting 'orthorhombic'
loop_
_space_group_symop_operation_xyz
x,y,z
1/2-x,-y,z
x,1/2-y,1/2-z
1/2-x,1/2+y,1/2-z
-x,-y,-z
1/2+x,y,-z
-x,1/2+y,1/2+z
1/2+x,1/2-y,1/2+z
loop_
_atom_site_type_symbol
_atom_site_label
_atom_site_fract_x
_atom_site_fract_y
_atom_site_fract_z
Si Si1 0.741905 0.132868 0.432257
Si Si2 0.250000 0.000000 0.170995
Si Si3 0.540297 0.134703 0.700729
Si Si4 0.855871 0.244268 0.593775
O O1 0.811100 0.233827 0.497233
O O2 0.557075 0.186740 0.392496
O O3 0.882237 0.097612 0.360643
O O4 0.750000 0.000000 0.479631
O O5 0.080196 0.033094 0.230008
O O6 0.328289 0.111573 0.115547
O O7 0.464177 0.250000 0.750000
O O8 0.725623 0.163399 0.650977
#
# Coordination Sequence:
#
# PCOD8216783 Si02
#       4
#     8   4   8   8
#     4  12  24  40  71  97 130 175 237 282 335 412
#     4  10  24  46  68  96 150 178 220 294 356 416
#     4  10  23  43  63  97 133 175 223 278 345 409
#     4  11  24  43  69  99 133 180 225 284 348 406
#
# _framework density 21.666481999999998
#
# number of rings (size 3 to 8) (size 9 to 14) (size 15 to 20)
#    0.000    1.143    2.857    2.571    2.000    6.857 
#    0.000    0.000    0.000    0.000    0.000    0.000 
#    0.000    0.000    0.000    0.000    0.000    0.000 
#
# Total GULP energy -346968.302724 kJ/mol
# GULP energy per Si atom -12391.725097 kJ/mol
# Density = 2.161717 g / cm^3
# Si number density = 21.666482 Si / 1000 Ang^3
#
#
#
# Elastic Constant Matrix: (Units=GPa)
#
#
# Indices 1 2 3 4 5 6 
#
# 1 126.6429 69.4591 42.2637 0.0000 0.0000 0.0000
# 2 69.4591 142.7653 59.5792 0.0000 0.0000 0.0000
# 3 42.2637 59.5792 112.3229 0.0000 0.0000 0.0000
# 4 0.0000 0.0000 0.0000 29.3342 0.0000 0.0000
# 5 0.0000 0.0000 0.0000 0.0000 20.3862 0.0000
# 6 0.0000 0.0000 0.0000 0.0000 0.0000 13.8659
#
#
#
# Elastic Compliance Matrix: (Units=1/GPa)
#
#
# Indices 1 2 3 4 5 6 
#
# 1 0.011009 -0.004659 -0.001671 0.000000 0.000000 0.000000
# 2 -0.004659 0.010967 -0.004064 0.000000 0.000000 0.000000
# 3 -0.001671 -0.004064 0.011688 0.000000 0.000000 0.000000
# 4 0.000000 0.000000 0.000000 0.034090 0.000000 0.000000
# 5 0.000000 0.000000 0.000000 0.000000 0.049053 0.000000
# 6 0.000000 0.000000 0.000000 0.000000 0.000000 0.072119
#
#
# Mechanical properties :
#
#
# Convention : Reuss Voigt Hill
#
# Bulk Modulus (GPa) = 77.66887 80.48168 79.07528
# Shear Modulus (GPa) = 23.36374 26.74586 25.05480
#
# Velocity S-wave (km/s) = 3.28736 3.51726 3.40426
# Velocity P-wave (km/s) = 7.09467 7.32948 7.21303
#
# Compressibility (1/GPa) = 0.01287517
#
# Stress axis : x y z
#
# Youngs Moduli (GPa) = 90.83364 91.18019 85.56063
#
# Poissons Ratio (x) = 0.42479 0.14299
# Poissons Ratio (y) = 0.42317 0.34775
# Poissons Ratio (z) = 0.15181 0.37059
#
# Static dielectric constant tensor:
#      x y z
#    x 3.895710 0.000000 0.000000 
#    y 0.000000 4.055360 0.000000 
#    z 0.000000 0.000000 4.031010 
# 
# 
# High freq. dielectric constant tensor:
#      x y z
#    x 1.847080 0.000000 0.000000 
#    y 0.000000 1.857260 0.000000 
#    z 0.000000 0.000000 1.860990 
# 
# From -- ./inp_files/23978.got.cif
#   From: 2010.06.25/outbox.cif.g09.slc.cpg/sg52_12_cif.got.tgz:23978.got - 2010.06.26 19:32:48.
