data_PCOD8216851
_publ_section_title
;
Structure prediction by ZEFSAII (Michael W. Deem and Ramdas Pophale) SiO2 
 PCOD8216851
Probable space group: P N N A
;
_chemical_formula_sum "Si O2"
_cell_formula_units_Z 44
_cell_length_a 16.244394
_cell_length_b 19.503520
_cell_length_c 6.811485
_cell_angle_alpha 90.000000
_cell_angle_beta 90.000000
_cell_angle_gamma 90.000000
_cell_volume 2158.034181
_symmetry_space_group_name_H-M "P N N A"
_symmetry_group_IT_number 52
_symmetry_cell_setting 'orthorhombic'
loop_
_space_group_symop_operation_xyz
x,y,z
1/2-x,-y,z
x,1/2-y,1/2-z
1/2-x,1/2+y,1/2-z
-x,-y,-z
1/2+x,y,-z
-x,1/2+y,1/2+z
1/2+x,1/2-y,1/2+z
loop_
_atom_site_type_symbol
_atom_site_label
_atom_site_fract_x
_atom_site_fract_y
_atom_site_fract_z
Si Si1 0.061410 0.921075 0.372349
Si Si2 0.213207 0.320632 0.153837
Si Si3 0.825314 0.391111 0.543885
Si Si4 0.750000 0.500000 0.312636
Si Si5 0.142921 0.682893 0.844014
Si Si6 0.621051 0.061071 0.465183
O O1 0.089980 0.887111 0.167503
O O2 0.079009 0.869549 0.554628
O O3 0.964559 0.932441 0.348836
O O4 0.111611 0.992644 0.400455
O O5 0.179606 0.250000 0.250000
O O6 0.251303 0.370166 0.315935
O O7 0.137354 0.366588 0.074396
O O8 0.282454 0.300025 0.993261
O O9 0.815599 0.466987 0.459348
O O10 0.819025 0.346005 0.352594
O O11 0.699208 0.447226 0.177470
O O12 0.097990 0.750000 0.750000
#
# Coordination Sequence:
#
# PCOD8216851 Si02
#       6
#     8   8   8   4   8   8
#     4  10  24  41  61  91 133 166 205 267 328 386
#     4  11  22  38  65  93 124 166 215 269 318 381
#     4  11  21  38  65  92 118 169 209 258 322 378
#     4  12  20  38  70  90 120 166 216 266 312 376
#     4  11  21  40  66  91 123 166 216 258 317 393
#     4  11  22  42  61  95 131 162 215 269 316 386
#
# _framework density 20.388926999999999
#
# number of rings (size 3 to 8) (size 9 to 14) (size 15 to 20)
#    0.000    1.091    5.455    2.182    0.000    1.455 
#    3.273    0.000    8.000    0.000    0.000    0.000 
#    0.000    0.000    0.000    0.000    0.000    0.000 
#
# Total GULP energy -545122.313215 kJ/mol
# GULP energy per Si atom -12389.143482 kJ/mol
# Density = 2.034252 g / cm^3
# Si number density = 20.388927 Si / 1000 Ang^3
#
#
#
# Elastic Constant Matrix: (Units=GPa)
#
#
# Indices 1 2 3 4 5 6 
#
# 1 84.0708 30.7477 29.9580 0.0000 0.0000 0.0000
# 2 30.7477 127.0778 34.7184 0.0000 0.0000 0.0000
# 3 29.9580 34.7184 104.5467 0.0000 0.0000 0.0000
# 4 0.0000 0.0000 0.0000 30.9359 0.0000 0.0000
# 5 0.0000 0.0000 0.0000 0.0000 13.0446 0.0000
# 6 0.0000 0.0000 0.0000 0.0000 0.0000 15.0653
#
#
#
# Elastic Compliance Matrix: (Units=1/GPa)
#
#
# Indices 1 2 3 4 5 6 
#
# 1 0.013939 -0.002509 -0.003161 0.000000 0.000000 0.000000
# 2 -0.002509 0.009106 -0.002305 0.000000 0.000000 0.000000
# 3 -0.003161 -0.002305 0.011236 0.000000 0.000000 0.000000
# 4 0.000000 0.000000 0.000000 0.032325 0.000000 0.000000
# 5 0.000000 0.000000 0.000000 0.000000 0.076660 0.000000
# 6 0.000000 0.000000 0.000000 0.000000 0.000000 0.066378
#
#
# Mechanical properties :
#
#
# Convention : Reuss Voigt Hill
#
# Bulk Modulus (GPa) = 54.55201 56.28262 55.41732
# Shear Modulus (GPa) = 21.57924 26.49390 24.03657
#
# Velocity S-wave (km/s) = 3.25681 3.60867 3.43724
# Velocity P-wave (km/s) = 6.39970 6.71027 6.55682
#
# Compressibility (1/GPa) = 0.01833113
#
# Stress axis : x y z
#
# Youngs Moduli (GPa) = 71.74239 109.81745 88.99691
#
# Poissons Ratio (x) = 0.27553 0.28132
# Poissons Ratio (y) = 0.18000 0.20514
# Poissons Ratio (z) = 0.22678 0.25313
#
# Static dielectric constant tensor:
#      x y z
#    x 3.349470 0.000000 0.000000 
#    y 0.000000 3.554930 0.000000 
#    z 0.000000 0.000000 3.946570 
# 
# 
# High freq. dielectric constant tensor:
#      x y z
#    x 1.765390 0.000000 0.000000 
#    y 0.000000 1.809440 0.000000 
#    z 0.000000 0.000000 1.805680 
# 
# From -- ./inp_files/3398.got.cif
#   From: 2010.06.25/outbox.cif.g09.slc.cpg/sg52_2_cif.got.tgz:3398.got - 2010.06.26 19:32:48.
