data_PCOD8216658
_publ_section_title
;
Structure prediction by ZEFSAII (Michael W. Deem and Ramdas Pophale) SiO2 
 PCOD8216658
Probable space group: P N N A
;
_chemical_formula_sum "Si O2"
_cell_formula_units_Z 40
_cell_length_a 16.540179
_cell_length_b 12.748839
_cell_length_c 8.985738
_cell_angle_alpha 90.000000
_cell_angle_beta 90.000000
_cell_angle_gamma 90.000000
_cell_volume 1894.805311
_symmetry_space_group_name_H-M "P N N A"
_symmetry_group_IT_number 52
_symmetry_cell_setting 'orthorhombic'
loop_
_space_group_symop_operation_xyz
x,y,z
1/2-x,-y,z
x,1/2-y,1/2-z
1/2-x,1/2+y,1/2-z
-x,-y,-z
1/2+x,y,-z
-x,1/2+y,1/2+z
1/2+x,1/2-y,1/2+z
loop_
_atom_site_type_symbol
_atom_site_label
_atom_site_fract_x
_atom_site_fract_y
_atom_site_fract_z
Si Si1 0.610783 0.070534 0.406985
Si Si2 0.660391 0.470510 0.418196
Si Si3 0.074195 0.882246 0.390149
Si Si4 0.135194 0.669405 0.428840
Si Si5 0.820233 0.768143 0.921142
O O1 0.659041 0.052009 0.255874
O O2 0.518309 0.089284 0.361955
O O3 0.651497 0.167340 0.488395
O O4 0.618975 0.968046 0.509289
O O5 0.750000 0.500000 0.470568
O O6 0.609658 0.575232 0.459683
O O7 0.631761 0.369420 0.513744
O O8 0.076499 0.767146 0.466710
O O9 0.123708 0.875017 0.237236
O O10 0.225528 0.713995 0.446996
O O11 0.843383 0.750000 0.750000
#
# Coordination Sequence:
#
# PCOD8216658 Si02
#       5
#     8   8   8   8   8
#     4  11  25  42  64  99 133 164 216 272 329 377
#     4  10  24  39  64  98 127 164 211 269 324 370
#     4  10  23  44  65  92 130 178 211 262 326 391
#     4  10  22  43  67  91 126 177 216 255 320 392
#     4  11  22  41  67  95 124 172 222 261 309 390
#
# _framework density 21.110347999999998
#
# number of rings (size 3 to 8) (size 9 to 14) (size 15 to 20)
#    0.000    1.600    2.000    1.800    8.400    1.600 
#    7.200    0.000    0.000    0.000    0.000    0.000 
#    0.000    0.000    0.000    0.000    0.000    0.000 
#
# Total GULP energy -495984.019097 kJ/mol
# GULP energy per Si atom -12399.600477 kJ/mol
# Density = 2.106230 g / cm^3
# Si number density = 21.110348 Si / 1000 Ang^3
#
#
#
# Elastic Constant Matrix: (Units=GPa)
#
#
# Indices 1 2 3 4 5 6 
#
# 1 27.6002 18.2647 16.1703 0.0000 0.0000 0.0000
# 2 18.2647 201.0932 91.8584 0.0000 0.0000 0.0000
# 3 16.1703 91.8584 118.3682 0.0000 0.0000 0.0000
# 4 0.0000 0.0000 0.0000 45.2105 0.0000 0.0000
# 5 0.0000 0.0000 0.0000 0.0000 13.7693 0.0000
# 6 0.0000 0.0000 0.0000 0.0000 0.0000 28.8120
#
#
#
# Elastic Compliance Matrix: (Units=1/GPa)
#
#
# Indices 1 2 3 4 5 6 
#
# 1 0.039778 -0.001752 -0.004075 0.000000 0.000000 0.000000
# 2 -0.001752 0.007781 -0.005799 0.000000 0.000000 0.000000
# 3 -0.004075 -0.005799 0.013505 0.000000 0.000000 0.000000
# 4 0.000000 0.000000 0.000000 0.022119 0.000000 0.000000
# 5 0.000000 0.000000 0.000000 0.000000 0.072625 0.000000
# 6 0.000000 0.000000 0.000000 0.000000 0.000000 0.034708
#
#
# Mechanical properties :
#
#
# Convention : Reuss Voigt Hill
#
# Bulk Modulus (GPa) = 26.44573 66.62761 46.53667
# Shear Modulus (GPa) = 22.08765 32.27624 27.18195
#
# Velocity S-wave (km/s) = 3.23816 3.91440 3.59222
# Velocity P-wave (km/s) = 5.15126 7.21527 6.26879
#
# Compressibility (1/GPa) = 0.03781329
#
# Stress axis : x y z
#
# Youngs Moduli (GPa) = 25.13953 128.52075 74.04615
#
# Poissons Ratio (x) = 0.22511 0.30172
# Poissons Ratio (y) = 0.04403 0.42939
# Poissons Ratio (z) = 0.10244 0.74529
#
# Static dielectric constant tensor:
#      x y z
#    x 3.606140 0.000000 0.000000 
#    y 0.000000 4.485570 0.000000 
#    z 0.000000 0.000000 3.703400 
# 
# 
# High freq. dielectric constant tensor:
#      x y z
#    x 1.809860 0.000000 0.000000 
#    y 0.000000 1.858070 0.000000 
#    z 0.000000 0.000000 1.823620 
# 
# From -- ./inp_files/11607.got.cif
#   From: 2010.06.25/outbox.cif.g09.slc.cpg/sg52_6_cif.got.tgz:11607.got - 2010.06.26 19:32:48.
