data_PCOD8216031
_publ_section_title
;
Structure prediction by ZEFSAII (Michael W. Deem and Ramdas Pophale) SiO2 
 PCOD8216031
Probable space group: P N N A
;
_chemical_formula_sum "Si O2"
_cell_formula_units_Z 40
_cell_length_a 10.310417
_cell_length_b 6.949423
_cell_length_c 26.687179
_cell_angle_alpha 90.000000
_cell_angle_beta 90.000000
_cell_angle_gamma 90.000000
_cell_volume 1912.175046
_symmetry_space_group_name_H-M "P N N A"
_symmetry_group_IT_number 52
_symmetry_cell_setting 'orthorhombic'
loop_
_space_group_symop_operation_xyz
x,y,z
1/2-x,-y,z
x,1/2-y,1/2-z
1/2-x,1/2+y,1/2-z
-x,-y,-z
1/2+x,y,-z
-x,1/2+y,1/2+z
1/2+x,1/2-y,1/2+z
loop_
_atom_site_type_symbol
_atom_site_label
_atom_site_fract_x
_atom_site_fract_y
_atom_site_fract_z
Si Si1 0.250000 0.000000 0.682365
Si Si2 0.445449 0.702577 0.883732
Si Si3 0.631955 0.132611 0.595547
Si Si4 0.105341 0.470005 0.328647
Si Si5 0.374185 0.622482 0.985830
Si Si6 0.936127 0.250000 0.250000
O O1 0.318923 0.833821 0.649879
O O2 0.147249 0.889208 0.715889
O O3 0.503529 0.492927 0.896265
O O4 0.404455 0.774706 0.940244
O O5 0.542953 0.840410 0.853914
O O6 0.615238 0.318922 0.627755
O O7 0.660283 0.216842 0.539585
O O8 0.750000 0.000000 0.613908
O O9 0.250000 0.500000 0.307301
O O10 0.021984 0.395237 0.282499
O O11 0.250000 0.500000 0.967536
O O12 0.500000 0.500000 0.000000
#
# Coordination Sequence:
#
# PCOD8216031 Si02
#       6
#     4   8   8   8   8   4
#     4  12  24  46  68  92 134 174 222 278 344 404
#     4  11  22  41  71  98 133 175 219 274 339 411
#     4  10  20  42  67  97 140 172 216 276 330 398
#     4  12  26  43  70 100 127 175 231 281 341 398
#     4   9  19  36  66 101 134 181 217 266 343 409
#     4  12  28  46  66  96 130 178 230 286 336 394
#
# _framework density 20.918586999999999
#
# number of rings (size 3 to 8) (size 9 to 14) (size 15 to 20)
#    0.000    1.200    5.000    1.200    0.000    3.200 
#    0.000    0.000    4.400    0.000    0.000    0.000 
#    0.000    0.000    0.000    0.000    0.000    0.000 
#
# Total GULP energy -495647.282134 kJ/mol
# GULP energy per Si atom -12391.182053 kJ/mol
# Density = 2.087098 g / cm^3
# Si number density = 20.918587 Si / 1000 Ang^3
#
#
#
# Elastic Constant Matrix: (Units=GPa)
#
#
# Indices 1 2 3 4 5 6 
#
# 1 134.3576 43.0618 62.4093 0.0000 0.0000 0.0000
# 2 43.0618 71.9103 53.9208 0.0000 0.0000 0.0000
# 3 62.4093 53.9208 151.8659 0.0000 0.0000 0.0000
# 4 0.0000 0.0000 0.0000 41.0006 0.0000 0.0000
# 5 0.0000 0.0000 0.0000 0.0000 43.7932 0.0000
# 6 0.0000 0.0000 0.0000 0.0000 0.0000 27.8941
#
#
#
# Elastic Compliance Matrix: (Units=1/GPa)
#
#
# Indices 1 2 3 4 5 6 
#
# 1 0.009957 -0.003945 -0.002691 0.000000 0.000000 0.000000
# 2 -0.003945 0.020514 -0.005663 0.000000 0.000000 0.000000
# 3 -0.002691 -0.005663 0.009701 0.000000 0.000000 0.000000
# 4 0.000000 0.000000 0.000000 0.024390 0.000000 0.000000
# 5 0.000000 0.000000 0.000000 0.000000 0.022835 0.000000
# 6 0.000000 0.000000 0.000000 0.000000 0.000000 0.035850
#
#
# Mechanical properties :
#
#
# Convention : Reuss Voigt Hill
#
# Bulk Modulus (GPa) = 64.20278 75.21306 69.70792
# Shear Modulus (GPa) = 32.67192 35.78704 34.22948
#
# Velocity S-wave (km/s) = 3.95633 4.14064 4.04953
# Velocity P-wave (km/s) = 7.18529 7.67418 7.43376
#
# Compressibility (1/GPa) = 0.01557565
#
# Stress axis : x y z
#
# Youngs Moduli (GPa) = 100.42969 48.74621 103.07830
#
# Poissons Ratio (x) = 0.19228 0.27742
# Poissons Ratio (y) = 0.39615 0.58370
# Poissons Ratio (z) = 0.27029 0.27604
#
# Static dielectric constant tensor:
#      x y z
#    x 4.231900 0.000000 0.000000 
#    y 0.000000 3.409210 0.000000 
#    z 0.000000 0.000000 4.400650 
# 
# 
# High freq. dielectric constant tensor:
#      x y z
#    x 1.842530 0.000000 0.000000 
#    y 0.000000 1.779730 0.000000 
#    z 0.000000 0.000000 1.845350 
# 
# From -- ./inp_files/44751.got.cif
#   From: 2010.06.25/outbox.cif.g09.slc.cpg/sg52_23_cif.got.tgz:44751.got - 2010.06.26 19:32:48.
