data_PCOD8216753
_publ_section_title
;
Structure prediction by ZEFSAII (Michael W. Deem and Ramdas Pophale) SiO2 
 PCOD8216753
Probable space group: P N N A
;
_chemical_formula_sum "Si O2"
_cell_formula_units_Z 36
_cell_length_a 10.850043
_cell_length_b 20.136758
_cell_length_c 7.527848
_cell_angle_alpha 90.000000
_cell_angle_beta 90.000000
_cell_angle_gamma 90.000000
_cell_volume 1644.719538
_symmetry_space_group_name_H-M "P N N A"
_symmetry_group_IT_number 52
_symmetry_cell_setting 'orthorhombic'
loop_
_space_group_symop_operation_xyz
x,y,z
1/2-x,-y,z
x,1/2-y,1/2-z
1/2-x,1/2+y,1/2-z
-x,-y,-z
1/2+x,y,-z
-x,1/2+y,1/2+z
1/2+x,1/2-y,1/2+z
loop_
_atom_site_type_symbol
_atom_site_label
_atom_site_fract_x
_atom_site_fract_y
_atom_site_fract_z
Si Si1 0.886406 0.143734 0.257343
Si Si2 0.697907 0.571353 0.571445
Si Si3 0.869471 0.801754 0.879985
Si Si4 0.878330 0.039483 0.550546
Si Si5 0.318852 0.750000 0.750000
O O1 0.888816 0.106239 0.441571
O O2 0.763622 0.185690 0.275746
O O3 0.004107 0.189219 0.227219
O O4 0.886551 0.093367 0.091238
O O5 0.750000 0.500000 0.515827
O O6 0.801221 0.627575 0.606648
O O7 0.613784 0.561287 0.744689
O O8 0.795068 0.750000 0.750000
O O9 0.897189 0.766795 0.071918
O O10 0.750000 0.000000 0.513421
O O11 0.000000 0.000000 0.500000
#
# Coordination Sequence:
#
# PCOD8216753 Si02
#       5
#     8   8   8   8   4
#     4  11  22  41  66  92 130 175 226 281 343 412
#     4  10  23  41  64  98 132 174 223 282 347 405
#     4  11  23  42  66  94 135 176 231 291 343 417
#     4  11  24  41  66 100 136 177 223 282 346 413
#     4  10  24  42  60  94 126 172 226 280 346 406
#
# _framework density 21.888231999999999
#
# number of rings (size 3 to 8) (size 9 to 14) (size 15 to 20)
#    0.000    1.333    1.111    4.667    0.000    8.889 
#    8.000    0.000    0.000    0.000    0.000    0.000 
#    0.000    0.000    0.000    0.000    0.000    0.000 
#
# Total GULP energy -446170.294268 kJ/mol
# GULP energy per Si atom -12393.619285 kJ/mol
# Density = 2.183841 g / cm^3
# Si number density = 21.888232 Si / 1000 Ang^3
#
#
#
# Elastic Constant Matrix: (Units=GPa)
#
#
# Indices 1 2 3 4 5 6 
#
# 1 62.8020 15.1295 -0.2343 0.0000 0.0000 0.0000
# 2 15.1295 127.7586 39.9201 0.0000 0.0000 0.0000
# 3 -0.2343 39.9201 81.5776 0.0000 0.0000 0.0000
# 4 0.0000 0.0000 0.0000 53.9738 0.0000 0.0000
# 5 0.0000 0.0000 0.0000 0.0000 40.0920 0.0000
# 6 0.0000 0.0000 0.0000 0.0000 0.0000 25.9137
#
#
#
# Elastic Compliance Matrix: (Units=1/GPa)
#
#
# Indices 1 2 3 4 5 6 
#
# 1 0.016487 -0.002322 0.001184 0.000000 0.000000 0.000000
# 2 -0.002322 0.009567 -0.004688 0.000000 0.000000 0.000000
# 3 0.001184 -0.004688 0.014556 0.000000 0.000000 0.000000
# 4 0.000000 0.000000 0.000000 0.018527 0.000000 0.000000
# 5 0.000000 0.000000 0.000000 0.000000 0.024943 0.000000
# 6 0.000000 0.000000 0.000000 0.000000 0.000000 0.038590
#
#
# Mechanical properties :
#
#
# Convention : Reuss Voigt Hill
#
# Bulk Modulus (GPa) = 34.53490 42.41875 38.47683
# Shear Modulus (GPa) = 34.72806 38.48411 36.60608
#
# Velocity S-wave (km/s) = 3.98755 4.19765 4.09395
# Velocity P-wave (km/s) = 6.08381 6.55099 6.32172
#
# Compressibility (1/GPa) = 0.02895622
#
# Stress axis : x y z
#
# Youngs Moduli (GPa) = 60.65409 104.52337 68.70047
#
# Poissons Ratio (x) = 0.24274 -0.08133
# Poissons Ratio (y) = 0.14086 0.32210
# Poissons Ratio (z) = -0.07180 0.49005
#
# Static dielectric constant tensor:
#      x y z
#    x 3.873130 0.000000 0.000000 
#    y 0.000000 4.319510 0.000000 
#    z 0.000000 0.000000 4.383760 
# 
# 
# High freq. dielectric constant tensor:
#      x y z
#    x 1.835290 0.000000 0.000000 
#    y 0.000000 1.887840 0.000000 
#    z 0.000000 0.000000 1.879260 
# 
# From -- ./inp_files/8661.got.cif
#   From: 2010.06.25/outbox.cif.g09.slc.cpg/sg52_5_cif.got.tgz:8661.got - 2010.06.26 19:32:48.
