data_PCOD8216062
_publ_section_title
;
Structure prediction by ZEFSAII (Michael W. Deem and Ramdas Pophale) SiO2 
 PCOD8216062
Probable space group: P N N A
;
_chemical_formula_sum "Si O2"
_cell_formula_units_Z 48
_cell_length_a 13.499681
_cell_length_b 12.803896
_cell_length_c 14.318766
_cell_angle_alpha 90.000000
_cell_angle_beta 90.000000
_cell_angle_gamma 90.000000
_cell_volume 2474.977390
_symmetry_space_group_name_H-M "P N N A"
_symmetry_group_IT_number 52
_symmetry_cell_setting 'orthorhombic'
loop_
_space_group_symop_operation_xyz
x,y,z
1/2-x,-y,z
x,1/2-y,1/2-z
1/2-x,1/2+y,1/2-z
-x,-y,-z
1/2+x,y,-z
-x,1/2+y,1/2+z
1/2+x,1/2-y,1/2+z
loop_
_atom_site_type_symbol
_atom_site_label
_atom_site_fract_x
_atom_site_fract_y
_atom_site_fract_z
Si Si1 0.250000 0.500000 0.945900
Si Si2 0.536633 0.514376 0.105542
Si Si3 0.212883 0.783149 0.479148
Si Si4 0.635097 0.180072 0.843443
Si Si5 0.927591 0.242262 0.354233
Si Si6 0.750000 0.000000 0.769525
Si Si7 0.403007 0.153801 0.315288
O O1 0.257629 0.601390 0.010566
O O2 0.346085 0.498013 0.881276
O O3 0.513325 0.632268 0.135439
O O4 0.490016 0.430638 0.175843
O O5 0.500000 0.500000 0.000000
O O6 0.299570 0.715286 0.433103
O O7 0.165899 0.739381 0.576338
O O8 0.116767 0.790388 0.413620
O O9 0.654845 0.250000 0.750000
O O10 0.518362 0.176668 0.869672
O O11 0.666266 0.059410 0.829149
O O12 0.883081 0.250000 0.250000
O O13 0.696946 0.907475 0.712249
O O14 0.434305 0.250000 0.250000
#
# Coordination Sequence:
#
# PCOD8216062 Si02
#       7
#     4   8   8   8   8   4   8
#     4  10  21  34  62  89 114 152 201 244 298 349
#     4  11  21  36  61  89 117 156 201 250 296 356
#     4  11  20  36  59  90 121 149 199 242 307 350
#     4  11  21  36  60  89 119 154 196 251 307 355
#     4  10  22  38  61  87 119 162 201 247 305 361
#     4  12  21  36  60  91 120 148 197 250 312 355
#     4  12  22  35  58  95 121 148 194 264 305 349
#
# _framework density 19.394117000000001
#
# number of rings (size 3 to 8) (size 9 to 14) (size 15 to 20)
#    0.000    1.000    6.667    3.500    0.000    0.000 
#    0.000    4.167    0.000    1.000    0.000    0.000 
#    0.000    0.000    0.000    0.000    0.000    0.000 
#
# Total GULP energy -594835.675709 kJ/mol
# GULP energy per Si atom -12392.409911 kJ/mol
# Density = 1.934998 g / cm^3
# Si number density = 19.394117 Si / 1000 Ang^3
#
#
#
# Elastic Constant Matrix: (Units=GPa)
#
#
# Indices 1 2 3 4 5 6 
#
# 1 91.7863 10.3341 30.2981 0.0000 0.0000 0.0000
# 2 10.3341 63.3444 27.4902 0.0000 0.0000 0.0000
# 3 30.2981 27.4902 99.5823 0.0000 0.0000 0.0000
# 4 0.0000 0.0000 0.0000 25.5237 0.0000 0.0000
# 5 0.0000 0.0000 0.0000 0.0000 20.6443 0.0000
# 6 0.0000 0.0000 0.0000 0.0000 0.0000 34.0474
#
#
#
# Elastic Compliance Matrix: (Units=1/GPa)
#
#
# Indices 1 2 3 4 5 6 
#
# 1 0.012121 -0.000428 -0.003570 0.000000 0.000000 0.000000
# 2 -0.000428 0.017951 -0.004825 0.000000 0.000000 0.000000
# 3 -0.003570 -0.004825 0.012460 0.000000 0.000000 0.000000
# 4 0.000000 0.000000 0.000000 0.039179 0.000000 0.000000
# 5 0.000000 0.000000 0.000000 0.000000 0.048439 0.000000
# 6 0.000000 0.000000 0.000000 0.000000 0.000000 0.029371
#
#
# Mechanical properties :
#
#
# Convention : Reuss Voigt Hill
#
# Bulk Modulus (GPa) = 40.18344 43.43974 41.81159
# Shear Modulus (GPa) = 26.95955 28.48245 27.72100
#
# Velocity S-wave (km/s) = 3.73243 3.83641 3.78478
# Velocity P-wave (km/s) = 6.27209 6.48622 6.38005
#
# Compressibility (1/GPa) = 0.02488587
#
# Stress axis : x y z
#
# Youngs Moduli (GPa) = 82.49844 55.70860 80.25671
#
# Poissons Ratio (x) = 0.02386 0.28650
# Poissons Ratio (y) = 0.03533 0.38724
# Poissons Ratio (z) = 0.29450 0.26880
#
# Static dielectric constant tensor:
#      x y z
#    x 3.535700 0.000000 0.000000 
#    y 0.000000 4.244200 0.000000 
#    z 0.000000 0.000000 3.682540 
# 
# 
# High freq. dielectric constant tensor:
#      x y z
#    x 1.752360 0.000000 0.000000 
#    y 0.000000 1.746420 0.000000 
#    z 0.000000 0.000000 1.737930 
# 
# From -- ./inp_files/27368.got.cif
#   From: 2010.06.25/outbox.cif.g09.slc.cpg/sg52_14_cif.got.tgz:27368.got - 2010.06.26 19:32:48.
