data_PCOD8216256
_publ_section_title
;
Structure prediction by ZEFSAII (Michael W. Deem and Ramdas Pophale) SiO2 
 PCOD8216256
Probable space group: P N N A
;
_chemical_formula_sum "Si O2"
_cell_formula_units_Z 56
_cell_length_a 9.564109
_cell_length_b 21.237418
_cell_length_c 13.324059
_cell_angle_alpha 90.000000
_cell_angle_beta 90.000000
_cell_angle_gamma 90.000000
_cell_volume 2706.342634
_symmetry_space_group_name_H-M "P N N A"
_symmetry_group_IT_number 52
_symmetry_cell_setting 'orthorhombic'
loop_
_space_group_symop_operation_xyz
x,y,z
1/2-x,-y,z
x,1/2-y,1/2-z
1/2-x,1/2+y,1/2-z
-x,-y,-z
1/2+x,y,-z
-x,1/2+y,1/2+z
1/2+x,1/2-y,1/2+z
loop_
_atom_site_type_symbol
_atom_site_label
_atom_site_fract_x
_atom_site_fract_y
_atom_site_fract_z
Si Si1 0.733659 0.787078 0.534487
Si Si2 0.006784 0.067827 0.053688
Si Si3 0.602997 0.423368 0.153658
Si Si4 0.494663 0.637077 0.045862
Si Si5 0.077860 0.942213 0.717192
Si Si6 0.922723 0.182199 0.734455
Si Si7 0.288532 0.145381 0.063849
O O1 0.649379 0.831719 0.457128
O O2 0.896131 0.803125 0.530486
O O3 0.676879 0.809120 0.640654
O O4 0.733054 0.712819 0.509649
O O5 0.163256 0.095127 0.056527
O O6 0.937110 0.067288 0.163967
O O7 0.922961 0.116117 0.986790
O O8 0.000000 0.000000 0.000000
O O9 0.767935 0.429497 0.172730
O O10 0.530206 0.486988 0.192681
O O11 0.548689 0.366123 0.221182
O O12 0.549773 0.413758 0.039365
O O13 0.476608 0.604148 0.154316
O O14 0.995845 0.250000 0.750000
O O15 0.819426 0.158846 0.820676
#
# Coordination Sequence:
#
# PCOD8216256 Si02
#       7
#     8   8   8   8   8   8   8
#     4  10  21  39  67  91 132 162 212 272 328 401
#     4  12  27  43  67  93 133 177 226 272 315 386
#     4  10  22  39  65  96 128 168 207 274 333 391
#     4  11  20  42  64 100 125 165 209 265 340 393
#     4  11  24  41  65  95 133 171 218 269 325 394
#     4   9  20  40  65  91 125 168 219 271 330 385
#     4  11  24  43  63  94 124 176 217 271 327 375
#
# _framework density 20.692132999999998
#
# number of rings (size 3 to 8) (size 9 to 14) (size 15 to 20)
#    0.000    1.429    1.429    3.429    6.000    0.000 
#    0.000    5.000    0.000    0.000    0.000    0.000 
#    0.000    0.000    0.000    0.000    0.000    0.000 
#
# Total GULP energy -694067.084009 kJ/mol
# GULP energy per Si atom -12394.055072 kJ/mol
# Density = 2.064504 g / cm^3
# Si number density = 20.692133 Si / 1000 Ang^3
#
#
#
# Elastic Constant Matrix: (Units=GPa)
#
#
# Indices 1 2 3 4 5 6 
#
# 1 64.0601 41.2071 5.9670 0.0000 0.0000 0.0000
# 2 41.2071 152.3879 41.9685 0.0000 0.0000 0.0000
# 3 5.9670 41.9685 65.8216 0.0000 0.0000 0.0000
# 4 0.0000 0.0000 0.0000 33.2534 0.0000 0.0000
# 5 0.0000 0.0000 0.0000 0.0000 16.0264 0.0000
# 6 0.0000 0.0000 0.0000 0.0000 0.0000 43.7395
#
#
#
# Elastic Compliance Matrix: (Units=1/GPa)
#
#
# Indices 1 2 3 4 5 6 
#
# 1 0.019090 -0.005684 0.001893 0.000000 0.000000 0.000000
# 2 -0.005684 0.009652 -0.005639 0.000000 0.000000 0.000000
# 3 0.001893 -0.005639 0.018616 0.000000 0.000000 0.000000
# 4 0.000000 0.000000 0.000000 0.030072 0.000000 0.000000
# 5 0.000000 0.000000 0.000000 0.000000 0.062397 0.000000
# 6 0.000000 0.000000 0.000000 0.000000 0.000000 0.022863
#
#
# Mechanical properties :
#
#
# Convention : Reuss Voigt Hill
#
# Bulk Modulus (GPa) = 35.08779 51.17277 43.13028
# Shear Modulus (GPa) = 26.17133 31.47900 28.82516
#
# Velocity S-wave (km/s) = 3.56026 3.90462 3.73641
# Velocity P-wave (km/s) = 5.82189 6.71657 6.28517
#
# Compressibility (1/GPa) = 0.02849994
#
# Stress axis : x y z
#
# Youngs Moduli (GPa) = 52.38359 103.60440 53.71595
#
# Poissons Ratio (x) = 0.58884 -0.10170
# Poissons Ratio (y) = 0.29772 0.30291
# Poissons Ratio (z) = -0.09918 0.58423
#
# Static dielectric constant tensor:
#      x y z
#    x 3.637730 0.000000 0.000000 
#    y 0.000000 4.196270 0.000000 
#    z 0.000000 0.000000 4.031560 
# 
# 
# High freq. dielectric constant tensor:
#      x y z
#    x 1.804480 0.000000 0.000000 
#    y 0.000000 1.830330 0.000000 
#    z 0.000000 0.000000 1.811790 
# 
# From -- ./inp_files/24960.got.cif
#   From: 2010.06.25/outbox.cif.g09.slc.cpg/sg52_13_cif.got.tgz:24960.got - 2010.06.26 19:32:48.
