data_PCOD8216272
_publ_section_title
;
Structure prediction by ZEFSAII (Michael W. Deem and Ramdas Pophale) SiO2 
 PCOD8216272
Probable space group: P N N A
;
_chemical_formula_sum "Si O2"
_cell_formula_units_Z 44
_cell_length_a 16.343223
_cell_length_b 12.873493
_cell_length_c 10.821087
_cell_angle_alpha 90.000000
_cell_angle_beta 90.000000
_cell_angle_gamma 90.000000
_cell_volume 2276.695748
_symmetry_space_group_name_H-M "P N N A"
_symmetry_group_IT_number 52
_symmetry_cell_setting 'orthorhombic'
loop_
_space_group_symop_operation_xyz
x,y,z
1/2-x,-y,z
x,1/2-y,1/2-z
1/2-x,1/2+y,1/2-z
-x,-y,-z
1/2+x,y,-z
-x,1/2+y,1/2+z
1/2+x,1/2-y,1/2+z
loop_
_atom_site_type_symbol
_atom_site_label
_atom_site_fract_x
_atom_site_fract_y
_atom_site_fract_z
Si Si1 0.579172 0.750000 0.750000
Si Si2 0.956981 0.792760 0.473071
Si Si3 0.569154 0.645872 0.197260
Si Si4 0.157260 0.964203 0.261951
Si Si5 0.653649 0.486198 0.031597
Si Si6 0.543974 0.080437 0.913740
O O1 0.521219 0.781984 0.637430
O O2 0.640209 0.845549 0.779643
O O3 0.881704 0.870528 0.438386
O O4 0.923089 0.678789 0.507620
O O5 0.001840 0.833944 0.593641
O O6 0.614069 0.750000 0.250000
O O7 0.631973 0.563189 0.143122
O O8 0.525507 0.601648 0.315606
O O9 0.250000 0.000000 0.270275
O O10 0.116466 0.980565 0.397955
O O11 0.122174 0.036655 0.155662
O O12 0.750000 0.500000 0.023011
O O13 0.500000 0.000000 0.000000
#
# Coordination Sequence:
#
# PCOD8216272 Si02
#       6
#     4   8   8   8   8   8
#     4  12  22  40  68  98 120 174 230 262 316 404
#     4  11  22  38  68  89 122 170 217 263 317 390
#     4  10  21  40  62  85 123 164 211 260 318 383
#     4  11  24  40  65  94 132 161 211 278 329 380
#     4  11  23  41  63  94 127 168 215 268 331 393
#     4  11  22  40  63  95 124 165 215 264 317 383
#
# _framework density 19.326253000000001
#
# number of rings (size 3 to 8) (size 9 to 14) (size 15 to 20)
#    0.000    1.091    5.455    1.636    0.000    2.909 
#    1.636    0.909    0.000    0.000    0.000    0.000 
#    0.000    0.000    0.000    0.000    0.000    0.000 
#
# Total GULP energy -545218.509806 kJ/mol
# GULP energy per Si atom -12391.329768 kJ/mol
# Density = 1.928227 g / cm^3
# Si number density = 19.326253 Si / 1000 Ang^3
#
#
#
# Elastic Constant Matrix: (Units=GPa)
#
#
# Indices 1 2 3 4 5 6 
#
# 1 77.7437 70.0291 40.3397 0.0000 0.0000 0.0000
# 2 70.0291 174.4424 61.6271 0.0000 0.0000 0.0000
# 3 40.3397 61.6271 104.1112 0.0000 0.0000 0.0000
# 4 0.0000 0.0000 0.0000 42.4774 0.0000 0.0000
# 5 0.0000 0.0000 0.0000 0.0000 30.6093 0.0000
# 6 0.0000 0.0000 0.0000 0.0000 0.0000 19.8734
#
#
#
# Elastic Compliance Matrix: (Units=1/GPa)
#
#
# Indices 1 2 3 4 5 6 
#
# 1 0.021425 -0.007167 -0.004059 0.000000 0.000000 0.000000
# 2 -0.007167 0.009646 -0.002933 0.000000 0.000000 0.000000
# 3 -0.004059 -0.002933 0.012914 0.000000 0.000000 0.000000
# 4 0.000000 0.000000 0.000000 0.023542 0.000000 0.000000
# 5 0.000000 0.000000 0.000000 0.000000 0.032670 0.000000
# 6 0.000000 0.000000 0.000000 0.000000 0.000000 0.050318
#
#
# Mechanical properties :
#
#
# Convention : Reuss Voigt Hill
#
# Bulk Modulus (GPa) = 63.82854 77.80991 70.81923
# Shear Modulus (GPa) = 27.16596 30.87879 29.02237
#
# Velocity S-wave (km/s) = 3.75327 4.00154 3.87939
# Velocity P-wave (km/s) = 7.20286 7.85483 7.53590
#
# Compressibility (1/GPa) = 0.01566697
#
# Stress axis : x y z
#
# Youngs Moduli (GPa) = 46.67530 103.67294 77.43626
#
# Poissons Ratio (x) = 0.74301 0.31432
# Poissons Ratio (y) = 0.33451 0.22710
# Poissons Ratio (z) = 0.18946 0.30404
#
# Static dielectric constant tensor:
#      x y z
#    x 3.077290 0.000000 0.000000 
#    y 0.000000 4.346610 0.000000 
#    z 0.000000 0.000000 3.451510 
# 
# 
# High freq. dielectric constant tensor:
#      x y z
#    x 1.722220 0.000000 0.000000 
#    y 0.000000 1.771430 0.000000 
#    z 0.000000 0.000000 1.768120 
# 
# From -- ./inp_files/20540.got.cif
#   From: 2010.06.25/outbox.cif.g09.slc.cpg/sg52_11_cif.got.tgz:20540.got - 2010.06.26 19:32:48.
