data_PCOD8216381
_publ_section_title
;
Structure prediction by ZEFSAII (Michael W. Deem and Ramdas Pophale) SiO2 
 PCOD8216381
Probable space group: P N N A
;
_chemical_formula_sum "Si O2"
_cell_formula_units_Z 48
_cell_length_a 8.582206
_cell_length_b 8.363199
_cell_length_c 31.241567
_cell_angle_alpha 90.000000
_cell_angle_beta 90.000000
_cell_angle_gamma 90.000000
_cell_volume 2242.353994
_symmetry_space_group_name_H-M "P N N A"
_symmetry_group_IT_number 52
_symmetry_cell_setting 'orthorhombic'
loop_
_space_group_symop_operation_xyz
x,y,z
1/2-x,-y,z
x,1/2-y,1/2-z
1/2-x,1/2+y,1/2-z
-x,-y,-z
1/2+x,y,-z
-x,1/2+y,1/2+z
1/2+x,1/2-y,1/2+z
loop_
_atom_site_type_symbol
_atom_site_label
_atom_site_fract_x
_atom_site_fract_y
_atom_site_fract_z
Si Si1 0.250000 0.500000 0.341692
Si Si2 0.941024 0.729673 0.885522
Si Si3 0.022904 0.674362 0.980609
Si Si4 0.283029 0.686768 0.868062
Si Si5 0.965096 0.260103 0.701244
Si Si6 0.326002 0.825833 0.953984
Si Si7 0.250000 0.000000 0.333564
O O1 0.178489 0.368427 0.373173
O O2 0.111141 0.570319 0.312002
O O3 0.931097 0.701078 0.936234
O O4 0.888832 0.566056 0.862989
O O5 0.114297 0.774356 0.868732
O O6 0.204621 0.696618 0.972207
O O7 0.971525 0.813732 0.013945
O O8 0.000000 0.500000 0.000000
O O9 0.250000 0.500000 0.875130
O O10 0.378318 0.722352 0.825200
O O11 0.381177 0.763803 0.907269
O O12 0.020688 0.250000 0.750000
O O13 0.826863 0.132538 0.696261
O O14 0.250000 0.000000 0.951424
#
# Coordination Sequence:
#
# PCOD8216381 Si02
#       7
#     4   8   8   8   8   8   4
#     4  10  25  44  68  98 138 174 216 280 345 396
#     4  10  23  41  66  98 132 180 220 270 329 399
#     4  11  24  40  65  96 130 176 230 264 325 390
#     4  11  23  45  67  96 135 177 223 267 342 398
#     4  11  24  44  72 101 131 170 220 277 337 403
#     4  11  25  41  65  94 136 173 219 282 324 382
#     4  10  21  42  68  94 136 170 220 262 329 406
#
# _framework density 21.406075999999999
#
# number of rings (size 3 to 8) (size 9 to 14) (size 15 to 20)
#    0.000    1.333    1.667    3.500    8.167    1.333 
#    3.000    0.833    0.000    0.000    0.000    0.000 
#    0.000    0.000    0.000    0.000    0.000    0.000 
#
# Total GULP energy -595256.970106 kJ/mol
# GULP energy per Si atom -12401.186877 kJ/mol
# Density = 2.135736 g / cm^3
# Si number density = 21.406076 Si / 1000 Ang^3
#
#
#
# Elastic Constant Matrix: (Units=GPa)
#
#
# Indices 1 2 3 4 5 6 
#
# 1 64.9777 10.2597 48.6935 0.0000 0.0000 0.0000
# 2 10.2597 95.3833 40.0691 0.0000 0.0000 0.0000
# 3 48.6935 40.0691 171.7029 0.0000 0.0000 0.0000
# 4 0.0000 0.0000 0.0000 23.2310 0.0000 0.0000
# 5 0.0000 0.0000 0.0000 0.0000 37.7373 0.0000
# 6 0.0000 0.0000 0.0000 0.0000 0.0000 28.7612
#
#
#
# Elastic Compliance Matrix: (Units=1/GPa)
#
#
# Indices 1 2 3 4 5 6 
#
# 1 0.019549 0.000251 -0.005602 0.000000 0.000000 0.000000
# 2 0.000251 0.011627 -0.002784 0.000000 0.000000 0.000000
# 3 -0.005602 -0.002784 0.008063 0.000000 0.000000 0.000000
# 4 0.000000 0.000000 0.000000 0.043046 0.000000 0.000000
# 5 0.000000 0.000000 0.000000 0.000000 0.026499 0.000000
# 6 0.000000 0.000000 0.000000 0.000000 0.000000 0.034769
#
#
# Mechanical properties :
#
#
# Convention : Reuss Voigt Hill
#
# Bulk Modulus (GPa) = 43.54261 58.90093 51.22177
# Shear Modulus (GPa) = 29.85448 33.48202 31.66825
#
# Velocity S-wave (km/s) = 3.73858 3.95921 3.85048
# Velocity P-wave (km/s) = 6.24671 6.96248 6.61429
#
# Compressibility (1/GPa) = 0.02296601
#
# Stress axis : x y z
#
# Youngs Moduli (GPa) = 51.15449 86.00883 124.03019
#
# Poissons Ratio (x) = -0.02157 0.69486
# Poissons Ratio (y) = -0.01283 0.34534
# Poissons Ratio (z) = 0.28658 0.23948
#
# Static dielectric constant tensor:
#      x y z
#    x 3.946050 0.000000 0.000000 
#    y 0.000000 3.884340 0.000000 
#    z 0.000000 0.000000 3.830350 
# 
# 
# High freq. dielectric constant tensor:
#      x y z
#    x 1.841050 0.000000 0.000000 
#    y 0.000000 1.847660 0.000000 
#    z 0.000000 0.000000 1.836590 
# 
# From -- ./inp_files/44430.got.cif
#   From: 2010.06.25/outbox.cif.g09.slc.cpg/sg52_23_cif.got.tgz:44430.got - 2010.06.26 19:32:48.
