data_PCOD8216942
_publ_section_title
;
Structure prediction by ZEFSAII (Michael W. Deem and Ramdas Pophale) SiO2 
 PCOD8216942
Probable space group: P N N A
;
_chemical_formula_sum "Si O2"
_cell_formula_units_Z 64
_cell_length_a 11.633222
_cell_length_b 9.341939
_cell_length_c 29.955083
_cell_angle_alpha 90.000000
_cell_angle_beta 90.000000
_cell_angle_gamma 90.000000
_cell_volume 3255.424071
_symmetry_space_group_name_H-M "P N N A"
_symmetry_group_IT_number 52
_symmetry_cell_setting 'orthorhombic'
loop_
_space_group_symop_operation_xyz
x,y,z
1/2-x,-y,z
x,1/2-y,1/2-z
1/2-x,1/2+y,1/2-z
-x,-y,-z
1/2+x,y,-z
-x,1/2+y,1/2+z
1/2+x,1/2-y,1/2+z
loop_
_atom_site_type_symbol
_atom_site_label
_atom_site_fract_x
_atom_site_fract_y
_atom_site_fract_z
Si Si1 0.223558 0.841084 0.589225
Si Si2 0.115072 0.461902 0.799015
Si Si3 0.046045 0.843803 0.514487
Si Si4 0.615024 0.993883 0.200791
Si Si5 0.568354 0.280116 0.366959
Si Si6 0.113809 0.330513 0.420080
Si Si7 0.965500 0.266986 0.156193
Si Si8 0.118504 0.664826 0.430268
O O1 0.169026 0.857236 0.539954
O O2 0.340778 0.747933 0.592380
O O3 0.135337 0.756449 0.619931
O O4 0.250000 0.000000 0.608450
O O5 0.250000 0.500000 0.800366
O O6 0.072335 0.441436 0.747979
O O7 0.096309 0.315039 0.824232
O O8 0.030758 0.574191 0.823666
O O9 0.067084 0.737863 0.473894
O O10 0.950102 0.772957 0.545524
O O11 0.000000 0.000000 0.500000
O O12 0.570617 0.063458 0.154777
O O13 0.750000 0.000000 0.200428
O O14 0.566332 0.833074 0.198046
O O15 0.442754 0.259386 0.387995
O O16 0.085856 0.496503 0.430428
O O17 0.248189 0.304049 0.425839
O O18 0.081469 0.282294 0.369444
#
# Coordination Sequence:
#
# PCOD8216942 Si02
#       8
#     8   8   8   8   8   8   8   8
#     4  11  21  37  59  91 128 160 199 251 314 378
#     4  11  21  36  59  94 137 162 198 256 317 379
#     4  11  26  42  67  93 124 158 207 266 315 377
#     4  11  21  34  60  98 128 161 207 253 313 378
#     4  12  21  38  62  91 126 167 202 256 317 366
#     4  10  25  46  62  89 121 166 217 254 311 375
#     4  11  19  39  60  86 124 168 203 246 310 371
#     4  11  25  44  66  86 123 170 212 262 310 374
#
# _framework density 19.659497000000002
#
# number of rings (size 3 to 8) (size 9 to 14) (size 15 to 20)
#    0.000    1.000    5.000    1.875    5.250    2.000 
#    0.000    0.000    0.000    4.500    0.000    0.000 
#    0.000    0.000    0.000    0.000    0.000    0.000 
#
# Total GULP energy -793308.287262 kJ/mol
# GULP energy per Si atom -12395.441988 kJ/mol
# Density = 1.961475 g / cm^3
# Si number density = 19.659497 Si / 1000 Ang^3
#
#
#
# Elastic Constant Matrix: (Units=GPa)
#
#
# Indices 1 2 3 4 5 6 
#
# 1 87.2672 33.5874 50.9533 0.0000 0.0000 0.0000
# 2 33.5874 67.4446 29.1794 0.0000 0.0000 0.0000
# 3 50.9533 29.1794 115.1551 0.0000 0.0000 0.0000
# 4 0.0000 0.0000 0.0000 30.7561 0.0000 0.0000
# 5 0.0000 0.0000 0.0000 0.0000 25.6930 0.0000
# 6 0.0000 0.0000 0.0000 0.0000 0.0000 25.3352
#
#
#
# Elastic Compliance Matrix: (Units=1/GPa)
#
#
# Indices 1 2 3 4 5 6 
#
# 1 0.017360 -0.005977 -0.006167 0.000000 0.000000 0.000000
# 2 -0.005977 0.018711 -0.002096 0.000000 0.000000 0.000000
# 3 -0.006167 -0.002096 0.011944 0.000000 0.000000 0.000000
# 4 0.000000 0.000000 0.000000 0.032514 0.000000 0.000000
# 5 0.000000 0.000000 0.000000 0.000000 0.038921 0.000000
# 6 0.000000 0.000000 0.000000 0.000000 0.000000 0.039471
#
#
# Mechanical properties :
#
#
# Convention : Reuss Voigt Hill
#
# Bulk Modulus (GPa) = 51.19362 55.25634 53.22498
# Shear Modulus (GPa) = 25.78475 26.76664 26.27569
#
# Velocity S-wave (km/s) = 3.62549 3.69387 3.65984
# Velocity P-wave (km/s) = 6.60471 6.80886 6.70756
#
# Compressibility (1/GPa) = 0.01953369
#
# Stress axis : x y z
#
# Youngs Moduli (GPa) = 57.60253 53.44546 83.72525
#
# Poissons Ratio (x) = 0.31946 0.51633
# Poissons Ratio (y) = 0.34431 0.17551
# Poissons Ratio (z) = 0.35523 0.11204
#
# Static dielectric constant tensor:
#      x y z
#    x 3.503450 0.000000 0.000000 
#    y 0.000000 3.627310 0.000000 
#    z 0.000000 0.000000 3.900460 
# 
# 
# High freq. dielectric constant tensor:
#      x y z
#    x 1.739640 0.000000 0.000000 
#    y 0.000000 1.777150 0.000000 
#    z 0.000000 0.000000 1.775300 
# 
# From -- ./inp_files/44845.got.cif
#   From: 2010.06.25/outbox.cif.g09.slc.cpg/sg52_23_cif.got.tgz:44845.got - 2010.06.26 19:32:48.
