data_PCOD8216856
_publ_section_title
;
Structure prediction by ZEFSAII (Michael W. Deem and Ramdas Pophale) SiO2 
 PCOD8216856
Probable space group: P N N A
;
_chemical_formula_sum "Si O2"
_cell_formula_units_Z 64
_cell_length_a 13.830862
_cell_length_b 8.887965
_cell_length_c 25.452529
_cell_angle_alpha 90.000000
_cell_angle_beta 90.000000
_cell_angle_gamma 90.000000
_cell_volume 3128.834018
_symmetry_space_group_name_H-M "P N N A"
_symmetry_group_IT_number 52
_symmetry_cell_setting 'orthorhombic'
loop_
_space_group_symop_operation_xyz
x,y,z
1/2-x,-y,z
x,1/2-y,1/2-z
1/2-x,1/2+y,1/2-z
-x,-y,-z
1/2+x,y,-z
-x,1/2+y,1/2+z
1/2+x,1/2-y,1/2+z
loop_
_atom_site_type_symbol
_atom_site_label
_atom_site_fract_x
_atom_site_fract_y
_atom_site_fract_z
Si Si1 0.832063 0.621382 0.288107
Si Si2 0.350008 0.587238 0.967379
Si Si3 0.850218 0.588714 0.830114
Si Si4 0.026878 0.410909 0.067633
Si Si5 0.163949 0.386262 0.594108
Si Si6 0.650348 0.073749 0.856525
Si Si7 0.498575 0.920514 0.056350
Si Si8 0.951649 0.078373 0.763879
O O1 0.750000 0.500000 0.285622
O O2 0.795373 0.750000 0.250000
O O3 0.835928 0.685824 0.347644
O O4 0.933079 0.555062 0.266445
O O5 0.250000 0.500000 0.957444
O O6 0.440741 0.531256 0.933157
O O7 0.333682 0.760219 0.951091
O O8 0.383756 0.567186 0.027467
O O9 0.750000 0.500000 0.839725
O O10 0.927565 0.564156 0.875822
O O11 0.831949 0.767421 0.827068
O O12 0.901878 0.533078 0.777406
O O13 0.971633 0.254635 0.053553
O O14 0.250000 0.500000 0.582261
O O15 0.068619 0.487239 0.593647
O O16 0.604515 0.087354 0.914490
O O17 0.750000 0.000000 0.869623
O O18 0.589103 0.961174 0.820768
O O19 0.500000 0.000000 0.000000
O O20 0.925127 0.250000 0.750000
#
# Coordination Sequence:
#
# PCOD8216856 Si02
#       8
#     8   8   8   8   8   8   8   8
#     4  10  24  43  65  97 128 168 216 266 326 386
#     4  11  23  42  64  95 133 169 216 264 321 386
#     4  11  24  42  65  95 131 168 214 262 324 387
#     4  10  24  42  64  94 130 173 213 266 325 376
#     4  11  23  42  69  95 128 169 220 270 321 387
#     4  11  24  42  65  97 128 167 216 265 321 386
#     4  11  22  44  64  94 129 169 218 264 320 380
#     4  11  23  42  68  95 129 170 212 264 325 381
#
# _framework density 20.454903000000002
#
# number of rings (size 3 to 8) (size 9 to 14) (size 15 to 20)
#    0.000    1.250    2.500    2.625    3.500    3.000 
#    6.750    0.000    0.000    0.000    0.000    0.000 
#    0.000    0.000    0.000    0.000    0.000    0.000 
#
# Total GULP energy -793436.903738 kJ/mol
# GULP energy per Si atom -12397.451621 kJ/mol
# Density = 2.040835 g / cm^3
# Si number density = 20.454903 Si / 1000 Ang^3
#
#
#
# Elastic Constant Matrix: (Units=GPa)
#
#
# Indices 1 2 3 4 5 6 
#
# 1 82.1217 40.5971 27.9619 0.0000 0.0000 0.0000
# 2 40.5971 96.4765 24.8517 0.0000 0.0000 0.0000
# 3 27.9619 24.8517 87.3611 0.0000 0.0000 0.0000
# 4 0.0000 0.0000 0.0000 33.0557 0.0000 0.0000
# 5 0.0000 0.0000 0.0000 0.0000 19.9780 0.0000
# 6 0.0000 0.0000 0.0000 0.0000 0.0000 30.7617
#
#
#
# Elastic Compliance Matrix: (Units=1/GPa)
#
#
# Indices 1 2 3 4 5 6 
#
# 1 0.016325 -0.005960 -0.003530 0.000000 0.000000 0.000000
# 2 -0.005960 0.013361 -0.001893 0.000000 0.000000 0.000000
# 3 -0.003530 -0.001893 0.013115 0.000000 0.000000 0.000000
# 4 0.000000 0.000000 0.000000 0.030252 0.000000 0.000000
# 5 0.000000 0.000000 0.000000 0.000000 0.050055 0.000000
# 6 0.000000 0.000000 0.000000 0.000000 0.000000 0.032508
#
#
# Mechanical properties :
#
#
# Convention : Reuss Voigt Hill
#
# Bulk Modulus (GPa) = 49.91271 50.30897 50.11084
# Shear Modulus (GPa) = 27.01808 28.26233 27.64020
#
# Velocity S-wave (km/s) = 3.63831 3.72114 3.67996
# Velocity P-wave (km/s) = 6.48876 6.56590 6.52744
#
# Compressibility (1/GPa) = 0.02003498
#
# Stress axis : x y z
#
# Youngs Moduli (GPa) = 61.25389 74.84461 76.24835
#
# Poissons Ratio (x) = 0.44611 0.26914
# Poissons Ratio (y) = 0.36510 0.14434
# Poissons Ratio (z) = 0.21621 0.14168
#
# Static dielectric constant tensor:
#      x y z
#    x 3.713480 0.000000 0.000000 
#    y 0.000000 3.794910 0.000000 
#    z 0.000000 0.000000 3.783530 
# 
# 
# High freq. dielectric constant tensor:
#      x y z
#    x 1.809440 0.000000 0.000000 
#    y 0.000000 1.805650 0.000000 
#    z 0.000000 0.000000 1.808000 
# 
# From -- ./inp_files/40689.got.cif
#   From: 2010.06.25/outbox.cif.g09.slc.cpg/sg52_21_cif.got.tgz:40689.got - 2010.06.26 19:32:48.
