data_PCOD8216722
_publ_section_title
;
Structure prediction by ZEFSAII (Michael W. Deem and Ramdas Pophale) SiO2 
 PCOD8216722
Probable space group: P N N A
;
_chemical_formula_sum "Si O2"
_cell_formula_units_Z 52
_cell_length_a 9.466739
_cell_length_b 12.395145
_cell_length_c 20.988514
_cell_angle_alpha 90.000000
_cell_angle_beta 90.000000
_cell_angle_gamma 90.000000
_cell_volume 2462.825869
_symmetry_space_group_name_H-M "P N N A"
_symmetry_group_IT_number 52
_symmetry_cell_setting 'orthorhombic'
loop_
_space_group_symop_operation_xyz
x,y,z
1/2-x,-y,z
x,1/2-y,1/2-z
1/2-x,1/2+y,1/2-z
-x,-y,-z
1/2+x,y,-z
-x,1/2+y,1/2+z
1/2+x,1/2-y,1/2+z
loop_
_atom_site_type_symbol
_atom_site_label
_atom_site_fract_x
_atom_site_fract_y
_atom_site_fract_z
Si Si1 0.728335 0.658836 0.636328
Si Si2 0.867136 0.925684 0.989818
Si Si3 0.286491 0.380433 0.878537
Si Si4 0.250000 0.000000 0.247940
Si Si5 0.869747 0.072359 0.517808
Si Si6 0.926466 0.671897 0.809001
Si Si7 0.039561 0.247304 0.916227
O O1 0.823201 0.595143 0.584065
O O2 0.708416 0.599376 0.703405
O O3 0.804560 0.773980 0.647583
O O4 0.563414 0.662833 0.617626
O O5 0.750000 0.000000 0.023656
O O6 0.881879 0.810723 0.024788
O O7 0.000000 0.000000 0.000000
O O8 0.250000 0.500000 0.852413
O O9 0.299273 0.379390 0.954658
O O10 0.427464 0.335746 0.847127
O O11 0.153782 0.299134 0.867417
O O12 0.123020 0.049922 0.290886
O O13 0.924046 0.165627 0.562492
O O14 0.750000 0.000000 0.553405
O O15 0.000000 0.000000 0.500000
O O16 0.959672 0.750000 0.750000
#
# Coordination Sequence:
#
# PCOD8216722 Si02
#       7
#     8   8   8   4   8   8   8
#     4  11  23  43  69  97 126 167 225 262 322 395
#     4  12  24  41  65  98 140 177 209 256 316 398
#     4  11  24  42  61  95 132 165 213 259 331 382
#     4  10  22  48  68  90 116 162 232 282 320 374
#     4  11  22  38  60  95 136 167 202 249 314 396
#     4  10  25  44  68  89 119 168 218 283 327 369
#     4  12  24  40  63 101 135 175 204 262 319 402
#
# _framework density 21.113958
#
# number of rings (size 3 to 8) (size 9 to 14) (size 15 to 20)
#    0.000    0.923    5.385    1.846    6.462    0.000 
#    2.769    0.000    0.000    0.000    0.000    0.000 
#    0.000    0.000    0.000    0.000    0.000    0.000 
#
# Total GULP energy -644436.935876 kJ/mol
# GULP energy per Si atom -12393.017998 kJ/mol
# Density = 2.106590 g / cm^3
# Si number density = 21.113958 Si / 1000 Ang^3
#
#
#
# Elastic Constant Matrix: (Units=GPa)
#
#
# Indices 1 2 3 4 5 6 
#
# 1 153.3727 60.5403 38.9311 0.0000 0.0000 0.0000
# 2 60.5403 110.2041 29.4843 0.0000 0.0000 0.0000
# 3 38.9311 29.4843 55.0470 0.0000 0.0000 0.0000
# 4 0.0000 0.0000 0.0000 20.7991 0.0000 0.0000
# 5 0.0000 0.0000 0.0000 0.0000 28.7705 0.0000
# 6 0.0000 0.0000 0.0000 0.0000 0.0000 52.9942
#
#
#
# Elastic Compliance Matrix: (Units=1/GPa)
#
#
# Indices 1 2 3 4 5 6 
#
# 1 0.009161 -0.003851 -0.004416 0.000000 0.000000 0.000000
# 2 -0.003851 0.012211 -0.003817 0.000000 0.000000 0.000000
# 3 -0.004416 -0.003817 0.023334 0.000000 0.000000 0.000000
# 4 0.000000 0.000000 0.000000 0.048079 0.000000 0.000000
# 5 0.000000 0.000000 0.000000 0.000000 0.034758 0.000000
# 6 0.000000 0.000000 0.000000 0.000000 0.000000 0.018870
#
#
# Mechanical properties :
#
#
# Convention : Reuss Voigt Hill
#
# Bulk Modulus (GPa) = 48.69118 64.05947 56.37533
# Shear Modulus (GPa) = 28.18058 33.15730 30.66894
#
# Velocity S-wave (km/s) = 3.65730 3.96712 3.81536
# Velocity P-wave (km/s) = 6.39888 7.16867 6.79469
#
# Compressibility (1/GPa) = 0.02053760
#
# Stress axis : x y z
#
# Youngs Moduli (GPa) = 109.15565 81.89462 42.85589
#
# Poissons Ratio (x) = 0.31539 0.18927
# Poissons Ratio (y) = 0.42037 0.16357
# Poissons Ratio (z) = 0.48207 0.31257
#
# Static dielectric constant tensor:
#      x y z
#    x 4.102000 0.000000 0.000000 
#    y 0.000000 4.095010 0.000000 
#    z 0.000000 0.000000 3.374510 
# 
# 
# High freq. dielectric constant tensor:
#      x y z
#    x 1.840080 0.000000 0.000000 
#    y 0.000000 1.845250 0.000000 
#    z 0.000000 0.000000 1.801090 
# 
# From -- ./inp_files/42295.got.cif
#   From: 2010.06.25/outbox.cif.g09.slc.cpg/sg52_22_cif.got.tgz:42295.got - 2010.06.26 19:32:48.
