data_PCOD8216827
_publ_section_title
;
Structure prediction by ZEFSAII (Michael W. Deem and Ramdas Pophale) SiO2 
 PCOD8216827
Probable space group: P N N A
;
_chemical_formula_sum "Si O2"
_cell_formula_units_Z 40
_cell_length_a 12.025474
_cell_length_b 18.085937
_cell_length_c 7.965019
_cell_angle_alpha 90.000000
_cell_angle_beta 90.000000
_cell_angle_gamma 90.000000
_cell_volume 1732.327635
_symmetry_space_group_name_H-M "P N N A"
_symmetry_group_IT_number 52
_symmetry_cell_setting 'orthorhombic'
loop_
_space_group_symop_operation_xyz
x,y,z
1/2-x,-y,z
x,1/2-y,1/2-z
1/2-x,1/2+y,1/2-z
-x,-y,-z
1/2+x,y,-z
-x,1/2+y,1/2+z
1/2+x,1/2-y,1/2+z
loop_
_atom_site_type_symbol
_atom_site_label
_atom_site_fract_x
_atom_site_fract_y
_atom_site_fract_z
Si Si1 0.971456 0.465853 0.683120
Si Si2 0.159201 0.668157 0.186004
Si Si3 0.385834 0.882526 0.215998
Si Si4 0.699479 0.424903 0.368579
Si Si5 0.380764 0.171196 0.693858
O O1 0.892071 0.393589 0.686942
O O2 0.911659 0.533375 0.780742
O O3 0.000000 0.500000 0.500000
O O4 0.092971 0.441905 0.753537
O O5 0.132515 0.750000 0.250000
O O6 0.291572 0.654471 0.168018
O O7 0.104290 0.660441 0.004379
O O8 0.498875 0.836380 0.222097
O O9 0.341093 0.875701 0.024984
O O10 0.750000 0.500000 0.446838
O O11 0.794414 0.388623 0.258694
O O12 0.331944 0.250000 0.750000
#
# Coordination Sequence:
#
# PCOD8216827 Si02
#       5
#     8   8   8   8   8
#     4  10  23  45  80 104 139 198 249 307 375 453
#     4  12  28  47  73 107 155 197 250 311 382 450
#     4  11  24  47  75 103 145 192 252 301 378 443
#     4  11  23  45  76 105 142 191 241 303 374 443
#     4  12  29  45  71 109 151 195 253 310 378 457
#
# _framework density 23.090320999999999
#
# number of rings (size 3 to 8) (size 9 to 14) (size 15 to 20)
#    0.000    0.800    2.000    4.800   11.200    3.200 
#    0.000    0.000    0.000    0.000    0.000    0.000 
#    0.000    0.000    0.000    0.000    0.000    0.000 
#
# Total GULP energy -495948.087583 kJ/mol
# GULP energy per Si atom -12398.702190 kJ/mol
# Density = 2.303777 g / cm^3
# Si number density = 23.090321 Si / 1000 Ang^3
#
#
#
# Elastic Constant Matrix: (Units=GPa)
#
#
# Indices 1 2 3 4 5 6 
#
# 1 139.8507 34.4380 38.7284 0.0000 0.0000 0.0000
# 2 34.4380 133.4075 45.6432 0.0000 0.0000 0.0000
# 3 38.7284 45.6432 100.9834 0.0000 0.0000 0.0000
# 4 0.0000 0.0000 0.0000 27.3430 0.0000 0.0000
# 5 0.0000 0.0000 0.0000 0.0000 24.3245 0.0000
# 6 0.0000 0.0000 0.0000 0.0000 0.0000 34.1640
#
#
#
# Elastic Compliance Matrix: (Units=1/GPa)
#
#
# Indices 1 2 3 4 5 6 
#
# 1 0.008166 -0.001226 -0.002578 0.000000 0.000000 0.000000
# 2 -0.001226 0.009051 -0.003621 0.000000 0.000000 0.000000
# 3 -0.002578 -0.003621 0.012528 0.000000 0.000000 0.000000
# 4 0.000000 0.000000 0.000000 0.036572 0.000000 0.000000
# 5 0.000000 0.000000 0.000000 0.000000 0.041111 0.000000
# 6 0.000000 0.000000 0.000000 0.000000 0.000000 0.029271
#
#
# Mechanical properties :
#
#
# Convention : Reuss Voigt Hill
#
# Bulk Modulus (GPa) = 67.13221 67.98455 67.55838
# Shear Modulus (GPa) = 31.94614 34.19508 33.07061
#
# Velocity S-wave (km/s) = 3.72362 3.85246 3.78858
# Velocity P-wave (km/s) = 6.90101 7.02107 6.96130
#
# Compressibility (1/GPa) = 0.01489598
#
# Stress axis : x y z
#
# Youngs Moduli (GPa) = 122.45538 110.48342 79.82297
#
# Poissons Ratio (x) = 0.13547 0.20576
# Poissons Ratio (y) = 0.15015 0.28902
# Poissons Ratio (z) = 0.31565 0.40003
#
# Static dielectric constant tensor:
#      x y z
#    x 4.745700 0.000000 0.000000 
#    y 0.000000 4.362620 0.000000 
#    z 0.000000 0.000000 3.722370 
# 
# 
# High freq. dielectric constant tensor:
#      x y z
#    x 1.939790 0.000000 0.000000 
#    y 0.000000 1.919250 0.000000 
#    z 0.000000 0.000000 1.876950 
# 
# From -- ./inp_files/8500.got.cif
#   From: 2010.06.25/outbox.cif.g09.slc.cpg/sg52_5_cif.got.tgz:8500.got - 2010.06.26 19:32:48.
