data_PCOD8216392
_publ_section_title
;
Structure prediction by ZEFSAII (Michael W. Deem and Ramdas Pophale) SiO2 
 PCOD8216392
Probable space group: P N N A
;
_chemical_formula_sum "Si O2"
_cell_formula_units_Z 40
_cell_length_a 9.278077
_cell_length_b 16.436509
_cell_length_c 11.596017
_cell_angle_alpha 90.000000
_cell_angle_beta 90.000000
_cell_angle_gamma 90.000000
_cell_volume 1768.383271
_symmetry_space_group_name_H-M "P N N A"
_symmetry_group_IT_number 52
_symmetry_cell_setting 'orthorhombic'
loop_
_space_group_symop_operation_xyz
x,y,z
1/2-x,-y,z
x,1/2-y,1/2-z
1/2-x,1/2+y,1/2-z
-x,-y,-z
1/2+x,y,-z
-x,1/2+y,1/2+z
1/2+x,1/2-y,1/2+z
loop_
_atom_site_type_symbol
_atom_site_label
_atom_site_fract_x
_atom_site_fract_y
_atom_site_fract_z
Si Si1 0.387720 0.553534 0.068609
Si Si2 0.026942 0.342099 0.626268
Si Si3 0.798995 0.407185 0.466990
Si Si4 0.443789 0.162253 0.742787
Si Si5 0.361991 0.668089 0.860347
O O1 0.250000 0.500000 0.106962
O O2 0.457235 0.596018 0.179337
O O3 0.500000 0.500000 0.000000
O O4 0.342398 0.622077 0.978802
O O5 0.150778 0.358736 0.532744
O O6 0.068471 0.381730 0.751608
O O7 0.028323 0.244148 0.629560
O O8 0.877995 0.382931 0.586244
O O9 0.750000 0.500000 0.461349
O O10 0.903896 0.381032 0.362755
O O11 0.526813 0.250000 0.750000
O O12 0.301467 0.189691 0.672152
#
# Coordination Sequence:
#
# PCOD8216392 Si02
#       5
#     8   8   8   8   8
#     4  12  26  43  72 108 144 180 234 297 353 417
#     4  10  22  42  68  97 133 183 230 282 344 430
#     4  11  23  41  68  97 136 180 229 287 352 413
#     4  11  22  45  71  99 142 194 233 284 361 436
#     4  10  21  42  71  96 138 187 231 278 362 420
#
# _framework density 22.619532
#
# number of rings (size 3 to 8) (size 9 to 14) (size 15 to 20)
#    0.000    1.200    6.000    1.800    5.600    0.000 
#    3.600    0.000    0.000    0.000    0.000    0.000 
#    0.000    0.000    0.000    0.000    0.000    0.000 
#
# Total GULP energy -495646.774709 kJ/mol
# GULP energy per Si atom -12391.169368 kJ/mol
# Density = 2.256805 g / cm^3
# Si number density = 22.619532 Si / 1000 Ang^3
#
#
#
# Elastic Constant Matrix: (Units=GPa)
#
#
# Indices 1 2 3 4 5 6 
#
# 1 86.6077 39.8653 24.3493 0.0000 0.0000 0.0000
# 2 39.8653 122.3713 35.7905 0.0000 0.0000 0.0000
# 3 24.3493 35.7905 55.5801 0.0000 0.0000 0.0000
# 4 0.0000 0.0000 0.0000 36.9053 0.0000 0.0000
# 5 0.0000 0.0000 0.0000 0.0000 28.8625 0.0000
# 6 0.0000 0.0000 0.0000 0.0000 0.0000 36.8921
#
#
#
# Elastic Compliance Matrix: (Units=1/GPa)
#
#
# Indices 1 2 3 4 5 6 
#
# 1 0.014275 -0.003476 -0.004016 0.000000 0.000000 0.000000
# 2 -0.003476 0.010914 -0.005505 0.000000 0.000000 0.000000
# 3 -0.004016 -0.005505 0.023296 0.000000 0.000000 0.000000
# 4 0.000000 0.000000 0.000000 0.027096 0.000000 0.000000
# 5 0.000000 0.000000 0.000000 0.000000 0.034647 0.000000
# 6 0.000000 0.000000 0.000000 0.000000 0.000000 0.027106
#
#
# Mechanical properties :
#
#
# Convention : Reuss Voigt Hill
#
# Bulk Modulus (GPa) = 44.46008 51.61881 48.03945
# Shear Modulus (GPa) = 29.26934 31.50224 30.38579
#
# Velocity S-wave (km/s) = 3.60110 3.73594 3.66914
# Velocity P-wave (km/s) = 6.08185 6.44047 6.26373
#
# Compressibility (1/GPa) = 0.02249209
#
# Stress axis : x y z
#
# Youngs Moduli (GPa) = 70.05116 91.62151 42.92500
#
# Poissons Ratio (x) = 0.31848 0.17237
# Poissons Ratio (y) = 0.24350 0.23632
# Poissons Ratio (z) = 0.28129 0.50442
#
# Static dielectric constant tensor:
#      x y z
#    x 3.953280 0.000000 0.000000 
#    y 0.000000 5.414250 0.000000 
#    z 0.000000 0.000000 4.049620 
# 
# 
# High freq. dielectric constant tensor:
#      x y z
#    x 1.878560 0.000000 0.000000 
#    y 0.000000 1.897310 0.000000 
#    z 0.000000 0.000000 1.893190 
# 
# From -- ./inp_files/16683.got.cif
#   From: 2010.06.25/outbox.cif.g09.slc.cpg/sg52_9_cif.got.tgz:16683.got - 2010.06.26 19:32:48.
