data_PCOD8216850
_publ_section_title
;
Structure prediction by ZEFSAII (Michael W. Deem and Ramdas Pophale) SiO2 
 PCOD8216850
Probable space group: P N N A
;
_chemical_formula_sum "Si O2"
_cell_formula_units_Z 24
_cell_length_a 19.950752
_cell_length_b 4.961827
_cell_length_c 12.018352
_cell_angle_alpha 90.000000
_cell_angle_beta 90.000000
_cell_angle_gamma 90.000000
_cell_volume 1189.722864
_symmetry_space_group_name_H-M "P N N A"
_symmetry_group_IT_number 52
_symmetry_cell_setting 'orthorhombic'
loop_
_space_group_symop_operation_xyz
x,y,z
1/2-x,-y,z
x,1/2-y,1/2-z
1/2-x,1/2+y,1/2-z
-x,-y,-z
1/2+x,y,-z
-x,1/2+y,1/2+z
1/2+x,1/2-y,1/2+z
loop_
_atom_site_type_symbol
_atom_site_label
_atom_site_fract_x
_atom_site_fract_y
_atom_site_fract_z
Si Si1 0.325762 0.000645 0.172372
Si Si2 0.938791 0.303055 0.528557
Si Si3 0.466775 0.505978 0.822598
O O1 0.337805 0.250000 0.250000
O O2 0.374461 0.022244 0.064911
O O3 0.250000 0.000000 0.125312
O O4 0.342435 0.750000 0.250000
O O5 0.920294 0.106206 0.423941
O O6 0.000000 0.500000 0.500000
O O7 0.962914 0.116223 0.630288
O O8 0.486606 0.250000 0.750000
O O9 0.432095 0.750000 0.750000
#
# Coordination Sequence:
#
# PCOD8216850 Si02
#       3
#     8   8   8
#     4  10  24  41  61  89 127 164 199 255 319 379
#     4  11  24  35  62  95 119 165 205 258 309 363
#     4  11  23  37  54  91 127 161 197 260 310 361
#
# _framework density 20.172767
#
# number of rings (size 3 to 8) (size 9 to 14) (size 15 to 20)
#    0.000    1.333    3.333    1.000   14.000    0.000 
#    0.000    0.000    0.000    0.000    8.667    0.000 
#    0.000    0.000    0.000    0.000    0.000    0.000 
#
# Total GULP energy -297399.754009 kJ/mol
# GULP energy per Si atom -12391.656417 kJ/mol
# Density = 2.012685 g / cm^3
# Si number density = 20.172767 Si / 1000 Ang^3
#
#
#
# Elastic Constant Matrix: (Units=GPa)
#
#
# Indices 1 2 3 4 5 6 
#
# 1 129.7208 51.3726 67.7229 0.0000 0.0000 0.0000
# 2 51.3726 166.0878 74.0735 0.0000 0.0000 0.0000
# 3 67.7229 74.0735 131.6882 0.0000 0.0000 0.0000
# 4 0.0000 0.0000 0.0000 94.7972 0.0000 0.0000
# 5 0.0000 0.0000 0.0000 0.0000 30.1824 0.0000
# 6 0.0000 0.0000 0.0000 0.0000 0.0000 24.1724
#
#
#
# Elastic Compliance Matrix: (Units=1/GPa)
#
#
# Indices 1 2 3 4 5 6 
#
# 1 0.010698 -0.001142 -0.004859 0.000000 0.000000 0.000000
# 2 -0.001142 0.008159 -0.004002 0.000000 0.000000 0.000000
# 3 -0.004859 -0.004002 0.012344 0.000000 0.000000 0.000000
# 4 0.000000 0.000000 0.000000 0.010549 0.000000 0.000000
# 5 0.000000 0.000000 0.000000 0.000000 0.033132 0.000000
# 6 0.000000 0.000000 0.000000 0.000000 0.000000 0.041369
#
#
# Mechanical properties :
#
#
# Convention : Reuss Voigt Hill
#
# Bulk Modulus (GPa) = 89.33195 90.42611 89.87903
# Shear Modulus (GPa) = 35.71706 45.45226 40.58466
#
# Velocity S-wave (km/s) = 4.21237 4.75188 4.49024
# Velocity P-wave (km/s) = 8.24853 8.66201 8.45780
#
# Compressibility (1/GPa) = 0.01119420
#
# Stress axis : x y z
#
# Youngs Moduli (GPa) = 93.47594 122.56385 81.01153
#
# Poissons Ratio (x) = 0.13994 0.39367
# Poissons Ratio (y) = 0.10673 0.32423
# Poissons Ratio (z) = 0.45423 0.49053
#
# Static dielectric constant tensor:
#      x y z
#    x 2.546070 0.000000 0.000000 
#    y 0.000000 4.222200 0.000000 
#    z 0.000000 0.000000 4.103540 
# 
# 
# High freq. dielectric constant tensor:
#      x y z
#    x 1.728670 0.000000 0.000000 
#    y 0.000000 1.823340 0.000000 
#    z 0.000000 0.000000 1.793050 
# 
# From -- ./inp_files/20001.got.cif
#   From: 2010.06.25/outbox.cif.g09.slc.cpg/sg52_11_cif.got.tgz:20001.got - 2010.06.26 19:32:48.
