data_PCOD8216438
_publ_section_title
;
Structure prediction by ZEFSAII (Michael W. Deem and Ramdas Pophale) SiO2 
 PCOD8216438
Probable space group: P N N A
;
_chemical_formula_sum "Si O2"
_cell_formula_units_Z 40
_cell_length_a 8.690882
_cell_length_b 20.344482
_cell_length_c 11.235069
_cell_angle_alpha 90.000000
_cell_angle_beta 90.000000
_cell_angle_gamma 90.000000
_cell_volume 1986.489317
_symmetry_space_group_name_H-M "P N N A"
_symmetry_group_IT_number 52
_symmetry_cell_setting 'orthorhombic'
loop_
_space_group_symop_operation_xyz
x,y,z
1/2-x,-y,z
x,1/2-y,1/2-z
1/2-x,1/2+y,1/2-z
-x,-y,-z
1/2+x,y,-z
-x,1/2+y,1/2+z
1/2+x,1/2-y,1/2+z
loop_
_atom_site_type_symbol
_atom_site_label
_atom_site_fract_x
_atom_site_fract_y
_atom_site_fract_z
Si Si1 0.274589 0.294556 0.143775
Si Si2 0.717058 0.313622 0.331658
Si Si3 0.686497 0.433258 0.154566
Si Si4 0.835069 0.065868 0.594597
Si Si5 0.005967 0.729870 0.530150
O O1 0.341179 0.250000 0.250000
O O2 0.280431 0.372016 0.175641
O O3 0.102105 0.272172 0.116083
O O4 0.385504 0.283603 0.031720
O O5 0.697145 0.250000 0.250000
O O6 0.689772 0.376905 0.251977
O O7 0.590738 0.313620 0.436993
O O8 0.887358 0.317507 0.389423
O O9 0.750000 0.500000 0.215010
O O10 0.516040 0.444964 0.105192
O O11 0.793549 0.416616 0.041682
O O12 0.750000 0.000000 0.639544
#
# Coordination Sequence:
#
# PCOD8216438 Si02
#       5
#     8   8   8   8   8
#     4  11  21  36  58  85 115 151 188 235 292 347
#     4  11  22  39  61  86 118 155 195 244 296 353
#     4  11  23  39  60  87 121 158 196 246 306 358
#     4  11  22  36  58  89 123 153 194 248 301 361
#     4  10  22  36  57  87 115 147 198 241 283 349
#
# _framework density 20.136026000000001
#
# number of rings (size 3 to 8) (size 9 to 14) (size 15 to 20)
#    0.000    1.200    0.000    9.600    0.000    4.800 
#    0.000    1.000    0.000    4.800    0.000    0.000 
#    0.000    0.000    0.000    0.000    0.000    0.000 
#
# Total GULP energy -496066.923410 kJ/mol
# GULP energy per Si atom -12401.673085 kJ/mol
# Density = 2.009020 g / cm^3
# Si number density = 20.136026 Si / 1000 Ang^3
#
#
#
# Elastic Constant Matrix: (Units=GPa)
#
#
# Indices 1 2 3 4 5 6 
#
# 1 149.3443 42.2084 41.5151 0.0000 0.0000 0.0000
# 2 42.2084 159.9979 50.6445 0.0000 0.0000 0.0000
# 3 41.5151 50.6445 69.8940 0.0000 0.0000 0.0000
# 4 0.0000 0.0000 0.0000 37.2348 0.0000 0.0000
# 5 0.0000 0.0000 0.0000 0.0000 15.2863 0.0000
# 6 0.0000 0.0000 0.0000 0.0000 0.0000 24.9559
#
#
#
# Elastic Compliance Matrix: (Units=1/GPa)
#
#
# Indices 1 2 3 4 5 6 
#
# 1 0.008098 -0.000796 -0.004233 0.000000 0.000000 0.000000
# 2 -0.000796 0.008189 -0.005460 0.000000 0.000000 0.000000
# 3 -0.004233 -0.005460 0.020778 0.000000 0.000000 0.000000
# 4 0.000000 0.000000 0.000000 0.026857 0.000000 0.000000
# 5 0.000000 0.000000 0.000000 0.000000 0.065418 0.000000
# 6 0.000000 0.000000 0.000000 0.000000 0.000000 0.040071
#
#
# Mechanical properties :
#
#
# Convention : Reuss Voigt Hill
#
# Bulk Modulus (GPa) = 62.16845 71.99693 67.08269
# Shear Modulus (GPa) = 25.54277 31.81994 28.68136
#
# Velocity S-wave (km/s) = 3.56548 3.97955 3.77819
# Velocity P-wave (km/s) = 6.92037 7.54643 7.24017
#
# Compressibility (1/GPa) = 0.01608533
#
# Stress axis : x y z
#
# Youngs Moduli (GPa) = 123.49281 122.12185 48.12793
#
# Poissons Ratio (x) = 0.09726 0.20371
# Poissons Ratio (y) = 0.09835 0.26279
# Poissons Ratio (z) = 0.52271 0.66682
#
# Static dielectric constant tensor:
#      x y z
#    x 3.951010 0.000000 0.000000 
#    y 0.000000 3.849100 0.000000 
#    z 0.000000 0.000000 3.614690 
# 
# 
# High freq. dielectric constant tensor:
#      x y z
#    x 1.812970 0.000000 0.000000 
#    y 0.000000 1.776720 0.000000 
#    z 0.000000 0.000000 1.767770 
# 
# From -- ./inp_files/16623.got.cif
#   From: 2010.06.25/outbox.cif.g09.slc.cpg/sg52_9_cif.got.tgz:16623.got - 2010.06.26 19:32:48.
