data_PCOD8216833
_publ_section_title
;
Structure prediction by ZEFSAII (Michael W. Deem and Ramdas Pophale) SiO2 
 PCOD8216833
Probable space group: P N N A
;
_chemical_formula_sum "Si O2"
_cell_formula_units_Z 52
_cell_length_a 13.564543
_cell_length_b 9.278472
_cell_length_c 20.422008
_cell_angle_alpha 90.000000
_cell_angle_beta 90.000000
_cell_angle_gamma 90.000000
_cell_volume 2570.277829
_symmetry_space_group_name_H-M "P N N A"
_symmetry_group_IT_number 52
_symmetry_cell_setting 'orthorhombic'
loop_
_space_group_symop_operation_xyz
x,y,z
1/2-x,-y,z
x,1/2-y,1/2-z
1/2-x,1/2+y,1/2-z
-x,-y,-z
1/2+x,y,-z
-x,1/2+y,1/2+z
1/2+x,1/2-y,1/2+z
loop_
_atom_site_type_symbol
_atom_site_label
_atom_site_fract_x
_atom_site_fract_y
_atom_site_fract_z
Si Si1 0.520035 0.542234 0.343066
Si Si2 0.297727 0.250000 0.250000
Si Si3 0.044610 0.524786 0.203155
Si Si4 0.713822 0.656400 0.393666
Si Si5 0.710873 0.339838 0.003560
Si Si6 0.587660 0.237251 0.380683
Si Si7 0.646853 0.245790 0.637897
O O1 0.517603 0.528447 0.264905
O O2 0.611571 0.649755 0.355620
O O3 0.527272 0.387443 0.378848
O O4 0.423277 0.617204 0.371898
O O5 0.363267 0.385177 0.229503
O O6 0.229864 0.293858 0.310859
O O7 0.084634 0.390893 0.162401
O O8 0.971294 0.617515 0.158688
O O9 0.750000 0.500000 0.414858
O O10 0.703230 0.744720 0.461803
O O11 0.802157 0.731654 0.350189
O O12 0.750000 0.500000 0.005381
O O13 0.698937 0.290728 0.929620
O O14 0.607650 0.317898 0.044478
#
# Coordination Sequence:
#
# PCOD8216833 Si02
#       7
#     8   4   8   8   8   8   8
#     4  11  21  45  68  99 138 179 232 286 338 421
#     4  12  24  46  66  96 142 174 234 278 342 410
#     4  12  23  43  70 103 137 180 235 278 352 408
#     4   8  20  44  66  97 138 171 226 276 346 417
#     4  10  23  47  68 100 137 179 229 281 353 405
#     4   9  22  43  69 101 134 179 224 287 347 416
#     4  12  27  43  69 101 136 186 230 289 343 407
#
# _framework density 20.231276000000001
#
# number of rings (size 3 to 8) (size 9 to 14) (size 15 to 20)
#    0.923    0.615    3.077    1.385    2.154    1.231 
#    5.538   13.077    0.000    0.000    0.000    0.000 
#    0.000    0.000    0.000    0.000    0.000    0.000 
#
# Total GULP energy -644435.526968 kJ/mol
# GULP energy per Si atom -12392.990903 kJ/mol
# Density = 2.018523 g / cm^3
# Si number density = 20.231276 Si / 1000 Ang^3
#
#
#
# Elastic Constant Matrix: (Units=GPa)
#
#
# Indices 1 2 3 4 5 6 
#
# 1 94.2853 35.9900 67.7027 0.0000 0.0000 0.0000
# 2 35.9900 64.2351 45.6376 0.0000 0.0000 0.0000
# 3 67.7027 45.6376 112.5255 0.0000 0.0000 0.0000
# 4 0.0000 0.0000 0.0000 2.8688 0.0000 0.0000
# 5 0.0000 0.0000 0.0000 0.0000 -21.9528 0.0000
# 6 0.0000 0.0000 0.0000 0.0000 0.0000 28.6804
#
#
#
# Elastic Compliance Matrix: (Units=1/GPa)
#
#
# Indices 1 2 3 4 5 6 
#
# 1 0.019246 -0.003591 -0.010123 0.000000 0.000000 0.000000
# 2 -0.003591 0.022540 -0.006981 0.000000 0.000000 0.000000
# 3 -0.010123 -0.006981 0.017809 0.000000 0.000000 0.000000
# 4 0.000000 0.000000 0.000000 0.348579 0.000000 0.000000
# 5 0.000000 0.000000 0.000000 0.000000 -0.045552 0.000000
# 6 0.000000 0.000000 0.000000 0.000000 0.000000 0.034867
#
#
# Mechanical properties :
#
#
# Convention : Reuss Voigt Hill
#
# Bulk Modulus (GPa) = 54.93216 63.30071 59.11643
# Shear Modulus (GPa) = 11.23732 10.03366 10.63549
#
# Velocity S-wave (km/s) = 2.35934 2.22941 2.29529
# Velocity P-wave (km/s) = 5.88498 6.16307 6.02563
#
# Compressibility (1/GPa) = 0.01820427
#
# Stress axis : x y z
#
# Youngs Moduli (GPa) = 51.95924 44.36649 56.15155
#
# Poissons Ratio (x) = 0.15931 0.56843
# Poissons Ratio (y) = 0.18658 0.39199
# Poissons Ratio (z) = 0.52599 0.30972
#
# Static dielectric constant tensor:
#      x y z
#    x 3.844790 0.000000 0.000000 
#    y 0.000000 3.849790 0.000000 
#    z 0.000000 0.000000 3.559840 
# 
# 
# High freq. dielectric constant tensor:
#      x y z
#    x 1.790920 0.000000 0.000000 
#    y 0.000000 1.806200 0.000000 
#    z 0.000000 0.000000 1.776390 
# 
# From -- ./inp_files/37248.got.cif
#   From: 2010.06.25/outbox.cif.g09.slc.cpg/sg52_19_cif.got.tgz:37248.got - 2010.06.26 19:32:48.
