data_PCOD8216205
_publ_section_title
;
Structure prediction by ZEFSAII (Michael W. Deem and Ramdas Pophale) SiO2 
 PCOD8216205
Probable space group: P N N A
;
_chemical_formula_sum "Si O2"
_cell_formula_units_Z 40
_cell_length_a 23.366769
_cell_length_b 13.601204
_cell_length_c 6.093577
_cell_angle_alpha 90.000000
_cell_angle_beta 90.000000
_cell_angle_gamma 90.000000
_cell_volume 1936.637438
_symmetry_space_group_name_H-M "P N N A"
_symmetry_group_IT_number 52
_symmetry_cell_setting 'orthorhombic'
loop_
_space_group_symop_operation_xyz
x,y,z
1/2-x,-y,z
x,1/2-y,1/2-z
1/2-x,1/2+y,1/2-z
-x,-y,-z
1/2+x,y,-z
-x,1/2+y,1/2+z
1/2+x,1/2-y,1/2+z
loop_
_atom_site_type_symbol
_atom_site_label
_atom_site_fract_x
_atom_site_fract_y
_atom_site_fract_z
Si Si1 0.750000 0.500000 0.080307
Si Si2 0.420455 0.383673 0.007600
Si Si3 0.306173 0.355838 0.243970
Si Si4 0.999684 0.250000 0.250000
Si Si5 0.050061 0.456748 0.351977
Si Si6 0.850380 0.026315 0.126394
O O1 0.805641 0.533239 0.221565
O O2 0.734048 0.589046 0.924980
O O3 0.370845 0.343449 0.160551
O O4 0.449621 0.478380 0.127295
O O5 0.462641 0.291920 0.956318
O O6 0.396334 0.414858 0.770555
O O7 0.276977 0.250000 0.250000
O O8 0.309028 0.402272 0.485785
O O9 0.039187 0.341453 0.318405
O O10 0.112831 0.458116 0.464083
O O11 0.000000 0.500000 0.500000
#
# Coordination Sequence:
#
# PCOD8216205 Si02
#       6
#     4   8   8   4   8   8
#     4  10  22  40  70  88 128 166 214 274 330 388
#     4  10  22  39  62  98 126 167 221 268 317 392
#     4  10  21  38  69  95 119 162 223 271 328 384
#     4  12  22  38  66  96 130 176 212 256 330 386
#     4  11  24  40  63  95 138 171 213 270 324 397
#     4  10  21  43  66  89 131 167 208 279 323 378
#
# _framework density 20.654357000000001
#
# number of rings (size 3 to 8) (size 9 to 14) (size 15 to 20)
#    0.000    1.600    2.000    2.400    2.800    2.400 
#    0.000    0.000   52.800    0.000    0.000    0.000 
#    0.000    0.000    0.000    0.000    0.000    0.000 
#
# Total GULP energy -495742.842895 kJ/mol
# GULP energy per Si atom -12393.571072 kJ/mol
# Density = 2.060735 g / cm^3
# Si number density = 20.654357 Si / 1000 Ang^3
#
#
#
# Elastic Constant Matrix: (Units=GPa)
#
#
# Indices 1 2 3 4 5 6 
#
# 1 91.8204 64.8509 49.6124 0.0000 0.0000 0.0000
# 2 64.8509 168.5280 63.3520 0.0000 0.0000 0.0000
# 3 49.6124 63.3520 123.4619 0.0000 0.0000 0.0000
# 4 0.0000 0.0000 0.0000 20.0306 0.0000 0.0000
# 5 0.0000 0.0000 0.0000 0.0000 1.6831 0.0000
# 6 0.0000 0.0000 0.0000 0.0000 0.0000 25.8210
#
#
#
# Elastic Compliance Matrix: (Units=1/GPa)
#
#
# Indices 1 2 3 4 5 6 
#
# 1 0.016536 -0.004789 -0.004187 0.000000 0.000000 0.000000
# 2 -0.004789 0.008739 -0.002560 0.000000 0.000000 0.000000
# 3 -0.004187 -0.002560 0.011096 0.000000 0.000000 0.000000
# 4 0.000000 0.000000 0.000000 0.049924 0.000000 0.000000
# 5 0.000000 0.000000 0.000000 0.000000 0.594150 0.000000
# 6 0.000000 0.000000 0.000000 0.000000 0.000000 0.038728
#
#
# Mechanical properties :
#
#
# Convention : Reuss Voigt Hill
#
# Bulk Modulus (GPa) = 75.19855 82.16012 78.67933
# Shear Modulus (GPa) = 6.69633 23.23993 14.96813
#
# Velocity S-wave (km/s) = 1.80253 3.35801 2.69494
# Velocity P-wave (km/s) = 6.38900 7.40945 6.91806
#
# Compressibility (1/GPa) = 0.01329813
#
# Stress axis : x y z
#
# Youngs Moduli (GPa) = 60.47515 114.43225 90.12394
#
# Poissons Ratio (x) = 0.54801 0.37739
# Poissons Ratio (y) = 0.28961 0.23069
# Poissons Ratio (z) = 0.25323 0.29292
#
# Static dielectric constant tensor:
#      x y z
#    x 3.836770 0.000000 0.000000 
#    y 0.000000 3.284550 0.000000 
#    z 0.000000 0.000000 4.067020 
# 
# 
# High freq. dielectric constant tensor:
#      x y z
#    x 1.807720 0.000000 0.000000 
#    y 0.000000 1.787470 0.000000 
#    z 0.000000 0.000000 1.826350 
# 
# From -- ./inp_files/5621.got.cif
#   From: 2010.06.25/outbox.cif.g09.slc.cpg/sg52_3_cif.got.tgz:5621.got - 2010.06.26 19:32:48.
