data_PCOD8216341
_publ_section_title
;
Structure prediction by ZEFSAII (Michael W. Deem and Ramdas Pophale) SiO2 
 PCOD8216341
Probable space group: P N N A
;
_chemical_formula_sum "Si O2"
_cell_formula_units_Z 40
_cell_length_a 15.228965
_cell_length_b 13.843520
_cell_length_c 8.314686
_cell_angle_alpha 90.000000
_cell_angle_beta 90.000000
_cell_angle_gamma 90.000000
_cell_volume 1752.922736
_symmetry_space_group_name_H-M "P N N A"
_symmetry_group_IT_number 52
_symmetry_cell_setting 'orthorhombic'
loop_
_space_group_symop_operation_xyz
x,y,z
1/2-x,-y,z
x,1/2-y,1/2-z
1/2-x,1/2+y,1/2-z
-x,-y,-z
1/2+x,y,-z
-x,1/2+y,1/2+z
1/2+x,1/2-y,1/2+z
loop_
_atom_site_type_symbol
_atom_site_label
_atom_site_fract_x
_atom_site_fract_y
_atom_site_fract_z
Si Si1 0.618471 0.347522 0.347394
Si Si2 0.773161 0.610520 0.867981
Si Si3 0.784067 0.310647 0.525127
Si Si4 0.948617 0.593796 0.038442
Si Si5 0.024679 0.778789 0.935409
O O1 0.603476 0.250000 0.250000
O O2 0.719953 0.359319 0.394847
O O3 0.555154 0.348771 0.505468
O O4 0.593319 0.427927 0.214962
O O5 0.750000 0.500000 0.914934
O O6 0.742769 0.636173 0.689154
O O7 0.728405 0.693975 0.977162
O O8 0.877144 0.620272 0.900622
O O9 0.883988 0.333032 0.475784
O O10 0.019253 0.680648 0.040233
O O11 0.000000 0.500000 0.000000
O O12 0.016427 0.750000 0.750000
#
# Coordination Sequence:
#
# PCOD8216341 Si02
#       5
#     8   8   8   8   8
#     4  10  21  41  65  97 128 175 228 278 341 423
#     4  11  24  41  67  99 136 180 231 282 349 418
#     4  11  23  43  70  93 139 180 225 289 347 418
#     4  11  24  43  68  98 139 175 232 293 347 423
#     4  11  23  40  68  95 128 178 226 271 357 412
#
# _framework density 22.819030999999999
#
# number of rings (size 3 to 8) (size 9 to 14) (size 15 to 20)
#    0.000    1.200    4.000    3.000   11.200    0.000 
#    3.600    2.000    0.000    0.000    0.000    0.000 
#    0.000    0.000    0.000    0.000    0.000    0.000 
#
# Total GULP energy -495639.864523 kJ/mol
# GULP energy per Si atom -12390.996613 kJ/mol
# Density = 2.276709 g / cm^3
# Si number density = 22.819031 Si / 1000 Ang^3
#
#
#
# Elastic Constant Matrix: (Units=GPa)
#
#
# Indices 1 2 3 4 5 6 
#
# 1 165.9762 10.7383 56.6954 0.0000 0.0000 0.0000
# 2 10.7383 55.8553 -0.5930 0.0000 0.0000 0.0000
# 3 56.6954 -0.5930 129.8548 0.0000 0.0000 0.0000
# 4 0.0000 0.0000 0.0000 24.0911 0.0000 0.0000
# 5 0.0000 0.0000 0.0000 0.0000 26.3110 0.0000
# 6 0.0000 0.0000 0.0000 0.0000 0.0000 23.8108
#
#
#
# Elastic Compliance Matrix: (Units=1/GPa)
#
#
# Indices 1 2 3 4 5 6 
#
# 1 0.007191 -0.001416 -0.003146 0.000000 0.000000 0.000000
# 2 -0.001416 0.018183 0.000701 0.000000 0.000000 0.000000
# 3 -0.003146 0.000701 0.009078 0.000000 0.000000 0.000000
# 4 0.000000 0.000000 0.000000 0.041509 0.000000 0.000000
# 5 0.000000 0.000000 0.000000 0.000000 0.038007 0.000000
# 6 0.000000 0.000000 0.000000 0.000000 0.000000 0.041998
#
#
# Mechanical properties :
#
#
# Convention : Reuss Voigt Hill
#
# Bulk Modulus (GPa) = 37.41078 53.92976 45.67027
# Shear Modulus (GPa) = 28.96909 33.83229 31.40069
#
# Velocity S-wave (km/s) = 3.56689 3.85468 3.71357
# Velocity P-wave (km/s) = 5.77873 6.59518 6.20041
#
# Compressibility (1/GPa) = 0.02673027
#
# Stress axis : x y z
#
# Youngs Moduli (GPa) = 139.05734 54.99625 110.15923
#
# Poissons Ratio (x) = 0.07787 0.34659
# Poissons Ratio (y) = 0.19690 -0.07725
# Poissons Ratio (z) = 0.43751 -0.03857
#
# Static dielectric constant tensor:
#      x y z
#    x 4.358290 0.000000 0.000000 
#    y 0.000000 3.968390 0.000000 
#    z 0.000000 0.000000 4.652600 
# 
# 
# High freq. dielectric constant tensor:
#      x y z
#    x 1.909280 0.000000 0.000000 
#    y 0.000000 1.869590 0.000000 
#    z 0.000000 0.000000 1.905840 
# 
# From -- ./inp_files/10054.got.cif
#   From: 2010.06.25/outbox.cif.g09.slc.cpg/sg52_6_cif.got.tgz:10054.got - 2010.06.26 19:32:48.
