data_PCOD8216036
_publ_section_title
;
Structure prediction by ZEFSAII (Michael W. Deem and Ramdas Pophale) SiO2 
 PCOD8216036
Probable space group: P N N A
;
_chemical_formula_sum "Si O2"
_cell_formula_units_Z 60
_cell_length_a 17.183712
_cell_length_b 30.542317
_cell_length_c 5.571068
_cell_angle_alpha 90.000000
_cell_angle_beta 90.000000
_cell_angle_gamma 90.000000
_cell_volume 2923.865731
_symmetry_space_group_name_H-M "P N N A"
_symmetry_group_IT_number 52
_symmetry_cell_setting 'orthorhombic'
loop_
_space_group_symop_operation_xyz
x,y,z
1/2-x,-y,z
x,1/2-y,1/2-z
1/2-x,1/2+y,1/2-z
-x,-y,-z
1/2+x,y,-z
-x,1/2+y,1/2+z
1/2+x,1/2-y,1/2+z
loop_
_atom_site_type_symbol
_atom_site_label
_atom_site_fract_x
_atom_site_fract_y
_atom_site_fract_z
Si Si1 0.503360 0.551147 0.540327
Si Si2 0.683413 0.322630 0.782289
Si Si3 0.134321 0.387510 0.588218
Si Si4 0.939202 0.408829 0.043216
Si Si5 0.796532 0.285634 0.438608
Si Si6 0.218209 0.867791 0.652745
Si Si7 0.961065 0.827123 0.423097
Si Si8 0.430809 0.250000 0.250000
O O1 0.500000 0.500000 0.500000
O O2 0.414783 0.568460 0.552220
O O3 0.545562 0.568168 0.299433
O O4 0.544213 0.563454 0.797376
O O5 0.665035 0.369860 0.663876
O O6 0.719974 0.286185 0.608130
O O7 0.752931 0.331838 0.964910
O O8 0.603695 0.306029 0.902216
O O9 0.208723 0.397480 0.759071
O O10 0.081157 0.348439 0.694381
O O11 0.847389 0.398583 0.039806
O O12 0.989200 0.364683 0.053432
O O13 0.768458 0.250000 0.250000
O O14 0.814208 0.335823 0.361012
O O15 0.877537 0.269699 0.544163
O O16 0.017061 0.788314 0.352876
#
# Coordination Sequence:
#
# PCOD8216036 Si02
#       8
#     8   8   8   8   8   8   8   4
#     4  11  24  44  74 106 139 177 222 281 346 417
#     4  10  20  43  63  88 124 176 223 266 346 398
#     4   9  21  41  68  91 133 172 219 269 344 410
#     4  11  23  42  75 100 137 177 229 271 346 410
#     4  11  23  39  61  90 129 170 224 292 337 390
#     4  10  23  40  67  92 126 182 225 270 341 406
#     4  10  22  41  63  96 125 181 219 283 329 404
#     4  12  26  42  62  92 136 170 238 288 330 394
#
# _framework density 20.520778
#
# number of rings (size 3 to 8) (size 9 to 14) (size 15 to 20)
#    0.000    1.600    1.333    2.800    7.467    1.067 
#   20.400    0.667    2.933    0.000    0.000    0.000 
#    0.000    0.000    0.000    0.000    0.000    0.000 
#
# Total GULP energy -743652.638200 kJ/mol
# GULP energy per Si atom -12394.210637 kJ/mol
# Density = 2.047407 g / cm^3
# Si number density = 20.520778 Si / 1000 Ang^3
#
#
#
# Elastic Constant Matrix: (Units=GPa)
#
#
# Indices 1 2 3 4 5 6 
#
# 1 144.2238 73.0090 50.8145 0.0000 0.0000 0.0000
# 2 73.0090 121.5881 49.0827 0.0000 0.0000 0.0000
# 3 50.8145 49.0827 112.9948 0.0000 0.0000 0.0000
# 4 0.0000 0.0000 0.0000 26.7100 0.0000 0.0000
# 5 0.0000 0.0000 0.0000 0.0000 42.3832 0.0000
# 6 0.0000 0.0000 0.0000 0.0000 0.0000 -16.0971
#
#
#
# Elastic Compliance Matrix: (Units=1/GPa)
#
#
# Indices 1 2 3 4 5 6 
#
# 1 0.010472 -0.005320 -0.002398 0.000000 0.000000 0.000000
# 2 -0.005320 0.012676 -0.003114 0.000000 0.000000 0.000000
# 3 -0.002398 -0.003114 0.011281 0.000000 0.000000 0.000000
# 4 0.000000 0.000000 0.000000 0.037439 0.000000 0.000000
# 5 0.000000 0.000000 0.000000 0.000000 0.023594 0.000000
# 6 0.000000 0.000000 0.000000 0.000000 0.000000 -0.062123
#
#
# Mechanical properties :
#
#
# Convention : Reuss Voigt Hill
#
# Bulk Modulus (GPa) = 78.34067 80.51323 79.42695
# Shear Modulus (GPa) = 84.37736 24.32591 54.35164
#
# Velocity S-wave (km/s) = 6.41929 3.44674 5.15205
# Velocity P-wave (km/s) = 9.65413 7.42699 8.61285
#
# Compressibility (1/GPa) = 0.01276476
#
# Stress axis : x y z
#
# Youngs Moduli (GPa) = 95.49649 78.89120 88.64363
#
# Poissons Ratio (x) = 0.41967 0.21260
# Poissons Ratio (y) = 0.50800 0.27602
# Poissons Ratio (z) = 0.22904 0.24565
#
# Static dielectric constant tensor:
#      x y z
#    x 3.927820 0.000000 0.000000 
#    y 0.000000 3.279540 0.000000 
#    z 0.000000 0.000000 6.597400 
# 
# 
# High freq. dielectric constant tensor:
#      x y z
#    x 1.813770 0.000000 0.000000 
#    y 0.000000 1.772960 0.000000 
#    z 0.000000 0.000000 1.820700 
# 
# From -- ./inp_files/3607.got.cif
#   From: 2010.06.25/outbox.cif.g09.slc.cpg/sg52_2_cif.got.tgz:3607.got - 2010.06.26 19:32:48.
