data_PCOD8216799
_publ_section_title
;
Structure prediction by ZEFSAII (Michael W. Deem and Ramdas Pophale) SiO2 
 PCOD8216799
Probable space group: P N N A
;
_chemical_formula_sum "Si O2"
_cell_formula_units_Z 56
_cell_length_a 18.852709
_cell_length_b 25.213138
_cell_length_c 5.025099
_cell_angle_alpha 90.000000
_cell_angle_beta 90.000000
_cell_angle_gamma 90.000000
_cell_volume 2388.610226
_symmetry_space_group_name_H-M "P N N A"
_symmetry_group_IT_number 52
_symmetry_cell_setting 'orthorhombic'
loop_
_space_group_symop_operation_xyz
x,y,z
1/2-x,-y,z
x,1/2-y,1/2-z
1/2-x,1/2+y,1/2-z
-x,-y,-z
1/2+x,y,-z
-x,1/2+y,1/2+z
1/2+x,1/2-y,1/2+z
loop_
_atom_site_type_symbol
_atom_site_label
_atom_site_fract_x
_atom_site_fract_y
_atom_site_fract_z
Si Si1 0.576982 0.106691 0.088000
Si Si2 0.541141 0.946283 0.576510
Si Si3 0.148343 0.017591 0.172759
Si Si4 0.208636 0.437244 0.817016
Si Si5 0.626865 0.693102 0.668655
Si Si6 0.852374 0.123699 0.331098
Si Si7 0.528894 0.217232 0.018700
O O1 0.507868 0.093407 0.260932
O O2 0.646893 0.106770 0.277422
O O3 0.586342 0.062946 0.854101
O O4 0.571830 0.164006 0.949560
O O5 0.576051 0.913745 0.326988
O O6 0.500000 0.000000 0.500000
O O7 0.609458 0.962590 0.758574
O O8 0.204320 0.035418 0.396568
O O9 0.192149 0.015156 0.896257
O O10 0.284409 0.411744 0.771696
O O11 0.662063 0.750000 0.750000
O O12 0.647131 0.672019 0.376684
O O13 0.542801 0.700121 0.666987
O O14 0.652237 0.649250 0.877305
O O15 0.516055 0.250000 0.750000
O O16 0.570693 0.250000 0.250000
#
# Coordination Sequence:
#
# PCOD8216799 Si02
#       7
#     8   8   8   8   8   8   8
#     4  10  24  43  71  99 147 183 235 304 352 430
#     4  12  24  44  73 110 140 192 245 293 364 428
#     4  10  23  43  69  97 150 183 237 285 353 424
#     4  10  24  44  68  96 146 187 232 286 357 419
#     4  11  24  46  72 104 138 181 241 301 352 426
#     4  12  26  44  74 104 142 191 239 292 365 422
#     4  11  24  40  69 107 136 174 232 297 371 418
#
# _framework density 23.444595
#
# number of rings (size 3 to 8) (size 9 to 14) (size 15 to 20)
#    0.857    0.286    2.857    3.429    4.000    2.857 
#    0.000    5.000    0.000    0.000    0.000    0.000 
#    0.000    0.000    0.000    0.000    0.000    0.000 
#
# Total GULP energy -694026.221122 kJ/mol
# GULP energy per Si atom -12393.325377 kJ/mol
# Density = 2.339123 g / cm^3
# Si number density = 23.444595 Si / 1000 Ang^3
#
#
#
# Elastic Constant Matrix: (Units=GPa)
#
#
# Indices 1 2 3 4 5 6 
#
# 1 97.6690 49.6769 14.1350 0.0000 0.0000 0.0000
# 2 49.6769 128.0992 31.9841 0.0000 0.0000 0.0000
# 3 14.1350 31.9841 114.8815 0.0000 0.0000 0.0000
# 4 0.0000 0.0000 0.0000 1044.3393 0.0000 0.0000
# 5 0.0000 0.0000 0.0000 0.0000 94.1083 0.0000
# 6 0.0000 0.0000 0.0000 0.0000 0.0000 26.0691
#
#
#
# Elastic Compliance Matrix: (Units=1/GPa)
#
#
# Indices 1 2 3 4 5 6 
#
# 1 0.012759 -0.004896 -0.000207 0.000000 0.000000 0.000000
# 2 -0.004896 0.010269 -0.002256 0.000000 0.000000 0.000000
# 3 -0.000207 -0.002256 0.009358 0.000000 0.000000 0.000000
# 4 0.000000 0.000000 0.000000 0.000958 0.000000 0.000000
# 5 0.000000 0.000000 0.000000 0.000000 0.010626 0.000000
# 6 0.000000 0.000000 0.000000 0.000000 0.000000 0.038360
#
#
# Mechanical properties :
#
#
# Convention : Reuss Voigt Hill
#
# Bulk Modulus (GPa) = 56.60278 59.13797 57.87037
# Shear Modulus (GPa) = 48.57345 249.22694 148.90019
#
# Velocity S-wave (km/s) = 4.55668 10.32160 7.97806
# Velocity P-wave (km/s) = 7.20279 12.93548 10.46916
#
# Compressibility (1/GPa) = 0.01766698
#
# Stress axis : x y z
#
# Youngs Moduli (GPa) = 78.37628 97.38396 106.85737
#
# Poissons Ratio (x) = 0.47682 0.02209
# Poissons Ratio (y) = 0.38376 0.24112
# Poissons Ratio (z) = 0.01620 0.21974
#
# Static dielectric constant tensor:
#      x y z
#    x 3.974560 0.000000 0.000000 
#    y 0.000000 4.674610 0.000000 
#    z 0.000000 0.000000 4.123430 
# 
# 
# High freq. dielectric constant tensor:
#      x y z
#    x 1.913420 0.000000 0.000000 
#    y 0.000000 1.935530 0.000000 
#    z 0.000000 0.000000 1.930700 
# 
# From -- ./inp_files/4530.got.cif
#   From: 2010.06.25/outbox.cif.g09.slc.cpg/sg52_3_cif.got.tgz:4530.got - 2010.06.26 19:32:48.
