data_PCOD8216458
_publ_section_title
;
Structure prediction by ZEFSAII (Michael W. Deem and Ramdas Pophale) SiO2 
 PCOD8216458
Probable space group: P N N A
;
_chemical_formula_sum "Si O2"
_cell_formula_units_Z 56
_cell_length_a 23.194941
_cell_length_b 21.300170
_cell_length_c 6.290378
_cell_angle_alpha 90.000000
_cell_angle_beta 90.000000
_cell_angle_gamma 90.000000
_cell_volume 3107.800166
_symmetry_space_group_name_H-M "P N N A"
_symmetry_group_IT_number 52
_symmetry_cell_setting 'orthorhombic'
loop_
_space_group_symop_operation_xyz
x,y,z
1/2-x,-y,z
x,1/2-y,1/2-z
1/2-x,1/2+y,1/2-z
-x,-y,-z
1/2+x,y,-z
-x,1/2+y,1/2+z
1/2+x,1/2-y,1/2+z
loop_
_atom_site_type_symbol
_atom_site_label
_atom_site_fract_x
_atom_site_fract_y
_atom_site_fract_z
Si Si1 0.597951 0.643453 0.458319
Si Si2 0.750000 0.500000 0.741796
Si Si3 0.685555 0.051260 0.379319
Si Si4 0.495722 0.187880 0.632481
Si Si5 0.062647 0.750000 0.250000
Si Si6 0.436574 0.575628 0.007633
Si Si7 0.966827 0.466868 0.689236
Si Si8 0.705825 0.927087 0.137864
O O1 0.556741 0.655294 0.258162
O O2 0.602089 0.705798 0.602316
O O3 0.577499 0.583716 0.595403
O O4 0.661895 0.631145 0.365696
O O5 0.713571 0.548400 0.600869
O O6 0.707597 0.457149 0.881130
O O7 0.623736 0.084957 0.384035
O O8 0.732101 0.091629 0.241595
O O9 0.677923 0.982545 0.277330
O O10 0.517920 0.250000 0.750000
O O11 0.477051 0.205077 0.393632
O O12 0.549127 0.139811 0.631645
O O13 0.487232 0.567021 0.838491
O O14 0.431584 0.517821 0.172320
O O15 0.000000 0.500000 0.500000
#
# Coordination Sequence:
#
# PCOD8216458 Si02
#       8
#     8   4   8   8   4   8   8   8
#     4  11  20  36  57  81 114 144 189 235 284 336
#     4   8  16  34  50  80 108 150 178 208 276 338
#     4   9  19  32  50  80 116 147 176 221 281 337
#     4  10  22  38  54  82 108 147 189 227 276 333
#     4  10  22  38  54  80 104 152 190 230 282 326
#     4  11  21  34  54  85 120 144 180 226 290 343
#     4  11  21  31  52  90 118 146 170 232 290 345
#     4   9  19  33  51  80 113 143 183 226 271 335
#
# _framework density 18.019176000000002
#
# number of rings (size 3 to 8) (size 9 to 14) (size 15 to 20)
#    0.000    2.286    2.857    1.714    2.000    3.429 
#    0.000    0.000    0.000    0.000   24.143    0.000 
#    0.000    0.000    0.000    0.000    0.000    0.000 
#
# Total GULP energy -694340.899805 kJ/mol
# GULP energy per Si atom -12398.944639 kJ/mol
# Density = 1.797816 g / cm^3
# Si number density = 18.019176 Si / 1000 Ang^3
#
#
#
# Elastic Constant Matrix: (Units=GPa)
#
#
# Indices 1 2 3 4 5 6 
#
# 1 115.8378 54.2950 28.6329 0.0000 0.0000 0.0000
# 2 54.2950 91.2490 29.4282 0.0000 0.0000 0.0000
# 3 28.6329 29.4282 89.8259 0.0000 0.0000 0.0000
# 4 0.0000 0.0000 0.0000 26.6755 0.0000 0.0000
# 5 0.0000 0.0000 0.0000 0.0000 20.0826 0.0000
# 6 0.0000 0.0000 0.0000 0.0000 0.0000 24.0425
#
#
#
# Elastic Compliance Matrix: (Units=1/GPa)
#
#
# Indices 1 2 3 4 5 6 
#
# 1 0.012196 -0.006713 -0.001689 0.000000 0.000000 0.000000
# 2 -0.006713 0.015948 -0.003085 0.000000 0.000000 0.000000
# 3 -0.001689 -0.003085 0.012682 0.000000 0.000000 0.000000
# 4 0.000000 0.000000 0.000000 0.037488 0.000000 0.000000
# 5 0.000000 0.000000 0.000000 0.000000 0.049794 0.000000
# 6 0.000000 0.000000 0.000000 0.000000 0.000000 0.041593
#
#
# Mechanical properties :
#
#
# Convention : Reuss Voigt Hill
#
# Bulk Modulus (GPa) = 56.01112 57.95834 56.98473
# Shear Modulus (GPa) = 25.17309 26.46389 25.81849
#
# Velocity S-wave (km/s) = 3.74172 3.83646 3.78939
# Velocity P-wave (km/s) = 7.05826 7.20133 7.13015
#
# Compressibility (1/GPa) = 0.01785360
#
# Stress axis : x y z
#
# Youngs Moduli (GPa) = 81.99126 62.70347 78.85414
#
# Poissons Ratio (x) = 0.42090 0.13315
# Poissons Ratio (y) = 0.55037 0.24328
# Poissons Ratio (z) = 0.13845 0.19345
#
# Static dielectric constant tensor:
#      x y z
#    x 3.158470 0.000000 0.000000 
#    y 0.000000 3.278110 0.000000 
#    z 0.000000 0.000000 3.710930 
# 
# 
# High freq. dielectric constant tensor:
#      x y z
#    x 1.680710 0.000000 0.000000 
#    y 0.000000 1.673210 0.000000 
#    z 0.000000 0.000000 1.717700 
# 
# From -- ./inp_files/5255.got.cif
#   From: 2010.06.25/outbox.cif.g09.slc.cpg/sg52_3_cif.got.tgz:5255.got - 2010.06.26 19:32:48.
