data_PCOD8216581
_publ_section_title
;
Structure prediction by ZEFSAII (Michael W. Deem and Ramdas Pophale) SiO2 
 PCOD8216581
Probable space group: P N N A
;
_chemical_formula_sum "Si O2"
_cell_formula_units_Z 52
_cell_length_a 19.391594
_cell_length_b 20.281967
_cell_length_c 5.422575
_cell_angle_alpha 90.000000
_cell_angle_beta 90.000000
_cell_angle_gamma 90.000000
_cell_volume 2132.696956
_symmetry_space_group_name_H-M "P N N A"
_symmetry_group_IT_number 52
_symmetry_cell_setting 'orthorhombic'
loop_
_space_group_symop_operation_xyz
x,y,z
1/2-x,-y,z
x,1/2-y,1/2-z
1/2-x,1/2+y,1/2-z
-x,-y,-z
1/2+x,y,-z
-x,1/2+y,1/2+z
1/2+x,1/2-y,1/2+z
loop_
_atom_site_type_symbol
_atom_site_label
_atom_site_fract_x
_atom_site_fract_y
_atom_site_fract_z
Si Si1 0.250000 0.500000 0.078487
Si Si2 0.874977 0.548364 0.252209
Si Si3 0.336050 0.121194 0.318897
Si Si4 0.538245 0.250000 0.250000
Si Si5 0.241644 0.750000 0.250000
Si Si6 0.412342 0.407802 0.667924
Si Si7 0.038192 0.139117 0.431051
Si Si8 0.857215 0.669214 0.552463
O O1 0.280622 0.437815 0.234457
O O2 0.188256 0.470003 0.921166
O O3 0.905971 0.484979 0.391179
O O4 0.841883 0.595054 0.461660
O O5 0.940905 0.579143 0.109150
O O6 0.302310 0.192141 0.375526
O O7 0.377752 0.105965 0.566765
O O8 0.382347 0.129987 0.071101
O O9 0.497043 0.201911 0.439754
O O10 0.585588 0.304340 0.372120
O O11 0.288805 0.713669 0.455039
O O12 0.491965 0.386529 0.702939
O O13 0.110732 0.168195 0.328108
#
# Coordination Sequence:
#
# PCOD8216581 Si02
#       8
#     4   8   8   4   4   8   8   8
#     4  10  24  50  72 108 150 192 250 310 378 460
#     4  10  25  43  75 109 143 196 244 316 378 443
#     4  11  29  48  73 107 145 202 242 309 377 446
#     4  10  22  41  64 108 137 184 244 294 378 418
#     4  12  26  47  70 108 149 194 256 308 376 462
#     4  11  28  49  72 108 150 194 249 301 383 453
#     4  11  23  46  70 108 143 194 250 312 372 454
#     4  11  24  42  74 106 138 190 242 319 366 439
#
# _framework density 24.382272
#
# number of rings (size 3 to 8) (size 9 to 14) (size 15 to 20)
#    0.000    1.231    1.538    1.385   17.231    2.462 
#    2.769    0.000    0.000    0.000    0.000    0.000 
#    0.000    0.000    0.000    0.000    0.000    0.000 
#
# Total GULP energy -644458.188766 kJ/mol
# GULP energy per Si atom -12393.426707 kJ/mol
# Density = 2.432678 g / cm^3
# Si number density = 24.382272 Si / 1000 Ang^3
#
#
#
# Elastic Constant Matrix: (Units=GPa)
#
#
# Indices 1 2 3 4 5 6 
#
# 1 77.3718 45.8375 24.6716 0.0000 0.0000 0.0000
# 2 45.8375 168.3037 38.8566 0.0000 0.0000 0.0000
# 3 24.6716 38.8566 106.3245 0.0000 0.0000 0.0000
# 4 0.0000 0.0000 0.0000 41.0821 0.0000 0.0000
# 5 0.0000 0.0000 0.0000 0.0000 24.4150 0.0000
# 6 0.0000 0.0000 0.0000 0.0000 0.0000 36.6653
#
#
#
# Elastic Compliance Matrix: (Units=1/GPa)
#
#
# Indices 1 2 3 4 5 6 
#
# 1 0.015911 -0.003802 -0.002303 0.000000 0.000000 0.000000
# 2 -0.003802 0.007398 -0.001821 0.000000 0.000000 0.000000
# 3 -0.002303 -0.001821 0.010605 0.000000 0.000000 0.000000
# 4 0.000000 0.000000 0.000000 0.024342 0.000000 0.000000
# 5 0.000000 0.000000 0.000000 0.000000 0.040958 0.000000
# 6 0.000000 0.000000 0.000000 0.000000 0.000000 0.027274
#
#
# Mechanical properties :
#
#
# Convention : Reuss Voigt Hill
#
# Bulk Modulus (GPa) = 55.36391 63.41460 59.38925
# Shear Modulus (GPa) = 33.70190 36.60811 35.15500
#
# Velocity S-wave (km/s) = 3.72187 3.87902 3.80126
# Velocity P-wave (km/s) = 6.42072 6.79171 6.60882
#
# Compressibility (1/GPa) = 0.01806231
#
# Stress axis : x y z
#
# Youngs Moduli (GPa) = 62.84900 135.18015 94.29442
#
# Poissons Ratio (x) = 0.51392 0.21713
# Poissons Ratio (y) = 0.23894 0.17174
# Poissons Ratio (z) = 0.14472 0.24620
#
# Static dielectric constant tensor:
#      x y z
#    x 4.243410 0.000000 0.000000 
#    y 0.000000 4.860200 0.000000 
#    z 0.000000 0.000000 3.538640 
# 
# 
# High freq. dielectric constant tensor:
#      x y z
#    x 1.953100 0.000000 0.000000 
#    y 0.000000 1.993480 0.000000 
#    z 0.000000 0.000000 1.961180 
# 
# From -- ./inp_files/4465.got.cif
#   From: 2010.06.25/outbox.cif.g09.slc.cpg/sg52_3_cif.got.tgz:4465.got - 2010.06.26 19:32:48.
