data_PCOD8216671
_publ_section_title
;
Structure prediction by ZEFSAII (Michael W. Deem and Ramdas Pophale) SiO2 
 PCOD8216671
Probable space group: P N N A
;
_chemical_formula_sum "Si O2"
_cell_formula_units_Z 64
_cell_length_a 14.609382
_cell_length_b 17.785008
_cell_length_c 11.978159
_cell_angle_alpha 90.000000
_cell_angle_beta 90.000000
_cell_angle_gamma 90.000000
_cell_volume 3112.260806
_symmetry_space_group_name_H-M "P N N A"
_symmetry_group_IT_number 52
_symmetry_cell_setting 'orthorhombic'
loop_
_space_group_symop_operation_xyz
x,y,z
1/2-x,-y,z
x,1/2-y,1/2-z
1/2-x,1/2+y,1/2-z
-x,-y,-z
1/2+x,y,-z
-x,1/2+y,1/2+z
1/2+x,1/2-y,1/2+z
loop_
_atom_site_type_symbol
_atom_site_label
_atom_site_fract_x
_atom_site_fract_y
_atom_site_fract_z
Si Si1 0.282011 0.578856 0.598648
Si Si2 0.888232 0.834368 0.281405
Si Si3 0.425247 0.106844 0.204777
Si Si4 0.522800 0.209133 0.866628
Si Si5 0.756157 0.918319 0.685298
Si Si6 0.678964 0.298551 0.980001
Si Si7 0.109736 0.056401 0.118811
Si Si8 0.351136 0.192884 0.003119
O O1 0.250000 0.500000 0.651594
O O2 0.313926 0.633987 0.695683
O O3 0.362886 0.562097 0.510658
O O4 0.195843 0.616655 0.538286
O O5 0.911808 0.750000 0.250000
O O6 0.843949 0.838749 0.403620
O O7 0.981127 0.881923 0.272600
O O8 0.345713 0.113072 0.297157
O O9 0.430973 0.025231 0.146307
O O10 0.408384 0.172655 0.114411
O O11 0.535348 0.250000 0.750000
O O12 0.600705 0.238517 0.951157
O O13 0.533271 0.119175 0.854268
O O14 0.422367 0.226494 0.913747
O O15 0.818138 0.863914 0.611696
O O16 0.800429 0.926848 0.807713
O O17 0.750000 0.000000 0.626315
O O18 0.776165 0.257172 0.978495
#
# Coordination Sequence:
#
# PCOD8216671 Si02
#       8
#     8   8   8   8   8   8   8   8
#     4  12  23  43  70 102 141 178 223 287 360 408
#     4  12  27  45  62  99 149 182 220 286 348 415
#     4  11  24  41  73 104 130 175 237 284 348 408
#     4  12  26  43  69 100 135 183 232 284 347 412
#     4  10  22  43  71  97 130 180 234 284 328 404
#     4  12  26  47  67  97 143 186 228 281 339 419
#     4  11  20  45  69 104 135 166 230 300 339 395
#     4  12  25  41  69 101 136 178 223 290 344 413
#
# _framework density 20.563829999999999
#
# number of rings (size 3 to 8) (size 9 to 14) (size 15 to 20)
#    0.000    0.500    6.250    1.875    7.000    1.500 
#    0.000    3.750    0.000    0.000    0.000    0.000 
#    0.000    0.000    0.000    0.000    0.000    0.000 
#
# Total GULP energy -793967.598807 kJ/mol
# GULP energy per Si atom -12405.743731 kJ/mol
# Density = 2.051703 g / cm^3
# Si number density = 20.563830 Si / 1000 Ang^3
#
#
#
# Elastic Constant Matrix: (Units=GPa)
#
#
# Indices 1 2 3 4 5 6 
#
# 1 86.0841 36.7247 26.7174 0.0000 0.0000 0.0000
# 2 36.7247 103.8665 45.6387 0.0000 0.0000 0.0000
# 3 26.7174 45.6387 102.2358 0.0000 0.0000 0.0000
# 4 0.0000 0.0000 0.0000 30.7182 0.0000 0.0000
# 5 0.0000 0.0000 0.0000 0.0000 27.7678 0.0000
# 6 0.0000 0.0000 0.0000 0.0000 0.0000 31.4652
#
#
#
# Elastic Compliance Matrix: (Units=1/GPa)
#
#
# Indices 1 2 3 4 5 6 
#
# 1 0.013940 -0.004140 -0.001795 0.000000 0.000000 0.000000
# 2 -0.004140 0.013207 -0.004814 0.000000 0.000000 0.000000
# 3 -0.001795 -0.004814 0.012399 0.000000 0.000000 0.000000
# 4 0.000000 0.000000 0.000000 0.032554 0.000000 0.000000
# 5 0.000000 0.000000 0.000000 0.000000 0.036013 0.000000
# 6 0.000000 0.000000 0.000000 0.000000 0.000000 0.031781
#
#
# Mechanical properties :
#
#
# Convention : Reuss Voigt Hill
#
# Bulk Modulus (GPa) = 55.40570 56.70532 56.05551
# Shear Modulus (GPa) = 29.86732 30.19726 30.03229
#
# Velocity S-wave (km/s) = 3.81520 3.83621 3.82572
# Velocity P-wave (km/s) = 6.81245 6.87439 6.84349
#
# Compressibility (1/GPa) = 0.01804869
#
# Stress axis : x y z
#
# Youngs Moduli (GPa) = 71.73689 75.71907 80.65079
#
# Poissons Ratio (x) = 0.31349 0.14474
# Poissons Ratio (y) = 0.29701 0.38822
# Poissons Ratio (z) = 0.12875 0.36448
#
# Static dielectric constant tensor:
#      x y z
#    x 3.675910 0.000000 0.000000 
#    y 0.000000 3.856560 0.000000 
#    z 0.000000 0.000000 3.598050 
# 
# 
# High freq. dielectric constant tensor:
#      x y z
#    x 1.808640 0.000000 0.000000 
#    y 0.000000 1.813670 0.000000 
#    z 0.000000 0.000000 1.791260 
# 
# From -- ./inp_files/19878.got.cif
#   From: 2010.06.25/outbox.cif.g09.slc.cpg/sg52_10_cif.got.tgz:19878.got - 2010.06.26 19:32:48.
