data_PCOD8216806
_publ_section_title
;
Structure prediction by ZEFSAII (Michael W. Deem and Ramdas Pophale) SiO2 
 PCOD8216806
Probable space group: P N N A
;
_chemical_formula_sum "Si O2"
_cell_formula_units_Z 36
_cell_length_a 21.073194
_cell_length_b 7.388051
_cell_length_c 11.430962
_cell_angle_alpha 90.000000
_cell_angle_beta 90.000000
_cell_angle_gamma 90.000000
_cell_volume 1779.684553
_symmetry_space_group_name_H-M "P N N A"
_symmetry_group_IT_number 52
_symmetry_cell_setting 'orthorhombic'
loop_
_space_group_symop_operation_xyz
x,y,z
1/2-x,-y,z
x,1/2-y,1/2-z
1/2-x,1/2+y,1/2-z
-x,-y,-z
1/2+x,y,-z
-x,1/2+y,1/2+z
1/2+x,1/2-y,1/2+z
loop_
_atom_site_type_symbol
_atom_site_label
_atom_site_fract_x
_atom_site_fract_y
_atom_site_fract_z
Si Si1 0.869965 0.250000 0.750000
Si Si2 0.750000 0.500000 0.132807
Si Si3 0.412894 0.959315 0.922247
Si Si4 0.040751 0.070079 0.178685
Si Si5 0.658361 0.250000 0.250000
Si Si6 0.799151 0.167751 0.984107
O O1 0.916959 0.421610 0.745602
O O2 0.823063 0.247479 0.860677
O O3 0.696541 0.433910 0.223056
O O4 0.765860 0.329322 0.052454
O O5 0.382794 0.781738 0.865544
O O6 0.466586 0.022354 0.830334
O O7 0.438081 0.894654 0.046514
O O8 0.360494 0.114396 0.940121
O O9 0.051097 0.250000 0.250000
O O10 0.750000 0.000000 0.965876
#
# Coordination Sequence:
#
# PCOD8216806 Si02
#       6
#     4   4   8   8   4   8
#     4  10  25  42  70 100 136 169 234 280 336 406
#     4  12  26  40  66  94 134 178 216 268 338 398
#     4  10  23  44  63  98 134 169 230 276 325 415
#     4  10  23  44  69  95 131 176 221 281 341 393
#     4  12  23  40  66  92 130 171 220 264 326 396
#     4  11  24  45  64 101 136 177 226 279 342 413
#
# _framework density 20.228304000000001
#
# number of rings (size 3 to 8) (size 9 to 14) (size 15 to 20)
#    0.000    1.333    2.222    2.000    7.778    0.000 
#    2.000    4.444    0.000    0.000    0.000    0.000 
#    0.000    0.000    0.000    0.000    0.000    0.000 
#
# Total GULP energy -446280.794182 kJ/mol
# GULP energy per Si atom -12396.688727 kJ/mol
# Density = 2.018226 g / cm^3
# Si number density = 20.228304 Si / 1000 Ang^3
#
#
#
# Elastic Constant Matrix: (Units=GPa)
#
#
# Indices 1 2 3 4 5 6 
#
# 1 111.7569 48.5163 41.7732 0.0000 0.0000 0.0000
# 2 48.5163 122.0760 61.9741 0.0000 0.0000 0.0000
# 3 41.7732 61.9741 88.4134 0.0000 0.0000 0.0000
# 4 0.0000 0.0000 0.0000 19.4875 0.0000 0.0000
# 5 0.0000 0.0000 0.0000 0.0000 29.8621 0.0000
# 6 0.0000 0.0000 0.0000 0.0000 0.0000 22.1292
#
#
#
# Elastic Compliance Matrix: (Units=1/GPa)
#
#
# Indices 1 2 3 4 5 6 
#
# 1 0.011453 -0.002801 -0.003447 0.000000 0.000000 0.000000
# 2 -0.002801 0.013402 -0.008071 0.000000 0.000000 0.000000
# 3 -0.003447 -0.008071 0.018597 0.000000 0.000000 0.000000
# 4 0.000000 0.000000 0.000000 0.051315 0.000000 0.000000
# 5 0.000000 0.000000 0.000000 0.000000 0.033487 0.000000
# 6 0.000000 0.000000 0.000000 0.000000 0.000000 0.045189
#
#
# Mechanical properties :
#
#
# Convention : Reuss Voigt Hill
#
# Bulk Modulus (GPa) = 67.51173 69.64150 68.57662
# Shear Modulus (GPa) = 24.15226 25.62795 24.89010
#
# Velocity S-wave (km/s) = 3.45915 3.56326 3.51160
# Velocity P-wave (km/s) = 7.02863 7.17159 7.10047
#
# Compressibility (1/GPa) = 0.01481224
#
# Stress axis : x y z
#
# Youngs Moduli (GPa) = 87.31501 74.61403 53.77311
#
# Poissons Ratio (x) = 0.20903 0.18538
# Poissons Ratio (y) = 0.24461 0.43399
# Poissons Ratio (z) = 0.30101 0.60220
#
# Static dielectric constant tensor:
#      x y z
#    x 4.051460 0.000000 0.000000 
#    y 0.000000 3.538500 0.000000 
#    z 0.000000 0.000000 3.832820 
# 
# 
# High freq. dielectric constant tensor:
#      x y z
#    x 1.808890 0.000000 0.000000 
#    y 0.000000 1.783730 0.000000 
#    z 0.000000 0.000000 1.804020 
# 
# From -- ./inp_files/22107.got.cif
#   From: 2010.06.25/outbox.cif.g09.slc.cpg/sg52_12_cif.got.tgz:22107.got - 2010.06.26 19:32:48.
