data_PCOD8216798
_publ_section_title
;
Structure prediction by ZEFSAII (Michael W. Deem and Ramdas Pophale) SiO2 
 PCOD8216798
Probable space group: P N N A
;
_chemical_formula_sum "Si O2"
_cell_formula_units_Z 36
_cell_length_a 10.217636
_cell_length_b 19.053106
_cell_length_c 7.878378
_cell_angle_alpha 90.000000
_cell_angle_beta 90.000000
_cell_angle_gamma 90.000000
_cell_volume 1533.744523
_symmetry_space_group_name_H-M "P N N A"
_symmetry_group_IT_number 52
_symmetry_cell_setting 'orthorhombic'
loop_
_space_group_symop_operation_xyz
x,y,z
1/2-x,-y,z
x,1/2-y,1/2-z
1/2-x,1/2+y,1/2-z
-x,-y,-z
1/2+x,y,-z
-x,1/2+y,1/2+z
1/2+x,1/2-y,1/2+z
loop_
_atom_site_type_symbol
_atom_site_label
_atom_site_fract_x
_atom_site_fract_y
_atom_site_fract_z
Si Si1 0.684157 0.068714 0.818453
Si Si2 0.789723 0.192071 0.029164
Si Si3 0.423458 0.397804 0.796095
Si Si4 0.956956 0.771010 0.555264
Si Si5 0.750000 0.500000 0.008264
O O1 0.527683 0.076304 0.848859
O O2 0.750000 0.000000 0.908190
O O3 0.697620 0.062513 0.613143
O O4 0.755641 0.137959 0.880855
O O5 0.812060 0.151014 0.207803
O O6 0.923462 0.228580 0.971608
O O7 0.674350 0.250541 0.049182
O O8 0.502178 0.353187 0.940997
O O9 0.363152 0.467966 0.874785
O O10 0.934829 0.750000 0.750000
#
# Coordination Sequence:
#
# PCOD8216798 Si02
#       5
#     8   8   8   8   4
#     4  10  24  43  67 101 142 186 232 293 353 416
#     4  11  22  44  74 100 139 188 232 300 347 419
#     4  11  24  47  69 104 146 179 253 284 359 434
#     4  10  23  43  69 102 144 177 234 299 347 421
#     4  10  26  44  70  98 148 194 222 312 354 418
#
# _framework density 23.471966999999999
#
# number of rings (size 3 to 8) (size 9 to 14) (size 15 to 20)
#    0.667    0.889    4.444    0.667    4.667    2.667 
#    0.000    3.333    0.000    0.000    0.000    0.000 
#    0.000    0.000    0.000    0.000    0.000    0.000 
#
# Total GULP energy -446036.087042 kJ/mol
# GULP energy per Si atom -12389.891307 kJ/mol
# Density = 2.341854 g / cm^3
# Si number density = 23.471967 Si / 1000 Ang^3
#
#
#
# Elastic Constant Matrix: (Units=GPa)
#
#
# Indices 1 2 3 4 5 6 
#
# 1 164.5498 64.8554 41.2699 0.0000 0.0000 0.0000
# 2 64.8554 120.3010 30.7789 0.0000 0.0000 0.0000
# 3 41.2699 30.7789 54.1596 0.0000 0.0000 0.0000
# 4 0.0000 0.0000 0.0000 53.8213 0.0000 0.0000
# 5 0.0000 0.0000 0.0000 0.0000 34.8385 0.0000
# 6 0.0000 0.0000 0.0000 0.0000 0.0000 53.7436
#
#
#
# Elastic Compliance Matrix: (Units=1/GPa)
#
#
# Indices 1 2 3 4 5 6 
#
# 1 0.008589 -0.003459 -0.004579 0.000000 0.000000 0.000000
# 2 -0.003459 0.011120 -0.003684 0.000000 0.000000 0.000000
# 3 -0.004579 -0.003684 0.024047 0.000000 0.000000 0.000000
# 4 0.000000 0.000000 0.000000 0.018580 0.000000 0.000000
# 5 0.000000 0.000000 0.000000 0.000000 0.028704 0.000000
# 6 0.000000 0.000000 0.000000 0.000000 0.000000 0.018607
#
#
# Mechanical properties :
#
#
# Convention : Reuss Voigt Hill
#
# Bulk Modulus (GPa) = 49.23195 68.09098 58.66147
# Shear Modulus (GPa) = 35.75005 41.95441 38.85223
#
# Velocity S-wave (km/s) = 3.90692 4.23238 4.07290
# Velocity P-wave (km/s) = 6.43213 7.27713 6.86764
#
# Compressibility (1/GPa) = 0.02031201
#
# Stress axis : x y z
#
# Youngs Moduli (GPa) = 116.42930 89.93120 41.58570
#
# Poissons Ratio (x) = 0.31105 0.19043
# Poissons Ratio (y) = 0.40270 0.15319
# Poissons Ratio (z) = 0.53315 0.33128
#
# Static dielectric constant tensor:
#      x y z
#    x 4.501760 0.000000 0.000000 
#    y 0.000000 4.402740 0.000000 
#    z 0.000000 0.000000 3.703580 
# 
# 
# High freq. dielectric constant tensor:
#      x y z
#    x 1.940510 0.000000 0.000000 
#    y 0.000000 1.939820 0.000000 
#    z 0.000000 0.000000 1.880990 
# 
# From -- ./inp_files/7319.got.cif
#   From: 2010.06.25/outbox.cif.g09.slc.cpg/sg52_4_cif.got.tgz:7319.got - 2010.06.26 19:32:48.
