data_PCOD8216614
_publ_section_title
;
Structure prediction by ZEFSAII (Michael W. Deem and Ramdas Pophale) SiO2 
 PCOD8216614
Probable space group: P N N A
;
_chemical_formula_sum "Si O2"
_cell_formula_units_Z 40
_cell_length_a 11.499177
_cell_length_b 15.263426
_cell_length_c 10.024268
_cell_angle_alpha 90.000000
_cell_angle_beta 90.000000
_cell_angle_gamma 90.000000
_cell_volume 1759.427815
_symmetry_space_group_name_H-M "P N N A"
_symmetry_group_IT_number 52
_symmetry_cell_setting 'orthorhombic'
loop_
_space_group_symop_operation_xyz
x,y,z
1/2-x,-y,z
x,1/2-y,1/2-z
1/2-x,1/2+y,1/2-z
-x,-y,-z
1/2+x,y,-z
-x,1/2+y,1/2+z
1/2+x,1/2-y,1/2+z
loop_
_atom_site_type_symbol
_atom_site_label
_atom_site_fract_x
_atom_site_fract_y
_atom_site_fract_z
Si Si1 0.628372 0.049343 0.741660
Si Si2 0.798888 0.634040 0.496282
Si Si3 0.095361 0.784791 0.117324
Si Si4 0.090653 0.320893 0.004728
Si Si5 0.922465 0.587115 0.254390
O O1 0.628117 0.084632 0.891426
O O2 0.607733 0.131163 0.644555
O O3 0.750000 0.000000 0.706492
O O4 0.513999 0.989979 0.733338
O O5 0.662911 0.638640 0.537462
O O6 0.825819 0.737630 0.497257
O O7 0.815607 0.576716 0.360481
O O8 0.165934 0.750000 0.250000
O O9 0.981232 0.828620 0.178787
O O10 0.045340 0.707871 0.020157
O O11 0.129705 0.389222 0.889643
#
# Coordination Sequence:
#
# PCOD8216614 Si02
#       5
#     8   8   8   8   8
#     4  12  23  40  69  97 133 175 218 272 335 392
#     4  11  21  40  68  92 128 175 221 260 329 397
#     4   9  18  37  65  91 125 172 215 261 320 394
#     4  10  23  40  66  94 127 175 221 268 321 398
#     4  10  22  42  63  94 132 164 215 279 326 372
#
# _framework density 22.734663999999999
#
# number of rings (size 3 to 8) (size 9 to 14) (size 15 to 20)
#    0.000    1.600    2.000    4.800    2.800    0.000 
#    0.000    9.000    0.000    0.000    0.000    0.000 
#    0.000    0.000    0.000    0.000    0.000    0.000 
#
# Total GULP energy -495545.811004 kJ/mol
# GULP energy per Si atom -12388.645275 kJ/mol
# Density = 2.268292 g / cm^3
# Si number density = 22.734664 Si / 1000 Ang^3
#
#
#
# Elastic Constant Matrix: (Units=GPa)
#
#
# Indices 1 2 3 4 5 6 
#
# 1 44.9679 -1.8725 -0.7984 0.0000 0.0000 0.0000
# 2 -1.8725 54.6814 4.6987 0.0000 0.0000 0.0000
# 3 -0.7984 4.6987 63.8942 0.0000 0.0000 0.0000
# 4 0.0000 0.0000 0.0000 35.1177 0.0000 0.0000
# 5 0.0000 0.0000 0.0000 0.0000 33.2238 0.0000
# 6 0.0000 0.0000 0.0000 0.0000 0.0000 38.1595
#
#
#
# Elastic Compliance Matrix: (Units=1/GPa)
#
#
# Indices 1 2 3 4 5 6 
#
# 1 0.022273 0.000744 0.000224 0.000000 0.000000 0.000000
# 2 0.000744 0.018429 -0.001346 0.000000 0.000000 0.000000
# 3 0.000224 -0.001346 0.015753 0.000000 0.000000 0.000000
# 4 0.000000 0.000000 0.000000 0.028476 0.000000 0.000000
# 5 0.000000 0.000000 0.000000 0.000000 0.030099 0.000000
# 6 0.000000 0.000000 0.000000 0.000000 0.000000 0.026206
#
#
# Mechanical properties :
#
#
# Convention : Reuss Voigt Hill
#
# Bulk Modulus (GPa) = 17.95432 18.62212 18.28822
# Shear Modulus (GPa) = 31.14137 32.06792 31.60465
#
# Velocity S-wave (km/s) = 3.70506 3.75978 3.73252
# Velocity P-wave (km/s) = 5.12033 5.20161 5.16113
#
# Compressibility (1/GPa) = 0.05569691
#
# Stress axis : x y z
#
# Youngs Moduli (GPa) = 44.89742 54.26265 63.48141
#
# Poissons Ratio (x) = -0.04034 -0.01420
# Poissons Ratio (y) = -0.03338 0.08544
# Poissons Ratio (z) = -0.01004 0.07304
#
# Static dielectric constant tensor:
#      x y z
#    x 4.071420 0.000000 0.000000 
#    y 0.000000 4.085300 0.000000 
#    z 0.000000 0.000000 4.922680 
# 
# 
# High freq. dielectric constant tensor:
#      x y z
#    x 1.877740 0.000000 0.000000 
#    y 0.000000 1.901580 0.000000 
#    z 0.000000 0.000000 1.903330 
# 
# From -- ./inp_files/8499.got.cif
#   From: 2010.06.25/outbox.cif.g09.slc.cpg/sg52_5_cif.got.tgz:8499.got - 2010.06.26 19:32:48.
