data_PCOD8216825
_publ_section_title
;
Structure prediction by ZEFSAII (Michael W. Deem and Ramdas Pophale) SiO2 
 PCOD8216825
Probable space group: P N N A
;
_chemical_formula_sum "Si O2"
_cell_formula_units_Z 56
_cell_length_a 19.775291
_cell_length_b 15.274949
_cell_length_c 8.789576
_cell_angle_alpha 90.000000
_cell_angle_beta 90.000000
_cell_angle_gamma 90.000000
_cell_volume 2655.036999
_symmetry_space_group_name_H-M "P N N A"
_symmetry_group_IT_number 52
_symmetry_cell_setting 'orthorhombic'
loop_
_space_group_symop_operation_xyz
x,y,z
1/2-x,-y,z
x,1/2-y,1/2-z
1/2-x,1/2+y,1/2-z
-x,-y,-z
1/2+x,y,-z
-x,1/2+y,1/2+z
1/2+x,1/2-y,1/2+z
loop_
_atom_site_type_symbol
_atom_site_label
_atom_site_fract_x
_atom_site_fract_y
_atom_site_fract_z
Si Si1 0.801921 0.168768 0.147269
Si Si2 0.563708 0.449012 0.939349
Si Si3 0.065591 0.502327 0.392069
Si Si4 0.841521 0.609112 0.422105
Si Si5 0.088045 0.802475 0.099725
Si Si6 0.446001 0.742433 0.929464
Si Si7 0.327379 0.492915 0.850817
O O1 0.776946 0.250000 0.250000
O O2 0.737593 0.129816 0.055764
O O3 0.837898 0.095148 0.251672
O O4 0.853380 0.205499 0.023694
O O5 0.557135 0.442877 0.757627
O O6 0.500000 0.500000 0.000000
O O7 0.570871 0.351854 0.004654
O O8 0.628208 0.505919 0.996072
O O9 0.134109 0.472462 0.476438
O O10 0.076756 0.600374 0.337642
O O11 0.000000 0.500000 0.500000
O O12 0.886819 0.690862 0.476267
O O13 0.850533 0.578407 0.246875
O O14 0.108632 0.750000 0.250000
O O15 0.020229 0.770358 0.012025
O O16 0.451654 0.750000 0.750000
O O17 0.250000 0.500000 0.901751
#
# Coordination Sequence:
#
# PCOD8216825 Si02
#       7
#     8   8   8   8   8   8   8
#     4  11  26  43  74 101 141 186 238 294 359 435
#     4  12  26  42  71 105 140 183 242 294 357 429
#     4  12  25  46  71 101 143 188 230 294 362 435
#     4  11  22  47  71  97 138 189 231 282 367 429
#     4  11  25  44  67 101 140 183 230 299 360 417
#     4  11  22  41  71 100 137 176 233 300 352 418
#     4  10  23  45  71 104 137 186 233 289 361 432
#
# _framework density 21.091985999999999
#
# number of rings (size 3 to 8) (size 9 to 14) (size 15 to 20)
#    0.000    0.857    4.286    3.000    6.000    0.571 
#    5.143    0.000    0.000    0.000    0.000    0.000 
#    0.000    0.000    0.000    0.000    0.000    0.000 
#
# Total GULP energy -694365.183695 kJ/mol
# GULP energy per Si atom -12399.378280 kJ/mol
# Density = 2.104398 g / cm^3
# Si number density = 21.091986 Si / 1000 Ang^3
#
#
#
# Elastic Constant Matrix: (Units=GPa)
#
#
# Indices 1 2 3 4 5 6 
#
# 1 137.6800 46.5301 71.2863 0.0000 0.0000 0.0000
# 2 46.5301 123.5663 43.2977 0.0000 0.0000 0.0000
# 3 71.2863 43.2977 118.8477 0.0000 0.0000 0.0000
# 4 0.0000 0.0000 0.0000 30.0025 0.0000 0.0000
# 5 0.0000 0.0000 0.0000 0.0000 34.3163 0.0000
# 6 0.0000 0.0000 0.0000 0.0000 0.0000 31.4254
#
#
#
# Elastic Compliance Matrix: (Units=1/GPa)
#
#
# Indices 1 2 3 4 5 6 
#
# 1 0.010989 -0.002096 -0.005828 0.000000 0.000000 0.000000
# 2 -0.002096 0.009677 -0.002268 0.000000 0.000000 0.000000
# 3 -0.005828 -0.002268 0.012736 0.000000 0.000000 0.000000
# 4 0.000000 0.000000 0.000000 0.033331 0.000000 0.000000
# 5 0.000000 0.000000 0.000000 0.000000 0.029141 0.000000
# 6 0.000000 0.000000 0.000000 0.000000 0.000000 0.031821
#
#
# Mechanical properties :
#
#
# Convention : Reuss Voigt Hill
#
# Bulk Modulus (GPa) = 76.81658 78.03579 77.42618
# Shear Modulus (GPa) = 32.80460 33.74750 33.27605
#
# Velocity S-wave (km/s) = 3.94802 4.00436 3.97629
# Velocity P-wave (km/s) = 7.56844 7.64578 7.60721
#
# Compressibility (1/GPa) = 0.01301802
#
# Stress axis : x y z
#
# Youngs Moduli (GPa) = 91.00022 103.33925 78.51746
#
# Poissons Ratio (x) = 0.21660 0.45758
# Poissons Ratio (y) = 0.19073 0.17809
# Poissons Ratio (z) = 0.53033 0.23440
#
# Static dielectric constant tensor:
#      x y z
#    x 3.969110 0.000000 0.000000 
#    y 0.000000 3.989430 0.000000 
#    z 0.000000 0.000000 3.346000 
# 
# 
# High freq. dielectric constant tensor:
#      x y z
#    x 1.833990 0.000000 0.000000 
#    y 0.000000 1.842190 0.000000 
#    z 0.000000 0.000000 1.807920 
# 
# From -- ./inp_files/13458.got.cif
#   From: 2010.06.25/outbox.cif.g09.slc.cpg/sg52_7_cif.got.tgz:13458.got - 2010.06.26 19:32:48.
