data_PCOD8216046
_publ_section_title
;
Structure prediction by ZEFSAII (Michael W. Deem and Ramdas Pophale) SiO2 
 PCOD8216046
Probable space group: P N N A
;
_chemical_formula_sum "Si O2"
_cell_formula_units_Z 48
_cell_length_a 9.750217
_cell_length_b 26.638368
_cell_length_c 9.076589
_cell_angle_alpha 90.000000
_cell_angle_beta 90.000000
_cell_angle_gamma 90.000000
_cell_volume 2357.461268
_symmetry_space_group_name_H-M "P N N A"
_symmetry_group_IT_number 52
_symmetry_cell_setting 'orthorhombic'
loop_
_space_group_symop_operation_xyz
x,y,z
1/2-x,-y,z
x,1/2-y,1/2-z
1/2-x,1/2+y,1/2-z
-x,-y,-z
1/2+x,y,-z
-x,1/2+y,1/2+z
1/2+x,1/2-y,1/2+z
loop_
_atom_site_type_symbol
_atom_site_label
_atom_site_fract_x
_atom_site_fract_y
_atom_site_fract_z
Si Si1 0.067857 0.864345 0.821915
Si Si2 0.534231 0.718211 0.555663
Si Si3 0.750000 0.500000 0.511439
Si Si4 0.939142 0.681816 0.949728
Si Si5 0.245353 0.250000 0.250000
Si Si6 0.998090 0.435780 0.573850
Si Si7 0.372782 0.648260 0.740797
O O1 0.229586 0.872899 0.816845
O O2 0.010110 0.859199 0.656192
O O3 0.033663 0.812282 0.904039
O O4 0.004046 0.911727 0.908503
O O5 0.541935 0.777840 0.522842
O O6 0.668775 0.709478 0.654555
O O7 0.405188 0.701025 0.657776
O O8 0.648580 0.536463 0.606912
O O9 0.865430 0.529356 0.413803
O O10 0.836518 0.716175 0.861445
O O11 0.866493 0.652303 0.082795
O O12 0.009454 0.391616 0.693839
#
# Coordination Sequence:
#
# PCOD8216046 Si02
#       7
#     8   8   4   8   4   8   8
#     4  11  23  39  59  92 127 162 215 261 307 368
#     4  11  22  38  57  84 123 177 220 253 292 359
#     4  10  20  44  74  98 118 152 208 258 332 406
#     4  12  23  38  58  85 131 178 210 255 302 357
#     4  12  22  36  56  84 116 184 230 244 302 352
#     4  10  22  41  72 100 120 158 200 267 320 396
#     4  11  23  39  59  93 129 161 214 267 309 362
#
# _framework density 20.360885
#
# number of rings (size 3 to 8) (size 9 to 14) (size 15 to 20)
#    0.000    1.000    5.000    2.000    2.333    1.333 
#    0.000    0.000    0.000    6.000    0.000    0.000 
#    0.000    0.000    0.000    0.000    0.000    0.000 
#
# Total GULP energy -594825.444940 kJ/mol
# GULP energy per Si atom -12392.196770 kJ/mol
# Density = 2.031454 g / cm^3
# Si number density = 20.360885 Si / 1000 Ang^3
#
#
#
# Elastic Constant Matrix: (Units=GPa)
#
#
# Indices 1 2 3 4 5 6 
#
# 1 105.6355 27.0130 33.1557 0.0000 0.0000 0.0000
# 2 27.0130 80.5071 31.8322 0.0000 0.0000 0.0000
# 3 33.1557 31.8322 122.6580 0.0000 0.0000 0.0000
# 4 0.0000 0.0000 0.0000 14.2377 0.0000 0.0000
# 5 0.0000 0.0000 0.0000 0.0000 19.9006 0.0000
# 6 0.0000 0.0000 0.0000 0.0000 0.0000 35.4155
#
#
#
# Elastic Compliance Matrix: (Units=1/GPa)
#
#
# Indices 1 2 3 4 5 6 
#
# 1 0.010872 -0.002770 -0.002220 0.000000 0.000000 0.000000
# 2 -0.002770 0.014547 -0.003027 0.000000 0.000000 0.000000
# 3 -0.002220 -0.003027 0.009538 0.000000 0.000000 0.000000
# 4 0.000000 0.000000 0.000000 0.070236 0.000000 0.000000
# 5 0.000000 0.000000 0.000000 0.000000 0.050250 0.000000
# 6 0.000000 0.000000 0.000000 0.000000 0.000000 0.028236
#
#
# Mechanical properties :
#
#
# Convention : Reuss Voigt Hill
#
# Bulk Modulus (GPa) = 52.84206 54.75584 53.79895
# Shear Modulus (GPa) = 24.26942 28.36406 26.31674
#
# Velocity S-wave (km/s) = 3.45623 3.73643 3.59906
# Velocity P-wave (km/s) = 6.47583 6.75023 6.61445
#
# Compressibility (1/GPa) = 0.01892432
#
# Stress axis : x y z
#
# Youngs Moduli (GPa) = 91.98268 68.74063 104.84118
#
# Poissons Ratio (x) = 0.19042 0.23273
# Poissons Ratio (y) = 0.25480 0.31731
# Poissons Ratio (z) = 0.20418 0.20805
#
# Static dielectric constant tensor:
#      x y z
#    x 3.792580 0.000000 0.000000 
#    y 0.000000 3.925450 0.000000 
#    z 0.000000 0.000000 3.741710 
# 
# 
# High freq. dielectric constant tensor:
#      x y z
#    x 1.804660 0.000000 0.000000 
#    y 0.000000 1.777430 0.000000 
#    z 0.000000 0.000000 1.782490 
# 
# From -- ./inp_files/7725.got.cif
#   From: 2010.06.25/outbox.cif.g09.slc.cpg/sg52_4_cif.got.tgz:7725.got - 2010.06.26 19:32:48.
