data_PCOD8216452
_publ_section_title
;
Structure prediction by ZEFSAII (Michael W. Deem and Ramdas Pophale) SiO2 
 PCOD8216452
Probable space group: P N N A
;
_chemical_formula_sum "Si O2"
_cell_formula_units_Z 64
_cell_length_a 11.409678
_cell_length_b 22.168094
_cell_length_c 12.076083
_cell_angle_alpha 90.000000
_cell_angle_beta 90.000000
_cell_angle_gamma 90.000000
_cell_volume 3054.413508
_symmetry_space_group_name_H-M "P N N A"
_symmetry_group_IT_number 52
_symmetry_cell_setting 'orthorhombic'
loop_
_space_group_symop_operation_xyz
x,y,z
1/2-x,-y,z
x,1/2-y,1/2-z
1/2-x,1/2+y,1/2-z
-x,-y,-z
1/2+x,y,-z
-x,1/2+y,1/2+z
1/2+x,1/2-y,1/2+z
loop_
_atom_site_type_symbol
_atom_site_label
_atom_site_fract_x
_atom_site_fract_y
_atom_site_fract_z
Si Si1 0.088552 0.252952 0.467651
Si Si2 0.177427 0.342182 0.871199
Si Si3 0.498526 0.195036 0.189387
Si Si4 0.000962 0.067280 0.543334
Si Si5 0.127055 0.135647 0.168135
Si Si6 0.644591 0.916352 0.755145
Si Si7 0.623361 0.013714 0.941327
Si Si8 0.054241 0.842918 0.650132
O O1 0.172164 0.201582 0.520475
O O2 0.026428 0.290316 0.563571
O O3 0.159709 0.300460 0.390732
O O4 0.987951 0.222414 0.392245
O O5 0.111420 0.312426 0.768170
O O6 0.121825 0.408262 0.900523
O O7 0.308444 0.346945 0.828898
O O8 0.426833 0.250000 0.250000
O O9 0.430585 0.133047 0.180865
O O10 0.895353 0.072522 0.630450
O O11 0.975378 0.107987 0.439958
O O12 0.000000 0.000000 0.500000
O O13 0.226192 0.112592 0.253201
O O14 0.115279 0.085183 0.074203
O O15 0.005885 0.141405 0.233742
O O16 0.633484 0.977994 0.824672
O O17 0.750000 0.000000 0.004509
O O18 0.500000 0.000000 0.000000
#
# Coordination Sequence:
#
# PCOD8216452 Si02
#       8
#     8   8   8   8   8   8   8   8
#     4  10  22  37  62  92 126 171 213 256 331 382
#     4   9  22  42  60  93 133 162 213 272 317 390
#     4   9  19  39  61  90 122 165 213 257 318 383
#     4  10  22  42  68  91 122 167 213 264 334 393
#     4  11  24  40  62  95 126 170 214 267 323 396
#     4  10  22  40  66  90 126 166 214 267 324 395
#     4  10  22  45  66  94 131 167 219 275 327 393
#     4  11  24  41  59  94 131 164 211 270 320 392
#
# _framework density 20.953287
#
# number of rings (size 3 to 8) (size 9 to 14) (size 15 to 20)
#    0.000    2.000    0.000    2.625    5.250    4.500 
#    9.000    0.000    0.000    0.000    0.000    0.000 
#    0.000    0.000    0.000    0.000    0.000    0.000 
#
# Total GULP energy -793113.527122 kJ/mol
# GULP energy per Si atom -12392.398861 kJ/mol
# Density = 2.090560 g / cm^3
# Si number density = 20.953287 Si / 1000 Ang^3
#
#
#
# Elastic Constant Matrix: (Units=GPa)
#
#
# Indices 1 2 3 4 5 6 
#
# 1 139.7702 43.2105 31.9233 0.0000 0.0000 0.0000
# 2 43.2105 141.2791 35.8694 0.0000 0.0000 0.0000
# 3 31.9233 35.8694 58.3749 0.0000 0.0000 0.0000
# 4 0.0000 0.0000 0.0000 32.8945 0.0000 0.0000
# 5 0.0000 0.0000 0.0000 0.0000 17.4177 0.0000
# 6 0.0000 0.0000 0.0000 0.0000 0.0000 20.2910
#
#
#
# Elastic Compliance Matrix: (Units=1/GPa)
#
#
# Indices 1 2 3 4 5 6 
#
# 1 0.008500 -0.001682 -0.003615 0.000000 0.000000 0.000000
# 2 -0.001682 0.008719 -0.004438 0.000000 0.000000 0.000000
# 3 -0.003615 -0.004438 0.021835 0.000000 0.000000 0.000000
# 4 0.000000 0.000000 0.000000 0.030400 0.000000 0.000000
# 5 0.000000 0.000000 0.000000 0.000000 0.057413 0.000000
# 6 0.000000 0.000000 0.000000 0.000000 0.000000 0.049283
#
#
# Mechanical properties :
#
#
# Convention : Reuss Voigt Hill
#
# Bulk Modulus (GPa) = 51.06119 62.38115 56.72117
# Shear Modulus (GPa) = 24.73435 29.34872 27.04154
#
# Velocity S-wave (km/s) = 3.43950 3.74662 3.59634
# Velocity P-wave (km/s) = 6.33999 6.96795 6.66138
#
# Compressibility (1/GPa) = 0.01958434
#
# Stress axis : x y z
#
# Youngs Moduli (GPa) = 117.64354 114.68707 45.79904
#
# Poissons Ratio (x) = 0.19291 0.16556
# Poissons Ratio (y) = 0.19788 0.20325
# Poissons Ratio (z) = 0.42528 0.50897
#
# Static dielectric constant tensor:
#      x y z
#    x 3.835400 0.000000 0.000000 
#    y 0.000000 4.150890 0.000000 
#    z 0.000000 0.000000 3.675190 
# 
# 
# High freq. dielectric constant tensor:
#      x y z
#    x 1.808810 0.000000 0.000000 
#    y 0.000000 1.840020 0.000000 
#    z 0.000000 0.000000 1.813610 
# 
# From -- ./inp_files/18501.got.cif
#   From: 2010.06.25/outbox.cif.g09.slc.cpg/sg52_10_cif.got.tgz:18501.got - 2010.06.26 19:32:48.
