data_PCOD8216554
_publ_section_title
;
Structure prediction by ZEFSAII (Michael W. Deem and Ramdas Pophale) SiO2 
 PCOD8216554
Probable space group: P N N A
;
_chemical_formula_sum "Si O2"
_cell_formula_units_Z 32
_cell_length_a 8.971535
_cell_length_b 13.355088
_cell_length_c 11.394078
_cell_angle_alpha 90.000000
_cell_angle_beta 90.000000
_cell_angle_gamma 90.000000
_cell_volume 1365.188741
_symmetry_space_group_name_H-M "P N N A"
_symmetry_group_IT_number 52
_symmetry_cell_setting 'orthorhombic'
loop_
_space_group_symop_operation_xyz
x,y,z
1/2-x,-y,z
x,1/2-y,1/2-z
1/2-x,1/2+y,1/2-z
-x,-y,-z
1/2+x,y,-z
-x,1/2+y,1/2+z
1/2+x,1/2-y,1/2+z
loop_
_atom_site_type_symbol
_atom_site_label
_atom_site_fract_x
_atom_site_fract_y
_atom_site_fract_z
Si Si1 0.408292 0.781082 0.616207
Si Si2 0.490425 0.370619 0.559613
Si Si3 0.380033 0.750000 0.250000
Si Si4 0.250000 0.500000 0.489757
Si Si5 0.790096 0.382884 0.925299
O O1 0.368675 0.750000 0.750000
O O2 0.476947 0.677510 0.566816
O O3 0.532977 0.868046 0.595430
O O4 0.264442 0.820423 0.541435
O O5 0.502781 0.287618 0.656295
O O6 0.321885 0.412075 0.568780
O O7 0.612810 0.457766 0.586981
O O8 0.281290 0.662854 0.192963
O O9 0.750000 0.500000 0.937827
#
# Coordination Sequence:
#
# PCOD8216554 Si02
#       5
#     8   8   4   4   8
#     4  11  24  47  68 100 144 186 227 294 354 409
#     4  10  22  42  66 100 134 178 232 283 347 408
#     4  10  22  40  72 100 146 182 218 288 354 412
#     4  10  22  40  66  96 132 172 240 276 326 416
#     4  11  24  45  74 103 141 186 238 284 354 424
#
# _framework density 23.439982000000001
#
# number of rings (size 3 to 8) (size 9 to 14) (size 15 to 20)
#    0.000    1.500    1.250    3.750    1.750    2.000 
#   22.500    0.000    0.000    0.000    0.000    0.000 
#    0.000    0.000    0.000    0.000    0.000    0.000 
#
# Total GULP energy -396535.659175 kJ/mol
# GULP energy per Si atom -12391.739349 kJ/mol
# Density = 2.338663 g / cm^3
# Si number density = 23.439982 Si / 1000 Ang^3
#
#
#
# Elastic Constant Matrix: (Units=GPa)
#
#
# Indices 1 2 3 4 5 6 
#
# 1 85.3721 3.8364 15.0205 0.0000 0.0000 0.0000
# 2 3.8364 98.0816 22.7833 0.0000 0.0000 0.0000
# 3 15.0205 22.7833 126.7135 0.0000 0.0000 0.0000
# 4 0.0000 0.0000 0.0000 19.7871 0.0000 0.0000
# 5 0.0000 0.0000 0.0000 0.0000 10.9570 0.0000
# 6 0.0000 0.0000 0.0000 0.0000 0.0000 37.1627
#
#
#
# Elastic Compliance Matrix: (Units=1/GPa)
#
#
# Indices 1 2 3 4 5 6 
#
# 1 0.011965 -0.000145 -0.001392 0.000000 0.000000 0.000000
# 2 -0.000145 0.010642 -0.001896 0.000000 0.000000 0.000000
# 3 -0.001392 -0.001896 0.008398 0.000000 0.000000 0.000000
# 4 0.000000 0.000000 0.000000 0.050538 0.000000 0.000000
# 5 0.000000 0.000000 0.000000 0.000000 0.091266 0.000000
# 6 0.000000 0.000000 0.000000 0.000000 0.000000 0.026909
#
#
# Mechanical properties :
#
#
# Convention : Reuss Voigt Hill
#
# Bulk Modulus (GPa) = 41.42823 43.71640 42.57231
# Shear Modulus (GPa) = 23.29595 31.48316 27.38956
#
# Velocity S-wave (km/s) = 3.15597 3.66886 3.42204
# Velocity P-wave (km/s) = 5.56711 6.05295 5.81511
#
# Compressibility (1/GPa) = 0.02413813
#
# Stress axis : x y z
#
# Youngs Moduli (GPa) = 83.57783 93.96975 119.07861
#
# Poissons Ratio (x) = 0.01359 0.16580
# Poissons Ratio (y) = 0.01208 0.22580
# Poissons Ratio (z) = 0.11637 0.17819
#
# Static dielectric constant tensor:
#      x y z
#    x 4.375880 0.000000 0.000000 
#    y 0.000000 4.454940 0.000000 
#    z 0.000000 0.000000 4.116620 
# 
# 
# High freq. dielectric constant tensor:
#      x y z
#    x 1.937960 0.000000 0.000000 
#    y 0.000000 1.937910 0.000000 
#    z 0.000000 0.000000 1.907780 
# 
# From -- ./inp_files/16456.got.cif
#   From: 2010.06.25/outbox.cif.g09.slc.cpg/sg52_9_cif.got.tgz:16456.got - 2010.06.26 19:32:48.
