data_PCOD8216579
_publ_section_title
;
Structure prediction by ZEFSAII (Michael W. Deem and Ramdas Pophale) SiO2 
 PCOD8216579
Probable space group: P N N A
;
_chemical_formula_sum "Si O2"
_cell_formula_units_Z 40
_cell_length_a 9.474285
_cell_length_b 21.747552
_cell_length_c 8.668762
_cell_angle_alpha 90.000000
_cell_angle_beta 90.000000
_cell_angle_gamma 90.000000
_cell_volume 1786.133444
_symmetry_space_group_name_H-M "P N N A"
_symmetry_group_IT_number 52
_symmetry_cell_setting 'orthorhombic'
loop_
_space_group_symop_operation_xyz
x,y,z
1/2-x,-y,z
x,1/2-y,1/2-z
1/2-x,1/2+y,1/2-z
-x,-y,-z
1/2+x,y,-z
-x,1/2+y,1/2+z
1/2+x,1/2-y,1/2+z
loop_
_atom_site_type_symbol
_atom_site_label
_atom_site_fract_x
_atom_site_fract_y
_atom_site_fract_z
Si Si1 0.322928 0.742628 0.432213
Si Si2 0.086419 0.828274 0.908048
Si Si3 0.871945 0.040883 0.951541
Si Si4 0.784221 0.435198 0.889413
Si Si5 0.509358 0.141147 0.584520
O O1 0.284641 0.750000 0.250000
O O2 0.184258 0.728033 0.532167
O O3 0.426370 0.685012 0.459931
O O4 0.404149 0.803177 0.496657
O O5 0.084942 0.831277 0.722890
O O6 0.135346 0.892332 0.975217
O O7 0.861279 0.047903 0.768692
O O8 0.750000 0.000000 0.023917
O O9 0.000000 0.000000 0.000000
O O10 0.750000 0.500000 0.977745
O O11 0.631808 0.404769 0.857465
O O12 0.894997 0.391304 0.975493
#
# Coordination Sequence:
#
# PCOD8216579 Si02
#       5
#     8   8   8   8   8
#     4  10  22  41  63  94 131 168 213 269 326 391
#     4  11  22  41  66  94 128 170 217 269 325 393
#     4  11  23  41  64  94 129 171 222 275 330 400
#     4  11  24  44  66  97 136 175 221 281 341 402
#     4  11  24  43  67  99 135 174 223 278 336 404
#
# _framework density 22.394743999999999
#
# number of rings (size 3 to 8) (size 9 to 14) (size 15 to 20)
#    0.000    1.200    0.000    7.800    0.000    4.000 
#    0.000    5.000    0.000    0.000    0.000    0.000 
#    0.000    0.000    0.000    0.000    0.000    0.000 
#
# Total GULP energy -495712.114705 kJ/mol
# GULP energy per Si atom -12392.802868 kJ/mol
# Density = 2.234377 g / cm^3
# Si number density = 22.394744 Si / 1000 Ang^3
#
#
#
# Elastic Constant Matrix: (Units=GPa)
#
#
# Indices 1 2 3 4 5 6 
#
# 1 145.1048 50.3585 74.1361 0.0000 0.0000 0.0000
# 2 50.3585 129.6126 46.7922 0.0000 0.0000 0.0000
# 3 74.1361 46.7922 84.7246 0.0000 0.0000 0.0000
# 4 0.0000 0.0000 0.0000 42.5321 0.0000 0.0000
# 5 0.0000 0.0000 0.0000 0.0000 31.7854 0.0000
# 6 0.0000 0.0000 0.0000 0.0000 0.0000 59.5991
#
#
#
# Elastic Compliance Matrix: (Units=1/GPa)
#
#
# Indices 1 2 3 4 5 6 
#
# 1 0.012598 -0.001143 -0.010392 0.000000 0.000000 0.000000
# 2 -0.001143 0.009740 -0.004379 0.000000 0.000000 0.000000
# 3 -0.010392 -0.004379 0.023315 0.000000 0.000000 0.000000
# 4 0.000000 0.000000 0.000000 0.023512 0.000000 0.000000
# 5 0.000000 0.000000 0.000000 0.000000 0.031461 0.000000
# 6 0.000000 0.000000 0.000000 0.000000 0.000000 0.016779
#
#
# Mechanical properties :
#
#
# Convention : Reuss Voigt Hill
#
# Bulk Modulus (GPa) = 72.33662 78.00171 75.16917
# Shear Modulus (GPa) = 32.50103 39.32699 35.91401
#
# Velocity S-wave (km/s) = 3.81370 4.19511 4.00894
# Velocity P-wave (km/s) = 7.19467 7.64011 7.42073
#
# Compressibility (1/GPa) = 0.01382426
#
# Stress axis : x y z
#
# Youngs Moduli (GPa) = 79.37983 102.66528 42.89093
#
# Poissons Ratio (x) = 0.11733 0.44573
# Poissons Ratio (y) = 0.09072 0.18784
# Poissons Ratio (z) = 0.82492 0.44962
#
# Static dielectric constant tensor:
#      x y z
#    x 4.054160 0.000000 0.000000 
#    y 0.000000 4.688080 0.000000 
#    z 0.000000 0.000000 3.755060 
# 
# 
# High freq. dielectric constant tensor:
#      x y z
#    x 1.898120 0.000000 0.000000 
#    y 0.000000 1.914530 0.000000 
#    z 0.000000 0.000000 1.854830 
# 
# From -- ./inp_files/7420.got.cif
#   From: 2010.06.25/outbox.cif.g09.slc.cpg/sg52_4_cif.got.tgz:7420.got - 2010.06.26 19:32:48.
