data_PCOD8216796
_publ_section_title
;
Structure prediction by ZEFSAII (Michael W. Deem and Ramdas Pophale) SiO2 
 PCOD8216796
Probable space group: P N N A
;
_chemical_formula_sum "Si O2"
_cell_formula_units_Z 48
_cell_length_a 14.488617
_cell_length_b 17.756909
_cell_length_c 8.664197
_cell_angle_alpha 90.000000
_cell_angle_beta 90.000000
_cell_angle_gamma 90.000000
_cell_volume 2229.064419
_symmetry_space_group_name_H-M "P N N A"
_symmetry_group_IT_number 52
_symmetry_cell_setting 'orthorhombic'
loop_
_space_group_symop_operation_xyz
x,y,z
1/2-x,-y,z
x,1/2-y,1/2-z
1/2-x,1/2+y,1/2-z
-x,-y,-z
1/2+x,y,-z
-x,1/2+y,1/2+z
1/2+x,1/2-y,1/2+z
loop_
_atom_site_type_symbol
_atom_site_label
_atom_site_fract_x
_atom_site_fract_y
_atom_site_fract_z
Si Si1 0.172789 0.441297 0.719629
Si Si2 0.559605 0.271049 0.577088
Si Si3 0.271840 0.706450 0.894788
Si Si4 0.598272 0.694300 0.894847
Si Si5 0.572938 0.441397 0.568080
Si Si6 0.025398 0.969523 0.335205
O O1 0.250000 0.500000 0.769946
O O2 0.186949 0.369274 0.824982
O O3 0.168629 0.432743 0.531824
O O4 0.071013 0.470913 0.748039
O O5 0.588780 0.250000 0.750000
O O6 0.645357 0.256141 0.463588
O O7 0.473700 0.221012 0.523429
O O8 0.528719 0.358062 0.572307
O O9 0.225727 0.750000 0.750000
O O10 0.198298 0.690390 0.027455
O O11 0.599041 0.750000 0.750000
O O12 0.572649 0.611714 0.835722
O O13 0.500000 0.500000 0.500000
O O14 0.593054 0.472211 0.742396
O O15 0.000000 0.000000 0.500000
#
# Coordination Sequence:
#
# PCOD8216796 Si02
#       6
#     8   8   8   8   8   8
#     4  11  23  43  68 100 145 186 237 297 361 435
#     4  12  24  46  73 102 146 191 243 305 367 440
#     4  12  25  45  71 103 144 192 247 302 366 437
#     4  12  25  44  73 104 145 190 247 301 370 444
#     4  10  23  43  69 100 141 188 236 286 367 436
#     4  11  23  44  69 103 142 187 237 301 372 433
#
# _framework density 21.533698999999999
#
# number of rings (size 3 to 8) (size 9 to 14) (size 15 to 20)
#    0.000    0.667    3.333    5.500    0.000    5.333 
#    3.000    0.833    0.000    0.000    0.000    0.000 
#    0.000    0.000    0.000    0.000    0.000    0.000 
#
# Total GULP energy -594954.094984 kJ/mol
# GULP energy per Si atom -12394.876979 kJ/mol
# Density = 2.148469 g / cm^3
# Si number density = 21.533699 Si / 1000 Ang^3
#
#
#
# Elastic Constant Matrix: (Units=GPa)
#
#
# Indices 1 2 3 4 5 6 
#
# 1 85.7339 41.0372 35.1873 0.0000 0.0000 0.0000
# 2 41.0372 148.4739 62.1280 0.0000 0.0000 0.0000
# 3 35.1873 62.1280 144.7436 0.0000 0.0000 0.0000
# 4 0.0000 0.0000 0.0000 38.8175 0.0000 0.0000
# 5 0.0000 0.0000 0.0000 0.0000 61.9197 0.0000
# 6 0.0000 0.0000 0.0000 0.0000 0.0000 31.0599
#
#
#
# Elastic Compliance Matrix: (Units=1/GPa)
#
#
# Indices 1 2 3 4 5 6 
#
# 1 0.013955 -0.002971 -0.002117 0.000000 0.000000 0.000000
# 2 -0.002971 0.008842 -0.003073 0.000000 0.000000 0.000000
# 3 -0.002117 -0.003073 0.008743 0.000000 0.000000 0.000000
# 4 0.000000 0.000000 0.000000 0.025762 0.000000 0.000000
# 5 0.000000 0.000000 0.000000 0.000000 0.016150 0.000000
# 6 0.000000 0.000000 0.000000 0.000000 0.000000 0.032196
#
#
# Mechanical properties :
#
#
# Convention : Reuss Voigt Hill
#
# Bulk Modulus (GPa) = 65.71570 72.85072 69.28321
# Shear Modulus (GPa) = 39.35690 42.39936 40.87813
#
# Velocity S-wave (km/s) = 4.27979 4.44213 4.36171
# Velocity P-wave (km/s) = 7.41660 7.75980 7.59014
#
# Compressibility (1/GPa) = 0.01521706
#
# Stress axis : x y z
#
# Youngs Moduli (GPa) = 71.65829 113.09258 114.38369
#
# Poissons Ratio (x) = 0.33602 0.24217
# Poissons Ratio (y) = 0.21291 0.35151
# Poissons Ratio (z) = 0.15171 0.34754
#
# Static dielectric constant tensor:
#      x y z
#    x 3.715000 0.000000 0.000000 
#    y 0.000000 4.040570 0.000000 
#    z 0.000000 0.000000 4.300620 
# 
# 
# High freq. dielectric constant tensor:
#      x y z
#    x 1.824010 0.000000 0.000000 
#    y 0.000000 1.859960 0.000000 
#    z 0.000000 0.000000 1.872900 
# 
# From -- ./inp_files/10499.got.cif
#   From: 2010.06.25/outbox.cif.g09.slc.cpg/sg52_6_cif.got.tgz:10499.got - 2010.06.26 19:32:48.
