data_PCOD8216052
_publ_section_title
;
Structure prediction by ZEFSAII (Michael W. Deem and Ramdas Pophale) SiO2 
 PCOD8216052
Probable space group: P N N A
;
_chemical_formula_sum "Si O2"
_cell_formula_units_Z 56
_cell_length_a 15.184302
_cell_length_b 8.525986
_cell_length_c 20.630692
_cell_angle_alpha 90.000000
_cell_angle_beta 90.000000
_cell_angle_gamma 90.000000
_cell_volume 2670.873035
_symmetry_space_group_name_H-M "P N N A"
_symmetry_group_IT_number 52
_symmetry_cell_setting 'orthorhombic'
loop_
_space_group_symop_operation_xyz
x,y,z
1/2-x,-y,z
x,1/2-y,1/2-z
1/2-x,1/2+y,1/2-z
-x,-y,-z
1/2+x,y,-z
-x,1/2+y,1/2+z
1/2+x,1/2-y,1/2+z
loop_
_atom_site_type_symbol
_atom_site_label
_atom_site_fract_x
_atom_site_fract_y
_atom_site_fract_z
Si Si1 0.908832 0.089824 0.995462
Si Si2 0.827787 0.609327 0.904580
Si Si3 0.839145 0.557595 0.378372
Si Si4 0.156117 0.449796 0.363209
Si Si5 0.324434 0.619741 0.950516
Si Si6 0.004830 0.855620 0.186787
Si Si7 0.477561 0.376432 0.068133
O O1 0.857700 0.062036 0.062367
O O2 0.927907 0.276410 0.988344
O O3 0.854372 0.020256 0.935244
O O4 0.000000 0.000000 0.000000
O O5 0.750000 0.500000 0.874696
O O6 0.846109 0.761253 0.861259
O O7 0.919512 0.518529 0.906704
O O8 0.796810 0.664942 0.976233
O O9 0.750000 0.500000 0.344092
O O10 0.824783 0.732011 0.404512
O O11 0.912845 0.551465 0.322096
O O12 0.250000 0.500000 0.335089
O O13 0.083121 0.517045 0.313578
O O14 0.250000 0.500000 0.923350
O O15 0.426679 0.555551 0.954149
O O16 0.006805 0.750000 0.250000
O O17 0.011510 0.746866 0.124943
#
# Coordination Sequence:
#
# PCOD8216052 Si02
#       7
#     8   8   8   8   8   8   8
#     4  11  17  34  59  92 132 164 203 255 325 403
#     4  11  21  32  53  92 131 162 194 244 325 401
#     4  11  22  36  63  94 121 165 217 262 323 395
#     4  11  21  37  63  93 126 167 210 262 329 391
#     4  10  21  32  49  86 131 163 189 241 318 391
#     4  10  23  45  64  83 118 168 229 280 316 364
#     4  10  21  36  57  84 123 167 205 262 318 385
#
# _framework density 20.966926000000001
#
# number of rings (size 3 to 8) (size 9 to 14) (size 15 to 20)
#    0.000    1.429    5.714    2.571    4.000    1.143 
#    0.000    5.714    0.000    0.000    0.000    0.000 
#    0.000    0.000    0.000    0.000    0.000    0.000 
#
# Total GULP energy -694279.773185 kJ/mol
# GULP energy per Si atom -12397.853093 kJ/mol
# Density = 2.091920 g / cm^3
# Si number density = 20.966926 Si / 1000 Ang^3
#
#
#
# Elastic Constant Matrix: (Units=GPa)
#
#
# Indices 1 2 3 4 5 6 
#
# 1 185.6901 78.9191 30.7061 0.0000 0.0000 0.0000
# 2 78.9191 126.2505 24.5934 0.0000 0.0000 0.0000
# 3 30.7061 24.5934 45.4295 0.0000 0.0000 0.0000
# 4 0.0000 0.0000 0.0000 25.1793 0.0000 0.0000
# 5 0.0000 0.0000 0.0000 0.0000 25.6787 0.0000
# 6 0.0000 0.0000 0.0000 0.0000 0.0000 17.9923
#
#
#
# Elastic Compliance Matrix: (Units=1/GPa)
#
#
# Indices 1 2 3 4 5 6 
#
# 1 0.007659 -0.004224 -0.002890 0.000000 0.000000 0.000000
# 2 -0.004224 0.011185 -0.003200 0.000000 0.000000 0.000000
# 3 -0.002890 -0.003200 0.025697 0.000000 0.000000 0.000000
# 4 0.000000 0.000000 0.000000 0.039715 0.000000 0.000000
# 5 0.000000 0.000000 0.000000 0.000000 0.038943 0.000000
# 6 0.000000 0.000000 0.000000 0.000000 0.000000 0.055579
#
#
# Mechanical properties :
#
#
# Convention : Reuss Voigt Hill
#
# Bulk Modulus (GPa) = 41.81745 69.53412 55.67579
# Shear Modulus (GPa) = 24.11078 28.64683 26.37881
#
# Velocity S-wave (km/s) = 3.39476 3.70034 3.55084
# Velocity P-wave (km/s) = 5.94589 7.17582 6.58962
#
# Compressibility (1/GPa) = 0.02391346
#
# Stress axis : x y z
#
# Youngs Moduli (GPa) = 130.57282 89.40745 38.91466
#
# Poissons Ratio (x) = 0.37770 0.11245
# Poissons Ratio (y) = 0.55160 0.12451
# Poissons Ratio (z) = 0.37729 0.28606
#
# Static dielectric constant tensor:
#      x y z
#    x 4.427060 0.000000 0.000000 
#    y 0.000000 3.633760 0.000000 
#    z 0.000000 0.000000 5.762760 
# 
# 
# High freq. dielectric constant tensor:
#      x y z
#    x 1.846930 0.000000 0.000000 
#    y 0.000000 1.827070 0.000000 
#    z 0.000000 0.000000 1.759010 
# 
# From -- ./inp_files/37342.got.cif
#   From: 2010.06.25/outbox.cif.g09.slc.cpg/sg52_19_cif.got.tgz:37342.got - 2010.06.26 19:32:48.
