data_PCOD8216732
_publ_section_title
;
Structure prediction by ZEFSAII (Michael W. Deem and Ramdas Pophale) SiO2 
 PCOD8216732
Probable space group: P N N A
;
_chemical_formula_sum "Si O2"
_cell_formula_units_Z 40
_cell_length_a 21.227971
_cell_length_b 8.677638
_cell_length_c 10.275626
_cell_angle_alpha 90.000000
_cell_angle_beta 90.000000
_cell_angle_gamma 90.000000
_cell_volume 1892.859171
_symmetry_space_group_name_H-M "P N N A"
_symmetry_group_IT_number 52
_symmetry_cell_setting 'orthorhombic'
loop_
_space_group_symop_operation_xyz
x,y,z
1/2-x,-y,z
x,1/2-y,1/2-z
1/2-x,1/2+y,1/2-z
-x,-y,-z
1/2+x,y,-z
-x,1/2+y,1/2+z
1/2+x,1/2-y,1/2+z
loop_
_atom_site_type_symbol
_atom_site_label
_atom_site_fract_x
_atom_site_fract_y
_atom_site_fract_z
Si Si1 0.133951 0.661957 0.873953
Si Si2 0.409026 0.429408 0.134441
Si Si3 0.984227 0.750000 0.250000
Si Si4 0.115743 0.330244 0.940030
Si Si5 0.302389 0.250000 0.250000
Si Si6 0.746421 0.177019 0.020070
O O1 0.103540 0.750000 0.750000
O O2 0.133749 0.477338 0.847989
O O3 0.093803 0.688015 0.008119
O O4 0.205026 0.723388 0.894375
O O5 0.471179 0.398177 0.221035
O O6 0.346544 0.397948 0.219178
O O7 0.407679 0.605299 0.081508
O O8 0.939855 0.771695 0.123913
O O9 0.175638 0.224218 0.950922
O O10 0.257995 0.203573 0.131995
O O11 0.750000 0.000000 0.060280
#
# Coordination Sequence:
#
# PCOD8216732 Si02
#       6
#     8   8   4   8   4   8
#     4   9  21  39  62  87 131 161 206 266 324 390
#     4   8  20  40  66  88 119 176 218 257 321 378
#     4  11  20  40  68  90 124 179 224 268 310 385
#     4  10  23  38  64  92 128 171 212 267 328 380
#     4   9  20  40  64  86 130 159 204 274 320 391
#     4  11  24  35  63  97 126 160 209 261 337 400
#
# _framework density 21.132054
#
# number of rings (size 3 to 8) (size 9 to 14) (size 15 to 20)
#    1.200    1.200    0.000    1.200    7.000    0.000 
#    0.000    1.000    6.600    0.000    0.000    0.000 
#    0.000    0.000    0.000    0.000    0.000    0.000 
#
# Total GULP energy -495545.512865 kJ/mol
# GULP energy per Si atom -12388.637822 kJ/mol
# Density = 2.108396 g / cm^3
# Si number density = 21.132054 Si / 1000 Ang^3
#
#
#
# Elastic Constant Matrix: (Units=GPa)
#
#
# Indices 1 2 3 4 5 6 
#
# 1 126.4887 53.1618 23.1192 0.0000 0.0000 0.0000
# 2 53.1618 92.1187 28.7769 0.0000 0.0000 0.0000
# 3 23.1192 28.7769 57.2312 0.0000 0.0000 0.0000
# 4 0.0000 0.0000 0.0000 30.5516 0.0000 0.0000
# 5 0.0000 0.0000 0.0000 0.0000 11.8570 0.0000
# 6 0.0000 0.0000 0.0000 0.0000 0.0000 14.5698
#
#
#
# Elastic Compliance Matrix: (Units=1/GPa)
#
#
# Indices 1 2 3 4 5 6 
#
# 1 0.010534 -0.005635 -0.001422 0.000000 0.000000 0.000000
# 2 -0.005635 0.015893 -0.005715 0.000000 0.000000 0.000000
# 3 -0.001422 -0.005715 0.020921 0.000000 0.000000 0.000000
# 4 0.000000 0.000000 0.000000 0.032732 0.000000 0.000000
# 5 0.000000 0.000000 0.000000 0.000000 0.084338 0.000000
# 6 0.000000 0.000000 0.000000 0.000000 0.000000 0.068635
#
#
# Mechanical properties :
#
#
# Convention : Reuss Voigt Hill
#
# Bulk Modulus (GPa) = 45.86289 53.99492 49.92891
# Shear Modulus (GPa) = 18.80657 22.78106 20.79381
#
# Velocity S-wave (km/s) = 2.98645 3.28690 3.14027
# Velocity P-wave (km/s) = 5.80017 6.32548 6.06851
#
# Compressibility (1/GPa) = 0.02180412
#
# Stress axis : x y z
#
# Youngs Moduli (GPa) = 94.92992 62.92166 47.79905
#
# Poissons Ratio (x) = 0.35456 0.06797
# Poissons Ratio (y) = 0.53493 0.27316
# Poissons Ratio (z) = 0.13499 0.35959
#
# Static dielectric constant tensor:
#      x y z
#    x 3.646380 0.000000 0.000000 
#    y 0.000000 3.522160 0.000000 
#    z 0.000000 0.000000 3.911110 
# 
# 
# High freq. dielectric constant tensor:
#      x y z
#    x 1.823040 0.000000 0.000000 
#    y 0.000000 1.794640 0.000000 
#    z 0.000000 0.000000 1.827340 
# 
# From -- ./inp_files/20410.got.cif
#   From: 2010.06.25/outbox.cif.g09.slc.cpg/sg52_11_cif.got.tgz:20410.got - 2010.06.26 19:32:48.
