data_PCOD8216969
_publ_section_title
;
Structure prediction by ZEFSAII (Michael W. Deem and Ramdas Pophale) SiO2 
 PCOD8216969
Probable space group: P N N A
;
_chemical_formula_sum "Si O2"
_cell_formula_units_Z 32
_cell_length_a 6.487599
_cell_length_b 11.996741
_cell_length_c 16.357730
_cell_angle_alpha 90.000000
_cell_angle_beta 90.000000
_cell_angle_gamma 90.000000
_cell_volume 1273.122861
_symmetry_space_group_name_H-M "P N N A"
_symmetry_group_IT_number 52
_symmetry_cell_setting 'orthorhombic'
loop_
_space_group_symop_operation_xyz
x,y,z
1/2-x,-y,z
x,1/2-y,1/2-z
1/2-x,1/2+y,1/2-z
-x,-y,-z
1/2+x,y,-z
-x,1/2+y,1/2+z
1/2+x,1/2-y,1/2+z
loop_
_atom_site_type_symbol
_atom_site_label
_atom_site_fract_x
_atom_site_fract_y
_atom_site_fract_z
Si Si1 0.486037 0.533594 0.823933
Si Si2 0.630134 0.225867 0.429393
Si Si3 0.412755 0.802045 0.383471
Si Si4 0.639344 0.608291 0.650814
O O1 0.250000 0.500000 0.835490
O O2 0.526081 0.633622 0.889445
O O3 0.629876 0.424636 0.843192
O O4 0.523055 0.576539 0.733355
O O5 0.673518 0.202302 0.523874
O O6 0.527164 0.346888 0.415047
O O7 0.844545 0.222156 0.381487
O O8 0.307601 0.704597 0.330460
O O9 0.750000 0.500000 0.612442
#
# Coordination Sequence:
#
# PCOD8216969 Si02
#       4
#     8   8   8   8
#     4  10  26  47  77 112 150 192 257 324 378 445
#     4  11  24  49  76 113 146 198 252 314 372 457
#     4  11  25  49  77 107 150 195 255 315 379 447
#     4  12  29  44  72 108 153 202 247 307 380 461
#
# _framework density 25.135045999999999
#
# number of rings (size 3 to 8) (size 9 to 14) (size 15 to 20)
#    0.000    1.000    2.500    1.500   10.500    1.000 
#    0.000    0.000    0.000    0.000    0.000    0.000 
#    0.000    0.000    0.000    0.000    0.000    0.000 
#
# Total GULP energy -397085.016778 kJ/mol
# GULP energy per Si atom -12408.906774 kJ/mol
# Density = 2.507784 g / cm^3
# Si number density = 25.135046 Si / 1000 Ang^3
#
#
#
# Elastic Constant Matrix: (Units=GPa)
#
#
# Indices 1 2 3 4 5 6 
#
# 1 32.8357 43.3210 2.2006 0.0000 0.0000 0.0000
# 2 43.3210 191.7027 54.8293 0.0000 0.0000 0.0000
# 3 2.2006 54.8293 103.2510 0.0000 0.0000 0.0000
# 4 0.0000 0.0000 0.0000 48.3077 0.0000 0.0000
# 5 0.0000 0.0000 0.0000 0.0000 48.0703 0.0000
# 6 0.0000 0.0000 0.0000 0.0000 0.0000 51.5449
#
#
#
# Elastic Compliance Matrix: (Units=1/GPa)
#
#
# Indices 1 2 3 4 5 6 
#
# 1 0.045745 -0.011860 0.005323 0.000000 0.000000 0.000000
# 2 -0.011860 0.009225 -0.004646 0.000000 0.000000 0.000000
# 3 0.005323 -0.004646 0.012039 0.000000 0.000000 0.000000
# 4 0.000000 0.000000 0.000000 0.020701 0.000000 0.000000
# 5 0.000000 0.000000 0.000000 0.000000 0.020803 0.000000
# 6 0.000000 0.000000 0.000000 0.000000 0.000000 0.019401
#
#
# Mechanical properties :
#
#
# Convention : Reuss Voigt Hill
#
# Bulk Modulus (GPa) = 22.39986 58.72124 40.56055
# Shear Modulus (GPa) = 30.27355 44.74714 37.51035
#
# Velocity S-wave (km/s) = 3.47426 4.22390 3.86729
# Velocity P-wave (km/s) = 5.00252 6.87033 6.00944
#
# Compressibility (1/GPa) = 0.04464314
#
# Stress axis : x y z
#
# Youngs Moduli (GPa) = 21.86029 108.39670 83.06385
#
# Poissons Ratio (x) = 1.28557 -0.44215
# Poissons Ratio (y) = 0.25926 0.38593
# Poissons Ratio (z) = -0.11636 0.50363
#
# Static dielectric constant tensor:
#      x y z
#    x 4.993610 0.000000 0.000000 
#    y 0.000000 4.913410 0.000000 
#    z 0.000000 0.000000 4.024230 
# 
# 
# High freq. dielectric constant tensor:
#      x y z
#    x 2.053860 0.000000 0.000000 
#    y 0.000000 2.011990 0.000000 
#    z 0.000000 0.000000 1.982600 
# 
# From -- ./inp_files/24089.got.cif
#   From: 2010.06.25/outbox.cif.g09.slc.cpg/sg52_13_cif.got.tgz:24089.got - 2010.06.26 19:32:48.
