data_PCOD8216728
_publ_section_title
;
Structure prediction by ZEFSAII (Michael W. Deem and Ramdas Pophale) SiO2 
 PCOD8216728
Probable space group: P N N A
;
_chemical_formula_sum "Si O2"
_cell_formula_units_Z 64
_cell_length_a 13.846166
_cell_length_b 24.813044
_cell_length_c 8.736289
_cell_angle_alpha 90.000000
_cell_angle_beta 90.000000
_cell_angle_gamma 90.000000
_cell_volume 3001.487727
_symmetry_space_group_name_H-M "P N N A"
_symmetry_group_IT_number 52
_symmetry_cell_setting 'orthorhombic'
loop_
_space_group_symop_operation_xyz
x,y,z
1/2-x,-y,z
x,1/2-y,1/2-z
1/2-x,1/2+y,1/2-z
-x,-y,-z
1/2+x,y,-z
-x,1/2+y,1/2+z
1/2+x,1/2-y,1/2+z
loop_
_atom_site_type_symbol
_atom_site_label
_atom_site_fract_x
_atom_site_fract_y
_atom_site_fract_z
Si Si1 0.347291 0.385966 0.712041
Si Si2 0.282704 0.691368 0.302095
Si Si3 0.990844 0.269827 0.597797
Si Si4 0.646050 0.515246 0.071217
Si Si5 0.523023 0.168304 0.618040
Si Si6 0.301718 0.699039 0.661111
Si Si7 0.887976 0.128303 0.884393
Si Si8 0.995102 0.924138 0.374689
O O1 0.339615 0.441913 0.796252
O O2 0.433254 0.348042 0.776431
O O3 0.246230 0.354092 0.734961
O O4 0.359000 0.405113 0.534841
O O5 0.249793 0.750000 0.250000
O O6 0.382455 0.672081 0.225029
O O7 0.285670 0.698911 0.482048
O O8 0.201481 0.644937 0.271611
O O9 0.933471 0.250000 0.750000
O O10 0.009510 0.226216 0.464810
O O11 0.083531 0.298180 0.679588
O O12 0.926663 0.317479 0.529570
O O13 0.750000 0.500000 0.001531
O O14 0.596543 0.462758 0.146545
O O15 0.583499 0.539855 0.935007
O O16 0.536927 0.123464 0.488171
O O17 0.254558 0.750000 0.750000
O O18 0.970913 0.098676 0.788597
#
# Coordination Sequence:
#
# PCOD8216728 Si02
#       8
#     8   8   8   8   8   8   8   8
#     4  10  25  41  65  97 127 173 211 271 330 380
#     4  11  23  37  58  93 135 173 212 253 310 385
#     4  11  21  38  61  97 131 178 208 256 314 389
#     4  10  24  46  71  92 122 165 224 277 331 389
#     4  11  23  42  66  93 135 175 213 260 323 382
#     4  10  23  37  58  93 131 172 216 248 313 388
#     4  11  24  39  63  96 135 165 215 268 324 393
#     4  10  24  45  69  96 121 169 221 272 333 385
#
# _framework density 21.322759000000001
#
# number of rings (size 3 to 8) (size 9 to 14) (size 15 to 20)
#    0.000    1.500    2.500    1.125    7.000    1.500 
#    0.000    0.625    0.000    0.000    0.000    0.000 
#    0.000    0.000    0.000    0.000    0.000    0.000 
#
# Total GULP energy -793096.798432 kJ/mol
# GULP energy per Si atom -12392.137476 kJ/mol
# Density = 2.127423 g / cm^3
# Si number density = 21.322759 Si / 1000 Ang^3
#
#
#
# Elastic Constant Matrix: (Units=GPa)
#
#
# Indices 1 2 3 4 5 6 
#
# 1 100.2191 44.7233 22.4000 0.0000 0.0000 0.0000
# 2 44.7233 91.1692 30.5426 0.0000 0.0000 0.0000
# 3 22.4000 30.5426 70.6308 0.0000 0.0000 0.0000
# 4 0.0000 0.0000 0.0000 23.4968 0.0000 0.0000
# 5 0.0000 0.0000 0.0000 0.0000 38.7517 0.0000
# 6 0.0000 0.0000 0.0000 0.0000 0.0000 24.0132
#
#
#
# Elastic Compliance Matrix: (Units=1/GPa)
#
#
# Indices 1 2 3 4 5 6 
#
# 1 0.012925 -0.005809 -0.001587 0.000000 0.000000 0.000000
# 2 -0.005809 0.015437 -0.004833 0.000000 0.000000 0.000000
# 3 -0.001587 -0.004833 0.016752 0.000000 0.000000 0.000000
# 4 0.000000 0.000000 0.000000 0.042559 0.000000 0.000000
# 5 0.000000 0.000000 0.000000 0.000000 0.025805 0.000000
# 6 0.000000 0.000000 0.000000 0.000000 0.000000 0.041644
#
#
# Mechanical properties :
#
#
# Convention : Reuss Voigt Hill
#
# Bulk Modulus (GPa) = 48.41342 50.81675 49.61508
# Shear Modulus (GPa) = 26.81461 28.20924 27.51192
#
# Velocity S-wave (km/s) = 3.55005 3.64120 3.59592
# Velocity P-wave (km/s) = 6.28953 6.44684 6.36867
#
# Compressibility (1/GPa) = 0.02065543
#
# Stress axis : x y z
#
# Youngs Moduli (GPa) = 77.36911 64.77821 59.69595
#
# Poissons Ratio (x) = 0.37628 0.09475
# Poissons Ratio (y) = 0.44941 0.28853
# Poissons Ratio (z) = 0.12280 0.31309
#
# Static dielectric constant tensor:
#      x y z
#    x 4.371650 0.000000 0.000000 
#    y 0.000000 4.010890 0.000000 
#    z 0.000000 0.000000 4.146080 
# 
# 
# High freq. dielectric constant tensor:
#      x y z
#    x 1.848690 0.000000 0.000000 
#    y 0.000000 1.827890 0.000000 
#    z 0.000000 0.000000 1.837830 
# 
# From -- ./inp_files/11018.got.cif
#   From: 2010.06.25/outbox.cif.g09.slc.cpg/sg52_6_cif.got.tgz:11018.got - 2010.06.26 19:32:48.
