data_PCOD8216681
_publ_section_title
;
Structure prediction by ZEFSAII (Michael W. Deem and Ramdas Pophale) SiO2 
 PCOD8216681
Probable space group: P N N A
;
_chemical_formula_sum "Si O2"
_cell_formula_units_Z 52
_cell_length_a 19.207921
_cell_length_b 19.954680
_cell_length_c 5.776871
_cell_angle_alpha 90.000000
_cell_angle_beta 90.000000
_cell_angle_gamma 90.000000
_cell_volume 2214.204852
_symmetry_space_group_name_H-M "P N N A"
_symmetry_group_IT_number 52
_symmetry_cell_setting 'orthorhombic'
loop_
_space_group_symop_operation_xyz
x,y,z
1/2-x,-y,z
x,1/2-y,1/2-z
1/2-x,1/2+y,1/2-z
-x,-y,-z
1/2+x,y,-z
-x,1/2+y,1/2+z
1/2+x,1/2-y,1/2+z
loop_
_atom_site_type_symbol
_atom_site_label
_atom_site_fract_x
_atom_site_fract_y
_atom_site_fract_z
Si Si1 0.787567 0.437811 0.761481
Si Si2 0.160144 0.750000 0.750000
Si Si3 0.101174 0.973253 0.590440
Si Si4 0.729852 0.192887 0.568366
Si Si5 0.408007 0.368590 0.529650
Si Si6 0.427929 0.784023 0.503772
Si Si7 0.986394 0.911611 0.314307
O O1 0.750000 0.500000 0.627113
O O2 0.730860 0.381133 0.821454
O O3 0.847702 0.402828 0.618548
O O4 0.820673 0.473556 0.990089
O O5 0.209842 0.804281 0.625533
O O6 0.110330 0.709612 0.572656
O O7 0.088892 0.905918 0.730185
O O8 0.046145 0.964677 0.381848
O O9 0.082855 0.042165 0.730284
O O10 0.749428 0.250000 0.750000
O O11 0.654301 0.205588 0.464112
O O12 0.484510 0.373575 0.413271
O O13 0.451453 0.750000 0.750000
O O14 0.467144 0.855462 0.494418
O O15 0.444057 0.750000 0.250000
#
# Coordination Sequence:
#
# PCOD8216681 Si02
#       7
#     8   4   8   8   8   8   8
#     4  11  23  41  66 103 133 178 238 291 361 440
#     4  12  22  42  70  98 140 184 232 300 362 440
#     4  10  22  44  66  94 136 180 229 292 364 428
#     4  11  22  44  67  94 142 182 231 296 365 432
#     4  11  24  41  69 102 135 187 234 294 372 427
#     4  11  26  46  70 104 139 189 240 295 362 429
#     4  10  24  45  66  96 137 181 235 295 353 434
#
# _framework density 23.484726999999999
#
# number of rings (size 3 to 8) (size 9 to 14) (size 15 to 20)
#    0.000    1.231    3.846    1.385    2.154    1.846 
#    8.308    0.000    0.000    0.000    0.000    0.000 
#    0.000    0.000    0.000    0.000    0.000    0.000 
#
# Total GULP energy -644336.549957 kJ/mol
# GULP energy per Si atom -12391.087499 kJ/mol
# Density = 2.343127 g / cm^3
# Si number density = 23.484727 Si / 1000 Ang^3
#
#
#
# Elastic Constant Matrix: (Units=GPa)
#
#
# Indices 1 2 3 4 5 6 
#
# 1 49.0673 34.3229 18.2747 0.0000 0.0000 0.0000
# 2 34.3229 141.8458 22.6233 0.0000 0.0000 0.0000
# 3 18.2747 22.6233 72.6614 0.0000 0.0000 0.0000
# 4 0.0000 0.0000 0.0000 32.5799 0.0000 0.0000
# 5 0.0000 0.0000 0.0000 0.0000 1.1247 0.0000
# 6 0.0000 0.0000 0.0000 0.0000 0.0000 34.3760
#
#
#
# Elastic Compliance Matrix: (Units=1/GPa)
#
#
# Indices 1 2 3 4 5 6 
#
# 1 0.026049 -0.005533 -0.004829 0.000000 0.000000 0.000000
# 2 -0.005533 0.008594 -0.001284 0.000000 0.000000 0.000000
# 3 -0.004829 -0.001284 0.015377 0.000000 0.000000 0.000000
# 4 0.000000 0.000000 0.000000 0.030694 0.000000 0.000000
# 5 0.000000 0.000000 0.000000 0.000000 0.889110 0.000000
# 6 0.000000 0.000000 0.000000 0.000000 0.000000 0.029090
#
#
# Mechanical properties :
#
#
# Convention : Reuss Voigt Hill
#
# Bulk Modulus (GPa) = 37.41444 46.00181 41.70812
# Shear Modulus (GPa) = 4.84913 26.17303 15.51108
#
# Velocity S-wave (km/s) = 1.43850 3.34199 2.57276
# Velocity P-wave (km/s) = 4.32724 5.87557 5.15981
#
# Compressibility (1/GPa) = 0.02672765
#
# Stress axis : x y z
#
# Youngs Moduli (GPa) = 38.38922 116.36634 65.03342
#
# Poissons Ratio (x) = 0.64386 0.31403
# Poissons Ratio (y) = 0.21241 0.08351
# Poissons Ratio (z) = 0.18537 0.14942
#
# Static dielectric constant tensor:
#      x y z
#    x 4.298950 0.000000 0.000000 
#    y 0.000000 4.397680 0.000000 
#    z 0.000000 0.000000 4.156200 
# 
# 
# High freq. dielectric constant tensor:
#      x y z
#    x 1.933650 0.000000 0.000000 
#    y 0.000000 1.938380 0.000000 
#    z 0.000000 0.000000 1.908680 
# 
# From -- ./inp_files/4434.got.cif
#   From: 2010.06.25/outbox.cif.g09.slc.cpg/sg52_3_cif.got.tgz:4434.got - 2010.06.26 19:32:48.
