data_PCOD8216646
_publ_section_title
;
Structure prediction by ZEFSAII (Michael W. Deem and Ramdas Pophale) SiO2 
 PCOD8216646
Probable space group: P N N A
;
_chemical_formula_sum "Si O2"
_cell_formula_units_Z 64
_cell_length_a 8.540172
_cell_length_b 29.320618
_cell_length_c 12.105030
_cell_angle_alpha 90.000000
_cell_angle_beta 90.000000
_cell_angle_gamma 90.000000
_cell_volume 3031.137290
_symmetry_space_group_name_H-M "P N N A"
_symmetry_group_IT_number 52
_symmetry_cell_setting 'orthorhombic'
loop_
_space_group_symop_operation_xyz
x,y,z
1/2-x,-y,z
x,1/2-y,1/2-z
1/2-x,1/2+y,1/2-z
-x,-y,-z
1/2+x,y,-z
-x,1/2+y,1/2+z
1/2+x,1/2-y,1/2+z
loop_
_atom_site_type_symbol
_atom_site_label
_atom_site_fract_x
_atom_site_fract_y
_atom_site_fract_z
Si Si1 0.341822 0.630402 0.844123
Si Si2 0.879197 0.888379 0.948241
Si Si3 0.858259 0.792219 0.166546
Si Si4 0.858947 0.563219 0.332912
Si Si5 0.100014 0.602160 0.017645
Si Si6 0.146013 0.458464 0.089206
Si Si7 0.876369 0.323488 0.510261
Si Si8 0.993907 0.029815 0.177985
O O1 0.321997 0.666124 0.747086
O O2 0.392572 0.582125 0.789197
O O3 0.176969 0.625187 0.908743
O O4 0.488666 0.640696 0.926010
O O5 0.724024 0.860032 0.917443
O O6 0.889412 0.937806 0.891316
O O7 0.879452 0.896301 0.079898
O O8 0.021111 0.853736 0.924702
O O9 0.856199 0.750000 0.250000
O O10 0.023438 0.795010 0.100370
O O11 0.726794 0.790249 0.068840
O O12 0.980223 0.522428 0.364489
O O13 0.678848 0.548959 0.328846
O O14 0.994560 0.557333 0.990402
O O15 0.238224 0.585403 0.099483
O O16 0.250000 0.500000 0.039458
O O17 0.069400 0.472907 0.202939
#
# Coordination Sequence:
#
# PCOD8216646 Si02
#       8
#     8   8   8   8   8   8   8   8
#     4  11  21  44  62  90 125 175 209 277 330 388
#     4  11  20  40  63  92 131 174 215 259 317 400
#     4  11  25  46  75 101 137 162 204 268 330 398
#     4  11  21  38  58  88 132 179 215 278 327 368
#     4  10  24  38  61  84 121 168 227 261 328 374
#     4  11  22  38  54  85 119 170 222 278 310 367
#     4  10  22  42  71  99 128 175 210 248 333 401
#     4  11  23  34  57  92 130 171 233 271 318 373
#
# _framework density 21.114187999999999
#
# number of rings (size 3 to 8) (size 9 to 14) (size 15 to 20)
#    0.000    1.250    5.000    1.500    1.750    3.000 
#    2.250    2.500    0.000    0.000    0.000    0.000 
#    0.000    0.000    0.000    0.000    0.000    0.000 
#
# Total GULP energy -792882.551119 kJ/mol
# GULP energy per Si atom -12388.789861 kJ/mol
# Density = 2.106613 g / cm^3
# Si number density = 21.114188 Si / 1000 Ang^3
#
#
#
# Elastic Constant Matrix: (Units=GPa)
#
#
# Indices 1 2 3 4 5 6 
#
# 1 106.1830 29.9730 37.8956 0.0000 0.0000 0.0000
# 2 29.9730 73.5362 38.8638 0.0000 0.0000 0.0000
# 3 37.8956 38.8638 90.6828 0.0000 0.0000 0.0000
# 4 0.0000 0.0000 0.0000 47.7323 0.0000 0.0000
# 5 0.0000 0.0000 0.0000 0.0000 29.7202 0.0000
# 6 0.0000 0.0000 0.0000 0.0000 0.0000 20.1753
#
#
#
# Elastic Compliance Matrix: (Units=1/GPa)
#
#
# Indices 1 2 3 4 5 6 
#
# 1 0.011490 -0.002774 -0.003613 0.000000 0.000000 0.000000
# 2 -0.002774 0.018250 -0.006662 0.000000 0.000000 0.000000
# 3 -0.003613 -0.006662 0.015392 0.000000 0.000000 0.000000
# 4 0.000000 0.000000 0.000000 0.020950 0.000000 0.000000
# 5 0.000000 0.000000 0.000000 0.000000 0.033647 0.000000
# 6 0.000000 0.000000 0.000000 0.000000 0.000000 0.049566
#
#
# Mechanical properties :
#
#
# Convention : Reuss Voigt Hill
#
# Bulk Modulus (GPa) = 52.53526 53.76297 53.14912
# Shear Modulus (GPa) = 27.51197 30.43687 28.97442
#
# Velocity S-wave (km/s) = 3.61364 3.80088 3.70844
# Velocity P-wave (km/s) = 6.50743 6.69182 6.60027
#
# Compressibility (1/GPa) = 0.01903483
#
# Stress axis : x y z
#
# Youngs Moduli (GPa) = 87.03154 54.79319 64.96675
#
# Poissons Ratio (x) = 0.15199 0.23471
# Poissons Ratio (y) = 0.24142 0.43283
# Poissons Ratio (z) = 0.31443 0.36505
#
# Static dielectric constant tensor:
#      x y z
#    x 4.353920 0.000000 0.000000 
#    y 0.000000 2.774820 0.000000 
#    z 0.000000 0.000000 3.784290 
# 
# 
# High freq. dielectric constant tensor:
#      x y z
#    x 1.844290 0.000000 0.000000 
#    y 0.000000 1.796010 0.000000 
#    z 0.000000 0.000000 1.821710 
# 
# From -- ./inp_files/17248.got.cif
#   From: 2010.06.25/outbox.cif.g09.slc.cpg/sg52_9_cif.got.tgz:17248.got - 2010.06.26 19:32:48.
