data_PCOD8216802
_publ_section_title
;
Structure prediction by ZEFSAII (Michael W. Deem and Ramdas Pophale) SiO2 
 PCOD8216802
Probable space group: P N N A
;
_chemical_formula_sum "Si O2"
_cell_formula_units_Z 32
_cell_length_a 10.475987
_cell_length_b 12.187239
_cell_length_c 10.867555
_cell_angle_alpha 90.000000
_cell_angle_beta 90.000000
_cell_angle_gamma 90.000000
_cell_volume 1387.497233
_symmetry_space_group_name_H-M "P N N A"
_symmetry_group_IT_number 52
_symmetry_cell_setting 'orthorhombic'
loop_
_space_group_symop_operation_xyz
x,y,z
1/2-x,-y,z
x,1/2-y,1/2-z
1/2-x,1/2+y,1/2-z
-x,-y,-z
1/2+x,y,-z
-x,1/2+y,1/2+z
1/2+x,1/2-y,1/2+z
loop_
_atom_site_type_symbol
_atom_site_label
_atom_site_fract_x
_atom_site_fract_y
_atom_site_fract_z
Si Si1 0.977912 0.130205 0.216425
Si Si2 0.250000 0.000000 0.847468
Si Si3 0.290680 0.616962 0.103879
Si Si4 0.098939 0.316226 0.535986
Si Si5 0.083615 0.750000 0.250000
O O1 0.923618 0.250000 0.250000
O O2 0.095231 0.097006 0.301452
O O3 0.867809 0.039807 0.237168
O O4 0.021477 0.130581 0.075426
O O5 0.214391 0.102723 0.932973
O O6 0.250000 0.500000 0.045103
O O7 0.171165 0.663279 0.179165
O O8 0.337515 0.698681 0.996623
O O9 0.005186 0.310375 0.651631
#
# Coordination Sequence:
#
# PCOD8216802 Si02
#       5
#     8   4   8   8   4
#     4  10  23  43  70 108 142 188 233 300 359 422
#     4  12  24  42  72 104 146 172 248 290 348 438
#     4  11  24  48  75 103 150 187 239 299 359 429
#     4  11  25  44  72 108 140 195 239 293 363 424
#     4  12  24  48  72 106 146 192 240 290 366 428
#
# _framework density 23.063109000000001
#
# number of rings (size 3 to 8) (size 9 to 14) (size 15 to 20)
#    0.000    1.000    3.750    3.750    3.500    1.000 
#    2.250    0.000    0.000    0.000    0.000    0.000 
#    0.000    0.000    0.000    0.000    0.000    0.000 
#
# Total GULP energy -396923.329451 kJ/mol
# GULP energy per Si atom -12403.854045 kJ/mol
# Density = 2.301062 g / cm^3
# Si number density = 23.063109 Si / 1000 Ang^3
#
#
#
# Elastic Constant Matrix: (Units=GPa)
#
#
# Indices 1 2 3 4 5 6 
#
# 1 140.0145 62.3357 45.4657 0.0000 0.0000 0.0000
# 2 62.3357 108.4734 -0.2722 0.0000 0.0000 0.0000
# 3 45.4657 -0.2722 58.6513 0.0000 0.0000 0.0000
# 4 0.0000 0.0000 0.0000 24.9136 0.0000 0.0000
# 5 0.0000 0.0000 0.0000 0.0000 25.9891 0.0000
# 6 0.0000 0.0000 0.0000 0.0000 0.0000 59.7890
#
#
#
# Elastic Compliance Matrix: (Units=1/GPa)
#
#
# Indices 1 2 3 4 5 6 
#
# 1 0.014555 -0.008393 -0.011322 0.000000 0.000000 0.000000
# 2 -0.008393 0.014058 0.006571 0.000000 0.000000 0.000000
# 3 -0.011322 0.006571 0.025857 0.000000 0.000000 0.000000
# 4 0.000000 0.000000 0.000000 0.040139 0.000000 0.000000
# 5 0.000000 0.000000 0.000000 0.000000 0.038478 0.000000
# 6 0.000000 0.000000 0.000000 0.000000 0.000000 0.016725
#
#
# Mechanical properties :
#
#
# Convention : Reuss Voigt Hill
#
# Bulk Modulus (GPa) = 35.48169 58.02195 46.75182
# Shear Modulus (GPa) = 26.95513 35.44566 31.20040
#
# Velocity S-wave (km/s) = 3.42242 3.92458 3.68207
# Velocity P-wave (km/s) = 5.57093 6.76380 6.19614
#
# Compressibility (1/GPa) = 0.02818355
#
# Stress axis : x y z
#
# Youngs Moduli (GPa) = 68.70468 71.13240 38.67432
#
# Poissons Ratio (x) = 0.59699 0.43786
# Poissons Ratio (y) = 0.57662 -0.25413
# Poissons Ratio (z) = 0.77786 -0.46742
#
# Static dielectric constant tensor:
#      x y z
#    x 4.313930 0.000000 0.000000 
#    y 0.000000 4.184430 0.000000 
#    z 0.000000 0.000000 3.949480 
# 
# 
# High freq. dielectric constant tensor:
#      x y z
#    x 1.928440 0.000000 0.000000 
#    y 0.000000 1.920270 0.000000 
#    z 0.000000 0.000000 1.897750 
# 
# From -- ./inp_files/17664.got.cif
#   From: 2010.06.25/outbox.cif.g09.slc.cpg/sg52_9_cif.got.tgz:17664.got - 2010.06.26 19:32:48.
