data_PCOD8216366
_publ_section_title
;
Structure prediction by ZEFSAII (Michael W. Deem and Ramdas Pophale) SiO2 
 PCOD8216366
Probable space group: P N N A
;
_chemical_formula_sum "Si O2"
_cell_formula_units_Z 36
_cell_length_a 24.139839
_cell_length_b 5.426403
_cell_length_c 12.635280
_cell_angle_alpha 90.000000
_cell_angle_beta 90.000000
_cell_angle_gamma 90.000000
_cell_volume 1655.126849
_symmetry_space_group_name_H-M "P N N A"
_symmetry_group_IT_number 52
_symmetry_cell_setting 'orthorhombic'
loop_
_space_group_symop_operation_xyz
x,y,z
1/2-x,-y,z
x,1/2-y,1/2-z
1/2-x,1/2+y,1/2-z
-x,-y,-z
1/2+x,y,-z
-x,1/2+y,1/2+z
1/2+x,1/2-y,1/2+z
loop_
_atom_site_type_symbol
_atom_site_label
_atom_site_fract_x
_atom_site_fract_y
_atom_site_fract_z
Si Si1 0.715569 0.754878 0.050082
Si Si2 0.067232 0.250000 0.750000
Si Si3 0.977409 0.376046 0.896796
Si Si4 0.079960 0.250000 0.250000
Si Si5 0.137146 0.750000 0.750000
Si Si6 0.866784 0.362469 0.633844
O O1 0.750000 0.500000 0.039881
O O2 0.673409 0.727522 0.145267
O O3 0.750000 0.000000 0.076076
O O4 0.685642 0.808149 0.938496
O O5 0.102550 0.499100 0.750086
O O6 0.028932 0.217811 0.854067
O O7 0.961081 0.551207 0.799097
O O8 0.922275 0.226968 0.926306
O O9 0.000000 0.500000 0.000000
O O10 0.120692 0.349417 0.343478
O O11 0.857048 0.250000 0.750000
#
# Coordination Sequence:
#
# PCOD8216366 Si02
#       6
#     8   4   8   4   4   8
#     4  12  28  49  76 102 137 190 244 308 371 412
#     4  12  24  43  70 109 141 199 226 280 366 432
#     4  11  23  39  65 101 147 187 233 275 351 428
#     4  10  21  42  64  95 149 182 224 293 342 408
#     4  12  27  47  72 106 146 179 254 297 354 438
#     4  10  24  43  68  99 144 180 235 301 345 432
#
# _framework density 21.750599999999999
#
# number of rings (size 3 to 8) (size 9 to 14) (size 15 to 20)
#    0.000    0.889    3.333    4.000    9.333    1.778 
#    0.000    0.000    0.000    0.000    0.000    0.000 
#    0.000    0.000    0.000    0.000    0.000    0.000 
#
# Total GULP energy -446082.167824 kJ/mol
# GULP energy per Si atom -12391.171328 kJ/mol
# Density = 2.170109 g / cm^3
# Si number density = 21.750600 Si / 1000 Ang^3
#
#
#
# Elastic Constant Matrix: (Units=GPa)
#
#
# Indices 1 2 3 4 5 6 
#
# 1 108.0091 55.0347 39.4631 0.0000 0.0000 0.0000
# 2 55.0347 143.1884 15.5352 0.0000 0.0000 0.0000
# 3 39.4631 15.5352 102.6729 0.0000 0.0000 0.0000
# 4 0.0000 0.0000 0.0000 34.4280 0.0000 0.0000
# 5 0.0000 0.0000 0.0000 0.0000 221.2422 0.0000
# 6 0.0000 0.0000 0.0000 0.0000 0.0000 35.0324
#
#
#
# Elastic Compliance Matrix: (Units=1/GPa)
#
#
# Indices 1 2 3 4 5 6 
#
# 1 0.013202 -0.004599 -0.004378 0.000000 0.000000 0.000000
# 2 -0.004599 0.008703 0.000451 0.000000 0.000000 0.000000
# 3 -0.004378 0.000451 0.011354 0.000000 0.000000 0.000000
# 4 0.000000 0.000000 0.000000 0.029046 0.000000 0.000000
# 5 0.000000 0.000000 0.000000 0.000000 0.004520 0.000000
# 6 0.000000 0.000000 0.000000 0.000000 0.000000 0.028545
#
#
# Mechanical properties :
#
#
# Convention : Reuss Voigt Hill
#
# Bulk Modulus (GPa) = 61.70703 63.77071 62.73887
# Shear Modulus (GPa) = 42.43620 74.39635 58.41628
#
# Velocity S-wave (km/s) = 4.42185 5.85479 5.18803
# Velocity P-wave (km/s) = 7.38256 8.66530 8.04952
#
# Compressibility (1/GPa) = 0.01620561
#
# Stress axis : x y z
#
# Youngs Moduli (GPa) = 75.74884 114.90921 88.07278
#
# Poissons Ratio (x) = 0.52847 0.38560
# Poissons Ratio (y) = 0.34837 -0.03971
# Poissons Ratio (z) = 0.33165 -0.05181
#
# Static dielectric constant tensor:
#      x y z
#    x 4.240520 0.000000 0.000000 
#    y 0.000000 4.247930 0.000000 
#    z 0.000000 0.000000 3.914760 
# 
# 
# High freq. dielectric constant tensor:
#      x y z
#    x 1.861100 0.000000 0.000000 
#    y 0.000000 1.867580 0.000000 
#    z 0.000000 0.000000 1.864370 
# 
# From -- ./inp_files/22089.got.cif
#   From: 2010.06.25/outbox.cif.g09.slc.cpg/sg52_12_cif.got.tgz:22089.got - 2010.06.26 19:32:48.
