data_PCOD8216883
_publ_section_title
;
Structure prediction by ZEFSAII (Michael W. Deem and Ramdas Pophale) SiO2 
 PCOD8216883
Probable space group: P N N A
;
_chemical_formula_sum "Si O2"
_cell_formula_units_Z 48
_cell_length_a 27.994269
_cell_length_b 9.644669
_cell_length_c 9.293225
_cell_angle_alpha 90.000000
_cell_angle_beta 90.000000
_cell_angle_gamma 90.000000
_cell_volume 2509.128544
_symmetry_space_group_name_H-M "P N N A"
_symmetry_group_IT_number 52
_symmetry_cell_setting 'orthorhombic'
loop_
_space_group_symop_operation_xyz
x,y,z
1/2-x,-y,z
x,1/2-y,1/2-z
1/2-x,1/2+y,1/2-z
-x,-y,-z
1/2+x,y,-z
-x,1/2+y,1/2+z
1/2+x,1/2-y,1/2+z
loop_
_atom_site_type_symbol
_atom_site_label
_atom_site_fract_x
_atom_site_fract_y
_atom_site_fract_z
Si Si1 0.482939 0.869032 0.913592
Si Si2 0.190454 0.250000 0.750000
Si Si3 0.250000 0.500000 0.886842
Si Si4 0.520020 0.591703 0.875566
Si Si5 0.120101 0.471303 0.214150
Si Si6 0.879588 0.712319 0.513262
Si Si7 0.714420 0.887471 0.667913
O O1 0.524137 0.750512 0.931031
O O2 0.479232 0.913896 0.747403
O O3 0.433448 0.801152 0.959431
O O4 0.500000 0.000000 0.000000
O O5 0.220415 0.390025 0.788901
O O6 0.157958 0.298084 0.616092
O O7 0.280324 0.396428 0.992802
O O8 0.568702 0.539003 0.806095
O O9 0.500000 0.500000 0.000000
O O10 0.127399 0.410024 0.372638
O O11 0.128486 0.358624 0.090305
O O12 0.159093 0.590366 0.201159
O O13 0.731199 0.750000 0.750000
O O14 0.750000 0.000000 0.738586
#
# Coordination Sequence:
#
# PCOD8216883 Si02
#       7
#     8   4   4   8   8   8   8
#     4  11  23  40  62  96 133 173 219 268 331 389
#     4  12  24  46  70 100 136 180 226 278 350 420
#     4  10  26  44  68 102 138 174 226 284 352 414
#     4  11  23  39  63  93 133 171 215 271 320 391
#     4  11  23  41  68  99 130 179 228 275 334 407
#     4  11  23  41  69  95 134 180 226 271 339 414
#     4  10  24  43  69 102 133 171 228 286 346 406
#
# _framework density 19.13015
#
# number of rings (size 3 to 8) (size 9 to 14) (size 15 to 20)
#    0.500    0.667    5.000    1.000    7.000    2.000 
#    0.000    0.000    0.000    0.000    0.000    0.000 
#    0.000    0.000    0.000    0.000    0.000    0.000 
#
# Total GULP energy -594718.264071 kJ/mol
# GULP energy per Si atom -12389.963835 kJ/mol
# Density = 1.908661 g / cm^3
# Si number density = 19.130150 Si / 1000 Ang^3
#
#
#
# Elastic Constant Matrix: (Units=GPa)
#
#
# Indices 1 2 3 4 5 6 
#
# 1 92.0069 42.4491 50.3906 0.0000 0.0000 0.0000
# 2 42.4491 134.5446 74.4054 0.0000 0.0000 0.0000
# 3 50.3906 74.4054 135.5254 0.0000 0.0000 0.0000
# 4 0.0000 0.0000 0.0000 32.8668 0.0000 0.0000
# 5 0.0000 0.0000 0.0000 0.0000 35.9636 0.0000
# 6 0.0000 0.0000 0.0000 0.0000 0.0000 39.5244
#
#
#
# Elastic Compliance Matrix: (Units=1/GPa)
#
#
# Indices 1 2 3 4 5 6 
#
# 1 0.014097 -0.002224 -0.004020 0.000000 0.000000 0.000000
# 2 -0.002224 0.011024 -0.005225 0.000000 0.000000 0.000000
# 3 -0.004020 -0.005225 0.011742 0.000000 0.000000 0.000000
# 4 0.000000 0.000000 0.000000 0.030426 0.000000 0.000000
# 5 0.000000 0.000000 0.000000 0.000000 0.027806 0.000000
# 6 0.000000 0.000000 0.000000 0.000000 0.000000 0.025301
#
#
# Mechanical properties :
#
#
# Convention : Reuss Voigt Hill
#
# Bulk Modulus (GPa) = 71.82197 77.39636 74.60916
# Shear Modulus (GPa) = 33.78923 34.65975 34.22449
#
# Velocity S-wave (km/s) = 4.20727 4.26113 4.23429
# Velocity P-wave (km/s) = 7.82476 8.04706 7.93669
#
# Compressibility (1/GPa) = 0.01392332
#
# Stress axis : x y z
#
# Youngs Moduli (GPa) = 70.93811 90.71206 85.16281
#
# Poissons Ratio (x) = 0.20177 0.34238
# Poissons Ratio (y) = 0.15779 0.44500
# Poissons Ratio (z) = 0.28519 0.47399
#
# Static dielectric constant tensor:
#      x y z
#    x 3.438420 0.000000 0.000000 
#    y 0.000000 3.749040 0.000000 
#    z 0.000000 0.000000 3.643160 
# 
# 
# High freq. dielectric constant tensor:
#      x y z
#    x 1.741970 0.000000 0.000000 
#    y 0.000000 1.748990 0.000000 
#    z 0.000000 0.000000 1.753630 
# 
# From -- ./inp_files/15590.got.cif
#   From: 2010.06.25/outbox.cif.g09.slc.cpg/sg52_8_cif.got.tgz:15590.got - 2010.06.26 19:32:48.
