data_PCOD8216897
_publ_section_title
;
Structure prediction by ZEFSAII (Michael W. Deem and Ramdas Pophale) SiO2 
 PCOD8216897
Probable space group: P N N A
;
_chemical_formula_sum "Si O2"
_cell_formula_units_Z 48
_cell_length_a 9.332105
_cell_length_b 16.805538
_cell_length_c 14.836161
_cell_angle_alpha 90.000000
_cell_angle_beta 90.000000
_cell_angle_gamma 90.000000
_cell_volume 2326.770636
_symmetry_space_group_name_H-M "P N N A"
_symmetry_group_IT_number 52
_symmetry_cell_setting 'orthorhombic'
loop_
_space_group_symop_operation_xyz
x,y,z
1/2-x,-y,z
x,1/2-y,1/2-z
1/2-x,1/2+y,1/2-z
-x,-y,-z
1/2+x,y,-z
-x,1/2+y,1/2+z
1/2+x,1/2-y,1/2+z
loop_
_atom_site_type_symbol
_atom_site_label
_atom_site_fract_x
_atom_site_fract_y
_atom_site_fract_z
Si Si1 0.558905 0.740979 0.934674
Si Si2 0.437839 0.634644 0.228561
Si Si3 0.006602 0.566096 0.075397
Si Si4 0.375156 0.766388 0.100362
Si Si5 0.608442 0.250000 0.250000
Si Si6 0.750000 0.500000 0.799367
Si Si7 0.251957 0.587078 0.790096
O O1 0.561693 0.649217 0.966487
O O2 0.711867 0.784960 0.927582
O O3 0.488528 0.745280 0.837272
O O4 0.469042 0.784913 0.012285
O O5 0.370467 0.677224 0.140577
O O6 0.450947 0.685422 0.319055
O O7 0.328257 0.566002 0.260780
O O8 0.586279 0.602102 0.188696
O O9 0.848828 0.576766 0.120327
O O10 0.124546 0.541258 0.146077
O O11 0.000000 0.500000 0.000000
O O12 0.697927 0.332553 0.262417
O O13 0.250000 0.500000 0.738159
#
# Coordination Sequence:
#
# PCOD8216897 Si02
#       7
#     8   8   8   8   4   4   8
#     4  11  25  41  66  99 135 182 225 285 348 421
#     4  11  24  43  65  93 137 180 225 276 336 420
#     4  11  25  37  62 100 144 171 219 280 359 436
#     4  11  25  41  66  97 134 175 230 280 341 406
#     4  10  24  44  68  94 140 180 232 280 354 414
#     4  12  22  40  62  94 130 182 212 272 344 412
#     4  11  24  41  67  97 132 182 227 281 344 414
#
# _framework density 20.629452000000001
#
# number of rings (size 3 to 8) (size 9 to 14) (size 15 to 20)
#    0.000    1.000    3.333    3.000   10.500    0.000 
#    0.000    0.000    1.833    2.000    0.000    0.000 
#    0.000    0.000    0.000    0.000    0.000    0.000 
#
# Total GULP energy -594629.509663 kJ/mol
# GULP energy per Si atom -12388.114785 kJ/mol
# Density = 2.058250 g / cm^3
# Si number density = 20.629452 Si / 1000 Ang^3
#
#
#
# Elastic Constant Matrix: (Units=GPa)
#
#
# Indices 1 2 3 4 5 6 
#
# 1 146.2495 35.2708 44.8061 0.0000 0.0000 0.0000
# 2 35.2708 99.8035 18.9975 0.0000 0.0000 0.0000
# 3 44.8061 18.9975 103.2985 0.0000 0.0000 0.0000
# 4 0.0000 0.0000 0.0000 21.6344 0.0000 0.0000
# 5 0.0000 0.0000 0.0000 0.0000 15.8787 0.0000
# 6 0.0000 0.0000 0.0000 0.0000 0.0000 32.2837
#
#
#
# Elastic Compliance Matrix: (Units=1/GPa)
#
#
# Indices 1 2 3 4 5 6 
#
# 1 0.008387 -0.002354 -0.003205 0.000000 0.000000 0.000000
# 2 -0.002354 0.011044 -0.001010 0.000000 0.000000 0.000000
# 3 -0.003205 -0.001010 0.011257 0.000000 0.000000 0.000000
# 4 0.000000 0.000000 0.000000 0.046223 0.000000 0.000000
# 5 0.000000 0.000000 0.000000 0.000000 0.062978 0.000000
# 6 0.000000 0.000000 0.000000 0.000000 0.000000 0.030975
#
#
# Mechanical properties :
#
#
# Convention : Reuss Voigt Hill
#
# Bulk Modulus (GPa) = 56.98141 60.83338 58.90739
# Shear Modulus (GPa) = 26.33639 30.64451 28.49045
#
# Velocity S-wave (km/s) = 3.57689 3.85837 3.72029
# Velocity P-wave (km/s) = 6.68881 7.02865 6.86084
#
# Compressibility (1/GPa) = 0.01754958
#
# Stress axis : x y z
#
# Youngs Moduli (GPa) = 119.22823 90.54814 88.83638
#
# Poissons Ratio (x) = 0.21315 0.28473
# Poissons Ratio (y) = 0.28066 0.08973
# Poissons Ratio (z) = 0.38214 0.09145
#
# Static dielectric constant tensor:
#      x y z
#    x 3.960650 0.000000 0.000000 
#    y 0.000000 4.261610 0.000000 
#    z 0.000000 0.000000 3.382970 
# 
# 
# High freq. dielectric constant tensor:
#      x y z
#    x 1.830060 0.000000 0.000000 
#    y 0.000000 1.810600 0.000000 
#    z 0.000000 0.000000 1.774940 
# 
# From -- ./inp_files/24755.got.cif
#   From: 2010.06.25/outbox.cif.g09.slc.cpg/sg52_13_cif.got.tgz:24755.got - 2010.06.26 19:32:48.
