data_PCOD8216255
_publ_section_title
;
Structure prediction by ZEFSAII (Michael W. Deem and Ramdas Pophale) SiO2 
 PCOD8216255
Probable space group: P N N A
;
_chemical_formula_sum "Si O2"
_cell_formula_units_Z 36
_cell_length_a 15.012461
_cell_length_b 12.186116
_cell_length_c 8.912128
_cell_angle_alpha 90.000000
_cell_angle_beta 90.000000
_cell_angle_gamma 90.000000
_cell_volume 1630.416701
_symmetry_space_group_name_H-M "P N N A"
_symmetry_group_IT_number 52
_symmetry_cell_setting 'orthorhombic'
loop_
_space_group_symop_operation_xyz
x,y,z
1/2-x,-y,z
x,1/2-y,1/2-z
1/2-x,1/2+y,1/2-z
-x,-y,-z
1/2+x,y,-z
-x,1/2+y,1/2+z
1/2+x,1/2-y,1/2+z
loop_
_atom_site_type_symbol
_atom_site_label
_atom_site_fract_x
_atom_site_fract_y
_atom_site_fract_z
Si Si1 0.858838 0.102888 0.884759
Si Si2 0.018781 0.842443 0.856668
Si Si3 0.998778 0.448756 0.835546
Si Si4 0.881902 0.750000 0.250000
Si Si5 0.828271 0.639689 0.537856
O O1 0.764309 0.166876 0.874401
O O2 0.898277 0.085444 0.716932
O O3 0.841558 0.990454 0.973464
O O4 0.932903 0.167363 0.982362
O O5 0.060911 0.750000 0.750000
O O6 0.914535 0.812085 0.877895
O O7 0.033502 0.962311 0.785004
O O8 0.059449 0.341585 0.834052
O O9 0.000000 0.500000 0.000000
O O10 0.819364 0.691549 0.372315
#
# Coordination Sequence:
#
# PCOD8216255 Si02
#       5
#     8   8   8   4   8
#     4  10  21  43  67  90 128 183 226 276 344 410
#     4  11  21  42  64  94 130 183 225 277 342 410
#     4  11  23  40  69  98 133 176 225 281 348 409
#     4  12  20  40  66 104 138 174 222 302 332 416
#     4  10  21  39  67  90 130 177 226 279 346 397
#
# _framework density 22.080244
#
# number of rings (size 3 to 8) (size 9 to 14) (size 15 to 20)
#    0.000    1.333    4.444    2.667    1.556    0.000 
#    2.000    0.000   24.444    0.000    0.000    0.000 
#    0.000    0.000    0.000    0.000    0.000    0.000 
#
# Total GULP energy -446260.026249 kJ/mol
# GULP energy per Si atom -12396.111840 kJ/mol
# Density = 2.202999 g / cm^3
# Si number density = 22.080244 Si / 1000 Ang^3
#
#
#
# Elastic Constant Matrix: (Units=GPa)
#
#
# Indices 1 2 3 4 5 6 
#
# 1 150.3947 27.4370 62.3299 0.0000 0.0000 0.0000
# 2 27.4370 57.6659 27.5173 0.0000 0.0000 0.0000
# 3 62.3299 27.5173 138.6482 0.0000 0.0000 0.0000
# 4 0.0000 0.0000 0.0000 46.9348 0.0000 0.0000
# 5 0.0000 0.0000 0.0000 0.0000 25.8402 0.0000
# 6 0.0000 0.0000 0.0000 0.0000 0.0000 9.0907
#
#
#
# Elastic Compliance Matrix: (Units=1/GPa)
#
#
# Indices 1 2 3 4 5 6 
#
# 1 0.008473 -0.002445 -0.003324 0.000000 0.000000 0.000000
# 2 -0.002445 0.019861 -0.002843 0.000000 0.000000 0.000000
# 3 -0.003324 -0.002843 0.009271 0.000000 0.000000 0.000000
# 4 0.000000 0.000000 0.000000 0.021306 0.000000 0.000000
# 5 0.000000 0.000000 0.000000 0.000000 0.038699 0.000000
# 6 0.000000 0.000000 0.000000 0.000000 0.000000 0.110003
#
#
# Mechanical properties :
#
#
# Convention : Reuss Voigt Hill
#
# Bulk Modulus (GPa) = 49.06341 64.58635 56.82488
# Shear Modulus (GPa) = 21.58617 31.66811 26.62714
#
# Velocity S-wave (km/s) = 3.13009 3.79123 3.47641
# Velocity P-wave (km/s) = 5.94407 6.96267 6.47344
#
# Compressibility (1/GPa) = 0.02038179
#
# Stress axis : x y z
#
# Youngs Moduli (GPa) = 118.02580 50.34965 107.86546
#
# Poissons Ratio (x) = 0.12312 0.35851
# Poissons Ratio (y) = 0.28860 0.30661
# Poissons Ratio (z) = 0.39228 0.14312
#
# Static dielectric constant tensor:
#      x y z
#    x 4.178750 0.000000 0.000000 
#    y 0.000000 4.009990 0.000000 
#    z 0.000000 0.000000 3.852050 
# 
# 
# High freq. dielectric constant tensor:
#      x y z
#    x 1.856770 0.000000 0.000000 
#    y 0.000000 1.870210 0.000000 
#    z 0.000000 0.000000 1.860440 
# 
# From -- ./inp_files/9932.got.cif
#   From: 2010.06.25/outbox.cif.g09.slc.cpg/sg52_5_cif.got.tgz:9932.got - 2010.06.26 19:32:48.
