data_PCOD8216539
_publ_section_title
;
Structure prediction by ZEFSAII (Michael W. Deem and Ramdas Pophale) SiO2 
 PCOD8216539
Probable space group: P N N A
;
_chemical_formula_sum "Si O2"
_cell_formula_units_Z 40
_cell_length_a 28.468821
_cell_length_b 5.109301
_cell_length_c 12.926928
_cell_angle_alpha 90.000000
_cell_angle_beta 90.000000
_cell_angle_gamma 90.000000
_cell_volume 1880.296338
_symmetry_space_group_name_H-M "P N N A"
_symmetry_group_IT_number 52
_symmetry_cell_setting 'orthorhombic'
loop_
_space_group_symop_operation_xyz
x,y,z
1/2-x,-y,z
x,1/2-y,1/2-z
1/2-x,1/2+y,1/2-z
-x,-y,-z
1/2+x,y,-z
-x,1/2+y,1/2+z
1/2+x,1/2-y,1/2+z
loop_
_atom_site_type_symbol
_atom_site_label
_atom_site_fract_x
_atom_site_fract_y
_atom_site_fract_z
Si Si1 0.857394 0.750000 0.750000
Si Si2 0.825353 0.843130 0.967174
Si Si3 0.529789 0.750360 0.970799
Si Si4 0.175944 0.750000 0.750000
Si Si5 0.923445 0.250000 0.750000
Si Si6 0.250000 0.000000 0.898019
Si Si7 0.128436 0.643950 0.947992
O O1 0.821837 0.807975 0.844276
O O2 0.890911 0.501760 0.766335
O O3 0.775077 0.786723 0.025041
O O4 0.865515 0.640094 0.001222
O O5 0.838807 0.142033 0.994929
O O6 0.543447 0.770375 0.850232
O O7 0.500000 0.500000 0.000000
O O8 0.575572 0.742207 0.042936
O O9 0.500000 0.000000 0.000000
O O10 0.208509 0.576126 0.678216
O O11 0.141945 0.594985 0.827964
#
# Coordination Sequence:
#
# PCOD8216539 Si02
#       7
#     4   8   8   4   4   4   8
#     4  12  20  42  70  94 124 190 218 269 329 416
#     4  11  22  40  67  95 135 169 235 266 334 408
#     4  12  25  43  68 102 135 167 228 291 335 408
#     4  10  22  40  69  89 144 176 227 265 352 408
#     4  12  24  44  71  93 130 184 219 260 361 404
#     4  10  22  40  64 106 132 186 220 292 330 402
#     4  11  23  42  64  98 127 185 218 275 336 419
#
# _framework density 21.273243000000001
#
# number of rings (size 3 to 8) (size 9 to 14) (size 15 to 20)
#    0.000    0.800    4.000    3.600    0.000    6.400 
#    0.000    5.000    0.000    0.000    0.000    0.000 
#    0.000    0.000    0.000    0.000    0.000    0.000 
#
# Total GULP energy -495688.164399 kJ/mol
# GULP energy per Si atom -12392.204110 kJ/mol
# Density = 2.122482 g / cm^3
# Si number density = 21.273243 Si / 1000 Ang^3
#
#
#
# Elastic Constant Matrix: (Units=GPa)
#
#
# Indices 1 2 3 4 5 6 
#
# 1 126.2005 33.3936 85.1699 0.0000 0.0000 0.0000
# 2 33.3936 112.9926 41.3662 0.0000 0.0000 0.0000
# 3 85.1699 41.3662 204.3039 0.0000 0.0000 0.0000
# 4 0.0000 0.0000 0.0000 27.4985 0.0000 0.0000
# 5 0.0000 0.0000 0.0000 0.0000 234.4582 0.0000
# 6 0.0000 0.0000 0.0000 0.0000 0.0000 34.2049
#
#
#
# Elastic Compliance Matrix: (Units=1/GPa)
#
#
# Indices 1 2 3 4 5 6 
#
# 1 0.011338 -0.001750 -0.004372 0.000000 0.000000 0.000000
# 2 -0.001750 0.009829 -0.001261 0.000000 0.000000 0.000000
# 3 -0.004372 -0.001261 0.006972 0.000000 0.000000 0.000000
# 4 0.000000 0.000000 0.000000 0.036366 0.000000 0.000000
# 5 0.000000 0.000000 0.000000 0.000000 0.004265 0.000000
# 6 0.000000 0.000000 0.000000 0.000000 0.000000 0.029236
#
#
# Mechanical properties :
#
#
# Convention : Reuss Voigt Hill
#
# Bulk Modulus (GPa) = 74.77409 84.81739 79.79574
# Shear Modulus (GPa) = 42.65179 78.13682 60.39430
#
# Velocity S-wave (km/s) = 4.48252 6.06711 5.33399
# Velocity P-wave (km/s) = 7.87505 9.43593 8.69060
#
# Compressibility (1/GPa) = 0.01337362
#
# Stress axis : x y z
#
# Youngs Moduli (GPa) = 88.20228 101.74165 143.42062
#
# Poissons Ratio (x) = 0.17806 0.62704
# Poissons Ratio (y) = 0.15436 0.18078
# Poissons Ratio (z) = 0.38562 0.12825
#
# Static dielectric constant tensor:
#      x y z
#    x 10.983060 0.000000 0.000000 
#    y 0.000000 3.371290 0.000000 
#    z 0.000000 0.000000 4.439860 
# 
# 
# High freq. dielectric constant tensor:
#      x y z
#    x 1.830810 0.000000 0.000000 
#    y 0.000000 1.833210 0.000000 
#    z 0.000000 0.000000 1.856560 
# 
# From -- ./inp_files/22719.got.cif
#   From: 2010.06.25/outbox.cif.g09.slc.cpg/sg52_12_cif.got.tgz:22719.got - 2010.06.26 19:32:48.
