data_PCOD8216369
_publ_section_title
;
Structure prediction by ZEFSAII (Michael W. Deem and Ramdas Pophale) SiO2 
 PCOD8216369
Probable space group: P N N A
;
_chemical_formula_sum "Si O2"
_cell_formula_units_Z 64
_cell_length_a 24.774968
_cell_length_b 14.356175
_cell_length_c 8.657996
_cell_angle_alpha 90.000000
_cell_angle_beta 90.000000
_cell_angle_gamma 90.000000
_cell_volume 3079.422132
_symmetry_space_group_name_H-M "P N N A"
_symmetry_group_IT_number 52
_symmetry_cell_setting 'orthorhombic'
loop_
_space_group_symop_operation_xyz
x,y,z
1/2-x,-y,z
x,1/2-y,1/2-z
1/2-x,1/2+y,1/2-z
-x,-y,-z
1/2+x,y,-z
-x,1/2+y,1/2+z
1/2+x,1/2-y,1/2+z
loop_
_atom_site_type_symbol
_atom_site_label
_atom_site_fract_x
_atom_site_fract_y
_atom_site_fract_z
Si Si1 0.759548 0.393866 0.932463
Si Si2 0.154234 0.732108 0.919709
Si Si3 0.650271 0.314553 0.900234
Si Si4 0.665842 0.648938 0.684857
Si Si5 0.043525 0.237780 0.566667
Si Si6 0.992641 0.916775 0.881551
Si Si7 0.451662 0.123245 0.579010
Si Si8 0.096327 0.003632 0.330599
O O1 0.750000 0.500000 0.985494
O O2 0.711336 0.319807 0.967460
O O3 0.776481 0.388383 0.749872
O O4 0.813336 0.357336 0.016690
O O5 0.174646 0.750000 0.750000
O O6 0.090936 0.707565 0.932753
O O7 0.167751 0.831287 0.002182
O O8 0.646512 0.250000 0.750000
O O9 0.644225 0.424574 0.865230
O O10 0.606451 0.279601 0.024777
O O11 0.649465 0.750000 0.750000
O O12 0.617197 0.580260 0.725229
O O13 0.038118 0.250000 0.750000
O O14 0.020140 0.327070 0.481703
O O15 0.007921 0.152002 0.503701
O O16 0.042448 0.900306 0.762485
O O17 0.943869 0.935413 0.768376
O O18 0.000000 0.000000 0.000000
O O19 0.430813 0.032039 0.488854
#
# Coordination Sequence:
#
# PCOD8216369 Si02
#       8
#     8   8   8   8   8   8   8   8
#     4  11  22  44  72  98 128 177 233 284 336 405
#     4  11  24  41  68 100 138 175 222 278 346 398
#     4  12  23  45  68  93 139 180 223 282 340 409
#     4  10  21  42  66 103 125 169 229 276 336 398
#     4  12  27  44  64  97 138 185 223 267 341 412
#     4  12  27  42  65 102 137 178 230 275 338 413
#     4  12  24  44  68  96 138 178 218 285 337 399
#     4  12  23  41  70  99 132 172 231 277 331 406
#
# _framework density 20.783118999999999
#
# number of rings (size 3 to 8) (size 9 to 14) (size 15 to 20)
#    0.000    0.500    6.250    3.375    7.000    0.500 
#    0.000    0.625    0.000    0.000    0.000    0.000 
#    0.000    0.000    0.000    0.000    0.000    0.000 
#
# Total GULP energy -793305.514017 kJ/mol
# GULP energy per Si atom -12395.398657 kJ/mol
# Density = 2.073582 g / cm^3
# Si number density = 20.783119 Si / 1000 Ang^3
#
#
#
# Elastic Constant Matrix: (Units=GPa)
#
#
# Indices 1 2 3 4 5 6 
#
# 1 102.5039 19.8775 36.6084 0.0000 0.0000 0.0000
# 2 19.8775 99.5708 43.6430 0.0000 0.0000 0.0000
# 3 36.6084 43.6430 145.2621 0.0000 0.0000 0.0000
# 4 0.0000 0.0000 0.0000 34.3879 0.0000 0.0000
# 5 0.0000 0.0000 0.0000 0.0000 20.1860 0.0000
# 6 0.0000 0.0000 0.0000 0.0000 0.0000 25.0036
#
#
#
# Elastic Compliance Matrix: (Units=1/GPa)
#
#
# Indices 1 2 3 4 5 6 
#
# 1 0.010826 -0.001112 -0.002394 0.000000 0.000000 0.000000
# 2 -0.001112 0.011680 -0.003229 0.000000 0.000000 0.000000
# 3 -0.002394 -0.003229 0.008458 0.000000 0.000000 0.000000
# 4 0.000000 0.000000 0.000000 0.029080 0.000000 0.000000
# 5 0.000000 0.000000 0.000000 0.000000 0.049539 0.000000
# 6 0.000000 0.000000 0.000000 0.000000 0.000000 0.039994
#
#
# Mechanical properties :
#
#
# Convention : Reuss Voigt Hill
#
# Bulk Modulus (GPa) = 57.16268 60.84384 59.00326
# Shear Modulus (GPa) = 29.60679 32.39602 31.00141
#
# Velocity S-wave (km/s) = 3.77843 3.95240 3.86640
# Velocity P-wave (km/s) = 6.82638 7.08292 6.95583
#
# Compressibility (1/GPa) = 0.01749393
#
# Stress axis : x y z
#
# Youngs Moduli (GPa) = 92.36621 85.61341 118.23552
#
# Poissons Ratio (x) = 0.09519 0.28310
# Poissons Ratio (y) = 0.10269 0.38179
# Poissons Ratio (z) = 0.22116 0.27645
#
# Static dielectric constant tensor:
#      x y z
#    x 4.016940 0.000000 0.000000 
#    y 0.000000 3.909800 0.000000 
#    z 0.000000 0.000000 4.302220 
# 
# 
# High freq. dielectric constant tensor:
#      x y z
#    x 1.820500 0.000000 0.000000 
#    y 0.000000 1.822320 0.000000 
#    z 0.000000 0.000000 1.803400 
# 
# From -- ./inp_files/14474.got.cif
#   From: 2010.06.25/outbox.cif.g09.slc.cpg/sg52_8_cif.got.tgz:14474.got - 2010.06.26 19:32:48.
