data_PCOD8216555
_publ_section_title
;
Structure prediction by ZEFSAII (Michael W. Deem and Ramdas Pophale) SiO2 
 PCOD8216555
Probable space group: P N N A
;
_chemical_formula_sum "Si O2"
_cell_formula_units_Z 64
_cell_length_a 14.296666
_cell_length_b 18.367739
_cell_length_c 11.659555
_cell_angle_alpha 90.000000
_cell_angle_beta 90.000000
_cell_angle_gamma 90.000000
_cell_volume 3061.769174
_symmetry_space_group_name_H-M "P N N A"
_symmetry_group_IT_number 52
_symmetry_cell_setting 'orthorhombic'
loop_
_space_group_symop_operation_xyz
x,y,z
1/2-x,-y,z
x,1/2-y,1/2-z
1/2-x,1/2+y,1/2-z
-x,-y,-z
1/2+x,y,-z
-x,1/2+y,1/2+z
1/2+x,1/2-y,1/2+z
loop_
_atom_site_type_symbol
_atom_site_label
_atom_site_fract_x
_atom_site_fract_y
_atom_site_fract_z
Si Si1 0.842148 0.234190 0.981982
Si Si2 0.337480 0.796360 0.142985
Si Si3 0.312794 0.439071 0.767436
Si Si4 0.913276 0.953680 0.851307
Si Si5 0.001552 0.446427 0.110179
Si Si6 0.704959 0.193085 0.338629
Si Si7 0.458662 0.801052 0.506012
Si Si8 0.605372 0.929817 0.031646
O O1 0.786723 0.276838 0.080067
O O2 0.867604 0.153828 0.021603
O O3 0.937015 0.279014 0.950514
O O4 0.770904 0.226406 0.875513
O O5 0.374701 0.750000 0.250000
O O6 0.344242 0.883936 0.157246
O O7 0.406197 0.771020 0.040639
O O8 0.250000 0.500000 0.826247
O O9 0.397165 0.429198 0.853672
O O10 0.250967 0.367658 0.760059
O O11 0.340122 0.464039 0.639382
O O12 0.942199 0.977875 0.721338
O O13 0.996738 0.930420 0.935305
O O14 0.868599 0.023997 0.916382
O O15 0.041296 0.366643 0.084511
O O16 0.000000 0.500000 0.000000
O O17 0.665574 0.250000 0.250000
O O18 0.608968 0.165722 0.396620
#
# Coordination Sequence:
#
# PCOD8216555 Si02
#       8
#     8   8   8   8   8   8   8   8
#     4  11  23  41  67  99 131 172 224 283 339 408
#     4  11  23  41  69  95 128 173 225 275 336 404
#     4  11  23  39  67  97 134 171 225 284 332 413
#     4  10  22  41  67  99 131 175 223 273 338 409
#     4  11  23  44  67  93 133 183 225 274 338 409
#     4  11  23  41  67 102 130 175 227 282 338 408
#     4  11  23  42  69  94 132 174 225 280 338 409
#     4  10  22  40  66  99 134 170 219 277 347 395
#
# _framework density 20.902947999999999
#
# number of rings (size 3 to 8) (size 9 to 14) (size 15 to 20)
#    0.000    1.250    5.000    0.750    1.750    1.000 
#    6.750    0.000    2.750    0.000    0.000    0.000 
#    0.000    0.000    0.000    0.000    0.000    0.000 
#
# Total GULP energy -793041.426541 kJ/mol
# GULP energy per Si atom -12391.272290 kJ/mol
# Density = 2.085537 g / cm^3
# Si number density = 20.902948 Si / 1000 Ang^3
#
#
#
# Elastic Constant Matrix: (Units=GPa)
#
#
# Indices 1 2 3 4 5 6 
#
# 1 120.6629 31.3537 41.7982 0.0000 0.0000 0.0000
# 2 31.3537 91.4312 33.7636 0.0000 0.0000 0.0000
# 3 41.7982 33.7636 104.4841 0.0000 0.0000 0.0000
# 4 0.0000 0.0000 0.0000 36.4945 0.0000 0.0000
# 5 0.0000 0.0000 0.0000 0.0000 25.4141 0.0000
# 6 0.0000 0.0000 0.0000 0.0000 0.0000 29.5799
#
#
#
# Elastic Compliance Matrix: (Units=1/GPa)
#
#
# Indices 1 2 3 4 5 6 
#
# 1 0.010001 -0.002217 -0.003285 0.000000 0.000000 0.000000
# 2 -0.002217 0.012910 -0.003285 0.000000 0.000000 0.000000
# 3 -0.003285 -0.003285 0.011946 0.000000 0.000000 0.000000
# 4 0.000000 0.000000 0.000000 0.027401 0.000000 0.000000
# 5 0.000000 0.000000 0.000000 0.000000 0.039348 0.000000
# 6 0.000000 0.000000 0.000000 0.000000 0.000000 0.033807
#
#
# Mechanical properties :
#
#
# Convention : Reuss Voigt Hill
#
# Bulk Modulus (GPa) = 57.85307 58.93434 58.39371
# Shear Modulus (GPa) = 31.49615 32.27522 31.88568
#
# Velocity S-wave (km/s) = 3.88594 3.93370 3.90989
# Velocity P-wave (km/s) = 6.91889 6.99196 6.95552
#
# Compressibility (1/GPa) = 0.01728517
#
# Stress axis : x y z
#
# Youngs Moduli (GPa) = 99.98623 77.45635 83.70700
#
# Poissons Ratio (x) = 0.17170 0.27495
# Poissons Ratio (y) = 0.22164 0.27499
# Poissons Ratio (z) = 0.32842 0.25446
#
# Static dielectric constant tensor:
#      x y z
#    x 3.873040 0.000000 0.000000 
#    y 0.000000 3.622550 0.000000 
#    z 0.000000 0.000000 3.703720 
# 
# 
# High freq. dielectric constant tensor:
#      x y z
#    x 1.822940 0.000000 0.000000 
#    y 0.000000 1.820980 0.000000 
#    z 0.000000 0.000000 1.808710 
# 
# From -- ./inp_files/19868.got.cif
#   From: 2010.06.25/outbox.cif.g09.slc.cpg/sg52_10_cif.got.tgz:19868.got - 2010.06.26 19:32:48.
