data_PCOD8216590
_publ_section_title
;
Structure prediction by ZEFSAII (Michael W. Deem and Ramdas Pophale) SiO2 
 PCOD8216590
Probable space group: P N N A
;
_chemical_formula_sum "Si O2"
_cell_formula_units_Z 32
_cell_length_a 4.869119
_cell_length_b 12.405445
_cell_length_c 25.372018
_cell_angle_alpha 90.000000
_cell_angle_beta 90.000000
_cell_angle_gamma 90.000000
_cell_volume 1532.560921
_symmetry_space_group_name_H-M "P N N A"
_symmetry_group_IT_number 52
_symmetry_cell_setting 'orthorhombic'
loop_
_space_group_symop_operation_xyz
x,y,z
1/2-x,-y,z
x,1/2-y,1/2-z
1/2-x,1/2+y,1/2-z
-x,-y,-z
1/2+x,y,-z
-x,1/2+y,1/2+z
1/2+x,1/2-y,1/2+z
loop_
_atom_site_type_symbol
_atom_site_label
_atom_site_fract_x
_atom_site_fract_y
_atom_site_fract_z
Si Si1 0.774335 0.875084 0.171484
Si Si2 0.244120 0.754975 0.360482
Si Si3 0.763910 0.376526 0.965195
Si Si4 0.500393 0.072840 0.280599
O O1 0.498510 0.805246 0.166561
O O2 0.000553 0.830368 0.131119
O O3 0.879879 0.860270 0.231410
O O4 0.750000 0.000000 0.157057
O O5 0.327080 0.801603 0.416942
O O6 0.120941 0.850044 0.324797
O O7 0.750000 0.500000 0.946076
O O8 0.570065 0.352139 0.015104
O O9 0.250000 0.000000 0.259059
O O10 0.750000 0.000000 0.304499
#
# Coordination Sequence:
#
# PCOD8216590 Si02
#       4
#     8   8   8   8
#     4  11  24  40  58  87 126 167 209 249 291 351
#     4  12  23  40  66  89 121 166 208 245 305 370
#     4  10  22  41  65  93 121 148 190 253 317 369
#     4  11  23  39  60  92 129 161 204 254 306 369
#
# _framework density 20.880085000000001
#
# number of rings (size 3 to 8) (size 9 to 14) (size 15 to 20)
#    0.000    1.000    0.000    8.250    0.000    7.000 
#    0.000    0.000    0.000   15.000    0.000    0.000 
#    0.000    0.000    0.000    0.000    0.000    0.000 
#
# Total GULP energy -396818.646351 kJ/mol
# GULP energy per Si atom -12400.582698 kJ/mol
# Density = 2.083256 g / cm^3
# Si number density = 20.880085 Si / 1000 Ang^3
#
#
#
# Elastic Constant Matrix: (Units=GPa)
#
#
# Indices 1 2 3 4 5 6 
#
# 1 149.8845 59.5358 36.0179 0.0000 0.0000 0.0000
# 2 59.5358 111.4958 69.3047 0.0000 0.0000 0.0000
# 3 36.0179 69.3047 94.1341 0.0000 0.0000 0.0000
# 4 0.0000 0.0000 0.0000 19.4146 0.0000 0.0000
# 5 0.0000 0.0000 0.0000 0.0000 10.6602 0.0000
# 6 0.0000 0.0000 0.0000 0.0000 0.0000 54.0349
#
#
#
# Elastic Compliance Matrix: (Units=1/GPa)
#
#
# Indices 1 2 3 4 5 6 
#
# 1 0.008469 -0.004624 0.000164 0.000000 0.000000 0.000000
# 2 -0.004624 0.019062 -0.012264 0.000000 0.000000 0.000000
# 3 0.000164 -0.012264 0.019590 0.000000 0.000000 0.000000
# 4 0.000000 0.000000 0.000000 0.051508 0.000000 0.000000
# 5 0.000000 0.000000 0.000000 0.000000 0.093807 0.000000
# 6 0.000000 0.000000 0.000000 0.000000 0.000000 0.018507
#
#
# Mechanical properties :
#
#
# Convention : Reuss Voigt Hill
#
# Bulk Modulus (GPa) = 73.14587 76.13681 74.64134
# Shear Modulus (GPa) = 20.08444 29.53234 24.80839
#
# Velocity S-wave (km/s) = 3.10481 3.76490 3.45067
# Velocity P-wave (km/s) = 6.92536 7.44596 7.19037
#
# Compressibility (1/GPa) = 0.01367131
#
# Stress axis : x y z
#
# Youngs Moduli (GPa) = 118.07488 52.46127 51.04670
#
# Poissons Ratio (x) = 0.24260 -0.00837
# Poissons Ratio (y) = 0.54601 0.62606
# Poissons Ratio (z) = -0.01937 0.64341
#
# Static dielectric constant tensor:
#      x y z
#    x 4.139480 0.000000 0.000000 
#    y 0.000000 4.040560 0.000000 
#    z 0.000000 0.000000 3.392670 
# 
# 
# High freq. dielectric constant tensor:
#      x y z
#    x 1.846350 0.000000 0.000000 
#    y 0.000000 1.824740 0.000000 
#    z 0.000000 0.000000 1.786950 
# 
# From -- ./inp_files/34823.got.cif
#   From: 2010.06.25/outbox.cif.g09.slc.cpg/sg52_18_cif.got.tgz:34823.got - 2010.06.26 19:32:48.
