data_PCOD8216174
_publ_section_title
;
Structure prediction by ZEFSAII (Michael W. Deem and Ramdas Pophale) SiO2 
 PCOD8216174
Probable space group: P N N A
;
_chemical_formula_sum "Si O2"
_cell_formula_units_Z 56
_cell_length_a 21.713043
_cell_length_b 8.388177
_cell_length_c 14.400218
_cell_angle_alpha 90.000000
_cell_angle_beta 90.000000
_cell_angle_gamma 90.000000
_cell_volume 2622.752715
_symmetry_space_group_name_H-M "P N N A"
_symmetry_group_IT_number 52
_symmetry_cell_setting 'orthorhombic'
loop_
_space_group_symop_operation_xyz
x,y,z
1/2-x,-y,z
x,1/2-y,1/2-z
1/2-x,1/2+y,1/2-z
-x,-y,-z
1/2+x,y,-z
-x,1/2+y,1/2+z
1/2+x,1/2-y,1/2+z
loop_
_atom_site_type_symbol
_atom_site_label
_atom_site_fract_x
_atom_site_fract_y
_atom_site_fract_z
Si Si1 0.507849 0.883993 0.588658
Si Si2 0.378020 0.192271 0.039917
Si Si3 0.232784 0.683038 0.147016
Si Si4 0.109084 0.305465 0.652939
Si Si5 0.080930 0.833942 0.843278
Si Si6 0.845338 0.667529 0.540904
Si Si7 0.448615 0.811135 0.345134
O O1 0.552787 0.735036 0.571154
O O2 0.443581 0.820037 0.625957
O O3 0.500000 0.000000 0.500000
O O4 0.537808 0.000379 0.666173
O O5 0.330633 0.309755 0.090236
O O6 0.362442 0.012175 0.069321
O O7 0.374229 0.214889 0.928290
O O8 0.250000 0.500000 0.153411
O O9 0.224769 0.750000 0.250000
O O10 0.282354 0.786004 0.090303
O O11 0.140307 0.250000 0.750000
O O12 0.079047 0.477125 0.668478
O O13 0.160246 0.311926 0.570942
O O14 0.106124 0.750000 0.750000
O O15 0.011592 0.781738 0.866030
O O16 0.901306 0.781030 0.571661
O O17 0.417543 0.750000 0.250000
#
# Coordination Sequence:
#
# PCOD8216174 Si02
#       7
#     8   8   8   8   8   8   8
#     4  12  22  38  62  95 136 169 216 263 325 393
#     4  11  24  41  64  90 127 171 210 267 322 381
#     4  12  27  46  70  94 125 167 218 270 322 384
#     4  11  23  37  63  95 129 168 211 265 324 388
#     4  10  21  38  61  92 127 166 209 261 325 389
#     4  11  23  43  63  92 128 166 219 266 321 376
#     4  11  21  35  60  89 128 166 209 261 319 383
#
# _framework density 21.351613
#
# number of rings (size 3 to 8) (size 9 to 14) (size 15 to 20)
#    0.000    0.857    2.857    5.143    0.000    4.000 
#    0.000    0.714    0.000    0.000    0.000    0.000 
#    0.000    0.000    0.000    0.000    0.000    0.000 
#
# Total GULP energy -694416.580719 kJ/mol
# GULP energy per Si atom -12400.296084 kJ/mol
# Density = 2.130302 g / cm^3
# Si number density = 21.351613 Si / 1000 Ang^3
#
#
#
# Elastic Constant Matrix: (Units=GPa)
#
#
# Indices 1 2 3 4 5 6 
#
# 1 58.6662 3.1279 35.8480 0.0000 0.0000 0.0000
# 2 3.1279 76.0177 21.1824 0.0000 0.0000 0.0000
# 3 35.8480 21.1824 136.5964 0.0000 0.0000 0.0000
# 4 0.0000 0.0000 0.0000 36.2135 0.0000 0.0000
# 5 0.0000 0.0000 0.0000 0.0000 25.1942 0.0000
# 6 0.0000 0.0000 0.0000 0.0000 0.0000 34.2077
#
#
#
# Elastic Compliance Matrix: (Units=1/GPa)
#
#
# Indices 1 2 3 4 5 6 
#
# 1 0.020335 0.000680 -0.005442 0.000000 0.000000 0.000000
# 2 0.000680 0.013772 -0.002314 0.000000 0.000000 0.000000
# 3 -0.005442 -0.002314 0.009108 0.000000 0.000000 0.000000
# 4 0.000000 0.000000 0.000000 0.027614 0.000000 0.000000
# 5 0.000000 0.000000 0.000000 0.000000 0.039692 0.000000
# 6 0.000000 0.000000 0.000000 0.000000 0.000000 0.029233
#
#
# Mechanical properties :
#
#
# Convention : Reuss Voigt Hill
#
# Bulk Modulus (GPa) = 34.40962 43.51078 38.96020
# Shear Modulus (GPa) = 30.56370 33.19788 31.88079
#
# Velocity S-wave (km/s) = 3.78755 3.94740 3.86830
# Velocity P-wave (km/s) = 5.93953 6.41860 6.18371
#
# Compressibility (1/GPa) = 0.02906164
#
# Stress axis : x y z
#
# Youngs Moduli (GPa) = 49.17705 72.61291 109.79534
#
# Poissons Ratio (x) = -0.04935 0.59750
# Poissons Ratio (y) = -0.03343 0.25407
# Poissons Ratio (z) = 0.26762 0.16803
#
# Static dielectric constant tensor:
#      x y z
#    x 3.550810 0.000000 0.000000 
#    y 0.000000 4.157130 0.000000 
#    z 0.000000 0.000000 4.322400 
# 
# 
# High freq. dielectric constant tensor:
#      x y z
#    x 1.802790 0.000000 0.000000 
#    y 0.000000 1.855710 0.000000 
#    z 0.000000 0.000000 1.854430 
# 
# From -- ./inp_files/28761.got.cif
#   From: 2010.06.25/outbox.cif.g09.slc.cpg/sg52_15_cif.got.tgz:28761.got - 2010.06.26 19:32:48.
