data_PCOD8216412
_publ_section_title
;
Structure prediction by ZEFSAII (Michael W. Deem and Ramdas Pophale) SiO2 
 PCOD8216412
Probable space group: P N N A
;
_chemical_formula_sum "Si O2"
_cell_formula_units_Z 40
_cell_length_a 13.896468
_cell_length_b 8.812362
_cell_length_c 14.477615
_cell_angle_alpha 90.000000
_cell_angle_beta 90.000000
_cell_angle_gamma 90.000000
_cell_volume 1772.938962
_symmetry_space_group_name_H-M "P N N A"
_symmetry_group_IT_number 52
_symmetry_cell_setting 'orthorhombic'
loop_
_space_group_symop_operation_xyz
x,y,z
1/2-x,-y,z
x,1/2-y,1/2-z
1/2-x,1/2+y,1/2-z
-x,-y,-z
1/2+x,y,-z
-x,1/2+y,1/2+z
1/2+x,1/2-y,1/2+z
loop_
_atom_site_type_symbol
_atom_site_label
_atom_site_fract_x
_atom_site_fract_y
_atom_site_fract_z
Si Si1 0.824499 0.363668 0.667143
Si Si2 0.480481 0.567920 0.600908
Si Si3 0.527301 0.329122 0.981052
Si Si4 0.741446 0.320988 0.991809
Si Si5 0.862550 0.196326 0.145868
O O1 0.750000 0.500000 0.668707
O O2 0.806631 0.250000 0.750000
O O3 0.928345 0.446404 0.669497
O O4 0.818049 0.258467 0.575771
O O5 0.500000 0.500000 0.500000
O O6 0.470775 0.747539 0.581798
O O7 0.385999 0.485576 0.644509
O O8 0.456496 0.270531 0.901638
O O9 0.500000 0.500000 0.000000
O O10 0.636377 0.296156 0.947749
O O11 0.750000 0.500000 0.003593
O O12 0.765175 0.241682 0.090803
O O13 0.849917 0.250000 0.250000
#
# Coordination Sequence:
#
# PCOD8216412 Si02
#       5
#     8   8   8   8   8
#     4  12  25  42  72 108 142 181 239 299 366 448
#     4  10  21  44  67  94 136 189 233 284 362 431
#     4  11  22  43  72  96 140 193 235 295 366 437
#     4  12  24  45  71 102 148 188 240 304 373 434
#     4  11  25  46  71 105 145 189 249 301 365 441
#
# _framework density 22.561409000000001
#
# number of rings (size 3 to 8) (size 9 to 14) (size 15 to 20)
#    0.000    0.800    6.000    3.000    0.000    6.400 
#    3.600    0.000    0.000    0.000    0.000    0.000 
#    0.000    0.000    0.000    0.000    0.000    0.000 
#
# Total GULP energy -495574.573830 kJ/mol
# GULP energy per Si atom -12389.364346 kJ/mol
# Density = 2.251006 g / cm^3
# Si number density = 22.561409 Si / 1000 Ang^3
#
#
#
# Elastic Constant Matrix: (Units=GPa)
#
#
# Indices 1 2 3 4 5 6 
#
# 1 72.6181 19.0097 2.9211 0.0000 0.0000 0.0000
# 2 19.0097 154.4282 43.1039 0.0000 0.0000 0.0000
# 3 2.9211 43.1039 121.1466 0.0000 0.0000 0.0000
# 4 0.0000 0.0000 0.0000 29.6315 0.0000 0.0000
# 5 0.0000 0.0000 0.0000 0.0000 15.9299 0.0000
# 6 0.0000 0.0000 0.0000 0.0000 0.0000 11.3543
#
#
#
# Elastic Compliance Matrix: (Units=1/GPa)
#
#
# Indices 1 2 3 4 5 6 
#
# 1 0.014240 -0.001840 0.000311 0.000000 0.000000 0.000000
# 2 -0.001840 0.007427 -0.002598 0.000000 0.000000 0.000000
# 3 0.000311 -0.002598 0.009171 0.000000 0.000000 0.000000
# 4 0.000000 0.000000 0.000000 0.033748 0.000000 0.000000
# 5 0.000000 0.000000 0.000000 0.000000 0.062775 0.000000
# 6 0.000000 0.000000 0.000000 0.000000 0.000000 0.088072
#
#
# Mechanical properties :
#
#
# Convention : Reuss Voigt Hill
#
# Bulk Modulus (GPa) = 44.27744 53.14024 48.70884
# Shear Modulus (GPa) = 21.62490 30.26037 25.94263
#
# Velocity S-wave (km/s) = 3.09931 3.66627 3.39465
# Velocity P-wave (km/s) = 5.69873 6.44413 6.08286
#
# Compressibility (1/GPa) = 0.02258487
#
# Stress axis : x y z
#
# Youngs Moduli (GPa) = 70.22591 134.64059 109.03454
#
# Poissons Ratio (x) = 0.24770 -0.03393
# Poissons Ratio (y) = 0.12920 0.28330
# Poissons Ratio (z) = -0.02186 0.34983
#
# Static dielectric constant tensor:
#      x y z
#    x 4.755190 0.000000 0.000000 
#    y 0.000000 -2.596840 0.000000 
#    z 0.000000 0.000000 3.780750 
# 
# 
# High freq. dielectric constant tensor:
#      x y z
#    x 1.897920 0.000000 0.000000 
#    y 0.000000 1.910700 0.000000 
#    z 0.000000 0.000000 1.859370 
# 
# From -- ./inp_files/26866.got.cif
#   From: 2010.06.25/outbox.cif.g09.slc.cpg/sg52_14_cif.got.tgz:26866.got - 2010.06.26 19:32:48.
