data_PCOD8216572
_publ_section_title
;
Structure prediction by ZEFSAII (Michael W. Deem and Ramdas Pophale) SiO2 
 PCOD8216572
Probable space group: P N N A
;
_chemical_formula_sum "Si O2"
_cell_formula_units_Z 36
_cell_length_a 12.215075
_cell_length_b 10.870400
_cell_length_c 11.590872
_cell_angle_alpha 90.000000
_cell_angle_beta 90.000000
_cell_angle_gamma 90.000000
_cell_volume 1539.067874
_symmetry_space_group_name_H-M "P N N A"
_symmetry_group_IT_number 52
_symmetry_cell_setting 'orthorhombic'
loop_
_space_group_symop_operation_xyz
x,y,z
1/2-x,-y,z
x,1/2-y,1/2-z
1/2-x,1/2+y,1/2-z
-x,-y,-z
1/2+x,y,-z
-x,1/2+y,1/2+z
1/2+x,1/2-y,1/2+z
loop_
_atom_site_type_symbol
_atom_site_label
_atom_site_fract_x
_atom_site_fract_y
_atom_site_fract_z
Si Si1 0.956335 0.538631 0.874075
Si Si2 0.374795 0.695166 0.398480
Si Si3 0.750000 0.500000 0.746740
Si Si4 0.414313 0.064277 0.839837
Si Si5 0.695895 0.184017 0.137748
O O1 0.916302 0.678101 0.841379
O O2 0.852146 0.458473 0.829630
O O3 0.060277 0.522845 0.791439
O O4 0.000000 0.500000 0.000000
O O5 0.279209 0.619330 0.332337
O O6 0.479108 0.604595 0.411447
O O7 0.329307 0.753927 0.518756
O O8 0.325501 0.173333 0.840992
O O9 0.359850 0.945173 0.895229
O O10 0.643098 0.250000 0.250000
#
# Coordination Sequence:
#
# PCOD8216572 Si02
#       5
#     8   8   4   8   8
#     4  11  24  43  67  96 132 173 226 286 344 410
#     4  11  23  43  64  91 131 174 220 276 343 422
#     4  10  22  42  66  94 130 180 224 270 348 428
#     4  10  22  41  61  89 127 167 211 269 340 408
#     4  11  22  38  64  94 124 164 219 277 337 406
#
# _framework density 23.390784
#
# number of rings (size 3 to 8) (size 9 to 14) (size 15 to 20)
#    0.000    1.333    0.000    7.333    0.000    7.111 
#    0.000   15.556    0.000    0.000    0.000    0.000 
#    0.000    0.000    0.000    0.000    0.000    0.000 
#
# Total GULP energy -445995.597349 kJ/mol
# GULP energy per Si atom -12388.766593 kJ/mol
# Density = 2.333755 g / cm^3
# Si number density = 23.390784 Si / 1000 Ang^3
#
#
#
# Elastic Constant Matrix: (Units=GPa)
#
#
# Indices 1 2 3 4 5 6 
#
# 1 132.5997 27.2994 54.4695 0.0000 0.0000 0.0000
# 2 27.2994 73.3293 1.6179 0.0000 0.0000 0.0000
# 3 54.4695 1.6179 127.7672 0.0000 0.0000 0.0000
# 4 0.0000 0.0000 0.0000 34.5803 0.0000 0.0000
# 5 0.0000 0.0000 0.0000 0.0000 32.0194 0.0000
# 6 0.0000 0.0000 0.0000 0.0000 0.0000 25.2421
#
#
#
# Elastic Compliance Matrix: (Units=1/GPa)
#
#
# Indices 1 2 3 4 5 6 
#
# 1 0.010028 -0.003640 -0.004229 0.000000 0.000000 0.000000
# 2 -0.003640 0.014962 0.001362 0.000000 0.000000 0.000000
# 3 -0.004229 0.001362 0.009612 0.000000 0.000000 0.000000
# 4 0.000000 0.000000 0.000000 0.028918 0.000000 0.000000
# 5 0.000000 0.000000 0.000000 0.000000 0.031231 0.000000
# 6 0.000000 0.000000 0.000000 0.000000 0.000000 0.039616
#
#
# Mechanical properties :
#
#
# Convention : Reuss Voigt Hill
#
# Bulk Modulus (GPa) = 46.31941 55.60775 50.96358
# Shear Modulus (GPa) = 32.34609 35.05567 33.70088
#
# Velocity S-wave (km/s) = 3.72271 3.87550 3.79987
# Velocity P-wave (km/s) = 6.19060 6.62201 6.40993
#
# Compressibility (1/GPa) = 0.02158922
#
# Stress axis : x y z
#
# Youngs Moduli (GPa) = 99.71955 66.83518 104.03207
#
# Poissons Ratio (x) = 0.24328 0.43996
# Poissons Ratio (y) = 0.36298 -0.14173
# Poissons Ratio (z) = 0.42172 -0.09105
#
# Static dielectric constant tensor:
#      x y z
#    x 4.365970 0.000000 0.000000 
#    y 0.000000 4.020120 0.000000 
#    z 0.000000 0.000000 4.166160 
# 
# 
# High freq. dielectric constant tensor:
#      x y z
#    x 1.927250 0.000000 0.000000 
#    y 0.000000 1.908600 0.000000 
#    z 0.000000 0.000000 1.940880 
# 
# From -- ./inp_files/17758.got.cif
#   From: 2010.06.25/outbox.cif.g09.slc.cpg/sg52_9_cif.got.tgz:17758.got - 2010.06.26 19:32:48.
