data_PCOD8216886
_publ_section_title
;
Structure prediction by ZEFSAII (Michael W. Deem and Ramdas Pophale) SiO2 
 PCOD8216886
Probable space group: P N N A
;
_chemical_formula_sum "Si O2"
_cell_formula_units_Z 48
_cell_length_a 18.972602
_cell_length_b 14.377921
_cell_length_c 7.330511
_cell_angle_alpha 90.000000
_cell_angle_beta 90.000000
_cell_angle_gamma 90.000000
_cell_volume 1999.664972
_symmetry_space_group_name_H-M "P N N A"
_symmetry_group_IT_number 52
_symmetry_cell_setting 'orthorhombic'
loop_
_space_group_symop_operation_xyz
x,y,z
1/2-x,-y,z
x,1/2-y,1/2-z
1/2-x,1/2+y,1/2-z
-x,-y,-z
1/2+x,y,-z
-x,1/2+y,1/2+z
1/2+x,1/2-y,1/2+z
loop_
_atom_site_type_symbol
_atom_site_label
_atom_site_fract_x
_atom_site_fract_y
_atom_site_fract_z
Si Si1 0.060772 0.570667 0.530589
Si Si2 0.815713 0.553354 0.587784
Si Si3 0.026027 0.769744 0.544461
Si Si4 0.378842 0.872147 0.432036
Si Si5 0.116767 0.926987 0.576976
Si Si6 0.740251 0.352513 0.217842
O O1 0.132133 0.532767 0.444050
O O2 0.067463 0.573156 0.747240
O O3 0.000000 0.500000 0.500000
O O4 0.036401 0.670159 0.443452
O O5 0.750000 0.500000 0.682017
O O6 0.849018 0.631523 0.723153
O O7 0.792105 0.601975 0.399837
O O8 0.048841 0.750000 0.750000
O O9 0.946052 0.806914 0.536279
O O10 0.083503 0.841860 0.458800
O O11 0.321208 0.836935 0.573086
O O12 0.396054 0.980115 0.463748
O O13 0.198719 0.917081 0.633171
O O14 0.772999 0.250000 0.250000
#
# Coordination Sequence:
#
# PCOD8216886 Si02
#       6
#     8   8   8   8   8   8
#     4  11  23  43  72 102 146 192 241 297 368 428
#     4  12  24  45  75 109 148 192 242 307 370 433
#     4  10  24  43  72 101 146 191 245 299 359 434
#     4  12  26  45  74 108 148 188 239 305 365 434
#     4  11  22  49  70 103 143 197 238 300 367 431
#     4  12  26  44  78 105 145 195 248 297 368 440
#
# _framework density 24.004021999999999
#
# number of rings (size 3 to 8) (size 9 to 14) (size 15 to 20)
#    0.000    0.667    3.333    5.500    4.667    0.000 
#    0.000    2.500    0.000    0.000    0.000    0.000 
#    0.000    0.000    0.000    0.000    0.000    0.000 
#
# Total GULP energy -595070.626378 kJ/mol
# GULP energy per Si atom -12397.304716 kJ/mol
# Density = 2.394939 g / cm^3
# Si number density = 24.004022 Si / 1000 Ang^3
#
#
#
# Elastic Constant Matrix: (Units=GPa)
#
#
# Indices 1 2 3 4 5 6 
#
# 1 152.0317 61.8572 31.1750 0.0000 0.0000 0.0000
# 2 61.8572 127.4567 12.4243 0.0000 0.0000 0.0000
# 3 31.1750 12.4243 72.1749 0.0000 0.0000 0.0000
# 4 0.0000 0.0000 0.0000 21.9115 0.0000 0.0000
# 5 0.0000 0.0000 0.0000 0.0000 32.3466 0.0000
# 6 0.0000 0.0000 0.0000 0.0000 0.0000 42.8780
#
#
#
# Elastic Compliance Matrix: (Units=1/GPa)
#
#
# Indices 1 2 3 4 5 6 
#
# 1 0.008842 -0.003986 -0.003133 0.000000 0.000000 0.000000
# 2 -0.003986 0.009776 0.000039 0.000000 0.000000 0.000000
# 3 -0.003133 0.000039 0.015202 0.000000 0.000000 0.000000
# 4 0.000000 0.000000 0.000000 0.045638 0.000000 0.000000
# 5 0.000000 0.000000 0.000000 0.000000 0.030915 0.000000
# 6 0.000000 0.000000 0.000000 0.000000 0.000000 0.023322
#
#
# Mechanical properties :
#
#
# Convention : Reuss Voigt Hill
#
# Bulk Modulus (GPa) = 50.86490 62.50845 56.68668
# Shear Modulus (GPa) = 32.38169 35.84100 34.11135
#
# Velocity S-wave (km/s) = 3.67687 3.86829 3.77380
# Velocity P-wave (km/s) = 6.26594 6.78593 6.53112
#
# Compressibility (1/GPa) = 0.01965992
#
# Stress axis : x y z
#
# Youngs Moduli (GPa) = 113.10127 102.28783 65.78160
#
# Poissons Ratio (x) = 0.40768 0.20609
# Poissons Ratio (y) = 0.45078 -0.00254
# Poissons Ratio (z) = 0.35434 -0.00395
#
# Static dielectric constant tensor:
#      x y z
#    x 4.187540 0.000000 0.000000 
#    y 0.000000 4.580710 0.000000 
#    z 0.000000 0.000000 4.245780 
# 
# 
# High freq. dielectric constant tensor:
#      x y z
#    x 1.964950 0.000000 0.000000 
#    y 0.000000 1.972550 0.000000 
#    z 0.000000 0.000000 1.934830 
# 
# From -- ./inp_files/12047.got.cif
#   From: 2010.06.25/outbox.cif.g09.slc.cpg/sg52_7_cif.got.tgz:12047.got - 2010.06.26 19:32:48.
