data_PCOD8216144
_publ_section_title
;
Structure prediction by ZEFSAII (Michael W. Deem and Ramdas Pophale) SiO2 
 PCOD8216144
Probable space group: P N N A
;
_chemical_formula_sum "Si O2"
_cell_formula_units_Z 60
_cell_length_a 28.730914
_cell_length_b 9.285188
_cell_length_c 11.067758
_cell_angle_alpha 90.000000
_cell_angle_beta 90.000000
_cell_angle_gamma 90.000000
_cell_volume 2952.567250
_symmetry_space_group_name_H-M "P N N A"
_symmetry_group_IT_number 52
_symmetry_cell_setting 'orthorhombic'
loop_
_space_group_symop_operation_xyz
x,y,z
1/2-x,-y,z
x,1/2-y,1/2-z
1/2-x,1/2+y,1/2-z
-x,-y,-z
1/2+x,y,-z
-x,1/2+y,1/2+z
1/2+x,1/2-y,1/2+z
loop_
_atom_site_type_symbol
_atom_site_label
_atom_site_fract_x
_atom_site_fract_y
_atom_site_fract_z
Si Si1 0.096389 0.022943 0.521107
Si Si2 0.461699 0.779910 0.886259
Si Si3 0.068846 0.747282 0.388898
Si Si4 0.660934 0.582100 0.225763
Si Si5 0.150378 0.247156 0.379920
Si Si6 0.750000 0.500000 0.085165
Si Si7 0.251849 0.157463 0.350990
Si Si8 0.612048 0.497032 0.465023
O O1 0.072406 0.909450 0.433993
O O2 0.116515 0.940941 0.638219
O O3 0.056369 0.140738 0.542280
O O4 0.138738 0.102777 0.454069
O O5 0.447878 0.750000 0.750000
O O6 0.516144 0.806076 0.904738
O O7 0.436934 0.926385 0.927566
O O8 0.084535 0.750000 0.250000
O O9 0.102674 0.647205 0.467720
O O10 0.672397 0.750000 0.250000
O O11 0.705111 0.491491 0.173323
O O12 0.646627 0.514728 0.353044
O O13 0.124129 0.250000 0.250000
O O14 0.204796 0.246985 0.358231
O O15 0.138601 0.393517 0.445262
O O16 0.735205 0.634738 0.994691
O O17 0.282442 0.250000 0.250000
O O18 0.250000 0.000000 0.290643
#
# Coordination Sequence:
#
# PCOD8216144 Si02
#       8
#     8   8   8   8   8   4   8   8
#     4  11  20  40  64  88 131 169 213 266 335 389
#     4  10  21  37  63  94 126 168 216 268 330 402
#     4  11  23  39  61  95 128 166 223 275 322 391
#     4  12  24  44  65  96 132 177 221 272 332 396
#     4  10  21  39  63  91 122 167 213 258 325 394
#     4  10  24  44  64 100 134 170 228 278 318 398
#     4   9  19  41  64  93 131 165 210 267 325 381
#     4  11  23  40  66  91 129 174 212 269 334 394
#
# _framework density 20.321299
#
# number of rings (size 3 to 8) (size 9 to 14) (size 15 to 20)
#    0.400    1.067    4.000    1.600    0.000    1.067 
#    4.800    1.333    2.933    0.000    0.000    0.000 
#    0.000    0.000    0.000    0.000    0.000    0.000 
#
# Total GULP energy -743310.398256 kJ/mol
# GULP energy per Si atom -12388.506638 kJ/mol
# Density = 2.027505 g / cm^3
# Si number density = 20.321299 Si / 1000 Ang^3
#
#
#
# Elastic Constant Matrix: (Units=GPa)
#
#
# Indices 1 2 3 4 5 6 
#
# 1 51.0309 11.6224 37.9109 0.0000 0.0000 0.0000
# 2 11.6224 94.6355 47.9889 0.0000 0.0000 0.0000
# 3 37.9109 47.9889 152.2662 0.0000 0.0000 0.0000
# 4 0.0000 0.0000 0.0000 40.0185 0.0000 0.0000
# 5 0.0000 0.0000 0.0000 0.0000 -58.6889 0.0000
# 6 0.0000 0.0000 0.0000 0.0000 0.0000 334.4709
#
#
#
# Elastic Compliance Matrix: (Units=1/GPa)
#
#
# Indices 1 2 3 4 5 6 
#
# 1 0.024044 0.000099 -0.006017 0.000000 0.000000 0.000000
# 2 0.000099 0.012577 -0.003988 0.000000 0.000000 0.000000
# 3 -0.006017 -0.003988 0.009323 0.000000 0.000000 0.000000
# 4 0.000000 0.000000 0.000000 0.024988 0.000000 0.000000
# 5 0.000000 0.000000 0.000000 0.000000 -0.017039 0.000000
# 6 0.000000 0.000000 0.000000 0.000000 0.000000 0.002990
#
#
# Mechanical properties :
#
#
# Convention : Reuss Voigt Hill
#
# Bulk Modulus (GPa) = 38.27154 54.77524 46.52339
# Shear Modulus (GPa) = 58.54284 76.52078 67.53181
#
# Velocity S-wave (km/s) = 5.37319 6.14306 5.77098
# Velocity P-wave (km/s) = 7.57423 8.79371 8.20665
#
# Compressibility (1/GPa) = 0.02612908
#
# Stress axis : x y z
#
# Youngs Moduli (GPa) = 41.59060 79.50853 107.26538
#
# Poissons Ratio (x) = -0.00783 0.64546
# Poissons Ratio (y) = -0.00410 0.42782
# Poissons Ratio (z) = 0.25027 0.31711
#
# Static dielectric constant tensor:
#      x y z
#    x 3.410310 0.000000 0.000000 
#    y 0.000000 3.470360 0.000000 
#    z 0.000000 0.000000 4.126420 
# 
# 
# High freq. dielectric constant tensor:
#      x y z
#    x 1.775430 0.000000 0.000000 
#    y 0.000000 1.793550 0.000000 
#    z 0.000000 0.000000 1.814740 
# 
# From -- ./inp_files/22877.got.cif
#   From: 2010.06.25/outbox.cif.g09.slc.cpg/sg52_12_cif.got.tgz:22877.got - 2010.06.26 19:32:48.
