data_PCOD8216888
_publ_section_title
;
Structure prediction by ZEFSAII (Michael W. Deem and Ramdas Pophale) SiO2 
 PCOD8216888
Probable space group: P N N A
;
_chemical_formula_sum "Si O2"
_cell_formula_units_Z 48
_cell_length_a 8.875047
_cell_length_b 22.085135
_cell_length_c 10.704577
_cell_angle_alpha 90.000000
_cell_angle_beta 90.000000
_cell_angle_gamma 90.000000
_cell_volume 2098.167861
_symmetry_space_group_name_H-M "P N N A"
_symmetry_group_IT_number 52
_symmetry_cell_setting 'orthorhombic'
loop_
_space_group_symop_operation_xyz
x,y,z
1/2-x,-y,z
x,1/2-y,1/2-z
1/2-x,1/2+y,1/2-z
-x,-y,-z
1/2+x,y,-z
-x,1/2+y,1/2+z
1/2+x,1/2-y,1/2+z
loop_
_atom_site_type_symbol
_atom_site_label
_atom_site_fract_x
_atom_site_fract_y
_atom_site_fract_z
Si Si1 0.245586 0.250000 0.750000
Si Si2 0.995613 0.583340 0.095742
Si Si3 0.007970 0.707354 0.430066
Si Si4 0.008702 0.810636 0.613283
Si Si5 0.999291 0.921778 0.120511
Si Si6 0.750000 0.000000 0.501426
Si Si7 0.750000 0.000000 0.999864
Si Si8 0.739080 0.250000 0.750000
O O1 0.144170 0.274770 0.639535
O O2 0.342224 0.191294 0.700305
O O3 0.000448 0.606219 0.238130
O O4 0.837285 0.548868 0.082198
O O5 0.009340 0.636907 0.992204
O O6 0.130988 0.535587 0.085985
O O7 0.012601 0.743354 0.557540
O O8 0.003622 0.636866 0.467707
O O9 0.160063 0.721707 0.357061
O O10 0.856995 0.807944 0.696668
O O11 0.848400 0.959078 0.092866
O O12 0.145143 0.962123 0.093488
#
# Coordination Sequence:
#
# PCOD8216888 Si02
#       8
#     4   8   8   8   8   4   4   4
#     4  10  24  44  64 104 138 176 214 270 356 400
#     4  11  24  45  70  96 139 171 228 279 336 401
#     4  11  24  40  70  99 130 173 226 273 336 407
#     4  11  25  43  69 103 137 176 221 277 345 404
#     4  11  25  45  71  94 132 178 226 285 331 403
#     4  10  26  42  66 104 128 178 222 272 332 404
#     4  10  26  50  66  96 132 182 234 276 342 398
#     4  10  24  44  64 104 138 176 214 270 356 400
#
# _framework density 22.877102000000001
#
# number of rings (size 3 to 8) (size 9 to 14) (size 15 to 20)
#    0.000    1.333    0.000    4.000   14.000    0.000 
#    0.000    0.000    0.000    0.000    0.000    0.000 
#    0.000    0.000    0.000    0.000    0.000    0.000 
#
# Total GULP energy -595064.482767 kJ/mol
# GULP energy per Si atom -12397.176724 kJ/mol
# Density = 2.282503 g / cm^3
# Si number density = 22.877102 Si / 1000 Ang^3
#
#
#
# Elastic Constant Matrix: (Units=GPa)
#
#
# Indices 1 2 3 4 5 6 
#
# 1 123.0764 9.5826 19.1105 0.0000 0.0000 0.0000
# 2 9.5826 84.5435 3.6026 0.0000 0.0000 0.0000
# 3 19.1105 3.6026 74.1764 0.0000 0.0000 0.0000
# 4 0.0000 0.0000 0.0000 43.3780 0.0000 0.0000
# 5 0.0000 0.0000 0.0000 0.0000 -9.0144 0.0000
# 6 0.0000 0.0000 0.0000 0.0000 0.0000 -45.9033
#
#
#
# Elastic Compliance Matrix: (Units=1/GPa)
#
#
# Indices 1 2 3 4 5 6 
#
# 1 0.008528 -0.000875 -0.002155 0.000000 0.000000 0.000000
# 2 -0.000875 0.011942 -0.000355 0.000000 0.000000 0.000000
# 3 -0.002155 -0.000355 0.014054 0.000000 0.000000 0.000000
# 4 0.000000 0.000000 0.000000 0.023053 0.000000 0.000000
# 5 0.000000 0.000000 0.000000 0.000000 -0.110934 0.000000
# 6 0.000000 0.000000 0.000000 0.000000 0.000000 -0.021785
#
#
# Mechanical properties :
#
#
# Convention : Reuss Voigt Hill
#
# Bulk Modulus (GPa) = 36.02833 38.48752 37.25792
# Shear Modulus (GPa) = -84.57065 14.32545 -35.12260
#
# Velocity S-wave (km/s) = -6.08668 2.50510 -3.92251
# Velocity P-wave (km/s) = 5.79776 5.02270 2.04775
#
# Compressibility (1/GPa) = 0.02775594
#
# Stress axis : x y z
#
# Youngs Moduli (GPa) = 117.26505 83.73466 71.15571
#
# Poissons Ratio (x) = 0.07325 0.15331
# Poissons Ratio (y) = 0.10258 0.02524
# Poissons Ratio (z) = 0.25265 0.02970
#
# Static dielectric constant tensor:
#      x y z
#    x 4.531790 0.000000 0.000000 
#    y 0.000000 4.065380 0.000000 
#    z 0.000000 0.000000 3.961690 
# 
# 
# High freq. dielectric constant tensor:
#      x y z
#    x 1.930310 0.000000 0.000000 
#    y 0.000000 1.896140 0.000000 
#    z 0.000000 0.000000 1.899470 
# 
# From -- ./inp_files/17006.got.cif
#   From: 2010.06.25/outbox.cif.g09.slc.cpg/sg52_9_cif.got.tgz:17006.got - 2010.06.26 19:32:48.
