data_PCOD8216592
_publ_section_title
;
Structure prediction by ZEFSAII (Michael W. Deem and Ramdas Pophale) SiO2 
 PCOD8216592
Probable space group: P N N A
;
_chemical_formula_sum "Si O2"
_cell_formula_units_Z 64
_cell_length_a 8.500765
_cell_length_b 11.928710
_cell_length_c 29.322982
_cell_angle_alpha 90.000000
_cell_angle_beta 90.000000
_cell_angle_gamma 90.000000
_cell_volume 2973.443049
_symmetry_space_group_name_H-M "P N N A"
_symmetry_group_IT_number 52
_symmetry_cell_setting 'orthorhombic'
loop_
_space_group_symop_operation_xyz
x,y,z
1/2-x,-y,z
x,1/2-y,1/2-z
1/2-x,1/2+y,1/2-z
-x,-y,-z
1/2+x,y,-z
-x,1/2+y,1/2+z
1/2+x,1/2-y,1/2+z
loop_
_atom_site_type_symbol
_atom_site_label
_atom_site_fract_x
_atom_site_fract_y
_atom_site_fract_z
Si Si1 0.958500 0.213815 0.199282
Si Si2 0.198535 0.373636 0.558552
Si Si3 0.417937 0.546752 0.810087
Si Si4 0.778796 0.627142 0.949305
Si Si5 0.121947 0.212687 0.843763
Si Si6 0.143499 0.102758 0.346903
Si Si7 0.462659 0.237839 0.996565
Si Si8 0.066311 0.526981 0.286921
O O1 0.916090 0.250000 0.250000
O O2 0.114167 0.284921 0.183450
O O3 0.801851 0.228214 0.170472
O O4 0.984673 0.083159 0.194408
O O5 0.250000 0.500000 0.567296
O O6 0.120712 0.321475 0.603484
O O7 0.355994 0.308901 0.544081
O O8 0.069941 0.361347 0.518036
O O9 0.250000 0.500000 0.793762
O O10 0.445730 0.663649 0.835691
O O11 0.471248 0.454330 0.847491
O O12 0.528951 0.549374 0.765755
O O13 0.750000 0.500000 0.963904
O O14 0.794570 0.641420 0.895345
O O15 0.635663 0.706877 0.962813
O O16 0.935599 0.663983 0.974645
O O17 0.008328 0.128903 0.815949
O O18 0.250000 0.000000 0.326037
O O19 0.250000 0.500000 0.293898
#
# Coordination Sequence:
#
# PCOD8216592 Si02
#       8
#     8   8   8   8   8   8   8   8
#     4  12  23  43  67  94 137 184 233 286 343 419
#     4  11  24  45  71 101 135 178 231 294 349 428
#     4  12  24  46  69  99 136 190 235 282 350 423
#     4  10  22  41  65  99 141 176 227 288 351 428
#     4  12  26  44  71 100 136 178 245 285 345 430
#     4  11  25  41  67 100 141 182 229 293 352 413
#     4  10  23  43  69  99 133 184 227 284 366 416
#     4  12  27  43  67 100 139 187 228 294 352 407
#
# _framework density 21.523869999999999
#
# number of rings (size 3 to 8) (size 9 to 14) (size 15 to 20)
#    0.000    0.750    2.500    4.875    5.250    0.000 
#    0.000    1.875    0.000    0.000    0.000    0.000 
#    0.000    0.000    0.000    0.000    0.000    0.000 
#
# Total GULP energy -793098.169908 kJ/mol
# GULP energy per Si atom -12392.158905 kJ/mol
# Density = 2.147488 g / cm^3
# Si number density = 21.523870 Si / 1000 Ang^3
#
#
#
# Elastic Constant Matrix: (Units=GPa)
#
#
# Indices 1 2 3 4 5 6 
#
# 1 90.5860 21.1769 29.7780 0.0000 0.0000 0.0000
# 2 21.1769 138.4165 41.2518 0.0000 0.0000 0.0000
# 3 29.7780 41.2518 77.4558 0.0000 0.0000 0.0000
# 4 0.0000 0.0000 0.0000 39.1595 0.0000 0.0000
# 5 0.0000 0.0000 0.0000 0.0000 30.8928 0.0000
# 6 0.0000 0.0000 0.0000 0.0000 0.0000 26.6604
#
#
#
# Elastic Compliance Matrix: (Units=1/GPa)
#
#
# Indices 1 2 3 4 5 6 
#
# 1 0.012675 -0.000579 -0.004565 0.000000 0.000000 0.000000
# 2 -0.000579 0.008614 -0.004365 0.000000 0.000000 0.000000
# 3 -0.004565 -0.004365 0.016990 0.000000 0.000000 0.000000
# 4 0.000000 0.000000 0.000000 0.025537 0.000000 0.000000
# 5 0.000000 0.000000 0.000000 0.000000 0.032370 0.000000
# 6 0.000000 0.000000 0.000000 0.000000 0.000000 0.037509
#
#
# Mechanical properties :
#
#
# Convention : Reuss Voigt Hill
#
# Bulk Modulus (GPa) = 51.91545 54.54128 53.22836
# Shear Modulus (GPa) = 31.42025 33.62596 32.52311
#
# Velocity S-wave (km/s) = 3.82486 3.95684 3.89141
# Velocity P-wave (km/s) = 6.60896 6.80223 6.70629
#
# Compressibility (1/GPa) = 0.01926209
#
# Stress axis : x y z
#
# Youngs Moduli (GPa) = 78.89493 116.08910 58.85700
#
# Poissons Ratio (x) = 0.06719 0.26866
# Poissons Ratio (y) = 0.04567 0.25692
# Poissons Ratio (z) = 0.36013 0.50675
#
# Static dielectric constant tensor:
#      x y z
#    x 4.233930 0.000000 0.000000 
#    y 0.000000 4.508600 0.000000 
#    z 0.000000 0.000000 3.883410 
# 
# 
# High freq. dielectric constant tensor:
#      x y z
#    x 1.860870 0.000000 0.000000 
#    y 0.000000 1.861380 0.000000 
#    z 0.000000 0.000000 1.837230 
# 
# From -- ./inp_files/44622.got.cif
#   From: 2010.06.25/outbox.cif.g09.slc.cpg/sg52_23_cif.got.tgz:44622.got - 2010.06.26 19:32:48.
