data_PCOD8216121
_publ_section_title
;
Structure prediction by ZEFSAII (Michael W. Deem and Ramdas Pophale) SiO2 
 PCOD8216121
Probable space group: P N N A
;
_chemical_formula_sum "Si O2"
_cell_formula_units_Z 40
_cell_length_a 17.336675
_cell_length_b 8.886276
_cell_length_c 13.054912
_cell_angle_alpha 90.000000
_cell_angle_beta 90.000000
_cell_angle_gamma 90.000000
_cell_volume 2011.219886
_symmetry_space_group_name_H-M "P N N A"
_symmetry_group_IT_number 52
_symmetry_cell_setting 'orthorhombic'
loop_
_space_group_symop_operation_xyz
x,y,z
1/2-x,-y,z
x,1/2-y,1/2-z
1/2-x,1/2+y,1/2-z
-x,-y,-z
1/2+x,y,-z
-x,1/2+y,1/2+z
1/2+x,1/2-y,1/2+z
loop_
_atom_site_type_symbol
_atom_site_label
_atom_site_fract_x
_atom_site_fract_y
_atom_site_fract_z
Si Si1 0.609015 0.330178 0.855973
Si Si2 0.090995 0.824112 0.354714
Si Si3 0.957824 0.854884 0.042547
Si Si4 0.741277 0.666556 0.976313
Si Si5 0.802608 0.861068 0.155746
O O1 0.591093 0.250000 0.750000
O O2 0.576820 0.498354 0.843099
O O3 0.700259 0.324521 0.879854
O O4 0.565415 0.249352 0.948033
O O5 0.120713 0.750000 0.250000
O O6 0.155714 0.795180 0.439766
O O7 0.012194 0.744407 0.385911
O O8 0.885874 0.909571 0.111704
O O9 0.000000 0.000000 0.000000
O O10 0.750000 0.500000 0.024087
O O11 0.756577 0.784417 0.064295
O O12 0.815230 0.750000 0.250000
O O13 0.750000 0.000000 0.192894
#
# Coordination Sequence:
#
# PCOD8216121 Si02
#       5
#     8   8   8   8   8
#     4  10  21  37  58  85 116 152 190 234 288 352
#     4  11  21  37  60  87 117 151 191 240 296 351
#     4  11  23  40  60  86 119 153 196 248 302 358
#     4   9  20  38  60  85 115 150 193 240 288 347
#     4  11  23  40  61  85 116 156 201 246 297 358
#
# _framework density 19.888427
#
# number of rings (size 3 to 8) (size 9 to 14) (size 15 to 20)
#    0.000    1.600    0.000    4.800    0.000    1.600 
#    0.000   11.000    0.000    0.000    0.000    0.000 
#    0.000    0.000    0.000    0.000    0.000    0.000 
#
# Total GULP energy -496120.837342 kJ/mol
# GULP energy per Si atom -12403.020934 kJ/mol
# Density = 1.984316 g / cm^3
# Si number density = 19.888427 Si / 1000 Ang^3
#
#
#
# Elastic Constant Matrix: (Units=GPa)
#
#
# Indices 1 2 3 4 5 6 
#
# 1 116.7585 54.7846 35.5334 0.0000 0.0000 0.0000
# 2 54.7846 134.0908 45.7303 0.0000 0.0000 0.0000
# 3 35.5334 45.7303 84.9548 0.0000 0.0000 0.0000
# 4 0.0000 0.0000 0.0000 30.6906 0.0000 0.0000
# 5 0.0000 0.0000 0.0000 0.0000 0.5868 0.0000
# 6 0.0000 0.0000 0.0000 0.0000 0.0000 34.5218
#
#
#
# Elastic Compliance Matrix: (Units=1/GPa)
#
#
# Indices 1 2 3 4 5 6 
#
# 1 0.011076 -0.003608 -0.002691 0.000000 0.000000 0.000000
# 2 -0.003608 0.010310 -0.004041 0.000000 0.000000 0.000000
# 3 -0.002691 -0.004041 0.015071 0.000000 0.000000 0.000000
# 4 0.000000 0.000000 0.000000 0.032583 0.000000 0.000000
# 5 0.000000 0.000000 0.000000 0.000000 1.704066 0.000000
# 6 0.000000 0.000000 0.000000 0.000000 0.000000 0.028967
#
#
# Mechanical properties :
#
#
# Convention : Reuss Voigt Hill
#
# Bulk Modulus (GPa) = 63.37475 67.54454 65.45964
# Shear Modulus (GPa) = 2.73521 26.47689 14.60605
#
# Velocity S-wave (km/s) = 1.17399 3.65262 2.71292
# Velocity P-wave (km/s) = 5.81137 7.19891 6.54203
#
# Compressibility (1/GPa) = 0.01577916
#
# Stress axis : x y z
#
# Youngs Moduli (GPa) = 90.28214 96.99681 66.35060
#
# Poissons Ratio (x) = 0.34994 0.17854
# Poissons Ratio (y) = 0.32571 0.26810
# Poissons Ratio (z) = 0.24293 0.39192
#
# Static dielectric constant tensor:
#      x y z
#    x 3.686260 0.000000 0.000000 
#    y 0.000000 3.792340 0.000000 
#    z 0.000000 0.000000 3.550000 
# 
# 
# High freq. dielectric constant tensor:
#      x y z
#    x 1.781770 0.000000 0.000000 
#    y 0.000000 1.786640 0.000000 
#    z 0.000000 0.000000 1.780980 
# 
# From -- ./inp_files/20281.got.cif
#   From: 2010.06.25/outbox.cif.g09.slc.cpg/sg52_11_cif.got.tgz:20281.got - 2010.06.26 19:32:48.
