data_PCOD8216114
_publ_section_title
;
Structure prediction by ZEFSAII (Michael W. Deem and Ramdas Pophale) SiO2 
 PCOD8216114
Probable space group: P N N A
;
_chemical_formula_sum "Si O2"
_cell_formula_units_Z 64
_cell_length_a 9.905911
_cell_length_b 13.525903
_cell_length_c 24.523017
_cell_angle_alpha 90.000000
_cell_angle_beta 90.000000
_cell_angle_gamma 90.000000
_cell_volume 3285.750552
_symmetry_space_group_name_H-M "P N N A"
_symmetry_group_IT_number 52
_symmetry_cell_setting 'orthorhombic'
loop_
_space_group_symop_operation_xyz
x,y,z
1/2-x,-y,z
x,1/2-y,1/2-z
1/2-x,1/2+y,1/2-z
-x,-y,-z
1/2+x,y,-z
-x,1/2+y,1/2+z
1/2+x,1/2-y,1/2+z
loop_
_atom_site_type_symbol
_atom_site_label
_atom_site_fract_x
_atom_site_fract_y
_atom_site_fract_z
Si Si1 0.692047 0.193235 0.881316
Si Si2 0.896860 0.527778 0.285792
Si Si3 0.228329 0.891266 0.340505
Si Si4 0.341055 0.669745 0.625046
Si Si5 0.935845 0.394785 0.430719
Si Si6 0.553087 0.178561 0.299503
Si Si7 0.558117 0.610716 0.556152
Si Si8 0.605717 0.356150 0.733798
O O1 0.710286 0.311762 0.882460
O O2 0.546993 0.179699 0.908499
O O3 0.803425 0.130144 0.912674
O O4 0.700447 0.156920 0.818813
O O5 0.750000 0.500000 0.304612
O O6 0.935735 0.599694 0.335939
O O7 0.884179 0.580921 0.227363
O O8 0.989331 0.431977 0.282148
O O9 0.301862 0.896810 0.281970
O O10 0.074547 0.857605 0.333860
O O11 0.250000 0.000000 0.366764
O O12 0.197408 0.624479 0.606329
O O13 0.333876 0.772063 0.660095
O O14 0.438437 0.687126 0.572601
O O15 0.902201 0.374057 0.493479
O O16 0.994535 0.504922 0.427439
O O17 0.507138 0.250000 0.250000
O O18 0.540096 0.250000 0.750000
#
# Coordination Sequence:
#
# PCOD8216114 Si02
#       8
#     8   8   8   8   8   8   8   8
#     4  11  22  37  61  89 117 157 199 246 299 352
#     4  11  22  35  54  84 122 164 193 232 293 357
#     4  11  21  38  60  86 116 151 202 254 292 347
#     4  11  22  39  59  83 126 159 196 238 299 366
#     4  11  24  39  58  91 120 159 194 247 295 363
#     4  10  21  37  57  84 118 160 198 239 295 361
#     4  11  22  39  62  87 122 154 200 240 301 360
#     4  10  22  35  58  86 119 148 199 247 292 346
#
# _framework density 19.478045999999999
#
# number of rings (size 3 to 8) (size 9 to 14) (size 15 to 20)
#    0.000    1.250    2.500    4.875    1.750    6.500 
#    0.000    0.000    0.000    0.750    0.000    0.000 
#    0.000    0.000    0.000    0.000    0.000    0.000 
#
# Total GULP energy -793095.147918 kJ/mol
# GULP energy per Si atom -12392.111686 kJ/mol
# Density = 1.943371 g / cm^3
# Si number density = 19.478046 Si / 1000 Ang^3
#
#
#
# Elastic Constant Matrix: (Units=GPa)
#
#
# Indices 1 2 3 4 5 6 
#
# 1 105.5508 32.6166 47.6420 0.0000 0.0000 0.0000
# 2 32.6166 89.7665 51.8570 0.0000 0.0000 0.0000
# 3 47.6420 51.8570 97.0689 0.0000 0.0000 0.0000
# 4 0.0000 0.0000 0.0000 -51.7519 0.0000 0.0000
# 5 0.0000 0.0000 0.0000 0.0000 36.3336 0.0000
# 6 0.0000 0.0000 0.0000 0.0000 0.0000 24.2338
#
#
#
# Elastic Compliance Matrix: (Units=1/GPa)
#
#
# Indices 1 2 3 4 5 6 
#
# 1 0.012294 -0.001419 -0.005276 0.000000 0.000000 0.000000
# 2 -0.001419 0.016277 -0.007999 0.000000 0.000000 0.000000
# 3 -0.005276 -0.007999 0.017165 0.000000 0.000000 0.000000
# 4 0.000000 0.000000 0.000000 -0.019323 0.000000 0.000000
# 5 0.000000 0.000000 0.000000 0.000000 0.027523 0.000000
# 6 0.000000 0.000000 0.000000 0.000000 0.000000 0.041265
#
#
# Mechanical properties :
#
#
# Convention : Reuss Voigt Hill
#
# Bulk Modulus (GPa) = 61.17190 61.84640 61.50915
# Shear Modulus (GPa) = 38.45085 12.44783 25.44934
#
# Velocity S-wave (km/s) = 4.44786 2.53072 3.61857
# Velocity P-wave (km/s) = 7.60603 6.35297 7.00756
#
# Compressibility (1/GPa) = 0.01634737
#
# Stress axis : x y z
#
# Youngs Moduli (GPa) = 81.34064 61.43824 58.25970
#
# Poissons Ratio (x) = 0.08720 0.30736
# Poissons Ratio (y) = 0.11544 0.46601
# Poissons Ratio (z) = 0.42913 0.49143
#
# Static dielectric constant tensor:
#      x y z
#    x 3.528510 0.000000 0.000000 
#    y 0.000000 3.447400 0.000000 
#    z 0.000000 0.000000 3.663780 
# 
# 
# High freq. dielectric constant tensor:
#      x y z
#    x 1.757930 0.000000 0.000000 
#    y 0.000000 1.748240 0.000000 
#    z 0.000000 0.000000 1.752150 
# 
# From -- ./inp_files/39689.got.cif
#   From: 2010.06.25/outbox.cif.g09.slc.cpg/sg52_20_cif.got.tgz:39689.got - 2010.06.26 19:32:48.
