data_PCOD8216477
_publ_section_title
;
Structure prediction by ZEFSAII (Michael W. Deem and Ramdas Pophale) SiO2 
 PCOD8216477
Probable space group: P N N A
;
_chemical_formula_sum "Si O2"
_cell_formula_units_Z 56
_cell_length_a 20.000633
_cell_length_b 25.331300
_cell_length_c 5.263354
_cell_angle_alpha 90.000000
_cell_angle_beta 90.000000
_cell_angle_gamma 90.000000
_cell_volume 2666.636380
_symmetry_space_group_name_H-M "P N N A"
_symmetry_group_IT_number 52
_symmetry_cell_setting 'orthorhombic'
loop_
_space_group_symop_operation_xyz
x,y,z
1/2-x,-y,z
x,1/2-y,1/2-z
1/2-x,1/2+y,1/2-z
-x,-y,-z
1/2+x,y,-z
-x,1/2+y,1/2+z
1/2+x,1/2-y,1/2+z
loop_
_atom_site_type_symbol
_atom_site_label
_atom_site_fract_x
_atom_site_fract_y
_atom_site_fract_z
Si Si1 0.305134 0.696055 0.863341
Si Si2 0.441221 0.696296 0.138139
Si Si3 0.626632 0.383435 0.502518
Si Si4 0.745553 0.561646 0.579995
Si Si5 0.302066 0.115929 0.558491
Si Si6 0.953136 0.116514 0.465798
Si Si7 0.500609 0.938647 0.947900
O O1 0.274611 0.750000 0.750000
O O2 0.327167 0.651986 0.669330
O O3 0.245311 0.666590 0.014404
O O4 0.371894 0.713604 0.008827
O O5 0.473009 0.750000 0.250000
O O6 0.422394 0.653365 0.342850
O O7 0.498454 0.667231 0.970147
O O8 0.679712 0.418545 0.657246
O O9 0.575057 0.422563 0.362666
O O10 0.750000 0.500000 0.526694
O O11 0.716350 0.588716 0.326049
O O12 0.701265 0.573994 0.827824
O O13 0.377753 0.137219 0.572027
O O14 0.953995 0.076691 0.705950
O O15 0.974451 0.088106 0.206709
O O16 0.500000 0.000000 0.000000
#
# Coordination Sequence:
#
# PCOD8216477 Si02
#       7
#     8   8   8   8   8   8   8
#     4  11  21  40  67  93 128 169 219 273 330 382
#     4  11  21  40  67  94 126 170 219 272 331 382
#     4  10  22  38  64  94 126 165 223 271 309 391
#     4  11  24  42  65  93 131 176 218 265 325 384
#     4  11  25  43  64  96 135 169 215 271 324 397
#     4  11  25  43  64  96 135 169 215 272 325 398
#     4  11  24  42  65  93 131 176 218 265 326 386
#
# _framework density 21.000240000000002
#
# number of rings (size 3 to 8) (size 9 to 14) (size 15 to 20)
#    0.000    1.143    4.286    1.714    4.000    0.571 
#    0.000    0.000    0.000    6.000    0.000    0.000 
#    0.000    0.000    0.000    0.000    0.000    0.000 
#
# Total GULP energy -693842.172480 kJ/mol
# GULP energy per Si atom -12390.038794 kJ/mol
# Density = 2.095244 g / cm^3
# Si number density = 21.000240 Si / 1000 Ang^3
#
#
#
# Elastic Constant Matrix: (Units=GPa)
#
#
# Indices 1 2 3 4 5 6 
#
# 1 127.2362 61.1352 25.1438 0.0000 0.0000 0.0000
# 2 61.1352 132.8707 30.0286 0.0000 0.0000 0.0000
# 3 25.1438 30.0286 110.4110 0.0000 0.0000 0.0000
# 4 0.0000 0.0000 0.0000 30.2796 0.0000 0.0000
# 5 0.0000 0.0000 0.0000 0.0000 16.9092 0.0000
# 6 0.0000 0.0000 0.0000 0.0000 0.0000 23.1339
#
#
#
# Elastic Compliance Matrix: (Units=1/GPa)
#
#
# Indices 1 2 3 4 5 6 
#
# 1 0.010218 -0.004449 -0.001117 0.000000 0.000000 0.000000
# 2 -0.004449 0.009956 -0.001695 0.000000 0.000000 0.000000
# 3 -0.001117 -0.001695 0.009772 0.000000 0.000000 0.000000
# 4 0.000000 0.000000 0.000000 0.033026 0.000000 0.000000
# 5 0.000000 0.000000 0.000000 0.000000 0.059140 0.000000
# 6 0.000000 0.000000 0.000000 0.000000 0.000000 0.043227
#
#
# Mechanical properties :
#
#
# Convention : Reuss Voigt Hill
#
# Bulk Modulus (GPa) = 64.82855 67.01480 65.92168
# Shear Modulus (GPa) = 27.02697 31.01188 29.01943
#
# Velocity S-wave (km/s) = 3.59135 3.84701 3.72137
# Velocity P-wave (km/s) = 6.93790 7.19120 7.06568
#
# Compressibility (1/GPa) = 0.01542530
#
# Stress axis : x y z
#
# Youngs Moduli (GPa) = 97.86903 100.44121 102.32991
#
# Poissons Ratio (x) = 0.44685 0.11429
# Poissons Ratio (y) = 0.43541 0.17341
# Poissons Ratio (z) = 0.10931 0.17021
#
# Static dielectric constant tensor:
#      x y z
#    x 4.496060 0.000000 0.000000 
#    y 0.000000 3.755980 0.000000 
#    z 0.000000 0.000000 3.626880 
# 
# 
# High freq. dielectric constant tensor:
#      x y z
#    x 1.830990 0.000000 0.000000 
#    y 0.000000 1.824870 0.000000 
#    z 0.000000 0.000000 1.813110 
# 
# From -- ./inp_files/4520.got.cif
#   From: 2010.06.25/outbox.cif.g09.slc.cpg/sg52_3_cif.got.tgz:4520.got - 2010.06.26 19:32:48.
