data_PCOD8216024
_publ_section_title
;
Structure prediction by ZEFSAII (Michael W. Deem and Ramdas Pophale) SiO2 
 PCOD8216024
Probable space group: P N N A
;
_chemical_formula_sum "Si O2"
_cell_formula_units_Z 32
_cell_length_a 20.011890
_cell_length_b 9.241836
_cell_length_c 9.005219
_cell_angle_alpha 90.000000
_cell_angle_beta 90.000000
_cell_angle_gamma 90.000000
_cell_volume 1665.484685
_symmetry_space_group_name_H-M "P N N A"
_symmetry_group_IT_number 52
_symmetry_cell_setting 'orthorhombic'
loop_
_space_group_symop_operation_xyz
x,y,z
1/2-x,-y,z
x,1/2-y,1/2-z
1/2-x,1/2+y,1/2-z
-x,-y,-z
1/2+x,y,-z
-x,1/2+y,1/2+z
1/2+x,1/2-y,1/2+z
loop_
_atom_site_type_symbol
_atom_site_label
_atom_site_fract_x
_atom_site_fract_y
_atom_site_fract_z
Si Si1 0.379276 0.750000 0.250000
Si Si2 0.211650 0.145889 0.498925
Si Si3 0.699312 0.628542 0.621380
Si Si4 0.374699 0.750000 0.750000
Si Si5 0.074492 0.447352 0.493206
O O1 0.332830 0.852916 0.349875
O O2 0.427043 0.658601 0.353893
O O3 0.260250 0.285446 0.505874
O O4 0.168141 0.145691 0.646397
O O5 0.250000 0.000000 0.495896
O O6 0.750000 0.500000 0.675802
O O7 0.684019 0.750000 0.750000
O O8 0.631510 0.567930 0.544210
O O9 0.415584 0.638943 0.646860
O O10 0.000000 0.500000 0.500000
#
# Coordination Sequence:
#
# PCOD8216024 Si02
#       5
#     4   8   8   4   8
#     4  10  20  42  64  90 122 168 212 260 306 376
#     4  11  22  38  67  96 129 161 213 270 322 376
#     4  12  21  39  70  98 122 170 221 265 313 386
#     4  10  24  42  62  94 132 164 208 278 328 360
#     4  11  25  44  64  90 133 171 213 262 319 388
#
# _framework density 19.213626000000001
#
# number of rings (size 3 to 8) (size 9 to 14) (size 15 to 20)
#    0.000    1.000    6.250    2.250    5.250    0.000 
#    4.500    2.500    0.000    0.000    0.000    0.000 
#    0.000    0.000    0.000    0.000    0.000    0.000 
#
# Total GULP energy -396421.202647 kJ/mol
# GULP energy per Si atom -12388.162583 kJ/mol
# Density = 1.916989 g / cm^3
# Si number density = 19.213626 Si / 1000 Ang^3
#
#
#
# Elastic Constant Matrix: (Units=GPa)
#
#
# Indices 1 2 3 4 5 6 
#
# 1 167.4116 82.0901 76.5910 0.0000 0.0000 0.0000
# 2 82.0901 142.6620 66.6959 0.0000 0.0000 0.0000
# 3 76.5910 66.6959 152.9815 0.0000 0.0000 0.0000
# 4 0.0000 0.0000 0.0000 -314.5064 0.0000 0.0000
# 5 0.0000 0.0000 0.0000 0.0000 -29.1345 0.0000
# 6 0.0000 0.0000 0.0000 0.0000 0.0000 41.3252
#
#
#
# Elastic Compliance Matrix: (Units=1/GPa)
#
#
# Indices 1 2 3 4 5 6 
#
# 1 0.009243 -0.003963 -0.002900 0.000000 0.000000 0.000000
# 2 -0.003963 0.010503 -0.002595 0.000000 0.000000 0.000000
# 3 -0.002900 -0.002595 0.009120 0.000000 0.000000 0.000000
# 4 0.000000 0.000000 0.000000 -0.003180 0.000000 0.000000
# 5 0.000000 0.000000 0.000000 0.000000 -0.034324 0.000000
# 6 0.000000 0.000000 0.000000 0.000000 0.000000 0.024198
#
#
# Mechanical properties :
#
#
# Convention : Reuss Voigt Hill
#
# Bulk Modulus (GPa) = 100.49724 101.53434 101.01579
# Shear Modulus (GPa) = 132.29551 -44.61793 43.83879
#
# Velocity S-wave (km/s) = 8.30690 -4.82415 4.78185
# Velocity P-wave (km/s) = 12.01769 4.68292 9.12016
#
# Compressibility (1/GPa) = 0.00995052
#
# Stress axis : x y z
#
# Youngs Moduli (GPa) = 108.18674 95.20971 109.64957
#
# Poissons Ratio (x) = 0.37731 0.31798
# Poissons Ratio (y) = 0.42874 0.28454
# Poissons Ratio (z) = 0.31374 0.24707
#
# Static dielectric constant tensor:
#      x y z
#    x 3.358910 0.000000 0.000000 
#    y 0.000000 3.504490 0.000000 
#    z 0.000000 0.000000 3.961870 
# 
# 
# High freq. dielectric constant tensor:
#      x y z
#    x 1.733190 0.000000 0.000000 
#    y 0.000000 1.758120 0.000000 
#    z 0.000000 0.000000 1.759620 
# 
# From -- ./inp_files/12831.got.cif
#   From: 2010.06.25/outbox.cif.g09.slc.cpg/sg52_7_cif.got.tgz:12831.got - 2010.06.26 19:32:48.
