data_PCOD8216216
_publ_section_title
;
Structure prediction by ZEFSAII (Michael W. Deem and Ramdas Pophale) SiO2 
 PCOD8216216
Probable space group: P N N A
;
_chemical_formula_sum "Si O2"
_cell_formula_units_Z 40
_cell_length_a 9.386503
_cell_length_b 23.590108
_cell_length_c 8.171206
_cell_angle_alpha 90.000000
_cell_angle_beta 90.000000
_cell_angle_gamma 90.000000
_cell_volume 1809.338864
_symmetry_space_group_name_H-M "P N N A"
_symmetry_group_IT_number 52
_symmetry_cell_setting 'orthorhombic'
loop_
_space_group_symop_operation_xyz
x,y,z
1/2-x,-y,z
x,1/2-y,1/2-z
1/2-x,1/2+y,1/2-z
-x,-y,-z
1/2+x,y,-z
-x,1/2+y,1/2+z
1/2+x,1/2-y,1/2+z
loop_
_atom_site_type_symbol
_atom_site_label
_atom_site_fract_x
_atom_site_fract_y
_atom_site_fract_z
Si Si1 0.355180 0.635331 0.792476
Si Si2 0.190366 0.796748 0.975538
Si Si3 0.920729 0.849054 0.838629
Si Si4 0.624435 0.457399 0.475894
Si Si5 0.096842 0.832327 0.523065
O O1 0.293106 0.685016 0.675603
O O2 0.370822 0.576129 0.696711
O O3 0.235230 0.628244 0.937789
O O4 0.513699 0.652102 0.856252
O O5 0.151968 0.731484 0.971515
O O6 0.044957 0.833032 0.969298
O O7 0.279584 0.810136 0.139989
O O8 0.973745 0.839994 0.657075
O O9 0.876035 0.913488 0.873345
O O10 0.750000 0.500000 0.490335
O O11 0.500000 0.500000 0.500000
#
# Coordination Sequence:
#
# PCOD8216216 Si02
#       5
#     8   8   8   8   8
#     4  10  23  40  62  94 129 167 212 260 316 381
#     4  10  21  39  60  92 134 171 202 247 309 387
#     4  10  21  39  63  92 123 166 217 254 307 384
#     4  11  23  44  67  89 122 168 219 274 321 375
#     4  11  22  40  62  97 138 166 205 267 315 377
#
# _framework density 22.107524000000002
#
# number of rings (size 3 to 8) (size 9 to 14) (size 15 to 20)
#    0.000    1.600    0.000    7.200    0.000    6.400 
#    0.000   13.000    0.000    0.000    0.000    0.000 
#    0.000    0.000    0.000    0.000    0.000    0.000 
#
# Total GULP energy -495697.114073 kJ/mol
# GULP energy per Si atom -12392.427852 kJ/mol
# Density = 2.205721 g / cm^3
# Si number density = 22.107524 Si / 1000 Ang^3
#
#
#
# Elastic Constant Matrix: (Units=GPa)
#
#
# Indices 1 2 3 4 5 6 
#
# 1 122.7776 11.5774 -156.1982 0.0000 0.0000 0.0000
# 2 11.5774 -62.2017 -609.0320 0.0000 0.0000 0.0000
# 3 -156.1982 -609.0320-1837.8428 0.0000 0.0000 0.0000
# 4 0.0000 0.0000 0.0000 27.5815 0.0000 0.0000
# 5 0.0000 0.0000 0.0000 0.0000 53.9113 0.0000
# 6 0.0000 0.0000 0.0000 0.0000 0.0000 50.3343
#
#
#
# Elastic Compliance Matrix: (Units=1/GPa)
#
#
# Indices 1 2 3 4 5 6 
#
# 1 0.009318 -0.004227 0.000609 0.000000 0.000000 0.000000
# 2 -0.004227 0.009080 -0.002650 0.000000 0.000000 0.000000
# 3 0.000609 -0.002650 0.000282 0.000000 0.000000 0.000000
# 4 0.000000 0.000000 0.000000 0.036256 0.000000 0.000000
# 5 0.000000 0.000000 0.000000 0.000000 0.018549 0.000000
# 6 0.000000 0.000000 0.000000 0.000000 0.000000 0.019867
#
#
# Mechanical properties :
#
#
# Convention : Reuss Voigt Hill
#
# Bulk Modulus (GPa) = 162.75407 -364.95252 -101.09922
# Shear Modulus (GPa) = 46.32368 -41.87551 2.22408
#
# Velocity S-wave (km/s) = 4.58250 -4.35693 1.00410
# Velocity P-wave (km/s) = 10.08852 13.81121 6.66976
#
# Compressibility (1/GPa) = 0.00614424
#
# Stress axis : x y z
#
# Youngs Moduli (GPa) = 107.31936 110.13463 3543.74504
#
# Poissons Ratio (x) = 0.46555 -2.15761
# Poissons Ratio (y) = 0.45365 9.38966
# Poissons Ratio (z) = -0.06534 0.29182
#
# Static dielectric constant tensor:
#      x y z
#    x 4.509110 0.000000 0.000000 
#    y 0.000000 3.905070 0.000000 
#    z 0.000000 0.000000 4.057130 
# 
# 
# High freq. dielectric constant tensor:
#      x y z
#    x 1.903900 0.000000 0.000000 
#    y 0.000000 1.851440 0.000000 
#    z 0.000000 0.000000 1.859610 
# 
# From -- ./inp_files/7390.got.cif
#   From: 2010.06.25/outbox.cif.g09.slc.cpg/sg52_4_cif.got.tgz:7390.got - 2010.06.26 19:32:48.
