data_PCOD8216829
_publ_section_title
;
Structure prediction by ZEFSAII (Michael W. Deem and Ramdas Pophale) SiO2 
 PCOD8216829
Probable space group: P N N A
;
_chemical_formula_sum "Si O2"
_cell_formula_units_Z 56
_cell_length_a 24.959881
_cell_length_b 6.801726
_cell_length_c 15.633017
_cell_angle_alpha 90.000000
_cell_angle_beta 90.000000
_cell_angle_gamma 90.000000
_cell_volume 2654.021541
_symmetry_space_group_name_H-M "P N N A"
_symmetry_group_IT_number 52
_symmetry_cell_setting 'orthorhombic'
loop_
_space_group_symop_operation_xyz
x,y,z
1/2-x,-y,z
x,1/2-y,1/2-z
1/2-x,1/2+y,1/2-z
-x,-y,-z
1/2+x,y,-z
-x,1/2+y,1/2+z
1/2+x,1/2-y,1/2+z
loop_
_atom_site_type_symbol
_atom_site_label
_atom_site_fract_x
_atom_site_fract_y
_atom_site_fract_z
Si Si1 0.196299 0.570553 0.797893
Si Si2 0.750000 0.500000 0.591877
Si Si3 0.616705 0.250000 0.250000
Si Si4 0.857082 0.655566 0.658708
Si Si5 0.900150 0.965019 0.525057
Si Si6 0.933807 0.126156 0.928785
Si Si7 0.444370 0.868157 0.913994
Si Si8 0.291148 0.347865 0.983997
O O1 0.250000 0.500000 0.747133
O O2 0.167390 0.750000 0.750000
O O3 0.153035 0.397307 0.805970
O O4 0.221588 0.664100 0.884196
O O5 0.793588 0.609619 0.650877
O O6 0.715144 0.641512 0.531336
O O7 0.581980 0.129410 0.180289
O O8 0.868690 0.750000 0.750000
O O9 0.892698 0.459025 0.642627
O O10 0.875070 0.816468 0.591657
O O11 0.934042 0.136699 0.570523
O O12 0.851759 0.080083 0.481870
O O13 0.936538 0.847828 0.456695
O O14 0.993934 0.070402 0.901502
O O15 0.918984 0.032555 0.022217
O O16 0.250000 0.500000 0.029236
#
# Coordination Sequence:
#
# PCOD8216829 Si02
#       8
#     8   4   4   8   8   8   8   8
#     4  11  25  38  58  93 133 168 207 257 316 378
#     4  12  24  42  66  92 130 170 212 276 322 394
#     4  12  24  40  62  96 132 166 210 272 306 376
#     4  11  26  42  66  99 128 165 220 272 336 397
#     4  11  21  42  67  93 128 169 216 263 325 390
#     4  10  23  46  68  93 128 174 214 275 324 389
#     4  10  24  42  67  97 129 170 223 261 326 387
#     4  11  23  39  64  95 125 173 216 255 322 391
#
# _framework density 21.100057
#
# number of rings (size 3 to 8) (size 9 to 14) (size 15 to 20)
#    0.000    1.143    5.000    0.429    3.000    2.857 
#    0.000    0.714    0.000    0.000    0.000    0.000 
#    0.000    0.000    0.000    0.000    0.000    0.000 
#
# Total GULP energy -694146.653998 kJ/mol
# GULP energy per Si atom -12395.475964 kJ/mol
# Density = 2.105203 g / cm^3
# Si number density = 21.100057 Si / 1000 Ang^3
#
#
#
# Elastic Constant Matrix: (Units=GPa)
#
#
# Indices 1 2 3 4 5 6 
#
# 1 98.8947 18.7712 34.7960 0.0000 0.0000 0.0000
# 2 18.7712 88.9105 18.3082 0.0000 0.0000 0.0000
# 3 34.7960 18.3082 82.8886 0.0000 0.0000 0.0000
# 4 0.0000 0.0000 0.0000 27.0404 0.0000 0.0000
# 5 0.0000 0.0000 0.0000 0.0000 -5.3497 0.0000
# 6 0.0000 0.0000 0.0000 0.0000 0.0000 36.4858
#
#
#
# Elastic Compliance Matrix: (Units=1/GPa)
#
#
# Indices 1 2 3 4 5 6 
#
# 1 0.012072 -0.001577 -0.004719 0.000000 0.000000 0.000000
# 2 -0.001577 0.011989 -0.001986 0.000000 0.000000 0.000000
# 3 -0.004719 -0.001986 0.014484 0.000000 0.000000 0.000000
# 4 0.000000 0.000000 0.000000 0.036982 0.000000 0.000000
# 5 0.000000 0.000000 0.000000 0.000000 -0.186925 0.000000
# 6 0.000000 0.000000 0.000000 0.000000 0.000000 0.027408
#
#
# Mechanical properties :
#
#
# Convention : Reuss Voigt Hill
#
# Bulk Modulus (GPa) = 45.49518 46.04940 45.77229
# Shear Modulus (GPa) = -83.19597 24.88984 -29.15307
#
# Velocity S-wave (km/s) = -6.28608 3.43827 -3.72110
# Velocity P-wave (km/s) = 5.57477 6.13465 1.81051
#
# Compressibility (1/GPa) = 0.02198035
#
# Stress axis : x y z
#
# Youngs Moduli (GPa) = 82.83957 83.40867 69.04073
#
# Poissons Ratio (x) = 0.13152 0.32582
# Poissons Ratio (y) = 0.13062 0.13713
# Poissons Ratio (z) = 0.39094 0.16567
#
# Static dielectric constant tensor:
#      x y z
#    x 3.899700 0.000000 0.000000 
#    y 0.000000 4.416980 0.000000 
#    z 0.000000 0.000000 3.547060 
# 
# 
# High freq. dielectric constant tensor:
#      x y z
#    x 1.834040 0.000000 0.000000 
#    y 0.000000 1.832990 0.000000 
#    z 0.000000 0.000000 1.803450 
# 
# From -- ./inp_files/29701.got.cif
#   From: 2010.06.25/outbox.cif.g09.slc.cpg/sg52_15_cif.got.tgz:29701.got - 2010.06.26 19:32:48.
