data_PCOD8216065
_publ_section_title
;
Structure prediction by ZEFSAII (Michael W. Deem and Ramdas Pophale) SiO2 
 PCOD8216065
Probable space group: P N N A
;
_chemical_formula_sum "Si O2"
_cell_formula_units_Z 48
_cell_length_a 31.725699
_cell_length_b 9.246564
_cell_length_c 8.497284
_cell_angle_alpha 90.000000
_cell_angle_beta 90.000000
_cell_angle_gamma 90.000000
_cell_volume 2492.709754
_symmetry_space_group_name_H-M "P N N A"
_symmetry_group_IT_number 52
_symmetry_cell_setting 'orthorhombic'
loop_
_space_group_symop_operation_xyz
x,y,z
1/2-x,-y,z
x,1/2-y,1/2-z
1/2-x,1/2+y,1/2-z
-x,-y,-z
1/2+x,y,-z
-x,1/2+y,1/2+z
1/2+x,1/2-y,1/2+z
loop_
_atom_site_type_symbol
_atom_site_label
_atom_site_fract_x
_atom_site_fract_y
_atom_site_fract_z
Si Si1 0.119552 0.585109 0.265959
Si Si2 0.790214 0.903446 0.308049
Si Si3 0.951764 0.097140 0.168658
Si Si4 0.631168 0.439471 0.411629
Si Si5 0.340884 0.667673 0.090049
Si Si6 0.975086 0.100710 0.809055
O O1 0.134659 0.750000 0.250000
O O2 0.136600 0.541265 0.437084
O O3 0.136099 0.481197 0.129643
O O4 0.069995 0.566978 0.234446
O O5 0.775109 0.750000 0.250000
O O6 0.830314 0.962870 0.208864
O O7 0.800397 0.885480 0.492990
O O8 0.750000 0.000000 0.281465
O O9 0.940460 0.250000 0.250000
O O10 0.911972 0.986822 0.175603
O O11 0.967423 0.121128 0.993140
O O12 0.992217 0.021885 0.249175
O O13 0.630709 0.272701 0.476199
O O14 0.327318 0.750000 0.250000
O O15 0.994621 0.250000 0.750000
#
# Coordination Sequence:
#
# PCOD8216065 Si02
#       6
#     8   8   8   8   8   8
#     4   9  18  34  56  82 109 144 187 226 266 315
#     4  10  22  39  59  83 109 140 177 221 275 328
#     4  10  21  35  53  79 109 143 187 229 266 318
#     4   9  20  37  55  79 110 143 180 222 274 330
#     4   9  19  38  59  78 108 144 179 219 272 333
#     4   9  20  35  50  76 111 144 182 225 272 317
#
# _framework density 19.256152
#
# number of rings (size 3 to 8) (size 9 to 14) (size 15 to 20)
#    0.000    2.667    0.000    0.000    0.000   13.333 
#    0.000    8.333    0.000    0.000    0.000    0.000 
#    0.000    0.000    0.000    0.000    0.000    0.000 
#
# Total GULP energy -594750.848825 kJ/mol
# GULP energy per Si atom -12390.642684 kJ/mol
# Density = 1.921232 g / cm^3
# Si number density = 19.256152 Si / 1000 Ang^3
#
#
#
# Elastic Constant Matrix: (Units=GPa)
#
#
# Indices 1 2 3 4 5 6 
#
# 1 111.4323 75.8819 54.1131 0.0000 0.0000 0.0000
# 2 75.8819 138.5587 47.3683 0.0000 0.0000 0.0000
# 3 54.1131 47.3683 63.3523 0.0000 0.0000 0.0000
# 4 0.0000 0.0000 0.0000 27.7659 0.0000 0.0000
# 5 0.0000 0.0000 0.0000 0.0000 14.8592 0.0000
# 6 0.0000 0.0000 0.0000 0.0000 0.0000 -47.4387
#
#
#
# Elastic Compliance Matrix: (Units=1/GPa)
#
#
# Indices 1 2 3 4 5 6 
#
# 1 0.018852 -0.006474 -0.011262 0.000000 0.000000 0.000000
# 2 -0.006474 0.011919 -0.003382 0.000000 0.000000 0.000000
# 3 -0.011262 -0.003382 0.027932 0.000000 0.000000 0.000000
# 4 0.000000 0.000000 0.000000 0.036015 0.000000 0.000000
# 5 0.000000 0.000000 0.000000 0.000000 0.067298 0.000000
# 6 0.000000 0.000000 0.000000 0.000000 0.000000 -0.021080
#
#
# Mechanical properties :
#
#
# Convention : Reuss Voigt Hill
#
# Bulk Modulus (GPa) = 60.72394 74.22999 67.47697
# Shear Modulus (GPa) = 26.50261 8.10261 17.30261
#
# Velocity S-wave (km/s) = 3.71390 2.05352 3.00083
# Velocity P-wave (km/s) = 7.07065 6.65244 6.86473
#
# Compressibility (1/GPa) = 0.01646797
#
# Stress axis : x y z
#
# Youngs Moduli (GPa) = 53.04616 83.90096 35.80069
#
# Poissons Ratio (x) = 0.54319 0.40317
# Poissons Ratio (y) = 0.34343 0.12107
# Poissons Ratio (z) = 0.59738 0.28373
#
# Static dielectric constant tensor:
#      x y z
#    x 3.420160 0.000000 0.000000 
#    y 0.000000 3.766310 0.000000 
#    z 0.000000 0.000000 3.582940 
# 
# 
# High freq. dielectric constant tensor:
#      x y z
#    x 1.729680 0.000000 0.000000 
#    y 0.000000 1.758550 0.000000 
#    z 0.000000 0.000000 1.752390 
# 
# From -- ./inp_files/15529.got.cif
#   From: 2010.06.25/outbox.cif.g09.slc.cpg/sg52_8_cif.got.tgz:15529.got - 2010.06.26 19:32:48.
