data_PCOD8216767
_publ_section_title
;
Structure prediction by ZEFSAII (Michael W. Deem and Ramdas Pophale) SiO2 
 PCOD8216767
Probable space group: P N N A
;
_chemical_formula_sum "Si O2"
_cell_formula_units_Z 48
_cell_length_a 27.268045
_cell_length_b 9.021809
_cell_length_c 9.719879
_cell_angle_alpha 90.000000
_cell_angle_beta 90.000000
_cell_angle_gamma 90.000000
_cell_volume 2391.159185
_symmetry_space_group_name_H-M "P N N A"
_symmetry_group_IT_number 52
_symmetry_cell_setting 'orthorhombic'
loop_
_space_group_symop_operation_xyz
x,y,z
1/2-x,-y,z
x,1/2-y,1/2-z
1/2-x,1/2+y,1/2-z
-x,-y,-z
1/2+x,y,-z
-x,1/2+y,1/2+z
1/2+x,1/2-y,1/2+z
loop_
_atom_site_type_symbol
_atom_site_label
_atom_site_fract_x
_atom_site_fract_y
_atom_site_fract_z
Si Si1 0.362745 0.416996 0.254947
Si Si2 0.199639 0.919529 0.500941
Si Si3 0.853307 0.920190 0.268183
Si Si4 0.952326 0.888147 0.652052
Si Si5 0.698221 0.924602 0.019625
Si Si6 0.039549 0.385855 0.836104
O O1 0.384033 0.250000 0.250000
O O2 0.405131 0.525508 0.206283
O O3 0.342626 0.460655 0.404490
O O4 0.315347 0.428361 0.157768
O O5 0.205487 0.749366 0.544432
O O6 0.250000 0.000000 0.528208
O O7 0.158682 0.009331 0.584413
O O8 0.836935 0.750000 0.250000
O O9 0.911868 0.935977 0.252969
O O10 0.823313 0.013722 0.159318
O O11 0.960115 0.750000 0.750000
O O12 0.946190 0.839300 0.492713
O O13 0.001392 0.982361 0.665590
O O14 0.750000 0.000000 0.981812
O O15 0.016276 0.250000 0.750000
#
# Coordination Sequence:
#
# PCOD8216767 Si02
#       6
#     8   8   8   8   8   8
#     4  10  23  42  63  92 126 166 207 262 315 371
#     4  11  22  40  63  88 126 164 209 262 315 372
#     4  11  23  41  63  91 125 167 207 262 311 370
#     4  11  24  42  69  97 127 168 209 258 316 375
#     4  11  24  40  63  94 125 167 214 258 314 375
#     4  10  24  45  64  96 133 164 209 260 314 375
#
# _framework density 20.073944999999998
#
# number of rings (size 3 to 8) (size 9 to 14) (size 15 to 20)
#    0.000    1.333    1.667    3.000    4.667    3.333 
#    3.000    0.000    0.000    0.000    0.000    0.000 
#    0.000    0.000    0.000    0.000    0.000    0.000 
#
# Total GULP energy -595299.190032 kJ/mol
# GULP energy per Si atom -12402.066459 kJ/mol
# Density = 2.002826 g / cm^3
# Si number density = 20.073945 Si / 1000 Ang^3
#
#
#
# Elastic Constant Matrix: (Units=GPa)
#
#
# Indices 1 2 3 4 5 6 
#
# 1 84.7615 48.0308 30.1829 0.0000 0.0000 0.0000
# 2 48.0308 129.2434 53.3361 0.0000 0.0000 0.0000
# 3 30.1829 53.3361 96.6949 0.0000 0.0000 0.0000
# 4 0.0000 0.0000 0.0000 33.8461 0.0000 0.0000
# 5 0.0000 0.0000 0.0000 0.0000 23.8076 0.0000
# 6 0.0000 0.0000 0.0000 0.0000 0.0000 13.2665
#
#
#
# Elastic Compliance Matrix: (Units=1/GPa)
#
#
# Indices 1 2 3 4 5 6 
#
# 1 0.015273 -0.004802 -0.002119 0.000000 0.000000 0.000000
# 2 -0.004802 0.011527 -0.004859 0.000000 0.000000 0.000000
# 3 -0.002119 -0.004859 0.013684 0.000000 0.000000 0.000000
# 4 0.000000 0.000000 0.000000 0.029545 0.000000 0.000000
# 5 0.000000 0.000000 0.000000 0.000000 0.042003 0.000000
# 6 0.000000 0.000000 0.000000 0.000000 0.000000 0.075378
#
#
# Mechanical properties :
#
#
# Convention : Reuss Voigt Hill
#
# Bulk Modulus (GPa) = 59.08763 63.75548 61.42156
# Shear Modulus (GPa) = 23.08273 26.12738 24.60505
#
# Velocity S-wave (km/s) = 3.39467 3.61162 3.50483
# Velocity P-wave (km/s) = 6.69806 7.01577 6.85875
#
# Compressibility (1/GPa) = 0.01692402
#
# Stress axis : x y z
#
# Youngs Moduli (GPa) = 65.47427 86.75178 73.07965
#
# Poissons Ratio (x) = 0.41654 0.15486
# Poissons Ratio (y) = 0.31438 0.35513
# Poissons Ratio (z) = 0.13874 0.42157
#
# Static dielectric constant tensor:
#      x y z
#    x 3.558430 0.000000 0.000000 
#    y 0.000000 3.716320 0.000000 
#    z 0.000000 0.000000 3.809040 
# 
# 
# High freq. dielectric constant tensor:
#      x y z
#    x 1.791520 0.000000 0.000000 
#    y 0.000000 1.789430 0.000000 
#    z 0.000000 0.000000 1.796180 
# 
# From -- ./inp_files/15508.got.cif
#   From: 2010.06.25/outbox.cif.g09.slc.cpg/sg52_8_cif.got.tgz:15508.got - 2010.06.26 19:32:48.
