data_PCOD8216726
_publ_section_title
;
Structure prediction by ZEFSAII (Michael W. Deem and Ramdas Pophale) SiO2 
 PCOD8216726
Probable space group: P N N A
;
_chemical_formula_sum "Si O2"
_cell_formula_units_Z 48
_cell_length_a 13.225993
_cell_length_b 24.452391
_cell_length_c 6.300650
_cell_angle_alpha 90.000000
_cell_angle_beta 90.000000
_cell_angle_gamma 90.000000
_cell_volume 2037.675274
_symmetry_space_group_name_H-M "P N N A"
_symmetry_group_IT_number 52
_symmetry_cell_setting 'orthorhombic'
loop_
_space_group_symop_operation_xyz
x,y,z
1/2-x,-y,z
x,1/2-y,1/2-z
1/2-x,1/2+y,1/2-z
-x,-y,-z
1/2+x,y,-z
-x,1/2+y,1/2+z
1/2+x,1/2-y,1/2+z
loop_
_atom_site_type_symbol
_atom_site_label
_atom_site_fract_x
_atom_site_fract_y
_atom_site_fract_z
Si Si1 0.100270 0.750000 0.250000
Si Si2 0.717620 0.697396 0.120307
Si Si3 0.390665 0.984533 0.435589
Si Si4 0.750000 0.000000 0.206845
Si Si5 0.841778 0.867503 0.685127
Si Si6 0.964515 0.335069 0.424482
Si Si7 0.339248 0.079860 0.119912
O O1 0.171692 0.787418 0.393031
O O2 0.030519 0.714774 0.409314
O O3 0.759751 0.750000 0.250000
O O4 0.630150 0.668808 0.260635
O O5 0.811342 0.657445 0.048322
O O6 0.389256 0.928368 0.307030
O O7 0.500000 0.000000 0.500000
O O8 0.332197 0.970654 0.648860
O O9 0.344067 0.036456 0.311686
O O10 0.697219 0.952090 0.082821
O O11 0.739534 0.871631 0.824664
O O12 0.928968 0.831944 0.799742
O O13 0.945844 0.391118 0.559422
#
# Coordination Sequence:
#
# PCOD8216726 Si02
#       7
#     4   8   8   4   8   8   8
#     4  10  22  52  72 102 146 180 252 326 364 446
#     4  10  24  52  75 108 145 188 251 322 366 450
#     4  12  27  44  72 107 153 193 251 304 365 453
#     4  12  22  44  68 100 148 200 238 302 360 436
#     4  12  24  48  73 111 146 202 242 300 391 445
#     4  11  26  45  76 106 149 192 246 316 382 442
#     4  12  25  46  69 110 149 191 257 307 363 461
#
# _framework density 23.556255
#
# number of rings (size 3 to 8) (size 9 to 14) (size 15 to 20)
#    0.000    0.667    5.000    2.000    4.667    1.333 
#    9.000    0.000    0.000    0.000    0.000    0.000 
#    0.000    0.000    0.000    0.000    0.000    0.000 
#
# Total GULP energy -594942.585088 kJ/mol
# GULP energy per Si atom -12394.637189 kJ/mol
# Density = 2.350264 g / cm^3
# Si number density = 23.556255 Si / 1000 Ang^3
#
#
#
# Elastic Constant Matrix: (Units=GPa)
#
#
# Indices 1 2 3 4 5 6 
#
# 1 112.7060 40.0134 48.6506 0.0000 0.0000 0.0000
# 2 40.0134 110.6536 44.5027 0.0000 0.0000 0.0000
# 3 48.6506 44.5027 117.0747 0.0000 0.0000 0.0000
# 4 0.0000 0.0000 0.0000 43.2369 0.0000 0.0000
# 5 0.0000 0.0000 0.0000 0.0000 33.9642 0.0000
# 6 0.0000 0.0000 0.0000 0.0000 0.0000 29.5540
#
#
#
# Elastic Compliance Matrix: (Units=1/GPa)
#
#
# Indices 1 2 3 4 5 6 
#
# 1 0.011422 -0.002622 -0.003750 0.000000 0.000000 0.000000
# 2 -0.002622 0.011270 -0.003194 0.000000 0.000000 0.000000
# 3 -0.003750 -0.003194 0.011314 0.000000 0.000000 0.000000
# 4 0.000000 0.000000 0.000000 0.023128 0.000000 0.000000
# 5 0.000000 0.000000 0.000000 0.000000 0.029443 0.000000
# 6 0.000000 0.000000 0.000000 0.000000 0.000000 0.033836
#
#
# Mechanical properties :
#
#
# Convention : Reuss Voigt Hill
#
# Bulk Modulus (GPa) = 67.23306 67.41865 67.32585
# Shear Modulus (GPa) = 34.60097 35.16884 34.88490
#
# Velocity S-wave (km/s) = 3.83674 3.86809 3.85245
# Velocity P-wave (km/s) = 6.94484 6.97366 6.95927
#
# Compressibility (1/GPa) = 0.01487363
#
# Stress axis : x y z
#
# Youngs Moduli (GPa) = 87.54852 88.72984 88.38605
#
# Poissons Ratio (x) = 0.23268 0.33142
# Poissons Ratio (y) = 0.22958 0.28233
# Poissons Ratio (z) = 0.32828 0.28343
#
# Static dielectric constant tensor:
#      x y z
#    x 4.027760 0.000000 0.000000 
#    y 0.000000 4.231070 0.000000 
#    z 0.000000 0.000000 4.451730 
# 
# 
# High freq. dielectric constant tensor:
#      x y z
#    x 1.919580 0.000000 0.000000 
#    y 0.000000 1.943390 0.000000 
#    z 0.000000 0.000000 1.943410 
# 
# From -- ./inp_files/2517.got.cif
#   From: 2010.06.25/outbox.cif.g09.slc.cpg/sg52_2_cif.got.tgz:2517.got - 2010.06.26 19:32:48.
