data_PCOD8216225
_publ_section_title
;
Structure prediction by ZEFSAII (Michael W. Deem and Ramdas Pophale) SiO2 
 PCOD8216225
Probable space group: P N N A
;
_chemical_formula_sum "Si O2"
_cell_formula_units_Z 64
_cell_length_a 14.034889
_cell_length_b 11.888128
_cell_length_c 18.920697
_cell_angle_alpha 90.000000
_cell_angle_beta 90.000000
_cell_angle_gamma 90.000000
_cell_volume 3156.890990
_symmetry_space_group_name_H-M "P N N A"
_symmetry_group_IT_number 52
_symmetry_cell_setting 'orthorhombic'
loop_
_space_group_symop_operation_xyz
x,y,z
1/2-x,-y,z
x,1/2-y,1/2-z
1/2-x,1/2+y,1/2-z
-x,-y,-z
1/2+x,y,-z
-x,1/2+y,1/2+z
1/2+x,1/2-y,1/2+z
loop_
_atom_site_type_symbol
_atom_site_label
_atom_site_fract_x
_atom_site_fract_y
_atom_site_fract_z
Si Si1 0.008782 0.233513 0.902066
Si Si2 0.601229 0.706629 0.037835
Si Si3 0.357460 0.983290 0.480179
Si Si4 0.624560 0.909980 0.812974
Si Si5 0.176827 0.153613 0.136593
Si Si6 0.681033 0.258050 0.485227
Si Si7 0.494405 0.798664 0.322648
Si Si8 0.941970 0.045244 0.661836
O O1 0.116388 0.192807 0.921631
O O2 0.969531 0.145359 0.845456
O O3 0.012040 0.357661 0.866998
O O4 0.942549 0.226167 0.971992
O O5 0.713727 0.731249 0.041359
O O6 0.555877 0.746740 0.111318
O O7 0.580493 0.571564 0.027267
O O8 0.382659 0.852962 0.492916
O O9 0.250000 0.000000 0.504141
O O10 0.365313 0.014532 0.398013
O O11 0.716835 0.835690 0.832504
O O12 0.616759 0.909577 0.728610
O O13 0.630683 0.035640 0.842650
O O14 0.114254 0.255083 0.168455
O O15 0.183446 0.158909 0.051676
O O16 0.538157 0.750000 0.250000
O O17 0.500549 0.933596 0.317552
#
# Coordination Sequence:
#
# PCOD8216225 Si02
#       8
#     8   8   8   8   8   8   8   8
#     4  11  22  39  63  87 125 166 204 256 311 371
#     4  10  21  39  62  93 125 156 211 260 306 371
#     4   9  19  32  60  94 120 152 192 256 317 353
#     4  11  25  41  55  92 130 166 202 249 316 385
#     4  11  23  40  61  90 125 162 205 252 318 373
#     4  11  20  40  64  93 119 159 217 259 308 362
#     4  12  23  40  64  91 123 166 204 256 314 374
#     4  11  22  37  60  93 128 159 199 256 313 379
#
# _framework density 20.273111
#
# number of rings (size 3 to 8) (size 9 to 14) (size 15 to 20)
#    0.000    1.250    5.000    1.125    1.750    3.500 
#    0.000    1.250    0.000    0.000    0.000    0.000 
#    0.000    0.000    0.000    0.000    0.000    0.000 
#
# Total GULP energy -793662.086342 kJ/mol
# GULP energy per Si atom -12400.970099 kJ/mol
# Density = 2.022697 g / cm^3
# Si number density = 20.273111 Si / 1000 Ang^3
#
#
#
# Elastic Constant Matrix: (Units=GPa)
#
#
# Indices 1 2 3 4 5 6 
#
# 1 78.0862 18.5356 44.1236 0.0000 0.0000 0.0000
# 2 18.5356 35.7804 37.5967 0.0000 0.0000 0.0000
# 3 44.1236 37.5967 133.7737 0.0000 0.0000 0.0000
# 4 0.0000 0.0000 0.0000 29.4200 0.0000 0.0000
# 5 0.0000 0.0000 0.0000 0.0000 30.7371 0.0000
# 6 0.0000 0.0000 0.0000 0.0000 0.0000 19.7204
#
#
#
# Elastic Compliance Matrix: (Units=1/GPa)
#
#
# Indices 1 2 3 4 5 6 
#
# 1 0.016119 -0.003922 -0.004214 0.000000 0.000000 0.000000
# 2 -0.003922 0.040615 -0.010121 0.000000 0.000000 0.000000
# 3 -0.004214 -0.010121 0.011710 0.000000 0.000000 0.000000
# 4 0.000000 0.000000 0.000000 0.033990 0.000000 0.000000
# 5 0.000000 0.000000 0.000000 0.000000 0.032534 0.000000
# 6 0.000000 0.000000 0.000000 0.000000 0.000000 0.050709
#
#
# Mechanical properties :
#
#
# Convention : Reuss Voigt Hill
#
# Bulk Modulus (GPa) = 31.31964 49.79469 40.55717
# Shear Modulus (GPa) = 21.47452 25.80114 23.63783
#
# Velocity S-wave (km/s) = 3.25816 3.57133 3.41833
# Velocity P-wave (km/s) = 5.44394 6.45144 5.96899
#
# Compressibility (1/GPa) = 0.03192885
#
# Stress axis : x y z
#
# Youngs Moduli (GPa) = 62.03992 24.62152 85.39805
#
# Poissons Ratio (x) = 0.09656 0.35990
# Poissons Ratio (y) = 0.24331 0.86433
# Poissons Ratio (z) = 0.26146 0.24920
#
# Static dielectric constant tensor:
#      x y z
#    x 3.491000 0.000000 0.000000 
#    y 0.000000 3.748210 0.000000 
#    z 0.000000 0.000000 3.729230 
# 
# 
# High freq. dielectric constant tensor:
#      x y z
#    x 1.776630 0.000000 0.000000 
#    y 0.000000 1.784990 0.000000 
#    z 0.000000 0.000000 1.792150 
# 
# From -- ./inp_files/33285.got.cif
#   From: 2010.06.25/outbox.cif.g09.slc.cpg/sg52_17_cif.got.tgz:33285.got - 2010.06.26 19:32:48.
