data_PCOD8216151
_publ_section_title
;
Structure prediction by ZEFSAII (Michael W. Deem and Ramdas Pophale) SiO2 
 PCOD8216151
Probable space group: P N N A
;
_chemical_formula_sum "Si O2"
_cell_formula_units_Z 64
_cell_length_a 13.199522
_cell_length_b 9.118457
_cell_length_c 24.518987
_cell_angle_alpha 90.000000
_cell_angle_beta 90.000000
_cell_angle_gamma 90.000000
_cell_volume 2951.087469
_symmetry_space_group_name_H-M "P N N A"
_symmetry_group_IT_number 52
_symmetry_cell_setting 'orthorhombic'
loop_
_space_group_symop_operation_xyz
x,y,z
1/2-x,-y,z
x,1/2-y,1/2-z
1/2-x,1/2+y,1/2-z
-x,-y,-z
1/2+x,y,-z
-x,1/2+y,1/2+z
1/2+x,1/2-y,1/2+z
loop_
_atom_site_type_symbol
_atom_site_label
_atom_site_fract_x
_atom_site_fract_y
_atom_site_fract_z
Si Si1 0.177659 0.867640 0.018229
Si Si2 0.275451 0.671782 0.807291
Si Si3 0.367015 0.266545 0.594715
Si Si4 0.804385 0.363256 0.795838
Si Si5 0.501269 0.204670 0.350997
Si Si6 0.016759 0.023363 0.436469
Si Si7 0.033769 0.000739 0.097028
Si Si8 0.817831 0.768147 0.602644
O O1 0.067874 0.929685 0.038569
O O2 0.219750 0.770499 0.067417
O O3 0.250000 0.000000 0.002588
O O4 0.179358 0.761825 0.965893
O O5 0.250000 0.500000 0.803671
O O6 0.247117 0.750000 0.750000
O O7 0.213408 0.750834 0.856353
O O8 0.393929 0.691218 0.818781
O O9 0.441631 0.129638 0.596721
O O10 0.423200 0.424804 0.595867
O O11 0.750000 0.500000 0.767119
O O12 0.826043 0.250000 0.750000
O O13 0.721104 0.314710 0.839118
O O14 0.915613 0.391723 0.820689
O O15 0.470237 0.375609 0.356358
O O16 0.504553 0.136648 0.411630
O O17 0.126900 0.094690 0.426552
O O18 0.000000 0.000000 0.500000
O O19 0.114582 0.124433 0.112670
#
# Coordination Sequence:
#
# PCOD8216151 Si02
#       8
#     8   8   8   8   8   8   8   8
#     4  10  21  37  69 105 148 186 229 281 355 439
#     4  12  30  53  74 100 139 184 252 307 357 415
#     4  11  25  45  69 103 139 188 239 293 353 423
#     4  12  27  46  74 104 143 184 238 291 361 427
#     4  12  25  47  71 104 141 182 238 291 350 435
#     4  11  24  43  71 107 147 186 229 295 362 426
#     4  10  23  41  70 102 146 182 227 282 355 422
#     4  10  23  45  66 107 146 184 229 292 355 429
#
# _framework density 21.686921000000002
#
# number of rings (size 3 to 8) (size 9 to 14) (size 15 to 20)
#    0.000    1.000    3.750    1.500    7.000    1.000 
#    0.000    3.125    0.000    0.000    0.000    0.000 
#    0.000    0.000    0.000    0.000    0.000    0.000 
#
# Total GULP energy -793370.535470 kJ/mol
# GULP energy per Si atom -12396.414617 kJ/mol
# Density = 2.163756 g / cm^3
# Si number density = 21.686921 Si / 1000 Ang^3
#
#
#
# Elastic Constant Matrix: (Units=GPa)
#
#
# Indices 1 2 3 4 5 6 
#
# 1 101.9287 33.1030 43.9054 0.0000 0.0000 0.0000
# 2 33.1030 93.0604 22.8174 0.0000 0.0000 0.0000
# 3 43.9054 22.8174 94.4594 0.0000 0.0000 0.0000
# 4 0.0000 0.0000 0.0000 36.0884 0.0000 0.0000
# 5 0.0000 0.0000 0.0000 0.0000 19.4429 0.0000
# 6 0.0000 0.0000 0.0000 0.0000 0.0000 22.1633
#
#
#
# Elastic Compliance Matrix: (Units=1/GPa)
#
#
# Indices 1 2 3 4 5 6 
#
# 1 0.013203 -0.003393 -0.005317 0.000000 0.000000 0.000000
# 2 -0.003393 0.012294 -0.001393 0.000000 0.000000 0.000000
# 3 -0.005317 -0.001393 0.013395 0.000000 0.000000 0.000000
# 4 0.000000 0.000000 0.000000 0.027710 0.000000 0.000000
# 5 0.000000 0.000000 0.000000 0.000000 0.051433 0.000000
# 6 0.000000 0.000000 0.000000 0.000000 0.000000 0.045120
#
#
# Mechanical properties :
#
#
# Convention : Reuss Voigt Hill
#
# Bulk Modulus (GPa) = 53.51613 54.34444 53.93028
# Shear Modulus (GPa) = 26.37299 28.18044 27.27671
#
# Velocity S-wave (km/s) = 3.49101 3.60866 3.55032
# Velocity P-wave (km/s) = 6.40155 6.51738 6.45972
#
# Compressibility (1/GPa) = 0.01868596
#
# Stress axis : x y z
#
# Youngs Moduli (GPa) = 75.74006 81.34014 74.65747
#
# Poissons Ratio (x) = 0.27597 0.39698
# Poissons Ratio (y) = 0.25697 0.10398
# Poissons Ratio (z) = 0.40273 0.11329
#
# Static dielectric constant tensor:
#      x y z
#    x 3.952160 0.000000 0.000000 
#    y 0.000000 4.127020 0.000000 
#    z 0.000000 0.000000 3.504140 
# 
# 
# High freq. dielectric constant tensor:
#      x y z
#    x 1.858470 0.000000 0.000000 
#    y 0.000000 1.866290 0.000000 
#    z 0.000000 0.000000 1.844070 
# 
# From -- ./inp_files/40678.got.cif
#   From: 2010.06.25/outbox.cif.g09.slc.cpg/sg52_21_cif.got.tgz:40678.got - 2010.06.26 19:32:48.
