data_PCOD8216936
_publ_section_title
;
Structure prediction by ZEFSAII (Michael W. Deem and Ramdas Pophale) SiO2 
 PCOD8216936
Probable space group: P N N A
;
_chemical_formula_sum "Si O2"
_cell_formula_units_Z 20
_cell_length_a 16.024880
_cell_length_b 10.489642
_cell_length_c 4.842851
_cell_angle_alpha 90.000000
_cell_angle_beta 90.000000
_cell_angle_gamma 90.000000
_cell_volume 814.060270
_symmetry_space_group_name_H-M "P N N A"
_symmetry_group_IT_number 52
_symmetry_cell_setting 'orthorhombic'
loop_
_space_group_symop_operation_xyz
x,y,z
1/2-x,-y,z
x,1/2-y,1/2-z
1/2-x,1/2+y,1/2-z
-x,-y,-z
1/2+x,y,-z
-x,1/2+y,1/2+z
1/2+x,1/2-y,1/2+z
loop_
_atom_site_type_symbol
_atom_site_label
_atom_site_fract_x
_atom_site_fract_y
_atom_site_fract_z
Si Si1 0.407633 0.639901 0.065276
Si Si2 0.152540 0.996422 0.955794
Si Si3 0.932923 0.250000 0.250000
O O1 0.359696 0.750000 0.250000
O O2 0.397963 0.515941 0.259598
O O3 0.505094 0.679687 0.029260
O O4 0.370669 0.608793 0.764450
O O5 0.128171 0.855118 0.870382
O O6 0.250000 0.000000 0.014595
#
# Coordination Sequence:
#
# PCOD8216936 Si02
#       3
#     8   8   4
#     4  10  25  43  69  93 139 172 226 262 332 399
#     4  12  25  45  67 105 131 173 223 279 329 386
#     4  10  26  40  76  90 142 178 220 266 334 394
#
# _framework density 24.568206
#
# number of rings (size 3 to 8) (size 9 to 14) (size 15 to 20)
#    1.200    0.000    0.000    4.800    5.600    4.800 
#    0.000    0.000    0.000    0.000    0.000    0.000 
#    0.000    0.000    0.000    0.000    0.000    0.000 
#
# Total GULP energy -247789.208716 kJ/mol
# GULP energy per Si atom -12389.460436 kJ/mol
# Density = 2.451229 g / cm^3
# Si number density = 24.568206 Si / 1000 Ang^3
#
#
#
# Elastic Constant Matrix: (Units=GPa)
#
#
# Indices 1 2 3 4 5 6 
#
# 1 104.6336 56.2926 17.6749 0.0000 0.0000 0.0000
# 2 56.2926 70.5419 -16.2674 0.0000 0.0000 0.0000
# 3 17.6749 -16.2674 95.6565 0.0000 0.0000 0.0000
# 4 0.0000 0.0000 0.0000 6.4238 0.0000 0.0000
# 5 0.0000 0.0000 0.0000 0.0000 -21.4969 0.0000
# 6 0.0000 0.0000 0.0000 0.0000 0.0000 41.7190
#
#
#
# Elastic Compliance Matrix: (Units=1/GPa)
#
#
# Indices 1 2 3 4 5 6 
#
# 1 0.020208 -0.017680 -0.006741 0.000000 0.000000 0.000000
# 2 -0.017680 0.030223 0.008407 0.000000 0.000000 0.000000
# 3 -0.006741 0.008407 0.013129 0.000000 0.000000 0.000000
# 4 0.000000 0.000000 0.000000 0.155671 0.000000 0.000000
# 5 0.000000 0.000000 0.000000 0.000000 -0.046518 0.000000
# 6 0.000000 0.000000 0.000000 0.000000 0.000000 0.023970
#
#
# Mechanical properties :
#
#
# Convention : Reuss Voigt Hill
#
# Bulk Modulus (GPa) = 31.71370 42.91470 37.31420
# Shear Modulus (GPa) = 20.90108 19.53796 20.21952
#
# Velocity S-wave (km/s) = 2.91990 2.82308 2.87190
# Velocity P-wave (km/s) = 4.92993 5.30395 5.12036
#
# Compressibility (1/GPa) = 0.03153211
#
# Stress axis : x y z
#
# Youngs Moduli (GPa) = 49.48612 33.08690 76.16608
#
# Poissons Ratio (x) = 0.58498 0.51340
# Poissons Ratio (y) = 0.87492 -0.64030
# Poissons Ratio (z) = 0.33356 -0.27815
#
# Static dielectric constant tensor:
#      x y z
#    x 4.039250 0.000000 0.000000 
#    y 0.000000 4.671550 0.000000 
#    z 0.000000 0.000000 4.360830 
# 
# 
# High freq. dielectric constant tensor:
#      x y z
#    x 1.953510 0.000000 0.000000 
#    y 0.000000 2.002860 0.000000 
#    z 0.000000 0.000000 1.969820 
# 
# From -- ./inp_files/1580.got.cif
#   From: 2010.06.25/outbox.cif.g09.slc.cpg/sg52_1_cif.got.tgz:1580.got - 2010.06.26 19:32:48.
