data_PCOD8216635
_publ_section_title
;
Structure prediction by ZEFSAII (Michael W. Deem and Ramdas Pophale) SiO2 
 PCOD8216635
Probable space group: P N N A
;
_chemical_formula_sum "Si O2"
_cell_formula_units_Z 32
_cell_length_a 16.638977
_cell_length_b 6.603107
_cell_length_c 13.704174
_cell_angle_alpha 90.000000
_cell_angle_beta 90.000000
_cell_angle_gamma 90.000000
_cell_volume 1505.663146
_symmetry_space_group_name_H-M "P N N A"
_symmetry_group_IT_number 52
_symmetry_cell_setting 'orthorhombic'
loop_
_space_group_symop_operation_xyz
x,y,z
1/2-x,-y,z
x,1/2-y,1/2-z
1/2-x,1/2+y,1/2-z
-x,-y,-z
1/2+x,y,-z
-x,1/2+y,1/2+z
1/2+x,1/2-y,1/2+z
loop_
_atom_site_type_symbol
_atom_site_label
_atom_site_fract_x
_atom_site_fract_y
_atom_site_fract_z
Si Si1 0.491559 0.566250 0.110522
Si Si2 0.431104 0.750000 0.750000
Si Si3 0.750000 0.000000 0.001807
Si Si4 0.632144 0.633981 0.342830
Si Si5 0.309941 0.821829 0.357490
O O1 0.514753 0.379336 0.177886
O O2 0.547036 0.762367 0.130320
O O3 0.401313 0.610315 0.140364
O O4 0.500000 0.500000 0.000000
O O5 0.377255 0.602212 0.683737
O O6 0.804434 0.859422 0.934356
O O7 0.692884 0.855594 0.066794
O O8 0.670609 0.750000 0.250000
O O9 0.284904 0.750000 0.250000
O O10 0.250000 0.000000 0.389782
#
# Coordination Sequence:
#
# PCOD8216635 Si02
#       5
#     8   4   4   8   8
#     4  11  24  43  68  99 135 178 233 279 347 418
#     4  10  22  42  68  94 132 174 224 286 334 408
#     4  12  26  44  68  98 142 176 228 288 344 412
#     4  10  24  44  68 100 131 181 227 280 351 408
#     4  12  26  43  67  99 136 183 231 282 345 412
#
# _framework density 21.253091999999999
#
# number of rings (size 3 to 8) (size 9 to 14) (size 15 to 20)
#    0.000    1.000    1.250    5.250    3.500   10.000 
#    0.000    0.000    0.000    0.000    0.000    0.000 
#    0.000    0.000    0.000    0.000    0.000    0.000 
#
# Total GULP energy -396961.390001 kJ/mol
# GULP energy per Si atom -12405.043438 kJ/mol
# Density = 2.120472 g / cm^3
# Si number density = 21.253092 Si / 1000 Ang^3
#
#
#
# Elastic Constant Matrix: (Units=GPa)
#
#
# Indices 1 2 3 4 5 6 
#
# 1 99.9035 37.0239 34.8760 0.0000 0.0000 0.0000
# 2 37.0239 117.1280 43.5113 0.0000 0.0000 0.0000
# 3 34.8760 43.5113 139.9963 0.0000 0.0000 0.0000
# 4 0.0000 0.0000 0.0000 39.9756 0.0000 0.0000
# 5 0.0000 0.0000 0.0000 0.0000 -11.9007 0.0000
# 6 0.0000 0.0000 0.0000 0.0000 0.0000 25.3874
#
#
#
# Elastic Compliance Matrix: (Units=1/GPa)
#
#
# Indices 1 2 3 4 5 6 
#
# 1 0.011821 -0.002987 -0.002016 0.000000 0.000000 0.000000
# 2 -0.002987 0.010407 -0.002490 0.000000 0.000000 0.000000
# 3 -0.002016 -0.002490 0.008419 0.000000 0.000000 0.000000
# 4 0.000000 0.000000 0.000000 0.025015 0.000000 0.000000
# 5 0.000000 0.000000 0.000000 0.000000 -0.084029 0.000000
# 6 0.000000 0.000000 0.000000 0.000000 0.000000 0.039390
#
#
# Mechanical properties :
#
#
# Convention : Reuss Voigt Hill
#
# Bulk Modulus (GPa) = 63.86099 65.31669 64.58884
# Shear Modulus (GPa) = 160.09828 26.80024 93.44926
#
# Velocity S-wave (km/s) = 8.68867 3.55491 6.63816
# Velocity P-wave (km/s) = 11.43549 6.90285 9.44510
#
# Compressibility (1/GPa) = 0.01565901
#
# Stress axis : x y z
#
# Youngs Moduli (GPa) = 84.59754 96.08805 118.77420
#
# Poissons Ratio (x) = 0.28706 0.23948
# Poissons Ratio (y) = 0.25273 0.29579
# Poissons Ratio (z) = 0.17057 0.23929
#
# Static dielectric constant tensor:
#      x y z
#    x 3.665600 0.000000 0.000000 
#    y 0.000000 4.187690 0.000000 
#    z 0.000000 0.000000 4.155820 
# 
# 
# High freq. dielectric constant tensor:
#      x y z
#    x 1.832710 0.000000 0.000000 
#    y 0.000000 1.842910 0.000000 
#    z 0.000000 0.000000 1.858090 
# 
# From -- ./inp_files/27624.got.cif
#   From: 2010.06.25/outbox.cif.g09.slc.cpg/sg52_14_cif.got.tgz:27624.got - 2010.06.26 19:32:48.
