data_PCOD8216662
_publ_section_title
;
Structure prediction by ZEFSAII (Michael W. Deem and Ramdas Pophale) SiO2 
 PCOD8216662
Probable space group: P N N A
;
_chemical_formula_sum "Si O2"
_cell_formula_units_Z 48
_cell_length_a 10.064523
_cell_length_b 7.233170
_cell_length_c 29.052285
_cell_angle_alpha 90.000000
_cell_angle_beta 90.000000
_cell_angle_gamma 90.000000
_cell_volume 2114.960034
_symmetry_space_group_name_H-M "P N N A"
_symmetry_group_IT_number 52
_symmetry_cell_setting 'orthorhombic'
loop_
_space_group_symop_operation_xyz
x,y,z
1/2-x,-y,z
x,1/2-y,1/2-z
1/2-x,1/2+y,1/2-z
-x,-y,-z
1/2+x,y,-z
-x,1/2+y,1/2+z
1/2+x,1/2-y,1/2+z
loop_
_atom_site_type_symbol
_atom_site_label
_atom_site_fract_x
_atom_site_fract_y
_atom_site_fract_z
Si Si1 0.222977 0.786032 0.583750
Si Si2 0.483726 0.100758 0.651962
Si Si3 0.874161 0.129710 0.508655
Si Si4 0.603200 0.470683 0.677404
Si Si5 0.100108 0.537514 0.752123
Si Si6 0.018058 0.763965 0.098851
O O1 0.153436 0.732862 0.535225
O O2 0.361693 0.680107 0.593018
O O3 0.128925 0.768464 0.628384
O O4 0.250000 0.000000 0.575634
O O5 0.592802 0.249714 0.667962
O O6 0.425785 0.979867 0.694977
O O7 0.538203 0.946082 0.617456
O O8 0.906479 0.269244 0.550343
O O9 0.750000 0.000000 0.521486
O O10 0.000000 0.000000 0.500000
O O11 0.750000 0.500000 0.697479
O O12 0.499662 0.554107 0.715177
O O13 0.586436 0.584294 0.630552
O O14 0.250000 0.500000 0.736591
O O15 0.067277 0.750000 0.750000
#
# Coordination Sequence:
#
# PCOD8216662 Si02
#       6
#     8   8   8   8   8   8
#     4   9  18  36  66 101 127 161 226 270 321 396
#     4  10  22  43  68  96 128 169 223 268 325 397
#     4  11  19  36  64  99 132 170 222 273 323 395
#     4  11  28  45  60  99 138 167 219 276 327 399
#     4  10  23  43  69  98 130 166 218 278 321 394
#     4  11  23  40  72  92 129 184 211 274 339 381
#
# _framework density 22.695464000000001
#
# number of rings (size 3 to 8) (size 9 to 14) (size 15 to 20)
#    0.000    1.667    5.000    1.500    9.333    0.000 
#    9.000    0.833    0.000    0.000    0.000    0.000 
#    0.000    0.000    0.000    0.000    0.000    0.000 
#
# Total GULP energy -595031.026781 kJ/mol
# GULP energy per Si atom -12396.479725 kJ/mol
# Density = 2.264381 g / cm^3
# Si number density = 22.695464 Si / 1000 Ang^3
#
#
#
# Elastic Constant Matrix: (Units=GPa)
#
#
# Indices 1 2 3 4 5 6 
#
# 1 154.3417 17.4504 55.7316 0.0000 0.0000 0.0000
# 2 17.4504 41.6990 15.0719 0.0000 0.0000 0.0000
# 3 55.7316 15.0719 150.6263 0.0000 0.0000 0.0000
# 4 0.0000 0.0000 0.0000 58.5147 0.0000 0.0000
# 5 0.0000 0.0000 0.0000 0.0000 -253.7067 0.0000
# 6 0.0000 0.0000 0.0000 0.0000 0.0000 25.3784
#
#
#
# Elastic Compliance Matrix: (Units=1/GPa)
#
#
# Indices 1 2 3 4 5 6 
#
# 1 0.007680 -0.002269 -0.002614 0.000000 0.000000 0.000000
# 2 -0.002269 0.025552 -0.001717 0.000000 0.000000 0.000000
# 3 -0.002614 -0.001717 0.007778 0.000000 0.000000 0.000000
# 4 0.000000 0.000000 0.000000 0.017090 0.000000 0.000000
# 5 0.000000 0.000000 0.000000 0.000000 -0.003942 0.000000
# 6 0.000000 0.000000 0.000000 0.000000 0.000000 0.039404
#
#
# Mechanical properties :
#
#
# Convention : Reuss Voigt Hill
#
# Bulk Modulus (GPa) = 35.96055 58.13053 47.04554
# Shear Modulus (GPa) = 43.09164 -16.73518 13.17823
#
# Velocity S-wave (km/s) = 4.36212 -2.71842 2.41229
# Velocity P-wave (km/s) = 6.42262 3.97691 5.34162
#
# Compressibility (1/GPa) = 0.02780825
#
# Stress axis : x y z
#
# Youngs Moduli (GPa) = 130.21312 39.13655 128.56571
#
# Poissons Ratio (x) = 0.08880 0.33613
# Poissons Ratio (y) = 0.29544 0.22078
# Poissons Ratio (z) = 0.34044 0.06721
#
# Static dielectric constant tensor:
#      x y z
#    x 4.264040 0.000000 0.000000 
#    y 0.000000 3.607150 0.000000 
#    z 0.000000 0.000000 5.147390 
# 
# 
# High freq. dielectric constant tensor:
#      x y z
#    x 1.890630 0.000000 0.000000 
#    y 0.000000 1.861720 0.000000 
#    z 0.000000 0.000000 1.915580 
# 
# From -- ./inp_files/44389.got.cif
#   From: 2010.06.25/outbox.cif.g09.slc.cpg/sg52_23_cif.got.tgz:44389.got - 2010.06.26 19:32:48.
