data_PCOD8216384
_publ_section_title
;
Structure prediction by ZEFSAII (Michael W. Deem and Ramdas Pophale) SiO2 
 PCOD8216384
Probable space group: P N N A
;
_chemical_formula_sum "Si O2"
_cell_formula_units_Z 40
_cell_length_a 19.532999
_cell_length_b 11.416087
_cell_length_c 8.324837
_cell_angle_alpha 90.000000
_cell_angle_beta 90.000000
_cell_angle_gamma 90.000000
_cell_volume 1856.358865
_symmetry_space_group_name_H-M "P N N A"
_symmetry_group_IT_number 52
_symmetry_cell_setting 'orthorhombic'
loop_
_space_group_symop_operation_xyz
x,y,z
1/2-x,-y,z
x,1/2-y,1/2-z
1/2-x,1/2+y,1/2-z
-x,-y,-z
1/2+x,y,-z
-x,1/2+y,1/2+z
1/2+x,1/2-y,1/2+z
loop_
_atom_site_type_symbol
_atom_site_label
_atom_site_fract_x
_atom_site_fract_y
_atom_site_fract_z
Si Si1 0.796563 0.757430 0.434430
Si Si2 0.402502 0.563649 0.038935
Si Si3 0.658834 0.783963 0.927743
Si Si4 0.043256 0.669601 0.907229
Si Si5 0.675318 0.030525 0.852101
O O1 0.816791 0.750000 0.250000
O O2 0.832775 0.875488 0.488189
O O3 0.714976 0.774168 0.453639
O O4 0.824081 0.649470 0.543984
O O5 0.463563 0.658860 0.050391
O O6 0.384928 0.521843 0.219419
O O7 0.423542 0.461963 0.911100
O O8 0.683755 0.750000 0.750000
O O9 0.657917 0.922023 0.968638
O O10 0.582614 0.736280 0.951640
O O11 0.055128 0.750000 0.750000
O O12 0.750000 0.000000 0.776458
#
# Coordination Sequence:
#
# PCOD8216384 Si02
#       5
#     8   8   8   8   8
#     4  11  24  40  65  99 132 168 222 285 335 397
#     4  11  24  45  66  94 134 181 219 276 346 408
#     4  11  22  43  67  96 129 176 223 272 343 415
#     4  11  25  42  65  97 133 174 225 279 336 405
#     4  10  21  42  69  95 127 177 229 276 340 420
#
# _framework density 21.547557000000001
#
# number of rings (size 3 to 8) (size 9 to 14) (size 15 to 20)
#    0.000    1.200    2.000    4.800    2.800    0.800 
#    3.600    2.000    0.000    0.000    0.000    0.000 
#    0.000    0.000    0.000    0.000    0.000    0.000 
#
# Total GULP energy -495581.181577 kJ/mol
# GULP energy per Si atom -12389.529539 kJ/mol
# Density = 2.149851 g / cm^3
# Si number density = 21.547557 Si / 1000 Ang^3
#
#
#
# Elastic Constant Matrix: (Units=GPa)
#
#
# Indices 1 2 3 4 5 6 
#
# 1 124.6394 47.3639 27.0112 0.0000 0.0000 0.0000
# 2 47.3639 97.8093 39.9998 0.0000 0.0000 0.0000
# 3 27.0112 39.9998 89.5239 0.0000 0.0000 0.0000
# 4 0.0000 0.0000 0.0000 36.3338 0.0000 0.0000
# 5 0.0000 0.0000 0.0000 0.0000 25.6749 0.0000
# 6 0.0000 0.0000 0.0000 0.0000 0.0000 42.9457
#
#
#
# Elastic Compliance Matrix: (Units=1/GPa)
#
#
# Indices 1 2 3 4 5 6 
#
# 1 0.009910 -0.004376 -0.001035 0.000000 0.000000 0.000000
# 2 -0.004376 0.014442 -0.005132 0.000000 0.000000 0.000000
# 3 -0.001035 -0.005132 0.013776 0.000000 0.000000 0.000000
# 4 0.000000 0.000000 0.000000 0.027523 0.000000 0.000000
# 5 0.000000 0.000000 0.000000 0.000000 0.038949 0.000000
# 6 0.000000 0.000000 0.000000 0.000000 0.000000 0.023285
#
#
# Mechanical properties :
#
#
# Convention : Reuss Voigt Hill
#
# Bulk Modulus (GPa) = 58.68068 60.08028 59.38048
# Shear Modulus (GPa) = 32.33083 34.16405 33.24744
#
# Velocity S-wave (km/s) = 3.87775 3.98618 3.93234
# Velocity P-wave (km/s) = 6.88052 7.00923 6.94517
#
# Compressibility (1/GPa) = 0.01704138
#
# Stress axis : x y z
#
# Youngs Moduli (GPa) = 100.90541 69.24302 72.59150
#
# Poissons Ratio (x) = 0.30299 0.07513
# Poissons Ratio (y) = 0.44154 0.37257
# Poissons Ratio (z) = 0.10444 0.35539
#
# Static dielectric constant tensor:
#      x y z
#    x 3.940710 0.000000 0.000000 
#    y 0.000000 4.187800 0.000000 
#    z 0.000000 0.000000 3.822820 
# 
# 
# High freq. dielectric constant tensor:
#      x y z
#    x 1.851270 0.000000 0.000000 
#    y 0.000000 1.861090 0.000000 
#    z 0.000000 0.000000 1.823430 
# 
# From -- ./inp_files/11606.got.cif
#   From: 2010.06.25/outbox.cif.g09.slc.cpg/sg52_6_cif.got.tgz:11606.got - 2010.06.26 19:32:48.
