data_PCOD8216594
_publ_section_title
;
Structure prediction by ZEFSAII (Michael W. Deem and Ramdas Pophale) SiO2 
 PCOD8216594
Probable space group: P N N A
;
_chemical_formula_sum "Si O2"
_cell_formula_units_Z 56
_cell_length_a 15.581860
_cell_length_b 12.115345
_cell_length_c 13.563810
_cell_angle_alpha 90.000000
_cell_angle_beta 90.000000
_cell_angle_gamma 90.000000
_cell_volume 2560.570757
_symmetry_space_group_name_H-M "P N N A"
_symmetry_group_IT_number 52
_symmetry_cell_setting 'orthorhombic'
loop_
_space_group_symop_operation_xyz
x,y,z
1/2-x,-y,z
x,1/2-y,1/2-z
1/2-x,1/2+y,1/2-z
-x,-y,-z
1/2+x,y,-z
-x,1/2+y,1/2+z
1/2+x,1/2-y,1/2+z
loop_
_atom_site_type_symbol
_atom_site_label
_atom_site_fract_x
_atom_site_fract_y
_atom_site_fract_z
Si Si1 0.963967 0.936523 0.592537
Si Si2 0.382108 0.048765 0.232093
Si Si3 0.358231 0.751484 0.507815
Si Si4 0.110047 0.880133 0.743878
Si Si5 0.065325 0.423545 0.656501
Si Si6 0.792346 0.859716 0.304986
Si Si7 0.712520 0.161160 0.823141
O O1 0.925121 0.819787 0.557917
O O2 0.042076 0.915200 0.663709
O O3 0.896646 0.014146 0.653253
O O4 0.000000 0.000000 0.500000
O O5 0.465694 0.100382 0.178845
O O6 0.306513 0.137850 0.222081
O O7 0.351304 0.941987 0.172227
O O8 0.404596 0.648429 0.563549
O O9 0.311232 0.835547 0.580970
O O10 0.284428 0.704035 0.435782
O O11 0.105893 0.750000 0.750000
O O12 0.203240 0.929981 0.706985
O O13 0.084198 0.942774 0.848314
O O14 0.119361 0.396538 0.754967
O O15 0.761295 0.750000 0.250000
O O16 0.669578 0.250000 0.750000
#
# Coordination Sequence:
#
# PCOD8216594 Si02
#       7
#     8   8   8   8   8   8   8
#     4  11  24  42  69 102 132 176 235 284 345 422
#     4  10  24  44  64  96 137 180 227 284 354 404
#     4  11  23  40  69  98 136 180 233 283 342 420
#     4  10  22  41  66  92 134 175 215 279 358 402
#     4  10  22  41  70  97 134 175 229 293 349 409
#     4   9  20  41  62  98 131 167 215 287 346 396
#     4  11  24  45  66  93 139 188 223 282 350 424
#
# _framework density 21.870125000000002
#
# number of rings (size 3 to 8) (size 9 to 14) (size 15 to 20)
#    0.000    1.714    1.429    2.143    4.000    5.714 
#   15.429    0.000    0.000    0.000    0.000    0.000 
#    0.000    0.000    0.000    0.000    0.000    0.000 
#
# Total GULP energy -693905.274159 kJ/mol
# GULP energy per Si atom -12391.165610 kJ/mol
# Density = 2.182035 g / cm^3
# Si number density = 21.870125 Si / 1000 Ang^3
#
#
#
# Elastic Constant Matrix: (Units=GPa)
#
#
# Indices 1 2 3 4 5 6 
#
# 1 142.5250 39.3126 58.0890 0.0000 0.0000 0.0000
# 2 39.3126 86.1597 44.2212 0.0000 0.0000 0.0000
# 3 58.0890 44.2212 127.0129 0.0000 0.0000 0.0000
# 4 0.0000 0.0000 0.0000 40.3217 0.0000 0.0000
# 5 0.0000 0.0000 0.0000 0.0000 23.5949 0.0000
# 6 0.0000 0.0000 0.0000 0.0000 0.0000 22.3800
#
#
#
# Elastic Compliance Matrix: (Units=1/GPa)
#
#
# Indices 1 2 3 4 5 6 
#
# 1 0.009025 -0.002434 -0.003280 0.000000 0.000000 0.000000
# 2 -0.002434 0.014788 -0.004035 0.000000 0.000000 0.000000
# 3 -0.003280 -0.004035 0.010778 0.000000 0.000000 0.000000
# 4 0.000000 0.000000 0.000000 0.024801 0.000000 0.000000
# 5 0.000000 0.000000 0.000000 0.000000 0.042382 0.000000
# 6 0.000000 0.000000 0.000000 0.000000 0.000000 0.044683
#
#
# Mechanical properties :
#
#
# Convention : Reuss Voigt Hill
#
# Bulk Modulus (GPa) = 66.26059 70.99369 68.62714
# Shear Modulus (GPa) = 29.24218 31.53098 30.38658
#
# Velocity S-wave (km/s) = 3.66058 3.80114 3.73152
# Velocity P-wave (km/s) = 6.94475 7.19700 7.07200
#
# Compressibility (1/GPa) = 0.01509193
#
# Stress axis : x y z
#
# Youngs Moduli (GPa) = 110.80922 67.62138 92.77995
#
# Poissons Ratio (x) = 0.16461 0.30430
# Poissons Ratio (y) = 0.26975 0.37440
# Poissons Ratio (z) = 0.36343 0.27288
#
# Static dielectric constant tensor:
#      x y z
#    x 4.130180 0.000000 0.000000 
#    y 0.000000 6.341550 0.000000 
#    z 0.000000 0.000000 3.731050 
# 
# 
# High freq. dielectric constant tensor:
#      x y z
#    x 1.871700 0.000000 0.000000 
#    y 0.000000 1.881760 0.000000 
#    z 0.000000 0.000000 1.841390 
# 
# From -- ./inp_files/19638.got.cif
#   From: 2010.06.25/outbox.cif.g09.slc.cpg/sg52_10_cif.got.tgz:19638.got - 2010.06.26 19:32:48.
