data_PCOD8216326
_publ_section_title
;
Structure prediction by ZEFSAII (Michael W. Deem and Ramdas Pophale) SiO2 
 PCOD8216326
Probable space group: P N N A
;
_chemical_formula_sum "Si O2"
_cell_formula_units_Z 44
_cell_length_a 14.303672
_cell_length_b 15.571875
_cell_length_c 9.360615
_cell_angle_alpha 90.000000
_cell_angle_beta 90.000000
_cell_angle_gamma 90.000000
_cell_volume 2084.936511
_symmetry_space_group_name_H-M "P N N A"
_symmetry_group_IT_number 52
_symmetry_cell_setting 'orthorhombic'
loop_
_space_group_symop_operation_xyz
x,y,z
1/2-x,-y,z
x,1/2-y,1/2-z
1/2-x,1/2+y,1/2-z
-x,-y,-z
1/2+x,y,-z
-x,1/2+y,1/2+z
1/2+x,1/2-y,1/2+z
loop_
_atom_site_type_symbol
_atom_site_label
_atom_site_fract_x
_atom_site_fract_y
_atom_site_fract_z
Si Si1 0.728990 0.381878 0.453321
Si Si2 0.943016 0.131319 0.989544
Si Si3 0.911087 0.739667 0.087071
Si Si4 0.589271 0.465130 0.659328
Si Si5 0.750000 0.500000 0.192714
Si Si6 0.903083 0.954242 0.515544
O O1 0.834210 0.355122 0.485664
O O2 0.668602 0.297267 0.487172
O O3 0.678458 0.454347 0.552223
O O4 0.729597 0.416750 0.290699
O O5 0.002706 0.099857 0.128058
O O6 0.985508 0.222019 0.940589
O O7 0.954259 0.060194 0.864340
O O8 0.885838 0.750000 0.250000
O O9 0.906146 0.643742 0.032748
O O10 0.628036 0.455131 0.819119
O O11 0.836841 0.488893 0.085687
O O12 0.000000 0.000000 0.500000
#
# Coordination Sequence:
#
# PCOD8216326 Si02
#       6
#     8   8   8   8   4   8
#     4  11  22  43  71  96 130 182 229 267 344 406
#     4  10  21  40  72  93 130 182 226 272 346 411
#     4  11  24  45  63  99 141 172 224 288 340 402
#     4  10  22  41  70 101 131 174 234 281 329 418
#     4  12  24  42  70 100 132 182 226 280 340 418
#     4  12  27  44  67 100 139 175 227 286 345 395
#
# _framework density 21.103760000000001
#
# number of rings (size 3 to 8) (size 9 to 14) (size 15 to 20)
#    0.000    1.091    3.636    2.182    5.091    4.364 
#    6.545    0.000    0.000    0.000    0.000    0.000 
#    0.000    0.000    0.000    0.000    0.000    0.000 
#
# Total GULP energy -545396.559972 kJ/mol
# GULP energy per Si atom -12395.376363 kJ/mol
# Density = 2.105573 g / cm^3
# Si number density = 21.103760 Si / 1000 Ang^3
#
#
#
# Elastic Constant Matrix: (Units=GPa)
#
#
# Indices 1 2 3 4 5 6 
#
# 1 161.6258 32.5026 37.5686 0.0000 0.0000 0.0000
# 2 32.5026 92.9355 41.2308 0.0000 0.0000 0.0000
# 3 37.5686 41.2308 135.1902 0.0000 0.0000 0.0000
# 4 0.0000 0.0000 0.0000 22.1131 0.0000 0.0000
# 5 0.0000 0.0000 0.0000 0.0000 39.8236 0.0000
# 6 0.0000 0.0000 0.0000 0.0000 0.0000 19.4484
#
#
#
# Elastic Compliance Matrix: (Units=1/GPa)
#
#
# Indices 1 2 3 4 5 6 
#
# 1 0.006865 -0.001798 -0.001359 0.000000 0.000000 0.000000
# 2 -0.001798 0.012915 -0.003439 0.000000 0.000000 0.000000
# 3 -0.001359 -0.003439 0.008824 0.000000 0.000000 0.000000
# 4 0.000000 0.000000 0.000000 0.045222 0.000000 0.000000
# 5 0.000000 0.000000 0.000000 0.000000 0.025111 0.000000
# 6 0.000000 0.000000 0.000000 0.000000 0.000000 0.051418
#
#
# Mechanical properties :
#
#
# Convention : Reuss Voigt Hill
#
# Bulk Modulus (GPa) = 64.89123 68.03951 66.46537
# Shear Modulus (GPa) = 29.64138 34.84032 32.24085
#
# Velocity S-wave (km/s) = 3.75180 4.06754 3.91286
# Velocity P-wave (km/s) = 7.04155 7.37362 7.20950
#
# Compressibility (1/GPa) = 0.01541040
#
# Stress axis : x y z
#
# Youngs Moduli (GPa) = 145.67453 77.43139 113.33190
#
# Poissons Ratio (x) = 0.13920 0.15406
# Poissons Ratio (y) = 0.26188 0.38977
# Poissons Ratio (z) = 0.19803 0.26630
#
# Static dielectric constant tensor:
#      x y z
#    x 3.840290 0.000000 0.000000 
#    y 0.000000 3.399380 0.000000 
#    z 0.000000 0.000000 4.008340 
# 
# 
# High freq. dielectric constant tensor:
#      x y z
#    x 1.843220 0.000000 0.000000 
#    y 0.000000 1.819340 0.000000 
#    z 0.000000 0.000000 1.820380 
# 
# From -- ./inp_files/10375.got.cif
#   From: 2010.06.25/outbox.cif.g09.slc.cpg/sg52_6_cif.got.tgz:10375.got - 2010.06.26 19:32:48.
