data_PCOD8216478
_publ_section_title
;
Structure prediction by ZEFSAII (Michael W. Deem and Ramdas Pophale) SiO2 
 PCOD8216478
Probable space group: P N N A
;
_chemical_formula_sum "Si O2"
_cell_formula_units_Z 28
_cell_length_a 10.002189
_cell_length_b 5.250329
_cell_length_c 25.163242
_cell_angle_alpha 90.000000
_cell_angle_beta 90.000000
_cell_angle_gamma 90.000000
_cell_volume 1321.442192
_symmetry_space_group_name_H-M "P N N A"
_symmetry_group_IT_number 52
_symmetry_cell_setting 'orthorhombic'
loop_
_space_group_symop_operation_xyz
x,y,z
1/2-x,-y,z
x,1/2-y,1/2-z
1/2-x,1/2+y,1/2-z
-x,-y,-z
1/2+x,y,-z
-x,1/2+y,1/2+z
1/2+x,1/2-y,1/2+z
loop_
_atom_site_type_symbol
_atom_site_label
_atom_site_fract_x
_atom_site_fract_y
_atom_site_fract_z
Si Si1 0.885348 0.629036 0.302677
Si Si2 0.399750 0.018559 0.117823
Si Si3 0.250000 0.000000 0.617134
Si Si4 0.491165 0.958131 0.437951
O O1 0.750000 0.500000 0.281111
O O2 0.952851 0.750000 0.250000
O O3 0.998761 0.460083 0.332349
O O4 0.837038 0.816691 0.347545
O O5 0.431898 0.290426 0.090692
O O6 0.250000 0.000000 0.141222
O O7 0.403251 0.790318 0.074871
O O8 0.360114 0.130186 0.579871
O O9 0.500000 0.000000 0.500000
#
# Coordination Sequence:
#
# PCOD8216478 Si02
#       4
#     8   8   4   8
#     4  11  21  41  67  95 128 171 222 277 337 388
#     4  11  25  44  65  97 138 171 218 277 329 404
#     4  10  22  38  64  96 128 166 224 276 312 398
#     4  11  24  42  66  95 133 179 221 268 331 392
#
# _framework density 21.188972
#
# number of rings (size 3 to 8) (size 9 to 14) (size 15 to 20)
#    0.000    1.143    4.286    1.714    4.000    0.000 
#    0.000    7.143    0.000    0.000    0.000    0.000 
#    0.000    0.000    0.000    0.000    0.000    0.000 
#
# Total GULP energy -346866.674218 kJ/mol
# GULP energy per Si atom -12388.095508 kJ/mol
# Density = 2.114074 g / cm^3
# Si number density = 21.188972 Si / 1000 Ang^3
#
#
#
# Elastic Constant Matrix: (Units=GPa)
#
#
# Indices 1 2 3 4 5 6 
#
# 1 138.8879 28.7850 56.2095 0.0000 0.0000 0.0000
# 2 28.7850 110.9854 30.4357 0.0000 0.0000 0.0000
# 3 56.2095 30.4357 137.6682 0.0000 0.0000 0.0000
# 4 0.0000 0.0000 0.0000 22.1375 0.0000 0.0000
# 5 0.0000 0.0000 0.0000 0.0000 21.4183 0.0000
# 6 0.0000 0.0000 0.0000 0.0000 0.0000 19.0322
#
#
#
# Elastic Compliance Matrix: (Units=1/GPa)
#
#
# Indices 1 2 3 4 5 6 
#
# 1 0.008821 -0.001384 -0.003295 0.000000 0.000000 0.000000
# 2 -0.001384 0.009809 -0.001603 0.000000 0.000000 0.000000
# 3 -0.003295 -0.001603 0.008964 0.000000 0.000000 0.000000
# 4 0.000000 0.000000 0.000000 0.045172 0.000000 0.000000
# 5 0.000000 0.000000 0.000000 0.000000 0.046689 0.000000
# 6 0.000000 0.000000 0.000000 0.000000 0.000000 0.052542
#
#
# Mechanical properties :
#
#
# Convention : Reuss Voigt Hill
#
# Bulk Modulus (GPa) = 66.54459 68.71132 67.62796
# Shear Modulus (GPa) = 26.37519 30.65835 28.51677
#
# Velocity S-wave (km/s) = 3.53194 3.80794 3.67254
# Velocity P-wave (km/s) = 6.93587 7.19946 7.06889
#
# Compressibility (1/GPa) = 0.01502752
#
# Stress axis : x y z
#
# Youngs Moduli (GPa) = 113.37104 101.94857 111.55906
#
# Poissons Ratio (x) = 0.14109 0.36764
# Poissons Ratio (y) = 0.15690 0.17888
# Poissons Ratio (z) = 0.37361 0.16347
#
# Static dielectric constant tensor:
#      x y z
#    x 4.852230 0.000000 0.000000 
#    y 0.000000 3.714000 0.000000 
#    z 0.000000 0.000000 3.614960 
# 
# 
# High freq. dielectric constant tensor:
#      x y z
#    x 1.840280 0.000000 0.000000 
#    y 0.000000 1.822870 0.000000 
#    z 0.000000 0.000000 1.831690 
# 
# From -- ./inp_files/41947.got.cif
#   From: 2010.06.25/outbox.cif.g09.slc.cpg/sg52_21_cif.got.tgz:41947.got - 2010.06.26 19:32:48.
