data_PCOD8216727
_publ_section_title
;
Structure prediction by ZEFSAII (Michael W. Deem and Ramdas Pophale) SiO2 
 PCOD8216727
Probable space group: P N N A
;
_chemical_formula_sum "Si O2"
_cell_formula_units_Z 32
_cell_length_a 8.131603
_cell_length_b 12.486844
_cell_length_c 12.400635
_cell_angle_alpha 90.000000
_cell_angle_beta 90.000000
_cell_angle_gamma 90.000000
_cell_volume 1259.136397
_symmetry_space_group_name_H-M "P N N A"
_symmetry_group_IT_number 52
_symmetry_cell_setting 'orthorhombic'
loop_
_space_group_symop_operation_xyz
x,y,z
1/2-x,-y,z
x,1/2-y,1/2-z
1/2-x,1/2+y,1/2-z
-x,-y,-z
1/2+x,y,-z
-x,1/2+y,1/2+z
1/2+x,1/2-y,1/2+z
loop_
_atom_site_type_symbol
_atom_site_label
_atom_site_fract_x
_atom_site_fract_y
_atom_site_fract_z
Si Si1 0.233238 0.733832 0.449959
Si Si2 0.899409 0.817636 0.352930
Si Si3 0.425277 0.020436 0.780430
Si Si4 0.250000 0.000000 0.077345
Si Si5 0.526057 0.250000 0.750000
O O1 0.262238 0.808651 0.553450
O O2 0.237763 0.609380 0.491107
O O3 0.367420 0.746671 0.357560
O O4 0.060054 0.761756 0.400073
O O5 0.841504 0.750000 0.250000
O O6 0.931858 0.941504 0.323393
O O7 0.416664 0.142889 0.739278
O O8 0.250000 0.000000 0.841549
O O9 0.584761 0.999594 0.851383
#
# Coordination Sequence:
#
# PCOD8216727 Si02
#       5
#     8   8   8   4   4
#     4  11  25  47  83 107 163 209 262 333 398 470
#     4  12  26  50  73 120 156 207 266 331 397 477
#     4  11  25  45  81 112 160 205 266 327 396 487
#     4  10  22  52  76 114 160 214 270 336 388 466
#     4  10  24  50  74 112 152 212 258 326 406 466
#
# _framework density 25.414245999999999
#
# number of rings (size 3 to 8) (size 9 to 14) (size 15 to 20)
#    0.000    1.000    3.750    1.500    5.250    4.000 
#    2.250    0.000    0.000    0.000    0.000    0.000 
#    0.000    0.000    0.000    0.000    0.000    0.000 
#
# Total GULP energy -396750.084371 kJ/mol
# GULP energy per Si atom -12398.440137 kJ/mol
# Density = 2.535640 g / cm^3
# Si number density = 25.414246 Si / 1000 Ang^3
#
#
#
# Elastic Constant Matrix: (Units=GPa)
#
#
# Indices 1 2 3 4 5 6 
#
# 1 122.4026 24.5831 4.1494 0.0000 0.0000 0.0000
# 2 24.5831 150.6605 42.3931 0.0000 0.0000 0.0000
# 3 4.1494 42.3931 113.0722 0.0000 0.0000 0.0000
# 4 0.0000 0.0000 0.0000 34.8823 0.0000 0.0000
# 5 0.0000 0.0000 0.0000 0.0000 24.1545 0.0000
# 6 0.0000 0.0000 0.0000 0.0000 0.0000 38.1040
#
#
#
# Elastic Compliance Matrix: (Units=1/GPa)
#
#
# Indices 1 2 3 4 5 6 
#
# 1 0.008452 -0.001444 0.000231 0.000000 0.000000 0.000000
# 2 -0.001444 0.007667 -0.002822 0.000000 0.000000 0.000000
# 3 0.000231 -0.002822 0.009893 0.000000 0.000000 0.000000
# 4 0.000000 0.000000 0.000000 0.028668 0.000000 0.000000
# 5 0.000000 0.000000 0.000000 0.000000 0.041400 0.000000
# 6 0.000000 0.000000 0.000000 0.000000 0.000000 0.026244
#
#
# Mechanical properties :
#
#
# Convention : Reuss Voigt Hill
#
# Bulk Modulus (GPa) = 55.73075 58.70963 57.22019
# Shear Modulus (GPa) = 36.66381 40.42879 38.54630
#
# Velocity S-wave (km/s) = 3.80234 3.99280 3.89873
# Velocity P-wave (km/s) = 6.42290 6.66392 6.54452
#
# Compressibility (1/GPa) = 0.01794342
#
# Stress axis : x y z
#
# Youngs Moduli (GPa) = 118.31566 130.42896 101.07886
#
# Poissons Ratio (x) = 0.18836 -0.02338
# Poissons Ratio (y) = 0.17087 0.28520
# Poissons Ratio (z) = -0.02737 0.36801
#
# Static dielectric constant tensor:
#      x y z
#    x 4.957540 0.000000 0.000000 
#    y 0.000000 5.158910 0.000000 
#    z 0.000000 0.000000 4.148330 
# 
# 
# High freq. dielectric constant tensor:
#      x y z
#    x 2.047550 0.000000 0.000000 
#    y 0.000000 2.031400 0.000000 
#    z 0.000000 0.000000 2.007280 
# 
# From -- ./inp_files/16459.got.cif
#   From: 2010.06.25/outbox.cif.g09.slc.cpg/sg52_9_cif.got.tgz:16459.got - 2010.06.26 19:32:48.
