data_PCOD8216075
_publ_section_title
;
Structure prediction by ZEFSAII (Michael W. Deem and Ramdas Pophale) SiO2 
 PCOD8216075
Probable space group: P N N A
;
_chemical_formula_sum "Si O2"
_cell_formula_units_Z 48
_cell_length_a 9.155667
_cell_length_b 18.628354
_cell_length_c 13.916718
_cell_angle_alpha 90.000000
_cell_angle_beta 90.000000
_cell_angle_gamma 90.000000
_cell_volume 2373.565922
_symmetry_space_group_name_H-M "P N N A"
_symmetry_group_IT_number 52
_symmetry_cell_setting 'orthorhombic'
loop_
_space_group_symop_operation_xyz
x,y,z
1/2-x,-y,z
x,1/2-y,1/2-z
1/2-x,1/2+y,1/2-z
-x,-y,-z
1/2+x,y,-z
-x,1/2+y,1/2+z
1/2+x,1/2-y,1/2+z
loop_
_atom_site_type_symbol
_atom_site_label
_atom_site_fract_x
_atom_site_fract_y
_atom_site_fract_z
Si Si1 0.307096 0.294206 0.109374
Si Si2 0.225087 0.861148 0.196381
Si Si3 0.029742 0.388117 0.560716
Si Si4 0.824061 0.250000 0.250000
Si Si5 0.040433 0.884213 0.848074
Si Si6 0.750000 0.500000 0.377158
Si Si7 0.364726 0.731839 0.924669
O O1 0.263949 0.217826 0.152203
O O2 0.284914 0.356691 0.188019
O O3 0.474007 0.298805 0.078346
O O4 0.208561 0.306333 0.015937
O O5 0.372239 0.905485 0.172487
O O6 0.082652 0.898450 0.149763
O O7 0.936968 0.379336 0.463284
O O8 0.135226 0.457008 0.556155
O O9 0.133639 0.318632 0.573039
O O10 0.723510 0.289575 0.171170
O O11 0.929073 0.191941 0.200901
O O12 0.155386 0.944754 0.811153
#
# Coordination Sequence:
#
# PCOD8216075 Si02
#       7
#     8   8   8   4   8   4   8
#     4  10  21  35  59  92 129 164 201 268 326 374
#     4  10  21  37  58  88 129 168 211 261 313 381
#     4  11  22  42  60  93 135 175 209 260 319 398
#     4  12  22  38  64  90 126 172 216 274 314 388
#     4  12  24  38  63  91 128 173 216 258 325 386
#     4  12  26  40  62  92 136 180 208 254 326 400
#     4  11  21  36  60  92 132 160 209 265 323 381
#
# _framework density 20.222738
#
# number of rings (size 3 to 8) (size 9 to 14) (size 15 to 20)
#    0.000    1.000    3.333    6.500    2.333    0.667 
#    0.000    0.000    0.000    0.000    0.000    4.667 
#    0.000    0.000    0.000    0.000    0.000    0.000 
#
# Total GULP energy -595233.795600 kJ/mol
# GULP energy per Si atom -12400.704075 kJ/mol
# Density = 2.017671 g / cm^3
# Si number density = 20.222738 Si / 1000 Ang^3
#
#
#
# Elastic Constant Matrix: (Units=GPa)
#
#
# Indices 1 2 3 4 5 6 
#
# 1 148.0007 42.3827 67.0320 0.0000 0.0000 0.0000
# 2 42.3827 66.3268 28.2883 0.0000 0.0000 0.0000
# 3 67.0320 28.2883 143.4049 0.0000 0.0000 0.0000
# 4 0.0000 0.0000 0.0000 16.0334 0.0000 0.0000
# 5 0.0000 0.0000 0.0000 0.0000 30.4941 0.0000
# 6 0.0000 0.0000 0.0000 0.0000 0.0000 38.2711
#
#
#
# Elastic Compliance Matrix: (Units=1/GPa)
#
#
# Indices 1 2 3 4 5 6 
#
# 1 0.009740 -0.004675 -0.003630 0.000000 0.000000 0.000000
# 2 -0.004675 0.018706 -0.001505 0.000000 0.000000 0.000000
# 3 -0.003630 -0.001505 0.008967 0.000000 0.000000 0.000000
# 4 0.000000 0.000000 0.000000 0.062370 0.000000 0.000000
# 5 0.000000 0.000000 0.000000 0.000000 0.032793 0.000000
# 6 0.000000 0.000000 0.000000 0.000000 0.000000 0.026129
#
#
# Mechanical properties :
#
#
# Convention : Reuss Voigt Hill
#
# Bulk Modulus (GPa) = 56.20436 70.34872 63.27654
# Shear Modulus (GPa) = 27.13601 31.62836 29.38218
#
# Velocity S-wave (km/s) = 3.66711 3.95903 3.81586
# Velocity P-wave (km/s) = 6.76633 7.46733 7.12546
#
# Compressibility (1/GPa) = 0.01779221
#
# Stress axis : x y z
#
# Youngs Moduli (GPa) = 102.67041 53.45843 111.51935
#
# Poissons Ratio (x) = 0.24994 0.40487
# Poissons Ratio (y) = 0.48002 0.16779
# Poissons Ratio (z) = 0.37274 0.08043
#
# Static dielectric constant tensor:
#      x y z
#    x 3.928440 0.000000 0.000000 
#    y 0.000000 3.369820 0.000000 
#    z 0.000000 0.000000 3.752680 
# 
# 
# High freq. dielectric constant tensor:
#      x y z
#    x 1.821390 0.000000 0.000000 
#    y 0.000000 1.737460 0.000000 
#    z 0.000000 0.000000 1.776640 
# 
# From -- ./inp_files/24869.got.cif
#   From: 2010.06.25/outbox.cif.g09.slc.cpg/sg52_13_cif.got.tgz:24869.got - 2010.06.26 19:32:48.
