data_PCOD8216993
_publ_section_title
;
Structure prediction by ZEFSAII (Michael W. Deem and Ramdas Pophale) SiO2 
 PCOD8216993
Probable space group: P N N A
;
_chemical_formula_sum "Si O2"
_cell_formula_units_Z 64
_cell_length_a 12.087061
_cell_length_b 11.114373
_cell_length_c 25.096996
_cell_angle_alpha 90.000000
_cell_angle_beta 90.000000
_cell_angle_gamma 90.000000
_cell_volume 3371.533063
_symmetry_space_group_name_H-M "P N N A"
_symmetry_group_IT_number 52
_symmetry_cell_setting 'orthorhombic'
loop_
_space_group_symop_operation_xyz
x,y,z
1/2-x,-y,z
x,1/2-y,1/2-z
1/2-x,1/2+y,1/2-z
-x,-y,-z
1/2+x,y,-z
-x,1/2+y,1/2+z
1/2+x,1/2-y,1/2+z
loop_
_atom_site_type_symbol
_atom_site_label
_atom_site_fract_x
_atom_site_fract_y
_atom_site_fract_z
Si Si1 0.120686 0.245344 0.159719
Si Si2 0.135357 0.435558 0.253045
Si Si3 0.500743 0.392154 0.097541
Si Si4 0.759457 0.131197 0.280162
Si Si5 0.734177 0.862248 0.572377
Si Si6 0.776987 0.639641 0.045925
Si Si7 0.505641 0.142542 0.284868
Si Si8 0.590033 0.850332 0.381564
O O1 0.123575 0.336682 0.208178
O O2 0.136043 0.114531 0.186395
O O3 0.216359 0.272284 0.116582
O O4 0.999482 0.248828 0.132640
O O5 0.250000 0.500000 0.241732
O O6 0.028594 0.521403 0.246008
O O7 0.397493 0.350040 0.061626
O O8 0.609370 0.324252 0.075643
O O9 0.457153 0.353770 0.155911
O O10 0.520788 0.535801 0.096142
O O11 0.808594 0.250000 0.250000
O O12 0.634999 0.163418 0.295418
O O13 0.836904 0.106859 0.331048
O O14 0.750000 0.000000 0.249406
O O15 0.791217 0.829525 0.516139
O O16 0.750000 0.000000 0.590908
O O17 0.750000 0.500000 0.054524
O O18 0.673301 0.706536 0.074321
O O19 0.454207 0.250000 0.250000
#
# Coordination Sequence:
#
# PCOD8216993 Si02
#       8
#     8   8   8   8   8   8   8   8
#     4  11  23  36  59  84 112 155 180 234 286 339
#     4  11  24  38  55  83 117 150 192 225 281 346
#     4  11  19  34  55  77 117 154 184 226 289 342
#     4  11  21  34  54  81 114 153 189 235 287 345
#     4  11  21  34  53  82 115 148 191 233 283 343
#     4   9  21  32  52  81 113 151 186 234 289 341
#     4  11  22  36  57  82 114 149 189 232 283 341
#     4  11  19  35  54  78 116 146 188 230 290 338
#
# _framework density 18.982461000000001
#
# number of rings (size 3 to 8) (size 9 to 14) (size 15 to 20)
#    0.000    1.250    5.000    1.500    8.750    1.500 
#    0.000    0.000    0.000    0.000    0.000    4.375 
#    0.000    0.000    0.000    0.000    0.000    0.000 
#
# Total GULP energy -793167.277759 kJ/mol
# GULP energy per Si atom -12393.238715 kJ/mol
# Density = 1.893926 g / cm^3
# Si number density = 18.982461 Si / 1000 Ang^3
#
#
#
# Elastic Constant Matrix: (Units=GPa)
#
#
# Indices 1 2 3 4 5 6 
#
# 1 109.8229 8.5543 33.4463 0.0000 0.0000 0.0000
# 2 8.5543 54.1925 32.7278 0.0000 0.0000 0.0000
# 3 33.4463 32.7278 99.7469 0.0000 0.0000 0.0000
# 4 0.0000 0.0000 0.0000 19.2047 0.0000 0.0000
# 5 0.0000 0.0000 0.0000 0.0000 27.3142 0.0000
# 6 0.0000 0.0000 0.0000 0.0000 0.0000 12.9514
#
#
#
# Elastic Compliance Matrix: (Units=1/GPa)
#
#
# Indices 1 2 3 4 5 6 
#
# 1 0.010155 0.000565 -0.003591 0.000000 0.000000 0.000000
# 2 0.000565 0.023044 -0.007751 0.000000 0.000000 0.000000
# 3 -0.003591 -0.007751 0.013772 0.000000 0.000000 0.000000
# 4 0.000000 0.000000 0.000000 0.052071 0.000000 0.000000
# 5 0.000000 0.000000 0.000000 0.000000 0.036611 0.000000
# 6 0.000000 0.000000 0.000000 0.000000 0.000000 0.077212
#
#
# Mechanical properties :
#
#
# Convention : Reuss Voigt Hill
#
# Bulk Modulus (GPa) = 39.33898 45.91324 42.62611
# Shear Modulus (GPa) = 20.58545 24.49631 22.54088
#
# Velocity S-wave (km/s) = 3.29666 3.59621 3.44969
# Velocity P-wave (km/s) = 5.93797 6.44076 6.19447
#
# Compressibility (1/GPa) = 0.02542008
#
# Stress axis : x y z
#
# Youngs Moduli (GPa) = 98.47326 43.39493 72.60905
#
# Poissons Ratio (x) = -0.02454 0.26071
# Poissons Ratio (y) = -0.05568 0.56276
# Poissons Ratio (z) = 0.35358 0.33634
#
# Static dielectric constant tensor:
#      x y z
#    x 3.673180 0.000000 0.000000 
#    y 0.000000 3.267780 0.000000 
#    z 0.000000 0.000000 3.598200 
# 
# 
# High freq. dielectric constant tensor:
#      x y z
#    x 1.762400 0.000000 0.000000 
#    y 0.000000 1.675940 0.000000 
#    z 0.000000 0.000000 1.730660 
# 
# From -- ./inp_files/40335.got.cif
#   From: 2010.06.25/outbox.cif.g09.slc.cpg/sg52_21_cif.got.tgz:40335.got - 2010.06.26 19:32:48.
