data_PCOD8216697
_publ_section_title
;
Structure prediction by ZEFSAII (Michael W. Deem and Ramdas Pophale) SiO2 
 PCOD8216697
Probable space group: P N N A
;
_chemical_formula_sum "Si O2"
_cell_formula_units_Z 52
_cell_length_a 8.539122
_cell_length_b 19.482991
_cell_length_c 13.138612
_cell_angle_alpha 90.000000
_cell_angle_beta 90.000000
_cell_angle_gamma 90.000000
_cell_volume 2185.839833
_symmetry_space_group_name_H-M "P N N A"
_symmetry_group_IT_number 52
_symmetry_cell_setting 'orthorhombic'
loop_
_space_group_symop_operation_xyz
x,y,z
1/2-x,-y,z
x,1/2-y,1/2-z
1/2-x,1/2+y,1/2-z
-x,-y,-z
1/2+x,y,-z
-x,1/2+y,1/2+z
1/2+x,1/2-y,1/2+z
loop_
_atom_site_type_symbol
_atom_site_label
_atom_site_fract_x
_atom_site_fract_y
_atom_site_fract_z
Si Si1 0.776243 0.717749 0.638606
Si Si2 0.675474 0.570775 0.597932
Si Si3 0.998843 0.093088 0.575828
Si Si4 0.250000 0.000000 0.484135
Si Si5 0.323930 0.821550 0.716967
Si Si6 0.304324 0.929016 0.874662
Si Si7 0.422212 0.280851 0.954606
O O1 0.753586 0.750000 0.750000
O O2 0.751782 0.636425 0.653289
O O3 0.652537 0.746995 0.555589
O O4 0.951762 0.730638 0.596689
O O5 0.750000 0.500000 0.642057
O O6 0.489695 0.570788 0.610025
O O7 0.711655 0.577320 0.479084
O O8 0.828294 0.058476 0.586022
O O9 0.008406 0.148703 0.485687
O O10 0.034486 0.129444 0.682339
O O11 0.123623 0.033343 0.558283
O O12 0.401689 0.750000 0.750000
O O13 0.245253 0.862659 0.810232
O O14 0.204776 0.803786 0.627643
O O15 0.250000 0.000000 0.820410
#
# Coordination Sequence:
#
# PCOD8216697 Si02
#       7
#     8   8   8   4   8   8   8
#     4  12  28  46  79 111 150 205 258 315 392 470
#     4  11  25  48  73 106 151 197 253 330 378 450
#     4  11  23  44  72 104 143 192 236 308 373 456
#     4  10  22  44  74 102 142 192 234 298 392 438
#     4  12  27  45  74 110 149 196 250 314 386 452
#     4  11  26  46  77 106 146 201 258 310 387 460
#     4  12  25  49  73 109 157 190 257 322 380 458
#
# _framework density 23.789482
#
# number of rings (size 3 to 8) (size 9 to 14) (size 15 to 20)
#    0.000    0.615    3.077    4.154    5.385    3.692 
#    1.385    0.000    0.000    0.000    0.000    0.000 
#    0.000    0.000    0.000    0.000    0.000    0.000 
#
# Total GULP energy -644792.742791 kJ/mol
# GULP energy per Si atom -12399.860438 kJ/mol
# Density = 2.373534 g / cm^3
# Si number density = 23.789482 Si / 1000 Ang^3
#
#
#
# Elastic Constant Matrix: (Units=GPa)
#
#
# Indices 1 2 3 4 5 6 
#
# 1 110.8613 49.2967 51.4547 0.0000 0.0000 0.0000
# 2 49.2967 195.1080 69.8882 0.0000 0.0000 0.0000
# 3 51.4547 69.8882 120.0016 0.0000 0.0000 0.0000
# 4 0.0000 0.0000 0.0000 10.8230 0.0000 0.0000
# 5 0.0000 0.0000 0.0000 0.0000 12.0001 0.0000
# 6 0.0000 0.0000 0.0000 0.0000 0.0000 48.9334
#
#
#
# Elastic Compliance Matrix: (Units=1/GPa)
#
#
# Indices 1 2 3 4 5 6 
#
# 1 0.011577 -0.001449 -0.004120 0.000000 0.000000 0.000000
# 2 -0.001449 0.006658 -0.003256 0.000000 0.000000 0.000000
# 3 -0.004120 -0.003256 0.011996 0.000000 0.000000 0.000000
# 4 0.000000 0.000000 0.000000 0.092396 0.000000 0.000000
# 5 0.000000 0.000000 0.000000 0.000000 0.083332 0.000000
# 6 0.000000 0.000000 0.000000 0.000000 0.000000 0.020436
#
#
# Mechanical properties :
#
#
# Convention : Reuss Voigt Hill
#
# Bulk Modulus (GPa) = 79.48931 85.25000 82.36965
# Shear Modulus (GPa) = 20.14189 31.37340 25.75764
#
# Velocity S-wave (km/s) = 2.91292 3.63546 3.29406
# Velocity P-wave (km/s) = 6.69325 7.31676 7.01194
#
# Compressibility (1/GPa) = 0.01258031
#
# Stress axis : x y z
#
# Youngs Moduli (GPa) = 86.37844 150.19787 83.36035
#
# Poissons Ratio (x) = 0.21768 0.34344
# Poissons Ratio (y) = 0.12519 0.27143
# Poissons Ratio (z) = 0.35587 0.48906
#
# Static dielectric constant tensor:
#      x y z
#    x 4.325630 0.000000 0.000000 
#    y 0.000000 5.480110 0.000000 
#    z 0.000000 0.000000 4.339850 
# 
# 
# High freq. dielectric constant tensor:
#      x y z
#    x 1.948260 0.000000 0.000000 
#    y 0.000000 1.969290 0.000000 
#    z 0.000000 0.000000 1.934090 
# 
# From -- ./inp_files/24903.got.cif
#   From: 2010.06.25/outbox.cif.g09.slc.cpg/sg52_13_cif.got.tgz:24903.got - 2010.06.26 19:32:48.
