data_PCOD8216469
_publ_section_title
;
Structure prediction by ZEFSAII (Michael W. Deem and Ramdas Pophale) SiO2 
 PCOD8216469
Probable space group: P N N A
;
_chemical_formula_sum "Si O2"
_cell_formula_units_Z 64
_cell_length_a 24.213915
_cell_length_b 14.949071
_cell_length_c 8.981484
_cell_angle_alpha 90.000000
_cell_angle_beta 90.000000
_cell_angle_gamma 90.000000
_cell_volume 3251.077472
_symmetry_space_group_name_H-M "P N N A"
_symmetry_group_IT_number 52
_symmetry_cell_setting 'orthorhombic'
loop_
_space_group_symop_operation_xyz
x,y,z
1/2-x,-y,z
x,1/2-y,1/2-z
1/2-x,1/2+y,1/2-z
-x,-y,-z
1/2+x,y,-z
-x,1/2+y,1/2+z
1/2+x,1/2-y,1/2+z
loop_
_atom_site_type_symbol
_atom_site_label
_atom_site_fract_x
_atom_site_fract_y
_atom_site_fract_z
Si Si1 0.256684 0.845964 0.175394
Si Si2 0.937968 0.008623 0.669066
Si Si3 0.251298 0.896065 0.847741
Si Si4 0.856348 0.841567 0.328928
Si Si5 0.869302 0.341734 0.326846
Si Si6 0.637070 0.345193 0.823538
Si Si7 0.365583 0.345709 0.323682
Si Si8 0.065346 0.504440 0.825368
O O1 0.260639 0.750000 0.250000
O O2 0.309076 0.895725 0.250722
O O3 0.195968 0.885546 0.210736
O O4 0.265272 0.840922 0.997476
O O5 0.914436 0.910368 0.705051
O O6 0.001674 0.010230 0.713552
O O7 0.909545 0.084181 0.766568
O O8 0.927360 0.032154 0.497036
O O9 0.296668 0.875131 0.724472
O O10 0.192849 0.867224 0.777791
O O11 0.250000 0.000000 0.891079
O O12 0.874007 0.750000 0.250000
O O13 0.852043 0.827395 0.504033
O O14 0.902642 0.913617 0.286301
O O15 0.887200 0.250000 0.250000
O O16 0.873512 0.331160 0.502423
O O17 0.911671 0.417177 0.276529
O O18 0.622852 0.250000 0.750000
O O19 0.375097 0.250000 0.250000
#
# Coordination Sequence:
#
# PCOD8216469 Si02
#       8
#     8   8   8   8   8   8   8   8
#     4   9  20  37  58  89 124 155 194 238 290 356
#     4  10  23  41  63  82 122 158 200 257 296 353
#     4  11  22  38  62  93 126 158 198 246 299 361
#     4  11  22  39  63  87 121 158 196 248 299 360
#     4  11  23  39  63  89 122 159 196 248 299 359
#     4  10  22  38  60  90 118 158 199 242 300 358
#     4  10  22  39  60  90 119 158 198 243 300 357
#     4  10  23  43  59  89 117 157 207 248 302 351
#
# _framework density 19.685780999999999
#
# number of rings (size 3 to 8) (size 9 to 14) (size 15 to 20)
#    0.000    1.750    1.250    2.625    3.500    6.500 
#    0.000    2.500    0.000    0.000    0.000    0.000 
#    0.000    0.000    0.000    0.000    0.000    0.000 
#
# Total GULP energy -793652.630206 kJ/mol
# GULP energy per Si atom -12400.822347 kJ/mol
# Density = 1.964098 g / cm^3
# Si number density = 19.685781 Si / 1000 Ang^3
#
#
#
# Elastic Constant Matrix: (Units=GPa)
#
#
# Indices 1 2 3 4 5 6 
#
# 1 134.4726 52.0963 55.8949 0.0000 0.0000 0.0000
# 2 52.0963 110.7797 54.7478 0.0000 0.0000 0.0000
# 3 55.8949 54.7478 98.4254 0.0000 0.0000 0.0000
# 4 0.0000 0.0000 0.0000 30.3876 0.0000 0.0000
# 5 0.0000 0.0000 0.0000 0.0000 41.9887 0.0000
# 6 0.0000 0.0000 0.0000 0.0000 0.0000 67.1386
#
#
#
# Elastic Compliance Matrix: (Units=1/GPa)
#
#
# Indices 1 2 3 4 5 6 
#
# 1 0.010284 -0.002689 -0.004344 0.000000 0.000000 0.000000
# 2 -0.002689 0.013152 -0.005789 0.000000 0.000000 0.000000
# 3 -0.004344 -0.005789 0.015847 0.000000 0.000000 0.000000
# 4 0.000000 0.000000 0.000000 0.032908 0.000000 0.000000
# 5 0.000000 0.000000 0.000000 0.000000 0.023816 0.000000
# 6 0.000000 0.000000 0.000000 0.000000 0.000000 0.014895
#
#
# Mechanical properties :
#
#
# Convention : Reuss Voigt Hill
#
# Bulk Modulus (GPa) = 73.31977 74.35062 73.83519
# Shear Modulus (GPa) = 35.43765 39.96556 37.70161
#
# Velocity S-wave (km/s) = 4.24744 4.51063 4.38101
# Velocity P-wave (km/s) = 7.83455 8.06092 7.94854
#
# Compressibility (1/GPa) = 0.01363889
#
# Stress axis : x y z
#
# Youngs Moduli (GPa) = 97.23749 76.03195 63.10365
#
# Poissons Ratio (x) = 0.20447 0.27415
# Poissons Ratio (y) = 0.26150 0.36528
# Poissons Ratio (z) = 0.42244 0.44012
#
# Static dielectric constant tensor:
#      x y z
#    x 3.874350 0.000000 0.000000 
#    y 0.000000 3.591810 0.000000 
#    z 0.000000 0.000000 3.666590 
# 
# 
# High freq. dielectric constant tensor:
#      x y z
#    x 1.771690 0.000000 0.000000 
#    y 0.000000 1.769840 0.000000 
#    z 0.000000 0.000000 1.772550 
# 
# From -- ./inp_files/14514.got.cif
#   From: 2010.06.25/outbox.cif.g09.slc.cpg/sg52_8_cif.got.tgz:14514.got - 2010.06.26 19:32:48.
