data_PCOD8216794
_publ_section_title
;
Structure prediction by ZEFSAII (Michael W. Deem and Ramdas Pophale) SiO2 
 PCOD8216794
Probable space group: P N N A
;
_chemical_formula_sum "Si O2"
_cell_formula_units_Z 40
_cell_length_a 18.271253
_cell_length_b 8.651888
_cell_length_c 11.484134
_cell_angle_alpha 90.000000
_cell_angle_beta 90.000000
_cell_angle_gamma 90.000000
_cell_volume 1815.421487
_symmetry_space_group_name_H-M "P N N A"
_symmetry_group_IT_number 52
_symmetry_cell_setting 'orthorhombic'
loop_
_space_group_symop_operation_xyz
x,y,z
1/2-x,-y,z
x,1/2-y,1/2-z
1/2-x,1/2+y,1/2-z
-x,-y,-z
1/2+x,y,-z
-x,1/2+y,1/2+z
1/2+x,1/2-y,1/2+z
loop_
_atom_site_type_symbol
_atom_site_label
_atom_site_fract_x
_atom_site_fract_y
_atom_site_fract_z
Si Si1 0.680221 0.905800 0.318683
Si Si2 0.420957 0.576768 0.269374
Si Si3 0.322823 0.895075 0.015984
Si Si4 0.176250 0.460322 0.060250
Si Si5 0.933208 0.584196 0.307778
O O1 0.692062 0.750000 0.250000
O O2 0.750000 0.000000 0.273048
O O3 0.675048 0.907959 0.459153
O O4 0.601804 0.972408 0.286133
O O5 0.450876 0.750000 0.250000
O O6 0.351200 0.571103 0.354205
O O7 0.394121 0.518808 0.142211
O O8 0.482971 0.468094 0.324193
O O9 0.312215 0.710357 0.003339
O O10 0.250000 0.000000 0.992220
O O11 0.387673 0.935937 0.926329
O O12 0.250000 0.500000 0.133487
O O13 0.930903 0.750000 0.250000
#
# Coordination Sequence:
#
# PCOD8216794 Si02
#       5
#     8   8   8   8   8
#     4  11  24  41  66  97 137 177 228 282 339 402
#     4  10  24  47  67  96 138 180 228 280 344 412
#     4  11  24  44  71  99 135 175 230 286 340 412
#     4  10  23  43  68 101 129 180 229 286 341 406
#     4  12  24  42  64 100 136 178 221 279 342 413
#
# _framework density 22.033452
#
# number of rings (size 3 to 8) (size 9 to 14) (size 15 to 20)
#    0.000    1.200    2.000    3.000    8.400    2.400 
#    3.600    0.000    0.000    0.000    0.000    0.000 
#    0.000    0.000    0.000    0.000    0.000    0.000 
#
# Total GULP energy -495617.594274 kJ/mol
# GULP energy per Si atom -12390.439857 kJ/mol
# Density = 2.198330 g / cm^3
# Si number density = 22.033452 Si / 1000 Ang^3
#
#
#
# Elastic Constant Matrix: (Units=GPa)
#
#
# Indices 1 2 3 4 5 6 
#
# 1 114.4931 55.1747 50.9642 0.0000 0.0000 0.0000
# 2 55.1747 98.0504 62.6698 0.0000 0.0000 0.0000
# 3 50.9642 62.6698 116.8757 0.0000 0.0000 0.0000
# 4 0.0000 0.0000 0.0000 24.4520 0.0000 0.0000
# 5 0.0000 0.0000 0.0000 0.0000 33.3253 0.0000
# 6 0.0000 0.0000 0.0000 0.0000 0.0000 39.8415
#
#
#
# Elastic Compliance Matrix: (Units=1/GPa)
#
#
# Indices 1 2 3 4 5 6 
#
# 1 0.012463 -0.005385 -0.002547 0.000000 0.000000 0.000000
# 2 -0.005385 0.017844 -0.007220 0.000000 0.000000 0.000000
# 3 -0.002547 -0.007220 0.013538 0.000000 0.000000 0.000000
# 4 0.000000 0.000000 0.000000 0.040896 0.000000 0.000000
# 5 0.000000 0.000000 0.000000 0.000000 0.030007 0.000000
# 6 0.000000 0.000000 0.000000 0.000000 0.000000 0.025099
#
#
# Mechanical properties :
#
#
# Convention : Reuss Voigt Hill
#
# Bulk Modulus (GPa) = 73.85012 74.11518 73.98265
# Shear Modulus (GPa) = 28.62615 30.23113 29.42864
#
# Velocity S-wave (km/s) = 3.60837 3.70815 3.65860
# Velocity P-wave (km/s) = 7.13796 7.21418 7.17617
#
# Compressibility (1/GPa) = 0.01354094
#
# Stress axis : x y z
#
# Youngs Moduli (GPa) = 80.23722 56.04199 73.86627
#
# Poissons Ratio (x) = 0.30180 0.18813
# Poissons Ratio (y) = 0.43210 0.53329
# Poissons Ratio (z) = 0.20436 0.40461
#
# Static dielectric constant tensor:
#      x y z
#    x 4.003660 0.000000 0.000000 
#    y 0.000000 3.904100 0.000000 
#    z 0.000000 0.000000 3.934410 
# 
# 
# High freq. dielectric constant tensor:
#      x y z
#    x 1.873220 0.000000 0.000000 
#    y 0.000000 1.862280 0.000000 
#    z 0.000000 0.000000 1.872450 
# 
# From -- ./inp_files/20340.got.cif
#   From: 2010.06.25/outbox.cif.g09.slc.cpg/sg52_11_cif.got.tgz:20340.got - 2010.06.26 19:32:48.
