data_PCOD8216978
_publ_section_title
;
Structure prediction by ZEFSAII (Michael W. Deem and Ramdas Pophale) SiO2 
 PCOD8216978
Probable space group: P N N A
;
_chemical_formula_sum "Si O2"
_cell_formula_units_Z 20
_cell_length_a 16.288372
_cell_length_b 8.609344
_cell_length_c 4.951522
_cell_angle_alpha 90.000000
_cell_angle_beta 90.000000
_cell_angle_gamma 90.000000
_cell_volume 694.362812
_symmetry_space_group_name_H-M "P N N A"
_symmetry_group_IT_number 52
_symmetry_cell_setting 'orthorhombic'
loop_
_space_group_symop_operation_xyz
x,y,z
1/2-x,-y,z
x,1/2-y,1/2-z
1/2-x,1/2+y,1/2-z
-x,-y,-z
1/2+x,y,-z
-x,1/2+y,1/2+z
1/2+x,1/2-y,1/2+z
loop_
_atom_site_type_symbol
_atom_site_label
_atom_site_fract_x
_atom_site_fract_y
_atom_site_fract_z
Si Si1 0.151859 0.650093 0.505865
Si Si2 0.928407 0.589896 0.853046
Si Si3 0.808334 0.750000 0.250000
O O1 0.130621 0.750000 0.250000
O O2 0.108477 0.486384 0.425270
O O3 0.250511 0.642066 0.557193
O O4 0.110290 0.750000 0.750000
O O5 0.966411 0.750000 0.750000
O O6 0.857384 0.622077 0.074481
O O7 0.000000 0.500000 0.000000
#
# Coordination Sequence:
#
# PCOD8216978 Si02
#       3
#     8   8   4
#     4  10  27  57  92 135 178 246 326 385 462 568
#     4  12  31  58  90 141 192 247 310 401 493 565
#     4  10  28  56 102 130 192 246 332 390 472 576
#
# _framework density 28.803386
#
# number of rings (size 3 to 8) (size 9 to 14) (size 15 to 20)
#    1.200    0.000    0.000    1.200    8.400   12.800 
#    7.200    4.000    0.000    0.000    0.000    0.000 
#    0.000    0.000    0.000    0.000    0.000    0.000 
#
# Total GULP energy -247804.624579 kJ/mol
# GULP energy per Si atom -12390.231229 kJ/mol
# Density = 2.873783 g / cm^3
# Si number density = 28.803386 Si / 1000 Ang^3
#
#
#
# Elastic Constant Matrix: (Units=GPa)
#
#
# Indices 1 2 3 4 5 6 
#
# 1 187.1746 102.1008 85.6384 0.0000 0.0000 0.0000
# 2 102.1008 214.4117 94.2562 0.0000 0.0000 0.0000
# 3 85.6384 94.2562 234.1888 0.0000 0.0000 0.0000
# 4 0.0000 0.0000 0.0000 72.5991 0.0000 0.0000
# 5 0.0000 0.0000 0.0000 0.0000-1789.0599 0.0000
# 6 0.0000 0.0000 0.0000 0.0000 0.0000 88.0261
#
#
#
# Elastic Compliance Matrix: (Units=1/GPa)
#
#
# Indices 1 2 3 4 5 6 
#
# 1 0.007696 -0.002949 -0.001627 0.000000 0.000000 0.000000
# 2 -0.002949 0.006797 -0.001657 0.000000 0.000000 0.000000
# 3 -0.001627 -0.001657 0.005532 0.000000 0.000000 0.000000
# 4 0.000000 0.000000 0.000000 0.013774 0.000000 0.000000
# 5 0.000000 0.000000 0.000000 0.000000 -0.000559 0.000000
# 6 0.000000 0.000000 0.000000 0.000000 0.000000 0.011360
#
#
# Mechanical properties :
#
#
# Convention : Reuss Voigt Hill
#
# Bulk Modulus (GPa) = 132.31852 133.30733 132.81293
# Shear Modulus (GPa) = 83.91102 -302.10165 -109.09531
#
# Velocity S-wave (km/s) = 5.40329 -10.25240 -6.16101
# Velocity P-wave (km/s) = 9.21768 9.68332 2.09774
#
# Compressibility (1/GPa) = 0.00755752
#
# Stress axis : x y z
#
# Youngs Moduli (GPa) = 129.93827 147.12676 180.76587
#
# Poissons Ratio (x) = 0.43394 0.29414
# Poissons Ratio (y) = 0.38324 0.29954
# Poissons Ratio (z) = 0.21143 0.24380
#
# Static dielectric constant tensor:
#      x y z
#    x 5.129540 0.000000 0.000000 
#    y 0.000000 6.088200 0.000000 
#    z 0.000000 0.000000 5.607960 
# 
# 
# High freq. dielectric constant tensor:
#      x y z
#    x 2.174080 0.000000 0.000000 
#    y 0.000000 2.187390 0.000000 
#    z 0.000000 0.000000 2.187100 
# 
# From -- ./inp_files/2776.got.cif
#   From: 2010.06.25/outbox.cif.g09.slc.cpg/sg52_2_cif.got.tgz:2776.got - 2010.06.26 19:32:48.
