data_PCOD8216152
_publ_section_title
;
Structure prediction by ZEFSAII (Michael W. Deem and Ramdas Pophale) SiO2 
 PCOD8216152
Probable space group: P N N A
;
_chemical_formula_sum "Si O2"
_cell_formula_units_Z 64
_cell_length_a 9.640515
_cell_length_b 14.660316
_cell_length_c 22.306359
_cell_angle_alpha 90.000000
_cell_angle_beta 90.000000
_cell_angle_gamma 90.000000
_cell_volume 3152.624554
_symmetry_space_group_name_H-M "P N N A"
_symmetry_group_IT_number 52
_symmetry_cell_setting 'orthorhombic'
loop_
_space_group_symop_operation_xyz
x,y,z
1/2-x,-y,z
x,1/2-y,1/2-z
1/2-x,1/2+y,1/2-z
-x,-y,-z
1/2+x,y,-z
-x,1/2+y,1/2+z
1/2+x,1/2-y,1/2+z
loop_
_atom_site_type_symbol
_atom_site_label
_atom_site_fract_x
_atom_site_fract_y
_atom_site_fract_z
Si Si1 0.039167 0.844998 0.216973
Si Si2 0.262608 0.601791 0.048199
Si Si3 0.502398 0.287359 0.004309
Si Si4 0.642314 0.260322 0.378187
Si Si5 0.884228 0.562851 0.179103
Si Si6 0.652713 0.347942 0.718768
Si Si7 0.571606 0.408842 0.841074
Si Si8 0.546900 0.721804 0.377882
O O1 0.055532 0.750000 0.250000
O O2 0.193164 0.880790 0.200128
O O3 0.959874 0.827592 0.155718
O O4 0.950574 0.915065 0.256431
O O5 0.250000 0.500000 0.023269
O O6 0.140757 0.671141 0.030381
O O7 0.285027 0.602397 0.120919
O O8 0.407795 0.629207 0.019300
O O9 0.590280 0.233983 0.053857
O O10 0.480484 0.216778 0.949372
O O11 0.644940 0.154822 0.357380
O O12 0.793278 0.304170 0.368245
O O13 0.750000 0.500000 0.189761
O O14 0.994171 0.502758 0.140497
O O15 0.655813 0.250000 0.750000
O O16 0.599683 0.416998 0.769870
O O17 0.553110 0.346314 0.659971
O O18 0.470631 0.324529 0.854239
#
# Coordination Sequence:
#
# PCOD8216152 Si02
#       8
#     8   8   8   8   8   8   8   8
#     4   9  22  35  55  81 108 147 194 247 288 343
#     4  11  23  36  53  79 117 158 194 235 284 341
#     4  11  23  37  55  80 113 151 203 241 275 344
#     4  11  22  37  57  79 115 154 197 238 289 338
#     4  11  22  36  55  85 120 151 194 239 293 354
#     4   9  20  36  58  78 109 148 198 242 296 343
#     4  10  22  35  57  79 115 155 190 237 293 347
#     4  10  21  38  54  81 111 154 197 238 289 339
#
# _framework density 20.300546000000001
#
# number of rings (size 3 to 8) (size 9 to 14) (size 15 to 20)
#    0.000    1.750    2.500    1.125   12.250    3.000 
#    0.000    0.000    0.000    0.000    0.000    0.875 
#    0.000    0.000    0.000    0.000    0.000    0.000 
#
# Total GULP energy -793266.923917 kJ/mol
# GULP energy per Si atom -12394.795686 kJ/mol
# Density = 2.025434 g / cm^3
# Si number density = 20.300546 Si / 1000 Ang^3
#
#
#
# Elastic Constant Matrix: (Units=GPa)
#
#
# Indices 1 2 3 4 5 6 
#
# 1 148.7467 15.2464 67.3264 0.0000 0.0000 0.0000
# 2 15.2464 15.9875 19.4824 0.0000 0.0000 0.0000
# 3 67.3264 19.4824 140.8535 0.0000 0.0000 0.0000
# 4 0.0000 0.0000 0.0000 14.0723 0.0000 0.0000
# 5 0.0000 0.0000 0.0000 0.0000 26.1681 0.0000
# 6 0.0000 0.0000 0.0000 0.0000 0.0000 17.2768
#
#
#
# Elastic Compliance Matrix: (Units=1/GPa)
#
#
# Indices 1 2 3 4 5 6 
#
# 1 0.008778 -0.003919 -0.003654 0.000000 0.000000 0.000000
# 2 -0.003919 0.076978 -0.008774 0.000000 0.000000 0.000000
# 3 -0.003654 -0.008774 0.010060 0.000000 0.000000 0.000000
# 4 0.000000 0.000000 0.000000 0.071061 0.000000 0.000000
# 5 0.000000 0.000000 0.000000 0.000000 0.038214 0.000000
# 6 0.000000 0.000000 0.000000 0.000000 0.000000 0.057881
#
#
# Mechanical properties :
#
#
# Convention : Reuss Voigt Hill
#
# Bulk Modulus (GPa) = 15.84224 56.63310 36.23767
# Shear Modulus (GPa) = 15.78744 25.07230 20.42987
#
# Velocity S-wave (km/s) = 2.79173 3.51815 3.17578
# Velocity P-wave (km/s) = 4.26760 6.66791 5.59792
#
# Compressibility (1/GPa) = 0.06312239
#
# Stress axis : x y z
#
# Youngs Moduli (GPa) = 113.91642 12.99071 99.40624
#
# Poissons Ratio (x) = 0.05091 0.36322
# Poissons Ratio (y) = 0.44641 0.87221
# Poissons Ratio (z) = 0.41624 0.11398
#
# Static dielectric constant tensor:
#      x y z
#    x 3.925380 0.000000 0.000000 
#    y 0.000000 3.311540 0.000000 
#    z 0.000000 0.000000 3.847680 
# 
# 
# High freq. dielectric constant tensor:
#      x y z
#    x 1.813490 0.000000 0.000000 
#    y 0.000000 1.743110 0.000000 
#    z 0.000000 0.000000 1.788370 
# 
# From -- ./inp_files/39696.got.cif
#   From: 2010.06.25/outbox.cif.g09.slc.cpg/sg52_20_cif.got.tgz:39696.got - 2010.06.26 19:32:48.
