data_PCOD8216490
_publ_section_title
;
Structure prediction by ZEFSAII (Michael W. Deem and Ramdas Pophale) SiO2 
 PCOD8216490
Probable space group: P N N A
;
_chemical_formula_sum "Si O2"
_cell_formula_units_Z 48
_cell_length_a 14.288392
_cell_length_b 8.349343
_cell_length_c 18.651235
_cell_angle_alpha 90.000000
_cell_angle_beta 90.000000
_cell_angle_gamma 90.000000
_cell_volume 2225.067823
_symmetry_space_group_name_H-M "P N N A"
_symmetry_group_IT_number 52
_symmetry_cell_setting 'orthorhombic'
loop_
_space_group_symop_operation_xyz
x,y,z
1/2-x,-y,z
x,1/2-y,1/2-z
1/2-x,1/2+y,1/2-z
-x,-y,-z
1/2+x,y,-z
-x,1/2+y,1/2+z
1/2+x,1/2-y,1/2+z
loop_
_atom_site_type_symbol
_atom_site_label
_atom_site_fract_x
_atom_site_fract_y
_atom_site_fract_z
Si Si1 0.359812 0.750000 0.750000
Si Si2 0.490015 0.765238 0.527249
Si Si3 0.436188 0.421371 0.711653
Si Si4 0.250000 0.500000 0.489279
Si Si5 0.439495 0.959063 0.092495
Si Si6 0.218213 0.789440 0.878800
Si Si7 0.149424 0.533279 0.972226
O O1 0.421948 0.585859 0.756745
O O2 0.298294 0.755592 0.821504
O O3 0.479676 0.697062 0.446978
O O4 0.496088 0.615689 0.580211
O O5 0.584117 0.872495 0.528735
O O6 0.400173 0.867614 0.550209
O O7 0.422400 0.250000 0.750000
O O8 0.541125 0.424451 0.676660
O O9 0.354361 0.422517 0.650744
O O10 0.335650 0.502708 0.433482
O O11 0.252699 0.653382 0.541716
O O12 0.165551 0.623262 0.896376
O O13 0.250000 0.500000 0.009782
#
# Coordination Sequence:
#
# PCOD8216490 Si02
#       7
#     4   8   8   4   8   8   8
#     4  12  28  44  70 100 150 198 224 290 360 454
#     4  10  22  39  61 100 139 180 226 293 372 421
#     4  12  27  46  67 103 143 195 238 285 358 447
#     4  12  22  44  76 104 132 190 246 304 362 424
#     4  11  23  45  68  97 136 188 242 302 359 420
#     4  12  23  41  65 105 146 180 235 279 369 446
#     4  11  23  36  62 100 141 181 222 294 359 441
#
# _framework density 21.572378
#
# number of rings (size 3 to 8) (size 9 to 14) (size 15 to 20)
#    0.000    0.667    5.833    2.000    4.667    0.000 
#    0.000    0.000    1.833    0.000    0.000    0.000 
#    0.000    0.000    0.000    0.000    0.000    0.000 
#
# Total GULP energy -594761.260857 kJ/mol
# GULP energy per Si atom -12390.859601 kJ/mol
# Density = 2.152328 g / cm^3
# Si number density = 21.572378 Si / 1000 Ang^3
#
#
#
# Elastic Constant Matrix: (Units=GPa)
#
#
# Indices 1 2 3 4 5 6 
#
# 1 126.7476 57.4881 51.3208 0.0000 0.0000 0.0000
# 2 57.4881 166.5698 39.2064 0.0000 0.0000 0.0000
# 3 51.3208 39.2064 65.1517 0.0000 0.0000 0.0000
# 4 0.0000 0.0000 0.0000 15.4543 0.0000 0.0000
# 5 0.0000 0.0000 0.0000 0.0000 34.3250 0.0000
# 6 0.0000 0.0000 0.0000 0.0000 0.0000 26.7838
#
#
#
# Elastic Compliance Matrix: (Units=1/GPa)
#
#
# Indices 1 2 3 4 5 6 
#
# 1 0.012289 -0.002287 -0.008304 0.000000 0.000000 0.000000
# 2 -0.002287 0.007420 -0.002664 0.000000 0.000000 0.000000
# 3 -0.008304 -0.002664 0.023493 0.000000 0.000000 0.000000
# 4 0.000000 0.000000 0.000000 0.064707 0.000000 0.000000
# 5 0.000000 0.000000 0.000000 0.000000 0.029133 0.000000
# 6 0.000000 0.000000 0.000000 0.000000 0.000000 0.037336
#
#
# Mechanical properties :
#
#
# Convention : Reuss Voigt Hill
#
# Bulk Modulus (GPa) = 59.90663 72.72220 66.31441
# Shear Modulus (GPa) = 24.21868 29.34287 26.78077
#
# Velocity S-wave (km/s) = 3.35426 3.69210 3.52723
# Velocity P-wave (km/s) = 6.54460 7.20829 6.88445
#
# Compressibility (1/GPa) = 0.01669264
#
# Stress axis : x y z
#
# Youngs Moduli (GPa) = 81.37105 134.77686 42.56556
#
# Poissons Ratio (x) = 0.30820 0.35348
# Poissons Ratio (y) = 0.18608 0.11338
# Poissons Ratio (z) = 0.67574 0.35900
#
# Static dielectric constant tensor:
#      x y z
#    x 3.870130 0.000000 0.000000 
#    y 0.000000 4.325380 0.000000 
#    z 0.000000 0.000000 3.545870 
# 
# 
# High freq. dielectric constant tensor:
#      x y z
#    x 1.838010 0.000000 0.000000 
#    y 0.000000 1.882890 0.000000 
#    z 0.000000 0.000000 1.800490 
# 
# From -- ./inp_files/33104.got.cif
#   From: 2010.06.25/outbox.cif.g09.slc.cpg/sg52_17_cif.got.tgz:33104.got - 2010.06.26 19:32:48.
