data_PCOD8216344
_publ_section_title
;
Structure prediction by ZEFSAII (Michael W. Deem and Ramdas Pophale) SiO2 
 PCOD8216344
Probable space group: P N N A
;
_chemical_formula_sum "Si O2"
_cell_formula_units_Z 40
_cell_length_a 9.419949
_cell_length_b 7.947965
_cell_length_c 24.979491
_cell_angle_alpha 90.000000
_cell_angle_beta 90.000000
_cell_angle_gamma 90.000000
_cell_volume 1870.200127
_symmetry_space_group_name_H-M "P N N A"
_symmetry_group_IT_number 52
_symmetry_cell_setting 'orthorhombic'
loop_
_space_group_symop_operation_xyz
x,y,z
1/2-x,-y,z
x,1/2-y,1/2-z
1/2-x,1/2+y,1/2-z
-x,-y,-z
1/2+x,y,-z
-x,1/2+y,1/2+z
1/2+x,1/2-y,1/2+z
loop_
_atom_site_type_symbol
_atom_site_label
_atom_site_fract_x
_atom_site_fract_y
_atom_site_fract_z
Si Si1 0.212915 0.816907 0.452207
Si Si2 0.266915 0.807072 0.162495
Si Si3 0.250000 0.000000 0.878072
Si Si4 0.958016 0.250000 0.750000
Si Si5 0.057040 0.611241 0.712213
Si Si6 0.425381 0.650883 0.529850
O O1 0.271608 0.797564 0.392028
O O2 0.295803 0.696247 0.491917
O O3 0.043785 0.791504 0.457810
O O4 0.250000 0.000000 0.472779
O O5 0.139549 0.728595 0.197530
O O6 0.408537 0.800274 0.197367
O O7 0.250000 0.000000 0.145217
O O8 0.152040 0.885659 0.840691
O O9 0.358109 0.890801 0.912916
O O10 0.047223 0.423953 0.739917
O O11 0.131704 0.750000 0.750000
O O12 0.500000 0.500000 0.500000
#
# Coordination Sequence:
#
# PCOD8216344 Si02
#       6
#     8   8   4   4   8   8
#     4  12  26  41  71 109 145 179 239 309 364 422
#     4  10  21  41  68 101 134 188 234 284 349 426
#     4  12  26  46  74 100 136 192 242 292 370 432
#     4  10  22  44  70 102 144 178 244 288 344 430
#     4  11  25  43  70 102 140 186 235 293 356 427
#     4  12  23  49  73  98 139 192 241 290 358 449
#
# _framework density 21.388086000000001
#
# number of rings (size 3 to 8) (size 9 to 14) (size 15 to 20)
#    0.000    0.800    3.000    5.400    4.200    0.000 
#    0.000    0.000    0.000    0.000    0.000    0.000 
#    0.000    0.000    0.000    0.000    0.000    0.000 
#
# Total GULP energy -495848.888168 kJ/mol
# GULP energy per Si atom -12396.222204 kJ/mol
# Density = 2.133941 g / cm^3
# Si number density = 21.388086 Si / 1000 Ang^3
#
#
#
# Elastic Constant Matrix: (Units=GPa)
#
#
# Indices 1 2 3 4 5 6 
#
# 1 109.8039 51.3962 49.4199 0.0000 0.0000 0.0000
# 2 51.3962 85.9494 54.3855 0.0000 0.0000 0.0000
# 3 49.4199 54.3855 145.4734 0.0000 0.0000 0.0000
# 4 0.0000 0.0000 0.0000 27.5382 0.0000 0.0000
# 5 0.0000 0.0000 0.0000 0.0000 46.9608 0.0000
# 6 0.0000 0.0000 0.0000 0.0000 0.0000 31.3652
#
#
#
# Elastic Compliance Matrix: (Units=1/GPa)
#
#
# Indices 1 2 3 4 5 6 
#
# 1 0.013072 -0.006558 -0.001989 0.000000 0.000000 0.000000
# 2 -0.006558 0.018530 -0.004700 0.000000 0.000000 0.000000
# 3 -0.001989 -0.004700 0.009307 0.000000 0.000000 0.000000
# 4 0.000000 0.000000 0.000000 0.036313 0.000000 0.000000
# 5 0.000000 0.000000 0.000000 0.000000 0.021294 0.000000
# 6 0.000000 0.000000 0.000000 0.000000 0.000000 0.031882
#
#
# Mechanical properties :
#
#
# Convention : Reuss Voigt Hill
#
# Bulk Modulus (GPa) = 69.37073 72.40332 70.88702
# Shear Modulus (GPa) = 30.92185 33.57452 32.24818
#
# Velocity S-wave (km/s) = 3.80643 3.96634 3.88721
# Velocity P-wave (km/s) = 7.19884 7.40955 7.30495
#
# Compressibility (1/GPa) = 0.01441530
#
# Stress axis : x y z
#
# Youngs Moduli (GPa) = 76.49870 53.96584 107.44893
#
# Poissons Ratio (x) = 0.35393 0.21371
# Poissons Ratio (y) = 0.50170 0.50496
# Poissons Ratio (z) = 0.15215 0.25362
#
# Static dielectric constant tensor:
#      x y z
#    x 4.247950 0.000000 0.000000 
#    y 0.000000 3.970390 0.000000 
#    z 0.000000 0.000000 3.823210 
# 
# 
# High freq. dielectric constant tensor:
#      x y z
#    x 1.848710 0.000000 0.000000 
#    y 0.000000 1.827090 0.000000 
#    z 0.000000 0.000000 1.854240 
# 
# From -- ./inp_files/39285.got.cif
#   From: 2010.06.25/outbox.cif.g09.slc.cpg/sg52_20_cif.got.tgz:39285.got - 2010.06.26 19:32:48.
