data_PCOD8216006
_publ_section_title
;
Structure prediction by ZEFSAII (Michael W. Deem and Ramdas Pophale) SiO2 
 PCOD8216006
Probable space group: P N N A
;
_chemical_formula_sum "Si O2"
_cell_formula_units_Z 52
_cell_length_a 9.282191
_cell_length_b 14.566394
_cell_length_c 19.097533
_cell_angle_alpha 90.000000
_cell_angle_beta 90.000000
_cell_angle_gamma 90.000000
_cell_volume 2582.140221
_symmetry_space_group_name_H-M "P N N A"
_symmetry_group_IT_number 52
_symmetry_cell_setting 'orthorhombic'
loop_
_space_group_symop_operation_xyz
x,y,z
1/2-x,-y,z
x,1/2-y,1/2-z
1/2-x,1/2+y,1/2-z
-x,-y,-z
1/2+x,y,-z
-x,1/2+y,1/2+z
1/2+x,1/2-y,1/2+z
loop_
_atom_site_type_symbol
_atom_site_label
_atom_site_fract_x
_atom_site_fract_y
_atom_site_fract_z
Si Si1 0.747357 0.311385 0.688680
Si Si2 0.135029 0.277637 0.923257
Si Si3 0.250000 0.000000 0.358727
Si Si4 0.229099 0.891353 0.697859
Si Si5 0.200095 0.687179 0.064354
Si Si6 0.458312 0.546763 0.259529
Si Si7 0.935315 0.868483 0.183800
O O1 0.680499 0.250000 0.750000
O O2 0.731461 0.263228 0.614685
O O3 0.661230 0.406794 0.690927
O O4 0.913631 0.325857 0.705569
O O5 0.228653 0.343981 0.874218
O O6 0.121336 0.174344 0.890051
O O7 0.973813 0.314477 0.938360
O O8 0.230915 0.280036 0.992190
O O9 0.253436 0.912185 0.409576
O O10 0.387907 0.006521 0.306988
O O11 0.325512 0.841168 0.755773
O O12 0.065020 0.878063 0.724468
O O13 0.250000 0.000000 0.689481
O O14 0.545235 0.479422 0.313108
#
# Coordination Sequence:
#
# PCOD8216006 Si02
#       7
#     8   8   4   8   8   8   8
#     4  11  19  37  62  92 122 162 217 264 320 378
#     4  11  25  43  60  87 133 172 212 256 322 388
#     4  12  22  40  62  94 130 162 212 262 322 392
#     4  10  22  37  61  94 119 158 208 264 320 375
#     4  11  26  39  61  88 127 175 208 262 322 390
#     4  11  21  37  69  97 122 159 218 272 317 377
#     4  10  20  41  63  88 125 170 209 263 325 374
#
# _framework density 20.138332999999999
#
# number of rings (size 3 to 8) (size 9 to 14) (size 15 to 20)
#    0.000    1.231    3.077    4.154    3.231    3.077 
#    0.000    0.769    0.000    3.692    0.000    0.000 
#    0.000    0.000    0.000    0.000    0.000    0.000 
#
# Total GULP energy -644355.139214 kJ/mol
# GULP energy per Si atom -12391.444985 kJ/mol
# Density = 2.009250 g / cm^3
# Si number density = 20.138333 Si / 1000 Ang^3
#
#
#
# Elastic Constant Matrix: (Units=GPa)
#
#
# Indices 1 2 3 4 5 6 
#
# 1 93.1563 46.0009 68.1674 0.0000 0.0000 0.0000
# 2 46.0009 90.4162 69.7152 0.0000 0.0000 0.0000
# 3 68.1674 69.7152 147.6648 0.0000 0.0000 0.0000
# 4 0.0000 0.0000 0.0000 28.5788 0.0000 0.0000
# 5 0.0000 0.0000 0.0000 0.0000 37.1291 0.0000
# 6 0.0000 0.0000 0.0000 0.0000 0.0000 -12.8430
#
#
#
# Elastic Compliance Matrix: (Units=1/GPa)
#
#
# Indices 1 2 3 4 5 6 
#
# 1 0.017133 -0.004117 -0.005965 0.000000 0.000000 0.000000
# 2 -0.004117 0.018380 -0.006777 0.000000 0.000000 0.000000
# 3 -0.005965 -0.006777 0.012725 0.000000 0.000000 0.000000
# 4 0.000000 0.000000 0.000000 0.034991 0.000000 0.000000
# 5 0.000000 0.000000 0.000000 0.000000 0.026933 0.000000
# 6 0.000000 0.000000 0.000000 0.000000 0.000000 -0.077863
#
#
# Mechanical properties :
#
#
# Convention : Reuss Voigt Hill
#
# Bulk Modulus (GPa) = 68.87297 77.66715 73.27006
# Shear Modulus (GPa) = 70.56416 20.39657 45.48037
#
# Velocity S-wave (km/s) = 5.92586 3.18594 4.75742
# Velocity P-wave (km/s) = 9.00529 7.22386 8.16331
#
# Compressibility (1/GPa) = 0.01451948
#
# Stress axis : x y z
#
# Youngs Moduli (GPa) = 58.36733 54.40728 78.58264
#
# Poissons Ratio (x) = 0.22400 0.46878
# Poissons Ratio (y) = 0.24030 0.53255
# Poissons Ratio (z) = 0.34819 0.36871
#
# Static dielectric constant tensor:
#      x y z
#    x 3.946890 0.000000 0.000000 
#    y 0.000000 3.810540 0.000000 
#    z 0.000000 0.000000 3.570300 
# 
# 
# High freq. dielectric constant tensor:
#      x y z
#    x 1.801740 0.000000 0.000000 
#    y 0.000000 1.787220 0.000000 
#    z 0.000000 0.000000 1.764740 
# 
# From -- ./inp_files/35951.got.cif
#   From: 2010.06.25/outbox.cif.g09.slc.cpg/sg52_18_cif.got.tgz:35951.got - 2010.06.26 19:32:48.
