data_PCOD8216523
_publ_section_title
;
Structure prediction by ZEFSAII (Michael W. Deem and Ramdas Pophale) SiO2 
 PCOD8216523
Probable space group: P N N A
;
_chemical_formula_sum "Si O2"
_cell_formula_units_Z 40
_cell_length_a 12.893187
_cell_length_b 11.101425
_cell_length_c 14.010976
_cell_angle_alpha 90.000000
_cell_angle_beta 90.000000
_cell_angle_gamma 90.000000
_cell_volume 2005.429504
_symmetry_space_group_name_H-M "P N N A"
_symmetry_group_IT_number 52
_symmetry_cell_setting 'orthorhombic'
loop_
_space_group_symop_operation_xyz
x,y,z
1/2-x,-y,z
x,1/2-y,1/2-z
1/2-x,1/2+y,1/2-z
-x,-y,-z
1/2+x,y,-z
-x,1/2+y,1/2+z
1/2+x,1/2-y,1/2+z
loop_
_atom_site_type_symbol
_atom_site_label
_atom_site_fract_x
_atom_site_fract_y
_atom_site_fract_z
Si Si1 0.927623 0.066528 0.731963
Si Si2 0.077692 0.755579 0.894376
Si Si3 0.637951 0.557782 0.237334
Si Si4 0.142138 0.771670 0.105330
Si Si5 0.852785 0.814937 0.656145
O O1 0.866558 0.106978 0.829119
O O2 0.930370 0.173056 0.655296
O O3 0.870034 0.954652 0.680994
O O4 0.047793 0.039934 0.754148
O O5 0.121715 0.623919 0.865103
O O6 0.130197 0.849676 0.823884
O O7 0.953905 0.752872 0.882073
O O8 0.099431 0.798543 0.000771
O O9 0.750000 0.500000 0.238611
O O10 0.256312 0.713386 0.086819
O O11 0.812286 0.750000 0.750000
#
# Coordination Sequence:
#
# PCOD8216523 Si02
#       5
#     8   8   8   8   8
#     4  10  22  40  60  91 123 159 209 252 303 365
#     4  10  23  42  58  93 121 163 211 247 313 373
#     4  10  22  41  63  80 127 170 200 255 311 365
#     4  11  24  36  66  98 120 155 213 262 295 368
#     4  11  20  42  66  83 128 171 191 255 316 364
#
# _framework density 19.945853
#
# number of rings (size 3 to 8) (size 9 to 14) (size 15 to 20)
#    0.000    1.600    6.000    0.600    0.000   12.000 
#    3.600    0.000    0.000    0.000    0.000    0.000 
#    0.000    0.000    0.000    0.000    0.000    0.000 
#
# Total GULP energy -495767.418120 kJ/mol
# GULP energy per Si atom -12394.185453 kJ/mol
# Density = 1.990046 g / cm^3
# Si number density = 19.945853 Si / 1000 Ang^3
#
#
#
# Elastic Constant Matrix: (Units=GPa)
#
#
# Indices 1 2 3 4 5 6 
#
# 1 148.0462 31.9614 17.6365 0.0000 0.0000 0.0000
# 2 31.9614 35.3169 -13.6985 0.0000 0.0000 0.0000
# 3 17.6365 -13.6985 79.7387 0.0000 0.0000 0.0000
# 4 0.0000 0.0000 0.0000 13.0690 0.0000 0.0000
# 5 0.0000 0.0000 0.0000 0.0000 44.9589 0.0000
# 6 0.0000 0.0000 0.0000 0.0000 0.0000 14.5782
#
#
#
# Elastic Compliance Matrix: (Units=1/GPa)
#
#
# Indices 1 2 3 4 5 6 
#
# 1 0.009346 -0.009920 -0.003771 0.000000 0.000000 0.000000
# 2 -0.009920 0.040867 0.009215 0.000000 0.000000 0.000000
# 3 -0.003771 0.009215 0.014958 0.000000 0.000000 0.000000
# 4 0.000000 0.000000 0.000000 0.076517 0.000000 0.000000
# 5 0.000000 0.000000 0.000000 0.000000 0.022243 0.000000
# 6 0.000000 0.000000 0.000000 0.000000 0.000000 0.068596
#
#
# Mechanical properties :
#
#
# Convention : Reuss Voigt Hill
#
# Bulk Modulus (GPa) = 17.78820 37.21117 27.49968
# Shear Modulus (GPa) = 19.21459 29.66805 24.44132
#
# Velocity S-wave (km/s) = 3.10714 3.86090 3.50435
# Velocity P-wave (km/s) = 4.67012 6.21064 5.49464
#
# Compressibility (1/GPa) = 0.05621704
#
# Stress axis : x y z
#
# Youngs Moduli (GPa) = 107.00189 24.46952 66.85330
#
# Poissons Ratio (x) = 0.24275 0.25212
# Poissons Ratio (y) = 1.06151 -0.61604
# Poissons Ratio (z) = 0.40354 -0.22548
#
# Static dielectric constant tensor:
#      x y z
#    x 3.701990 0.000000 0.000000 
#    y 0.000000 3.747860 0.000000 
#    z 0.000000 0.000000 3.454160 
# 
# 
# High freq. dielectric constant tensor:
#      x y z
#    x 1.788200 0.000000 0.000000 
#    y 0.000000 1.780640 0.000000 
#    z 0.000000 0.000000 1.760120 
# 
# From -- ./inp_files/27014.got.cif
#   From: 2010.06.25/outbox.cif.g09.slc.cpg/sg52_14_cif.got.tgz:27014.got - 2010.06.26 19:32:48.
