data_PCOD8216979
_publ_section_title
;
Structure prediction by ZEFSAII (Michael W. Deem and Ramdas Pophale) SiO2 
 PCOD8216979
Probable space group: P N N A
;
_chemical_formula_sum "Si O2"
_cell_formula_units_Z 36
_cell_length_a 13.341858
_cell_length_b 12.264654
_cell_length_c 13.016592
_cell_angle_alpha 90.000000
_cell_angle_beta 90.000000
_cell_angle_gamma 90.000000
_cell_volume 2129.947540
_symmetry_space_group_name_H-M "P N N A"
_symmetry_group_IT_number 52
_symmetry_cell_setting 'orthorhombic'
loop_
_space_group_symop_operation_xyz
x,y,z
1/2-x,-y,z
x,1/2-y,1/2-z
1/2-x,1/2+y,1/2-z
-x,-y,-z
1/2+x,y,-z
-x,1/2+y,1/2+z
1/2+x,1/2-y,1/2+z
loop_
_atom_site_type_symbol
_atom_site_label
_atom_site_fract_x
_atom_site_fract_y
_atom_site_fract_z
Si Si1 0.564723 0.057383 0.372973
Si Si2 0.507949 0.250000 0.250000
Si Si3 0.801264 0.892961 0.559896
Si Si4 0.404904 0.204592 0.446794
Si Si5 0.997022 0.179350 0.349705
O O1 0.574311 0.142867 0.276995
O O2 0.658569 0.078640 0.446674
O O3 0.458816 0.083896 0.432921
O O4 0.936491 0.066212 0.333933
O O5 0.438739 0.279176 0.349868
O O6 0.714619 0.801873 0.548474
O O7 0.885309 0.843641 0.634226
O O8 0.750000 0.000000 0.610187
O O9 0.450008 0.247805 0.554751
O O10 0.980591 0.250000 0.250000
#
# Coordination Sequence:
#
# PCOD8216979 Si02
#       5
#     8   4   8   8   8
#     4   9  18  34  52  78 103 137 178 214 264 301
#     4   8  18  34  56  72 108 138 176 220 266 312
#     4  11  16  32  59  75  98 134 195 227 236 297
#     4   9  18  34  53  77  99 139 180 219 254 307
#     4  11  21  32  51  85 111 135 176 219 267 313
#
# _framework density 16.901824999999999
#
# number of rings (size 3 to 8) (size 9 to 14) (size 15 to 20)
#    1.333    0.889    4.444    1.333    1.556    0.000 
#    2.000    1.111    0.000    0.000    0.000    0.000 
#    0.000    0.000    0.000    0.000    0.000    0.000 
#
# Total GULP energy -446035.263298 kJ/mol
# GULP energy per Si atom -12389.868425 kJ/mol
# Density = 1.686336 g / cm^3
# Si number density = 16.901825 Si / 1000 Ang^3
#
#
#
# Elastic Constant Matrix: (Units=GPa)
#
#
# Indices 1 2 3 4 5 6 
#
# 1 28.5373 2.2082 13.0558 0.0000 0.0000 0.0000
# 2 2.2082 47.6745 46.1465 0.0000 0.0000 0.0000
# 3 13.0558 46.1465 125.3665 0.0000 0.0000 0.0000
# 4 0.0000 0.0000 0.0000 31.3859 0.0000 0.0000
# 5 0.0000 0.0000 0.0000 0.0000 12.3222 0.0000
# 6 0.0000 0.0000 0.0000 0.0000 0.0000 16.9733
#
#
#
# Elastic Compliance Matrix: (Units=1/GPa)
#
#
# Indices 1 2 3 4 5 6 
#
# 1 0.037095 0.003140 -0.005019 0.000000 0.000000 0.000000
# 2 0.003140 0.032851 -0.012419 0.000000 0.000000 0.000000
# 3 -0.005019 -0.012419 0.013071 0.000000 0.000000 0.000000
# 4 0.000000 0.000000 0.000000 0.031861 0.000000 0.000000
# 5 0.000000 0.000000 0.000000 0.000000 0.081154 0.000000
# 6 0.000000 0.000000 0.000000 0.000000 0.000000 0.058916
#
#
# Mechanical properties :
#
#
# Convention : Reuss Voigt Hill
#
# Bulk Modulus (GPa) = 18.37548 36.04438 27.20993
# Shear Modulus (GPa) = 16.57354 21.48080 19.02717
#
# Velocity S-wave (km/s) = 3.13481 3.56886 3.35885
# Velocity P-wave (km/s) = 4.89880 6.19309 5.58357
#
# Compressibility (1/GPa) = 0.05442034
#
# Stress axis : x y z
#
# Youngs Moduli (GPa) = 26.95784 30.44004 76.50659
#
# Poissons Ratio (x) = -0.09558 0.38397
# Poissons Ratio (y) = -0.08464 0.95016
# Poissons Ratio (z) = 0.13530 0.37805
#
# Static dielectric constant tensor:
#      x y z
#    x 3.122380 0.000000 0.000000 
#    y 0.000000 2.784530 0.000000 
#    z 0.000000 0.000000 3.049320 
# 
# 
# High freq. dielectric constant tensor:
#      x y z
#    x 1.653060 0.000000 0.000000 
#    y 0.000000 1.610560 0.000000 
#    z 0.000000 0.000000 1.639710 
# 
# From -- ./inp_files/18103.got.cif
#   From: 2010.06.25/outbox.cif.g09.slc.cpg/sg52_10_cif.got.tgz:18103.got - 2010.06.26 19:32:48.
