data_PCOD8216887
_publ_section_title
;
Structure prediction by ZEFSAII (Michael W. Deem and Ramdas Pophale) SiO2 
 PCOD8216887
Probable space group: P N N A
;
_chemical_formula_sum "Si O2"
_cell_formula_units_Z 28
_cell_length_a 11.648005
_cell_length_b 9.190211
_cell_length_c 12.300061
_cell_angle_alpha 90.000000
_cell_angle_beta 90.000000
_cell_angle_gamma 90.000000
_cell_volume 1316.692301
_symmetry_space_group_name_H-M "P N N A"
_symmetry_group_IT_number 52
_symmetry_cell_setting 'orthorhombic'
loop_
_space_group_symop_operation_xyz
x,y,z
1/2-x,-y,z
x,1/2-y,1/2-z
1/2-x,1/2+y,1/2-z
-x,-y,-z
1/2+x,y,-z
-x,1/2+y,1/2+z
1/2+x,1/2-y,1/2+z
loop_
_atom_site_type_symbol
_atom_site_label
_atom_site_fract_x
_atom_site_fract_y
_atom_site_fract_z
Si Si1 0.750000 0.500000 0.474734
Si Si2 0.138220 0.422493 0.734939
Si Si3 0.747836 0.725233 0.872913
Si Si4 0.562891 0.488182 0.889008
O O1 0.858504 0.536757 0.394545
O O2 0.724950 0.635229 0.552571
O O3 0.250000 0.500000 0.791211
O O4 0.148335 0.250000 0.750000
O O5 0.020446 0.481485 0.786604
O O6 0.712242 0.750000 0.750000
O O7 0.662234 0.602359 0.909711
O O8 0.880264 0.671398 0.876747
O O9 0.500000 0.500000 0.000000
#
# Coordination Sequence:
#
# PCOD8216887 Si02
#       4
#     4   8   8   8
#     4  10  24  44  74 100 136 184 244 280 344 426
#     4  10  24  43  73  99 136 179 248 281 337 413
#     4  11  25  45  65 101 137 176 220 293 354 409
#     4  11  25  42  70  94 139 178 226 281 354 406
#
# _framework density 21.265411
#
# number of rings (size 3 to 8) (size 9 to 14) (size 15 to 20)
#    0.857    0.571    0.000    4.286    8.000    3.429 
#    0.000    8.571    0.000    0.000    0.000    0.000 
#    0.000    0.000    0.000    0.000    0.000    0.000 
#
# Total GULP energy -346924.888406 kJ/mol
# GULP energy per Si atom -12390.174586 kJ/mol
# Density = 2.121701 g / cm^3
# Si number density = 21.265411 Si / 1000 Ang^3
#
#
#
# Elastic Constant Matrix: (Units=GPa)
#
#
# Indices 1 2 3 4 5 6 
#
# 1 108.6691 54.0229 42.8949 0.0000 0.0000 0.0000
# 2 54.0229 139.9485 61.2857 0.0000 0.0000 0.0000
# 3 42.8949 61.2857 163.8849 0.0000 0.0000 0.0000
# 4 0.0000 0.0000 0.0000 35.4062 0.0000 0.0000
# 5 0.0000 0.0000 0.0000 0.0000 40.9215 0.0000
# 6 0.0000 0.0000 0.0000 0.0000 0.0000 18.4916
#
#
#
# Elastic Compliance Matrix: (Units=1/GPa)
#
#
# Indices 1 2 3 4 5 6 
#
# 1 0.011749 -0.003813 -0.001649 0.000000 0.000000 0.000000
# 2 -0.003813 0.009782 -0.002660 0.000000 0.000000 0.000000
# 3 -0.001649 -0.002660 0.007528 0.000000 0.000000 0.000000
# 4 0.000000 0.000000 0.000000 0.028244 0.000000 0.000000
# 5 0.000000 0.000000 0.000000 0.000000 0.024437 0.000000
# 6 0.000000 0.000000 0.000000 0.000000 0.000000 0.054079
#
#
# Mechanical properties :
#
#
# Convention : Reuss Voigt Hill
#
# Bulk Modulus (GPa) = 78.03580 80.98995 79.51287
# Shear Modulus (GPa) = 31.98260 35.91713 33.94986
#
# Velocity S-wave (km/s) = 3.88232 4.11419 3.99994
# Velocity P-wave (km/s) = 7.54137 7.79338 7.66841
#
# Compressibility (1/GPa) = 0.01281463
#
# Stress axis : x y z
#
# Youngs Moduli (GPa) = 85.11477 102.22516 132.83262
#
# Poissons Ratio (x) = 0.38979 0.21907
# Poissons Ratio (y) = 0.32455 0.35335
# Poissons Ratio (z) = 0.14037 0.27193
#
# Static dielectric constant tensor:
#      x y z
#    x -50.463410 0.000000 0.000000 
#    y 0.000000 4.124120 0.000000 
#    z 0.000000 0.000000 3.817460 
# 
# 
# High freq. dielectric constant tensor:
#      x y z
#    x 1.831820 0.000000 0.000000 
#    y 0.000000 1.844270 0.000000 
#    z 0.000000 0.000000 1.843470 
# 
# From -- ./inp_files/25416.got.cif
#   From: 2010.06.25/outbox.cif.g09.slc.cpg/sg52_13_cif.got.tgz:25416.got - 2010.06.26 19:32:48.
