data_PCOD8216329
_publ_section_title
;
Structure prediction by ZEFSAII (Michael W. Deem and Ramdas Pophale) SiO2 
 PCOD8216329
Probable space group: P N N A
;
_chemical_formula_sum "Si O2"
_cell_formula_units_Z 40
_cell_length_a 14.767659
_cell_length_b 16.818515
_cell_length_c 8.266412
_cell_angle_alpha 90.000000
_cell_angle_beta 90.000000
_cell_angle_gamma 90.000000
_cell_volume 2053.129529
_symmetry_space_group_name_H-M "P N N A"
_symmetry_group_IT_number 52
_symmetry_cell_setting 'orthorhombic'
loop_
_space_group_symop_operation_xyz
x,y,z
1/2-x,-y,z
x,1/2-y,1/2-z
1/2-x,1/2+y,1/2-z
-x,-y,-z
1/2+x,y,-z
-x,1/2+y,1/2+z
1/2+x,1/2-y,1/2+z
loop_
_atom_site_type_symbol
_atom_site_label
_atom_site_fract_x
_atom_site_fract_y
_atom_site_fract_z
Si Si1 0.750000 0.500000 0.350517
Si Si2 0.835655 0.898341 0.905545
Si Si3 0.750000 0.500000 0.861412
Si Si4 0.473727 0.168887 0.833018
Si Si5 0.319486 0.271945 0.435599
Si Si6 0.834386 0.108429 0.395426
O O1 0.831686 0.529238 0.465871
O O2 0.769502 0.421442 0.247565
O O3 0.770715 0.824482 0.947888
O O4 0.939114 0.873004 0.905626
O O5 0.802608 0.932067 0.734548
O O6 0.829822 0.457846 0.964791
O O7 0.505409 0.250000 0.750000
O O8 0.433112 0.115677 0.686264
O O9 0.402810 0.181483 0.980211
O O10 0.344764 0.250000 0.250000
O O11 0.299422 0.192920 0.539307
#
# Coordination Sequence:
#
# PCOD8216329 Si02
#       6
#     4   8   4   8   8   8
#     4  10  22  40  62  94 122 168 196 254 324 356
#     4  11  22  41  66  91 123 166 209 248 314 368
#     4  10  22  38  64  94 124 170 196 252 320 362
#     4  10  23  40  62  93 119 161 216 254 297 368
#     4  11  21  42  64  85 126 166 206 257 303 361
#     4  10  21  41  62  88 129 161 203 255 305 363
#
# _framework density 19.482453
#
# number of rings (size 3 to 8) (size 9 to 14) (size 15 to 20)
#    0.000    1.600    4.000    0.600    0.000    1.600 
#    3.600    2.000    0.000    0.000    0.000    0.000 
#    0.000    0.000    0.000    0.000    0.000    0.000 
#
# Total GULP energy -495731.378289 kJ/mol
# GULP energy per Si atom -12393.284457 kJ/mol
# Density = 1.943811 g / cm^3
# Si number density = 19.482453 Si / 1000 Ang^3
#
#
#
# Elastic Constant Matrix: (Units=GPa)
#
#
# Indices 1 2 3 4 5 6 
#
# 1 122.8761 73.8284 57.8581 0.0000 0.0000 0.0000
# 2 73.8284 118.7680 66.2510 0.0000 0.0000 0.0000
# 3 57.8581 66.2510 127.0994 0.0000 0.0000 0.0000
# 4 0.0000 0.0000 0.0000 26.0730 0.0000 0.0000
# 5 0.0000 0.0000 0.0000 0.0000 12.4728 0.0000
# 6 0.0000 0.0000 0.0000 0.0000 0.0000 30.2224
#
#
#
# Elastic Compliance Matrix: (Units=1/GPa)
#
#
# Indices 1 2 3 4 5 6 
#
# 1 0.013532 -0.007015 -0.002503 0.000000 0.000000 0.000000
# 2 -0.007015 0.015509 -0.004890 0.000000 0.000000 0.000000
# 3 -0.002503 -0.004890 0.011557 0.000000 0.000000 0.000000
# 4 0.000000 0.000000 0.000000 0.038354 0.000000 0.000000
# 5 0.000000 0.000000 0.000000 0.000000 0.080175 0.000000
# 6 0.000000 0.000000 0.000000 0.000000 0.000000 0.033088
#
#
# Mechanical properties :
#
#
# Convention : Reuss Voigt Hill
#
# Bulk Modulus (GPa) = 84.89594 84.95762 84.92678
# Shear Modulus (GPa) = 22.22634 25.14069 23.68352
#
# Velocity S-wave (km/s) = 3.38129 3.59615 3.49038
# Velocity P-wave (km/s) = 7.67557 7.80673 7.74143
#
# Compressibility (1/GPa) = 0.01177913
#
# Stress axis : x y z
#
# Youngs Moduli (GPa) = 73.89828 64.48013 86.53134
#
# Poissons Ratio (x) = 0.45236 0.21661
# Poissons Ratio (y) = 0.51843 0.42317
# Poissons Ratio (z) = 0.18499 0.31533
#
# Static dielectric constant tensor:
#      x y z
#    x 3.205210 0.000000 0.000000 
#    y 0.000000 3.829810 0.000000 
#    z 0.000000 0.000000 3.908020 
# 
# 
# High freq. dielectric constant tensor:
#      x y z
#    x 1.725110 0.000000 0.000000 
#    y 0.000000 1.776130 0.000000 
#    z 0.000000 0.000000 1.778570 
# 
# From -- ./inp_files/8544.got.cif
#   From: 2010.06.25/outbox.cif.g09.slc.cpg/sg52_5_cif.got.tgz:8544.got - 2010.06.26 19:32:48.
