data_PCOD8216027
_publ_section_title
;
Structure prediction by ZEFSAII (Michael W. Deem and Ramdas Pophale) SiO2 
 PCOD8216027
Probable space group: P N N A
;
_chemical_formula_sum "Si O2"
_cell_formula_units_Z 40
_cell_length_a 11.985551
_cell_length_b 21.619216
_cell_length_c 7.309252
_cell_angle_alpha 90.000000
_cell_angle_beta 90.000000
_cell_angle_gamma 90.000000
_cell_volume 1893.960338
_symmetry_space_group_name_H-M "P N N A"
_symmetry_group_IT_number 52
_symmetry_cell_setting 'orthorhombic'
loop_
_space_group_symop_operation_xyz
x,y,z
1/2-x,-y,z
x,1/2-y,1/2-z
1/2-x,1/2+y,1/2-z
-x,-y,-z
1/2+x,y,-z
-x,1/2+y,1/2+z
1/2+x,1/2-y,1/2+z
loop_
_atom_site_type_symbol
_atom_site_label
_atom_site_fract_x
_atom_site_fract_y
_atom_site_fract_z
Si Si1 0.225438 0.203175 0.402314
Si Si2 0.103309 0.900779 0.310306
Si Si3 0.005836 0.139367 0.341719
Si Si4 0.651694 0.750000 0.250000
Si Si5 0.750000 0.500000 0.615807
Si Si6 0.442922 0.934579 0.988032
O O1 0.184314 0.250000 0.250000
O O2 0.319858 0.160229 0.308560
O O3 0.112142 0.166596 0.453556
O O4 0.269502 0.243242 0.573006
O O5 0.168800 0.962339 0.251992
O O6 0.059411 0.905594 0.518005
O O7 0.995477 0.893342 0.174733
O O8 0.049475 0.098350 0.180182
O O9 0.925409 0.189587 0.247404
O O10 0.688972 0.451471 0.477180
O O11 0.500000 0.000000 0.000000
#
# Coordination Sequence:
#
# PCOD8216027 Si02
#       6
#     8   8   8   4   4   8
#     4  11  22  42  67  93 130 165 206 267 321 384
#     4  10  23  42  64  92 125 168 211 265 317 375
#     4  11  22  43  66  95 128 165 213 266 321 393
#     4  10  24  42  66 100 122 166 216 262 332 384
#     4  10  20  42  64  92 130 164 214 262 316 378
#     4  10  22  41  62  90 127 167 214 258 314 377
#
# _framework density 21.119768000000001
#
# number of rings (size 3 to 8) (size 9 to 14) (size 15 to 20)
#    0.000    1.600    3.000    1.200    0.000    4.800 
#   21.600    2.000    0.000    0.000    0.000    0.000 
#    0.000    0.000    0.000    0.000    0.000    0.000 
#
# Total GULP energy -495592.789193 kJ/mol
# GULP energy per Si atom -12389.819730 kJ/mol
# Density = 2.107170 g / cm^3
# Si number density = 21.119768 Si / 1000 Ang^3
#
#
#
# Elastic Constant Matrix: (Units=GPa)
#
#
# Indices 1 2 3 4 5 6 
#
# 1 118.0764 42.3484 59.2277 0.0000 0.0000 0.0000
# 2 42.3484 62.0418 42.1905 0.0000 0.0000 0.0000
# 3 59.2277 42.1905 99.9565 0.0000 0.0000 0.0000
# 4 0.0000 0.0000 0.0000 30.7012 0.0000 0.0000
# 5 0.0000 0.0000 0.0000 0.0000 -102.0584 0.0000
# 6 0.0000 0.0000 0.0000 0.0000 0.0000 37.7224
#
#
#
# Elastic Compliance Matrix: (Units=1/GPa)
#
#
# Indices 1 2 3 4 5 6 
#
# 1 0.013127 -0.005149 -0.005605 0.000000 0.000000 0.000000
# 2 -0.005149 0.024627 -0.007344 0.000000 0.000000 0.000000
# 3 -0.005605 -0.007344 0.016425 0.000000 0.000000 0.000000
# 4 0.000000 0.000000 0.000000 0.032572 0.000000 0.000000
# 5 0.000000 0.000000 0.000000 0.000000 -0.009798 0.000000
# 6 0.000000 0.000000 0.000000 0.000000 0.000000 0.026509
#
#
# Mechanical properties :
#
#
# Convention : Reuss Voigt Hill
#
# Bulk Modulus (GPa) = 55.60543 63.06755 59.33649
# Shear Modulus (GPa) = 34.32837 2.36027 18.34432
#
# Velocity S-wave (km/s) = 4.03602 1.05830 2.95037
# Velocity P-wave (km/s) = 6.93578 5.60535 6.30575
#
# Compressibility (1/GPa) = 0.01798385
#
# Stress axis : x y z
#
# Youngs Moduli (GPa) = 76.17745 40.60657 60.88157
#
# Poissons Ratio (x) = 0.20907 0.34125
# Poissons Ratio (y) = 0.39221 0.44710
# Poissons Ratio (z) = 0.42699 0.29821
#
# Static dielectric constant tensor:
#      x y z
#    x 4.496060 0.000000 0.000000 
#    y 0.000000 3.780890 0.000000 
#    z 0.000000 0.000000 3.945420 
# 
# 
# High freq. dielectric constant tensor:
#      x y z
#    x 1.846150 0.000000 0.000000 
#    y 0.000000 1.827930 0.000000 
#    z 0.000000 0.000000 1.815540 
# 
# From -- ./inp_files/1406.got.cif
#   From: 2010.06.25/outbox.cif.g09.slc.cpg/sg52_1_cif.got.tgz:1406.got - 2010.06.26 19:32:48.
