data_PCOD8216091
_publ_section_title
;
Structure prediction by ZEFSAII (Michael W. Deem and Ramdas Pophale) SiO2 
 PCOD8216091
Probable space group: P N N A
;
_chemical_formula_sum "Si O2"
_cell_formula_units_Z 32
_cell_length_a 8.539556
_cell_length_b 8.163774
_cell_length_c 22.745949
_cell_angle_alpha 90.000000
_cell_angle_beta 90.000000
_cell_angle_gamma 90.000000
_cell_volume 1585.733954
_symmetry_space_group_name_H-M "P N N A"
_symmetry_group_IT_number 52
_symmetry_cell_setting 'orthorhombic'
loop_
_space_group_symop_operation_xyz
x,y,z
1/2-x,-y,z
x,1/2-y,1/2-z
1/2-x,1/2+y,1/2-z
-x,-y,-z
1/2+x,y,-z
-x,1/2+y,1/2+z
1/2+x,1/2-y,1/2+z
loop_
_atom_site_type_symbol
_atom_site_label
_atom_site_fract_x
_atom_site_fract_y
_atom_site_fract_z
Si Si1 0.052062 0.651092 0.830570
Si Si2 0.568862 0.026427 0.787770
Si Si3 0.424375 0.947120 0.560297
Si Si4 0.848769 0.661739 0.367680
O O1 0.994498 0.545309 0.886064
O O2 0.234326 0.705413 0.836581
O O3 0.941676 0.810402 0.827379
O O4 0.032226 0.545424 0.771503
O O5 0.750000 0.000000 0.772776
O O6 0.490784 0.877603 0.823419
O O7 0.426094 0.751132 0.575141
O O8 0.250000 0.000000 0.552525
O O9 0.500000 0.000000 0.500000
O O10 0.750000 0.500000 0.386217
#
# Coordination Sequence:
#
# PCOD8216091 Si02
#       4
#     8   8   8   8
#     4   9  21  38  55  82 117 152 190 229 290 362
#     4  10  21  36  58  90 118 146 190 245 292 335
#     4  10  22  39  58  81 110 149 195 238 286 346
#     4   9  20  39  60  83 114 154 192 233 292 364
#
# _framework density 20.179929999999999
#
# number of rings (size 3 to 8) (size 9 to 14) (size 15 to 20)
#    0.000    2.500    0.000    0.000    0.000   25.000 
#    0.000   12.500    0.000    0.000    0.000    0.000 
#    0.000    0.000    0.000    0.000    0.000    0.000 
#
# Total GULP energy -396611.800647 kJ/mol
# GULP energy per Si atom -12394.118770 kJ/mol
# Density = 2.013400 g / cm^3
# Si number density = 20.179930 Si / 1000 Ang^3
#
#
#
# Elastic Constant Matrix: (Units=GPa)
#
#
# Indices 1 2 3 4 5 6 
#
# 1 79.1771 43.0256 52.3530 0.0000 0.0000 0.0000
# 2 43.0256 111.5325 89.6509 0.0000 0.0000 0.0000
# 3 52.3530 89.6509 157.2676 0.0000 0.0000 0.0000
# 4 0.0000 0.0000 0.0000 23.4702 0.0000 0.0000
# 5 0.0000 0.0000 0.0000 0.0000 18.0650 0.0000
# 6 0.0000 0.0000 0.0000 0.0000 0.0000 19.3944
#
#
#
# Elastic Compliance Matrix: (Units=1/GPa)
#
#
# Indices 1 2 3 4 5 6 
#
# 1 0.016985 -0.003705 -0.003542 0.000000 0.000000 0.000000
# 2 -0.003705 0.017357 -0.008661 0.000000 0.000000 0.000000
# 3 -0.003542 -0.008661 0.012475 0.000000 0.000000 0.000000
# 4 0.000000 0.000000 0.000000 0.042607 0.000000 0.000000
# 5 0.000000 0.000000 0.000000 0.000000 0.055356 0.000000
# 6 0.000000 0.000000 0.000000 0.000000 0.000000 0.051561
#
#
# Mechanical properties :
#
#
# Convention : Reuss Voigt Hill
#
# Bulk Modulus (GPa) = 66.66318 79.78179 73.22249
# Shear Modulus (GPa) = 21.44461 23.04913 22.24687
#
# Velocity S-wave (km/s) = 3.26340 3.38328 3.32388
# Velocity P-wave (km/s) = 6.87792 7.40832 7.14804
#
# Compressibility (1/GPa) = 0.01500079
#
# Stress axis : x y z
#
# Youngs Moduli (GPa) = 58.87379 57.61290 80.16021
#
# Poissons Ratio (x) = 0.21347 0.28394
# Poissons Ratio (y) = 0.21814 0.69428
# Poissons Ratio (z) = 0.20854 0.49899
#
# Static dielectric constant tensor:
#      x y z
#    x 3.410790 0.000000 0.000000 
#    y 0.000000 3.873210 0.000000 
#    z 0.000000 0.000000 -0.120430 
# 
# 
# High freq. dielectric constant tensor:
#      x y z
#    x 1.775350 0.000000 0.000000 
#    y 0.000000 1.802540 0.000000 
#    z 0.000000 0.000000 1.769320 
# 
# From -- ./inp_files/35429.got.cif
#   From: 2010.06.25/outbox.cif.g09.slc.cpg/sg52_18_cif.got.tgz:35429.got - 2010.06.26 19:32:48.
