data_PCOD8216532
_publ_section_title
;
Structure prediction by ZEFSAII (Michael W. Deem and Ramdas Pophale) SiO2 
 PCOD8216532
Probable space group: P N N A
;
_chemical_formula_sum "Si O2"
_cell_formula_units_Z 48
_cell_length_a 19.304308
_cell_length_b 14.462536
_cell_length_c 8.762304
_cell_angle_alpha 90.000000
_cell_angle_beta 90.000000
_cell_angle_gamma 90.000000
_cell_volume 2446.341077
_symmetry_space_group_name_H-M "P N N A"
_symmetry_group_IT_number 52
_symmetry_cell_setting 'orthorhombic'
loop_
_space_group_symop_operation_xyz
x,y,z
1/2-x,-y,z
x,1/2-y,1/2-z
1/2-x,1/2+y,1/2-z
-x,-y,-z
1/2+x,y,-z
-x,1/2+y,1/2+z
1/2+x,1/2-y,1/2+z
loop_
_atom_site_type_symbol
_atom_site_label
_atom_site_fract_x
_atom_site_fract_y
_atom_site_fract_z
Si Si1 0.633626 0.158669 0.653528
Si Si2 0.770715 0.749868 0.068765
Si Si3 0.015380 0.591863 0.909097
Si Si4 0.817457 0.558914 0.567418
Si Si5 0.936779 0.446613 0.425850
Si Si6 0.388128 0.250716 0.932072
O O1 0.645055 0.250000 0.750000
O O2 0.684690 0.165720 0.506154
O O3 0.554318 0.151225 0.604567
O O4 0.651165 0.071880 0.762564
O O5 0.777020 0.750000 0.250000
O O6 0.691196 0.740524 0.013582
O O7 0.801689 0.845244 0.012483
O O8 0.049189 0.559674 0.752316
O O9 0.069662 0.660168 0.994894
O O10 0.000000 0.500000 0.000000
O O11 0.750000 0.500000 0.590476
O O12 0.868387 0.505690 0.454130
O O13 0.923884 0.343574 0.494860
O O14 0.000000 0.500000 0.500000
O O15 0.392691 0.250000 0.750000
#
# Coordination Sequence:
#
# PCOD8216532 Si02
#       6
#     8   8   8   8   8   8
#     4  10  22  41  63  86 125 163 203 257 320 374
#     4  10  22  40  62  92 124 167 209 264 324 380
#     4  11  24  40  61  93 125 162 208 264 317 373
#     4  11  22  39  63  93 125 166 219 260 315 392
#     4  11  21  40  65  89 122 168 210 253 315 384
#     4   9  20  40  62  86 125 164 207 255 313 378
#
# _framework density 19.621138999999999
#
# number of rings (size 3 to 8) (size 9 to 14) (size 15 to 20)
#    0.000    1.667    3.333    1.500    4.667    1.333 
#    0.000    1.667    0.000    0.000    0.000    0.000 
#    0.000    0.000    0.000    0.000    0.000    0.000 
#
# Total GULP energy -595101.551111 kJ/mol
# GULP energy per Si atom -12397.948981 kJ/mol
# Density = 1.957648 g / cm^3
# Si number density = 19.621139 Si / 1000 Ang^3
#
#
#
# Elastic Constant Matrix: (Units=GPa)
#
#
# Indices 1 2 3 4 5 6 
#
# 1 150.8684 63.4481 44.1330 0.0000 0.0000 0.0000
# 2 63.4481 114.0607 39.9956 0.0000 0.0000 0.0000
# 3 44.1330 39.9956 73.0466 0.0000 0.0000 0.0000
# 4 0.0000 0.0000 0.0000 24.2720 0.0000 0.0000
# 5 0.0000 0.0000 0.0000 0.0000 29.4801 0.0000
# 6 0.0000 0.0000 0.0000 0.0000 0.0000 35.0171
#
#
#
# Elastic Compliance Matrix: (Units=1/GPa)
#
#
# Indices 1 2 3 4 5 6 
#
# 1 0.009306 -0.003967 -0.003450 0.000000 0.000000 0.000000
# 2 -0.003967 0.012541 -0.004470 0.000000 0.000000 0.000000
# 3 -0.003450 -0.004470 0.018222 0.000000 0.000000 0.000000
# 4 0.000000 0.000000 0.000000 0.041200 0.000000 0.000000
# 5 0.000000 0.000000 0.000000 0.000000 0.033921 0.000000
# 6 0.000000 0.000000 0.000000 0.000000 0.000000 0.028558
#
#
# Mechanical properties :
#
#
# Convention : Reuss Voigt Hill
#
# Bulk Modulus (GPa) = 61.37007 70.34767 65.85887
# Shear Modulus (GPa) = 28.90942 30.44709 29.67826
#
# Velocity S-wave (km/s) = 3.84263 3.94350 3.89339
# Velocity P-wave (km/s) = 7.14375 7.52767 7.33822
#
# Compressibility (1/GPa) = 0.01629459
#
# Stress axis : x y z
#
# Youngs Moduli (GPa) = 107.45978 79.73688 54.87806
#
# Poissons Ratio (x) = 0.31628 0.18936
# Poissons Ratio (y) = 0.42625 0.24532
# Poissons Ratio (z) = 0.37079 0.35645
#
# Static dielectric constant tensor:
#      x y z
#    x 3.378780 0.000000 0.000000 
#    y 0.000000 3.922040 0.000000 
#    z 0.000000 0.000000 2.928170 
# 
# 
# High freq. dielectric constant tensor:
#      x y z
#    x 1.784470 0.000000 0.000000 
#    y 0.000000 1.772110 0.000000 
#    z 0.000000 0.000000 1.742370 
# 
# From -- ./inp_files/12031.got.cif
#   From: 2010.06.25/outbox.cif.g09.slc.cpg/sg52_7_cif.got.tgz:12031.got - 2010.06.26 19:32:48.
