data_PCOD8216575
_publ_section_title
;
Structure prediction by ZEFSAII (Michael W. Deem and Ramdas Pophale) SiO2 
 PCOD8216575
Probable space group: P N N A
;
_chemical_formula_sum "Si O2"
_cell_formula_units_Z 40
_cell_length_a 16.895184
_cell_length_b 8.644180
_cell_length_c 13.238914
_cell_angle_alpha 90.000000
_cell_angle_beta 90.000000
_cell_angle_gamma 90.000000
_cell_volume 1933.477349
_symmetry_space_group_name_H-M "P N N A"
_symmetry_group_IT_number 52
_symmetry_cell_setting 'orthorhombic'
loop_
_space_group_symop_operation_xyz
x,y,z
1/2-x,-y,z
x,1/2-y,1/2-z
1/2-x,1/2+y,1/2-z
-x,-y,-z
1/2+x,y,-z
-x,1/2+y,1/2+z
1/2+x,1/2-y,1/2+z
loop_
_atom_site_type_symbol
_atom_site_label
_atom_site_fract_x
_atom_site_fract_y
_atom_site_fract_z
Si Si1 0.584493 0.664077 0.650640
Si Si2 0.191370 0.271218 0.630803
Si Si3 0.987908 0.840550 0.849489
Si Si4 0.045631 0.344355 0.970473
Si Si5 0.844538 0.116432 0.053920
O O1 0.619189 0.750000 0.750000
O O2 0.551250 0.498995 0.684507
O O3 0.509403 0.756300 0.608679
O O4 0.654121 0.638443 0.568150
O O5 0.184411 0.250000 0.750000
O O6 0.132507 0.141789 0.582478
O O7 0.171871 0.442914 0.590612
O O8 0.283397 0.254728 0.597803
O O9 0.007284 0.750000 0.750000
O O10 0.068206 0.848826 0.911074
O O11 0.932105 0.749154 0.927613
O O12 0.000000 0.500000 0.000000
#
# Coordination Sequence:
#
# PCOD8216575 Si02
#       5
#     8   8   8   8   8
#     4  11  21  41  64  89 126 179 222 277 342 404
#     4  11  22  40  66  93 130 174 217 285 353 408
#     4  11  21  37  62  94 125 169 224 278 341 401
#     4  11  22  38  62  96 129 165 222 280 331 416
#     4  10  22  41  62  92 132 172 219 283 341 416
#
# _framework density 20.688113999999999
#
# number of rings (size 3 to 8) (size 9 to 14) (size 15 to 20)
#    0.000    1.200    4.000    3.600    2.800    0.000 
#    3.600    1.000    4.400    0.000    0.000    0.000 
#    0.000    0.000    0.000    0.000    0.000    0.000 
#
# Total GULP energy -495623.154545 kJ/mol
# GULP energy per Si atom -12390.578864 kJ/mol
# Density = 2.064103 g / cm^3
# Si number density = 20.688114 Si / 1000 Ang^3
#
#
#
# Elastic Constant Matrix: (Units=GPa)
#
#
# Indices 1 2 3 4 5 6 
#
# 1 78.4015 17.4699 23.0949 0.0000 0.0000 0.0000
# 2 17.4699 100.7780 40.6921 0.0000 0.0000 0.0000
# 3 23.0949 40.6921 144.6722 0.0000 0.0000 0.0000
# 4 0.0000 0.0000 0.0000 32.6862 0.0000 0.0000
# 5 0.0000 0.0000 0.0000 0.0000 10.4002 0.0000
# 6 0.0000 0.0000 0.0000 0.0000 0.0000 26.2904
#
#
#
# Elastic Compliance Matrix: (Units=1/GPa)
#
#
# Indices 1 2 3 4 5 6 
#
# 1 0.013630 -0.001674 -0.001705 0.000000 0.000000 0.000000
# 2 -0.001674 0.011400 -0.002939 0.000000 0.000000 0.000000
# 3 -0.001705 -0.002939 0.008011 0.000000 0.000000 0.000000
# 4 0.000000 0.000000 0.000000 0.030594 0.000000 0.000000
# 5 0.000000 0.000000 0.000000 0.000000 0.096152 0.000000
# 6 0.000000 0.000000 0.000000 0.000000 0.000000 0.038037
#
#
# Mechanical properties :
#
#
# Convention : Reuss Voigt Hill
#
# Bulk Modulus (GPa) = 49.00964 54.04061 51.52512
# Shear Modulus (GPa) = 23.01366 30.04833 26.53099
#
# Velocity S-wave (km/s) = 3.33890 3.81523 3.58498
# Velocity P-wave (km/s) = 6.21333 6.75176 6.48813
#
# Compressibility (1/GPa) = 0.02040415
#
# Stress axis : x y z
#
# Youngs Moduli (GPa) = 73.36657 87.72066 124.82771
#
# Poissons Ratio (x) = 0.14688 0.21282
# Poissons Ratio (y) = 0.12284 0.36689
# Poissons Ratio (z) = 0.12508 0.25782
#
# Static dielectric constant tensor:
#      x y z
#    x 3.779440 0.000000 0.000000 
#    y 0.000000 3.672770 0.000000 
#    z 0.000000 0.000000 5.230260 
# 
# 
# High freq. dielectric constant tensor:
#      x y z
#    x 1.794970 0.000000 0.000000 
#    y 0.000000 1.802210 0.000000 
#    z 0.000000 0.000000 1.825880 
# 
# From -- ./inp_files/20296.got.cif
#   From: 2010.06.25/outbox.cif.g09.slc.cpg/sg52_11_cif.got.tgz:20296.got - 2010.06.26 19:32:48.
