data_PCOD8216414
_publ_section_title
;
Structure prediction by ZEFSAII (Michael W. Deem and Ramdas Pophale) SiO2 
 PCOD8216414
Probable space group: P N N A
;
_chemical_formula_sum "Si O2"
_cell_formula_units_Z 48
_cell_length_a 9.756887
_cell_length_b 25.743926
_cell_length_c 8.200449
_cell_angle_alpha 90.000000
_cell_angle_beta 90.000000
_cell_angle_gamma 90.000000
_cell_volume 2059.793511
_symmetry_space_group_name_H-M "P N N A"
_symmetry_group_IT_number 52
_symmetry_cell_setting 'orthorhombic'
loop_
_space_group_symop_operation_xyz
x,y,z
1/2-x,-y,z
x,1/2-y,1/2-z
1/2-x,1/2+y,1/2-z
-x,-y,-z
1/2+x,y,-z
-x,1/2+y,1/2+z
1/2+x,1/2-y,1/2+z
loop_
_atom_site_type_symbol
_atom_site_label
_atom_site_fract_x
_atom_site_fract_y
_atom_site_fract_z
Si Si1 0.079943 0.926417 0.286163
Si Si2 0.750000 0.000000 0.899926
Si Si3 0.766105 0.328445 0.671204
Si Si4 0.693253 0.100070 0.105448
Si Si5 0.401966 0.817999 0.470433
Si Si6 0.341504 0.382603 0.908529
Si Si7 0.506909 0.750000 0.750000
O O1 0.195216 0.883940 0.246003
O O2 0.092589 0.929872 0.483906
O O3 0.939800 0.903046 0.218457
O O4 0.120983 0.981731 0.210045
O O5 0.805375 0.952312 0.003155
O O6 0.695189 0.345762 0.498857
O O7 0.662745 0.299435 0.797640
O O8 0.899565 0.292289 0.654596
O O9 0.829476 0.099545 0.220317
O O10 0.311100 0.865024 0.540305
O O11 0.557635 0.834025 0.432834
O O12 0.408668 0.773460 0.609087
#
# Coordination Sequence:
#
# PCOD8216414 Si02
#       7
#     8   4   8   8   8   8   4
#     4  10  21  45  65  96 138 181 235 295 351 433
#     4  10  24  40  66 110 132 178 242 300 366 428
#     4  10  25  41  69 102 138 186 233 296 348 421
#     4  11  23  44  72  98 145 187 234 298 366 426
#     4  11  23  46  69 101 143 184 237 286 347 430
#     4  11  22  46  70  97 139 192 231 287 358 424
#     4  12  22  46  72 106 142 182 244 288 354 422
#
# _framework density 23.303307
#
# number of rings (size 3 to 8) (size 9 to 14) (size 15 to 20)
#    0.000    1.333    5.000    0.500    4.667    3.333 
#    3.000    1.667    0.000    0.000    0.000    0.000 
#    0.000    0.000    0.000    0.000    0.000    0.000 
#
# Total GULP energy -594662.913968 kJ/mol
# GULP energy per Si atom -12388.810708 kJ/mol
# Density = 2.325027 g / cm^3
# Si number density = 23.303307 Si / 1000 Ang^3
#
#
#
# Elastic Constant Matrix: (Units=GPa)
#
#
# Indices 1 2 3 4 5 6 
#
# 1 91.3624 25.6999 58.3937 0.0000 0.0000 0.0000
# 2 25.6999 86.4040 54.9094 0.0000 0.0000 0.0000
# 3 58.3937 54.9094 172.5503 0.0000 0.0000 0.0000
# 4 0.0000 0.0000 0.0000 33.1403 0.0000 0.0000
# 5 0.0000 0.0000 0.0000 0.0000 33.0337 0.0000
# 6 0.0000 0.0000 0.0000 0.0000 0.0000 32.2861
#
#
#
# Elastic Compliance Matrix: (Units=1/GPa)
#
#
# Indices 1 2 3 4 5 6 
#
# 1 0.014111 -0.001457 -0.004312 0.000000 0.000000 0.000000
# 2 -0.001457 0.014658 -0.004171 0.000000 0.000000 0.000000
# 3 -0.004312 -0.004171 0.008582 0.000000 0.000000 0.000000
# 4 0.000000 0.000000 0.000000 0.030175 0.000000 0.000000
# 5 0.000000 0.000000 0.000000 0.000000 0.030272 0.000000
# 6 0.000000 0.000000 0.000000 0.000000 0.000000 0.030973
#
#
# Mechanical properties :
#
#
# Convention : Reuss Voigt Hill
#
# Bulk Modulus (GPa) = 57.23918 69.81364 63.52641
# Shear Modulus (GPa) = 32.36777 33.77962 33.07369
#
# Velocity S-wave (km/s) = 3.73094 3.81144 3.77141
# Velocity P-wave (km/s) = 6.57084 7.02803 6.80328
#
# Compressibility (1/GPa) = 0.01747055
#
# Stress axis : x y z
#
# Youngs Moduli (GPa) = 70.86610 68.22307 116.52316
#
# Poissons Ratio (x) = 0.09941 0.50242
# Poissons Ratio (y) = 0.10326 0.48606
# Poissons Ratio (z) = 0.30556 0.28458
#
# Static dielectric constant tensor:
#      x y z
#    x 4.066850 0.000000 0.000000 
#    y 0.000000 3.991990 0.000000 
#    z 0.000000 0.000000 5.009300 
# 
# 
# High freq. dielectric constant tensor:
#      x y z
#    x 1.917950 0.000000 0.000000 
#    y 0.000000 1.899630 0.000000 
#    z 0.000000 0.000000 1.936760 
# 
# From -- ./inp_files/7730.got.cif
#   From: 2010.06.25/outbox.cif.g09.slc.cpg/sg52_4_cif.got.tgz:7730.got - 2010.06.26 19:32:48.
