data_PCOD8216561
_publ_section_title
;
Structure prediction by ZEFSAII (Michael W. Deem and Ramdas Pophale) SiO2 
 PCOD8216561
Probable space group: P N N A
;
_chemical_formula_sum "Si O2"
_cell_formula_units_Z 52
_cell_length_a 15.194910
_cell_length_b 16.365282
_cell_length_c 9.318787
_cell_angle_alpha 90.000000
_cell_angle_beta 90.000000
_cell_angle_gamma 90.000000
_cell_volume 2317.293324
_symmetry_space_group_name_H-M "P N N A"
_symmetry_group_IT_number 52
_symmetry_cell_setting 'orthorhombic'
loop_
_space_group_symop_operation_xyz
x,y,z
1/2-x,-y,z
x,1/2-y,1/2-z
1/2-x,1/2+y,1/2-z
-x,-y,-z
1/2+x,y,-z
-x,1/2+y,1/2+z
1/2+x,1/2-y,1/2+z
loop_
_atom_site_type_symbol
_atom_site_label
_atom_site_fract_x
_atom_site_fract_y
_atom_site_fract_z
Si Si1 0.000503 0.382321 0.770326
Si Si2 0.317712 0.928929 0.783440
Si Si3 0.218721 0.322091 0.459273
Si Si4 0.423970 0.250000 0.750000
Si Si5 0.287946 0.169952 0.585588
Si Si6 0.301804 0.416939 0.208000
Si Si7 0.464898 0.744543 0.519111
O O1 0.905489 0.425543 0.752863
O O2 0.079267 0.449701 0.748620
O O3 0.014731 0.318045 0.644686
O O4 0.010042 0.335675 0.923840
O O5 0.298627 0.851656 0.678726
O O6 0.250000 0.000000 0.739452
O O7 0.299994 0.903831 0.948398
O O8 0.292087 0.263654 0.529289
O O9 0.253382 0.347324 0.302246
O O10 0.134634 0.262058 0.460450
O O11 0.368927 0.169971 0.697459
O O12 0.480286 0.282327 0.617913
O O13 0.297225 0.105672 0.458097
O O14 0.250000 0.500000 0.236565
#
# Coordination Sequence:
#
# PCOD8216561 Si02
#       7
#     8   8   8   4   8   8   8
#     4  10  22  45  69  99 146 187 229 290 364 418
#     4  11  23  44  69 101 141 188 227 288 363 422
#     4  11  23  44  72 100 136 183 244 289 341 422
#     4  12  22  38  66 108 126 168 236 290 344 408
#     4  12  23  42  68 101 136 178 234 288 345 417
#     4  12  27  46  67 103 145 191 228 292 363 419
#     4  10  22  40  69 108 133 176 240 300 342 412
#
# _framework density 22.439972000000001
#
# number of rings (size 3 to 8) (size 9 to 14) (size 15 to 20)
#    0.000    0.923    4.615    2.308    4.308    0.000 
#    2.769    3.846    0.000    0.000    0.000    0.000 
#    0.000    0.000    0.000    0.000    0.000    0.000 
#
# Total GULP energy -644517.231342 kJ/mol
# GULP energy per Si atom -12394.562141 kJ/mol
# Density = 2.238890 g / cm^3
# Si number density = 22.439972 Si / 1000 Ang^3
#
#
#
# Elastic Constant Matrix: (Units=GPa)
#
#
# Indices 1 2 3 4 5 6 
#
# 1 156.9562 43.2677 42.2013 0.0000 0.0000 0.0000
# 2 43.2677 68.8174 9.0970 0.0000 0.0000 0.0000
# 3 42.2013 9.0970 105.1822 0.0000 0.0000 0.0000
# 4 0.0000 0.0000 0.0000 26.7725 0.0000 0.0000
# 5 0.0000 0.0000 0.0000 0.0000 34.8652 0.0000
# 6 0.0000 0.0000 0.0000 0.0000 0.0000 31.3009
#
#
#
# Elastic Compliance Matrix: (Units=1/GPa)
#
#
# Indices 1 2 3 4 5 6 
#
# 1 0.008550 -0.004979 -0.003000 0.000000 0.000000 0.000000
# 2 -0.004979 0.017599 0.000476 0.000000 0.000000 0.000000
# 3 -0.003000 0.000476 0.010670 0.000000 0.000000 0.000000
# 4 0.000000 0.000000 0.000000 0.037352 0.000000 0.000000
# 5 0.000000 0.000000 0.000000 0.000000 0.028682 0.000000
# 6 0.000000 0.000000 0.000000 0.000000 0.000000 0.031948
#
#
# Mechanical properties :
#
#
# Convention : Reuss Voigt Hill
#
# Bulk Modulus (GPa) = 45.84620 57.78753 51.81686
# Shear Modulus (GPa) = 31.83116 34.34705 33.08910
#
# Velocity S-wave (km/s) = 3.77039 3.91656 3.84417
# Velocity P-wave (km/s) = 6.27928 6.80151 6.54560
#
# Compressibility (1/GPa) = 0.02181206
#
# Stress axis : x y z
#
# Youngs Moduli (GPa) = 116.95260 56.82132 93.72224
#
# Poissons Ratio (x) = 0.28294 0.28116
# Poissons Ratio (y) = 0.58235 -0.04459
# Poissons Ratio (z) = 0.35085 -0.02703
#
# Static dielectric constant tensor:
#      x y z
#    x 4.334810 0.000000 0.000000 
#    y 0.000000 3.557240 0.000000 
#    z 0.000000 0.000000 4.129430 
# 
# 
# High freq. dielectric constant tensor:
#      x y z
#    x 1.900270 0.000000 0.000000 
#    y 0.000000 1.843760 0.000000 
#    z 0.000000 0.000000 1.898180 
# 
# From -- ./inp_files/12384.got.cif
#   From: 2010.06.25/outbox.cif.g09.slc.cpg/sg52_7_cif.got.tgz:12384.got - 2010.06.26 19:32:48.
