data_PCOD8216331
_publ_section_title
;
Structure prediction by ZEFSAII (Michael W. Deem and Ramdas Pophale) SiO2 
 PCOD8216331
Probable space group: P N N A
;
_chemical_formula_sum "Si O2"
_cell_formula_units_Z 44
_cell_length_a 14.351524
_cell_length_b 17.971896
_cell_length_c 8.644640
_cell_angle_alpha 90.000000
_cell_angle_beta 90.000000
_cell_angle_gamma 90.000000
_cell_volume 2229.660964
_symmetry_space_group_name_H-M "P N N A"
_symmetry_group_IT_number 52
_symmetry_cell_setting 'orthorhombic'
loop_
_space_group_symop_operation_xyz
x,y,z
1/2-x,-y,z
x,1/2-y,1/2-z
1/2-x,1/2+y,1/2-z
-x,-y,-z
1/2+x,y,-z
-x,1/2+y,1/2+z
1/2+x,1/2-y,1/2+z
loop_
_atom_site_type_symbol
_atom_site_label
_atom_site_fract_x
_atom_site_fract_y
_atom_site_fract_z
Si Si1 0.750000 0.000000 0.356272
Si Si2 0.978228 0.179464 0.345470
Si Si3 0.586740 0.968236 0.803657
Si Si4 0.594540 0.947237 0.149561
Si Si5 0.646096 0.678209 0.858729
Si Si6 0.161929 0.100011 0.394291
O O1 0.813581 0.050002 0.250219
O O2 0.685511 0.054450 0.453543
O O3 0.010888 0.250000 0.250000
O O4 0.950771 0.129206 0.200223
O O5 0.895475 0.194418 0.469805
O O6 0.068170 0.145404 0.431527
O O7 0.593571 0.896098 0.696138
O O8 0.476948 0.985639 0.815471
O O9 0.646321 0.038689 0.741217
O O10 0.625837 0.946905 0.971685
O O11 0.628120 0.750000 0.750000
O O12 0.755943 0.658678 0.856846
#
# Coordination Sequence:
#
# PCOD8216331 Si02
#       6
#     4   8   8   8   8   8
#     4  12  20  36  64  98 122 156 210 268 294 374
#     4  11  23  43  61  88 130 165 204 257 309 371
#     4  10  21  41  62  91 123 162 202 256 309 367
#     4  10  22  37  65  93 122 160 209 254 305 363
#     4  12  23  39  62  89 122 163 203 248 311 371
#     4  11  22  40  65  91 122 163 208 252 313 365
#
# _framework density 19.733941999999999
#
# number of rings (size 3 to 8) (size 9 to 14) (size 15 to 20)
#    0.000    1.091    3.636    2.727    2.545    2.909 
#    0.000    0.909    0.000    0.000    0.000    0.000 
#    0.000    0.000    0.000    0.000    0.000    0.000 
#
# Total GULP energy -545452.433050 kJ/mol
# GULP energy per Si atom -12396.646206 kJ/mol
# Density = 1.968903 g / cm^3
# Si number density = 19.733942 Si / 1000 Ang^3
#
#
#
# Elastic Constant Matrix: (Units=GPa)
#
#
# Indices 1 2 3 4 5 6 
#
# 1 86.6411 32.2975 39.8155 0.0000 0.0000 0.0000
# 2 32.2975 101.4119 31.8228 0.0000 0.0000 0.0000
# 3 39.8155 31.8228 114.0306 0.0000 0.0000 0.0000
# 4 0.0000 0.0000 0.0000 43.1863 0.0000 0.0000
# 5 0.0000 0.0000 0.0000 0.0000 44.7061 0.0000
# 6 0.0000 0.0000 0.0000 0.0000 0.0000 24.8356
#
#
#
# Elastic Compliance Matrix: (Units=1/GPa)
#
#
# Indices 1 2 3 4 5 6 
#
# 1 0.014730 -0.003373 -0.004202 0.000000 0.000000 0.000000
# 2 -0.003373 0.011579 -0.002054 0.000000 0.000000 0.000000
# 3 -0.004202 -0.002054 0.010810 0.000000 0.000000 0.000000
# 4 0.000000 0.000000 0.000000 0.023155 0.000000 0.000000
# 5 0.000000 0.000000 0.000000 0.000000 0.022368 0.000000
# 6 0.000000 0.000000 0.000000 0.000000 0.000000 0.040265
#
#
# Mechanical properties :
#
#
# Convention : Reuss Voigt Hill
#
# Bulk Modulus (GPa) = 55.98363 56.66170 56.32266
# Shear Modulus (GPa) = 33.75660 35.75547 34.75604
#
# Velocity S-wave (km/s) = 4.14041 4.26123 4.20126
# Velocity P-wave (km/s) = 7.16157 7.27914 7.22060
#
# Compressibility (1/GPa) = 0.01786236
#
# Stress axis : x y z
#
# Youngs Moduli (GPa) = 67.88813 86.36037 92.50731
#
# Poissons Ratio (x) = 0.29126 0.38872
# Poissons Ratio (y) = 0.22896 0.19000
# Poissons Ratio (z) = 0.28527 0.17737
#
# Static dielectric constant tensor:
#      x y z
#    x 3.748360 0.000000 0.000000 
#    y 0.000000 3.595210 0.000000 
#    z 0.000000 0.000000 3.698280 
# 
# 
# High freq. dielectric constant tensor:
#      x y z
#    x 1.774280 0.000000 0.000000 
#    y 0.000000 1.768790 0.000000 
#    z 0.000000 0.000000 1.773300 
# 
# From -- ./inp_files/10368.got.cif
#   From: 2010.06.25/outbox.cif.g09.slc.cpg/sg52_6_cif.got.tgz:10368.got - 2010.06.26 19:32:48.
