data_PCOD8216898
_publ_section_title
;
Structure prediction by ZEFSAII (Michael W. Deem and Ramdas Pophale) SiO2 
 PCOD8216898
Probable space group: P N N A
;
_chemical_formula_sum "Si O2"
_cell_formula_units_Z 60
_cell_length_a 8.843878
_cell_length_b 11.829257
_cell_length_c 24.824085
_cell_angle_alpha 90.000000
_cell_angle_beta 90.000000
_cell_angle_gamma 90.000000
_cell_volume 2597.009031
_symmetry_space_group_name_H-M "P N N A"
_symmetry_group_IT_number 52
_symmetry_cell_setting 'orthorhombic'
loop_
_space_group_symop_operation_xyz
x,y,z
1/2-x,-y,z
x,1/2-y,1/2-z
1/2-x,1/2+y,1/2-z
-x,-y,-z
1/2+x,y,-z
-x,1/2+y,1/2+z
1/2+x,1/2-y,1/2+z
loop_
_atom_site_type_symbol
_atom_site_label
_atom_site_fract_x
_atom_site_fract_y
_atom_site_fract_z
Si Si1 0.411941 0.679749 0.878614
Si Si2 0.035404 0.121020 0.024278
Si Si3 0.585388 0.170586 0.858439
Si Si4 0.465904 0.877094 0.737391
Si Si5 0.256859 0.280936 0.978789
Si Si6 0.248654 0.879372 0.831870
Si Si7 0.250000 0.500000 0.283656
Si Si8 0.743343 0.870355 0.593201
O O1 0.409358 0.604454 0.824350
O O2 0.293565 0.644980 0.926071
O O3 0.369289 0.807327 0.864218
O O4 0.578945 0.683155 0.901623
O O5 0.087285 0.101147 0.085716
O O6 0.922602 0.229126 0.026969
O O7 0.164925 0.164693 0.984917
O O8 0.000000 0.000000 0.000000
O O9 0.418249 0.175925 0.831527
O O10 0.641695 0.299071 0.869314
O O11 0.700806 0.107261 0.819099
O O12 0.523639 0.750000 0.750000
O O13 0.315278 0.900662 0.772040
O O14 0.605699 0.961959 0.748028
O O15 0.222828 0.361602 0.029695
O O16 0.250000 0.000000 0.861913
O O17 0.750000 0.000000 0.612113
#
# Coordination Sequence:
#
# PCOD8216898 Si02
#       8
#     8   8   8   8   8   8   4   8
#     4  11  24  47  71 100 149 191 255 306 375 447
#     4  11  24  37  65 114 149 187 242 301 384 466
#     4  11  25  42  76 110 147 201 246 299 404 446
#     4  10  24  44  70 105 147 199 243 310 373 447
#     4  11  23  43  68 100 144 196 244 307 374 448
#     4  11  22  43  73 110 153 190 235 316 383 447
#     4  12  24  46  78 110 152 194 248 316 382 456
#     4  11  27  50  74 102 146 200 259 312 371 461
#
# _framework density 23.103501999999999
#
# number of rings (size 3 to 8) (size 9 to 14) (size 15 to 20)
#    0.000    1.067    4.000    2.000    6.533    0.533 
#    0.000   11.333    0.000    0.000    0.000    0.000 
#    0.000    0.000    0.000    0.000    0.000    0.000 
#
# Total GULP energy -743508.251342 kJ/mol
# GULP energy per Si atom -12391.804189 kJ/mol
# Density = 2.305092 g / cm^3
# Si number density = 23.103502 Si / 1000 Ang^3
#
#
#
# Elastic Constant Matrix: (Units=GPa)
#
#
# Indices 1 2 3 4 5 6 
#
# 1 101.5925 50.8514 45.5004 0.0000 0.0000 0.0000
# 2 50.8514 131.2745 41.3208 0.0000 0.0000 0.0000
# 3 45.5004 41.3208 134.7494 0.0000 0.0000 0.0000
# 4 0.0000 0.0000 0.0000 19.5359 0.0000 0.0000
# 5 0.0000 0.0000 0.0000 0.0000 34.8065 0.0000
# 6 0.0000 0.0000 0.0000 0.0000 0.0000 35.6844
#
#
#
# Elastic Compliance Matrix: (Units=1/GPa)
#
#
# Indices 1 2 3 4 5 6 
#
# 1 0.013378 -0.004162 -0.003241 0.000000 0.000000 0.000000
# 2 -0.004162 0.009726 -0.001577 0.000000 0.000000 0.000000
# 3 -0.003241 -0.001577 0.008999 0.000000 0.000000 0.000000
# 4 0.000000 0.000000 0.000000 0.051188 0.000000 0.000000
# 5 0.000000 0.000000 0.000000 0.000000 0.028730 0.000000
# 6 0.000000 0.000000 0.000000 0.000000 0.000000 0.028023
#
#
# Mechanical properties :
#
#
# Convention : Reuss Voigt Hill
#
# Bulk Modulus (GPa) = 70.70603 71.44016 71.07310
# Shear Modulus (GPa) = 30.72759 33.33495 32.03127
#
# Velocity S-wave (km/s) = 3.65087 3.80261 3.72751
# Velocity P-wave (km/s) = 6.96005 7.09004 7.02535
#
# Compressibility (1/GPa) = 0.01414307
#
# Stress axis : x y z
#
# Youngs Moduli (GPa) = 74.74897 102.81387 111.12081
#
# Poissons Ratio (x) = 0.42792 0.36015
# Poissons Ratio (y) = 0.31111 0.17526
# Poissons Ratio (z) = 0.24226 0.16216
#
# Static dielectric constant tensor:
#      x y z
#    x 4.252720 0.000000 0.000000 
#    y 0.000000 3.893170 0.000000 
#    z 0.000000 0.000000 4.488090 
# 
# 
# High freq. dielectric constant tensor:
#      x y z
#    x 1.919940 0.000000 0.000000 
#    y 0.000000 1.893580 0.000000 
#    z 0.000000 0.000000 1.922740 
# 
# From -- ./inp_files/42334.got.cif
#   From: 2010.06.25/outbox.cif.g09.slc.cpg/sg52_22_cif.got.tgz:42334.got - 2010.06.26 19:32:48.
