data_PCOD8216379
_publ_section_title
;
Structure prediction by ZEFSAII (Michael W. Deem and Ramdas Pophale) SiO2 
 PCOD8216379
Probable space group: P N N A
;
_chemical_formula_sum "Si O2"
_cell_formula_units_Z 28
_cell_length_a 30.046872
_cell_length_b 5.108438
_cell_length_c 8.588254
_cell_angle_alpha 90.000000
_cell_angle_beta 90.000000
_cell_angle_gamma 90.000000
_cell_volume 1318.233287
_symmetry_space_group_name_H-M "P N N A"
_symmetry_group_IT_number 52
_symmetry_cell_setting 'orthorhombic'
loop_
_space_group_symop_operation_xyz
x,y,z
1/2-x,-y,z
x,1/2-y,1/2-z
1/2-x,1/2+y,1/2-z
-x,-y,-z
1/2+x,y,-z
-x,1/2+y,1/2+z
1/2+x,1/2-y,1/2+z
loop_
_atom_site_type_symbol
_atom_site_label
_atom_site_fract_x
_atom_site_fract_y
_atom_site_fract_z
Si Si1 0.250000 0.500000 0.855096
Si Si2 0.968778 0.502705 0.352644
Si Si3 0.296063 0.658606 0.420133
Si Si4 0.132983 0.498668 0.646525
O O1 0.234643 0.750000 0.750000
O O2 0.290105 0.589238 0.967555
O O3 0.977863 0.250000 0.250000
O O4 0.917860 0.517481 0.410898
O O5 0.000000 0.500000 0.500000
O O6 0.981699 0.750000 0.250000
O O7 0.250000 0.500000 0.410422
O O8 0.311129 0.750000 0.250000
O O9 0.335582 0.485598 0.493900
O O10 0.146283 0.250000 0.750000
O O11 0.141613 0.750000 0.750000
#
# Coordination Sequence:
#
# PCOD8216379 Si02
#       4
#     4   8   8   8
#     4  12  26  42  66  90 118 172 218 260 318 386
#     4  10  21  42  68 100 131 166 213 264 321 389
#     4  12  27  43  62  94 131 166 217 275 324 367
#     4  10  25  42  66  95 127 171 221 260 314 397
#
# _framework density 21.240549000000001
#
# number of rings (size 3 to 8) (size 9 to 14) (size 15 to 20)
#    0.000    1.143    2.857    1.714    8.000    1.143 
#    0.000    1.429    0.000    0.000    0.000    0.000 
#    0.000    0.000    0.000    0.000    0.000    0.000 
#
# Total GULP energy -347202.907514 kJ/mol
# GULP energy per Si atom -12400.103840 kJ/mol
# Density = 2.119220 g / cm^3
# Si number density = 21.240549 Si / 1000 Ang^3
#
#
#
# Elastic Constant Matrix: (Units=GPa)
#
#
# Indices 1 2 3 4 5 6 
#
# 1 130.3140 34.0306 94.9280 0.0000 0.0000 0.0000
# 2 34.0306 149.6228 66.2975 0.0000 0.0000 0.0000
# 3 94.9280 66.2975 177.7263 0.0000 0.0000 0.0000
# 4 0.0000 0.0000 0.0000 11.5227 0.0000 0.0000
# 5 0.0000 0.0000 0.0000 0.0000 41.8909 0.0000
# 6 0.0000 0.0000 0.0000 0.0000 0.0000 51.5858
#
#
#
# Elastic Compliance Matrix: (Units=1/GPa)
#
#
# Indices 1 2 3 4 5 6 
#
# 1 0.012564 0.000139 -0.006762 0.000000 0.000000 0.000000
# 2 0.000139 0.008008 -0.003062 0.000000 0.000000 0.000000
# 3 -0.006762 -0.003062 0.010381 0.000000 0.000000 0.000000
# 4 0.000000 0.000000 0.000000 0.086785 0.000000 0.000000
# 5 0.000000 0.000000 0.000000 0.000000 0.023872 0.000000
# 6 0.000000 0.000000 0.000000 0.000000 0.000000 0.019385
#
#
# Mechanical properties :
#
#
# Convention : Reuss Voigt Hill
#
# Bulk Modulus (GPa) = 86.33647 94.24170 90.28908
# Shear Modulus (GPa) = 27.14065 38.49370 32.81717
#
# Velocity S-wave (km/s) = 3.57848 4.26170 3.93494
# Velocity P-wave (km/s) = 7.60324 8.28741 7.95269
#
# Compressibility (1/GPa) = 0.01158259
#
# Stress axis : x y z
#
# Youngs Moduli (GPa) = 79.59540 124.86783 96.33343
#
# Poissons Ratio (x) = -0.01734 0.65144
# Poissons Ratio (y) = -0.01105 0.29493
# Poissons Ratio (z) = 0.53825 0.38229
#
# Static dielectric constant tensor:
#      x y z
#    x 4.015560 0.000000 0.000000 
#    y 0.000000 4.238380 0.000000 
#    z 0.000000 0.000000 3.906710 
# 
# 
# High freq. dielectric constant tensor:
#      x y z
#    x 1.829910 0.000000 0.000000 
#    y 0.000000 1.852180 0.000000 
#    z 0.000000 0.000000 1.831430 
# 
# From -- ./inp_files/15138.got.cif
#   From: 2010.06.25/outbox.cif.g09.slc.cpg/sg52_8_cif.got.tgz:15138.got - 2010.06.26 19:32:48.
