data_PCOD8216721
_publ_section_title
;
Structure prediction by ZEFSAII (Michael W. Deem and Ramdas Pophale) SiO2 
 PCOD8216721
Probable space group: P N N A
;
_chemical_formula_sum "Si O2"
_cell_formula_units_Z 56
_cell_length_a 10.157020
_cell_length_b 20.187433
_cell_length_c 12.451412
_cell_angle_alpha 90.000000
_cell_angle_beta 90.000000
_cell_angle_gamma 90.000000
_cell_volume 2553.089323
_symmetry_space_group_name_H-M "P N N A"
_symmetry_group_IT_number 52
_symmetry_cell_setting 'orthorhombic'
loop_
_space_group_symop_operation_xyz
x,y,z
1/2-x,-y,z
x,1/2-y,1/2-z
1/2-x,1/2+y,1/2-z
-x,-y,-z
1/2+x,y,-z
-x,1/2+y,1/2+z
1/2+x,1/2-y,1/2+z
loop_
_atom_site_type_symbol
_atom_site_label
_atom_site_fract_x
_atom_site_fract_y
_atom_site_fract_z
Si Si1 0.676677 0.109866 0.885636
Si Si2 0.382279 0.805278 0.925151
Si Si3 0.544425 0.600819 0.710530
Si Si4 0.145796 0.632752 0.890651
Si Si5 0.750000 0.500000 0.461708
Si Si6 0.559154 0.953152 0.209493
Si Si7 0.192212 0.750000 0.750000
Si Si8 0.053265 0.159191 0.570799
O O1 0.800135 0.106543 0.806460
O O2 0.548041 0.104681 0.810714
O O3 0.681478 0.175853 0.959363
O O4 0.663142 0.046332 0.962979
O O5 0.475888 0.866604 0.893230
O O6 0.277650 0.795521 0.830051
O O7 0.463522 0.737970 0.942726
O O8 0.504430 0.524879 0.725824
O O9 0.503333 0.642032 0.813657
O O10 0.138737 0.567356 0.816580
O O11 0.108896 0.698622 0.821416
O O12 0.293084 0.638360 0.939876
O O13 0.036439 0.623279 0.982429
O O14 0.659587 0.547272 0.389584
#
# Coordination Sequence:
#
# PCOD8216721 Si02
#       8
#     8   8   8   8   4   8   4   8
#     4  12  25  38  70 111 142 181 233 303 364 427
#     4  11  22  45  69 102 141 189 237 289 365 432
#     4  12  23  45  70 101 145 187 232 300 358 424
#     4  11  26  47  71 102 138 192 239 296 352 433
#     4  12  20  42  66 102 146 178 226 286 372 420
#     4  12  25  43  69 105 143 182 240 293 364 433
#     4  10  22  48  66 102 142 182 236 288 362 430
#     4  11  27  48  71 102 141 194 247 286 359 424
#
# _framework density 21.93421
#
# number of rings (size 3 to 8) (size 9 to 14) (size 15 to 20)
#    0.000    0.571    5.714    3.000    8.000    0.571 
#    0.000    0.000    0.000    0.000    0.000    0.000 
#    0.000    0.000    0.000    0.000    0.000    0.000 
#
# Total GULP energy -694526.105647 kJ/mol
# GULP energy per Si atom -12402.251887 kJ/mol
# Density = 2.188429 g / cm^3
# Si number density = 21.934210 Si / 1000 Ang^3
#
#
#
# Elastic Constant Matrix: (Units=GPa)
#
#
# Indices 1 2 3 4 5 6 
#
# 1 121.6197 32.5810 48.9267 0.0000 0.0000 0.0000
# 2 32.5810 89.8274 35.3493 0.0000 0.0000 0.0000
# 3 48.9267 35.3493 72.9740 0.0000 0.0000 0.0000
# 4 0.0000 0.0000 0.0000 29.4090 0.0000 0.0000
# 5 0.0000 0.0000 0.0000 0.0000 40.3711 0.0000
# 6 0.0000 0.0000 0.0000 0.0000 0.0000 29.2135
#
#
#
# Elastic Compliance Matrix: (Units=1/GPa)
#
#
# Indices 1 2 3 4 5 6 
#
# 1 0.011398 -0.001392 -0.006968 0.000000 0.000000 0.000000
# 2 -0.001392 0.013924 -0.005812 0.000000 0.000000 0.000000
# 3 -0.006968 -0.005812 0.021190 0.000000 0.000000 0.000000
# 4 0.000000 0.000000 0.000000 0.034003 0.000000 0.000000
# 5 0.000000 0.000000 0.000000 0.000000 0.024770 0.000000
# 6 0.000000 0.000000 0.000000 0.000000 0.000000 0.034231
#
#
# Mechanical properties :
#
#
# Convention : Reuss Voigt Hill
#
# Bulk Modulus (GPa) = 55.03643 57.57056 56.30349
# Shear Modulus (GPa) = 28.74922 30.96966 29.85944
#
# Velocity S-wave (km/s) = 3.62429 3.76165 3.69361
# Velocity P-wave (km/s) = 6.53146 6.72091 6.62686
#
# Compressibility (1/GPa) = 0.01816978
#
# Stress axis : x y z
#
# Youngs Moduli (GPa) = 87.73117 71.81598 47.19101
#
# Poissons Ratio (x) = 0.09999 0.32882
# Poissons Ratio (y) = 0.12215 0.27426
# Poissons Ratio (z) = 0.61130 0.41737
#
# Static dielectric constant tensor:
#      x y z
#    x 3.890570 0.000000 0.000000 
#    y 0.000000 3.937210 0.000000 
#    z 0.000000 0.000000 3.953450 
# 
# 
# High freq. dielectric constant tensor:
#      x y z
#    x 1.858350 0.000000 0.000000 
#    y 0.000000 1.864260 0.000000 
#    z 0.000000 0.000000 1.861060 
# 
# From -- ./inp_files/18371.got.cif
#   From: 2010.06.25/outbox.cif.g09.slc.cpg/sg52_10_cif.got.tgz:18371.got - 2010.06.26 19:32:48.
