data_PCOD8216633
_publ_section_title
;
Structure prediction by ZEFSAII (Michael W. Deem and Ramdas Pophale) SiO2 
 PCOD8216633
Probable space group: P N N A
;
_chemical_formula_sum "Si O2"
_cell_formula_units_Z 28
_cell_length_a 16.256198
_cell_length_b 15.372964
_cell_length_c 4.992551
_cell_angle_alpha 90.000000
_cell_angle_beta 90.000000
_cell_angle_gamma 90.000000
_cell_volume 1247.668184
_symmetry_space_group_name_H-M "P N N A"
_symmetry_group_IT_number 52
_symmetry_cell_setting 'orthorhombic'
loop_
_space_group_symop_operation_xyz
x,y,z
1/2-x,-y,z
x,1/2-y,1/2-z
1/2-x,1/2+y,1/2-z
-x,-y,-z
1/2+x,y,-z
-x,1/2+y,1/2+z
1/2+x,1/2-y,1/2+z
loop_
_atom_site_type_symbol
_atom_site_label
_atom_site_fract_x
_atom_site_fract_y
_atom_site_fract_z
Si Si1 0.593373 0.905629 0.553822
Si Si2 0.070869 0.750000 0.750000
Si Si3 0.344343 0.997900 0.940443
Si Si4 0.448682 0.840209 0.867227
O O1 0.624998 0.808660 0.456483
O O2 0.599583 0.969219 0.302257
O O3 0.497820 0.893970 0.637673
O O4 0.647752 0.941859 0.797644
O O5 0.014767 0.680101 0.596179
O O6 0.250000 0.000000 0.850491
O O7 0.375547 0.899012 0.991097
O O8 0.411411 0.750000 0.750000
#
# Coordination Sequence:
#
# PCOD8216633 Si02
#       4
#     8   4   8   8
#     4  11  23  44  69  94 128 175 230 267 328 394
#     4  10  22  42  68 100 124 168 238 284 318 380
#     4  12  26  43  65 100 139 178 214 273 343 408
#     4  10  23  42  69  98 127 173 230 282 327 388
#
# _framework density 22.441863999999999
#
# number of rings (size 3 to 8) (size 9 to 14) (size 15 to 20)
#    0.000    1.143    2.857    2.571    8.000    0.000 
#    2.571    0.000    0.000    0.000    0.000    0.000 
#    0.000    0.000    0.000    0.000    0.000    0.000 
#
# Total GULP energy -346999.628109 kJ/mol
# GULP energy per Si atom -12392.843861 kJ/mol
# Density = 2.239079 g / cm^3
# Si number density = 22.441864 Si / 1000 Ang^3
#
#
#
# Elastic Constant Matrix: (Units=GPa)
#
#
# Indices 1 2 3 4 5 6 
#
# 1 54.9674 82.1067 18.1953 0.0000 0.0000 0.0000
# 2 82.1067 149.8743 67.0579 0.0000 0.0000 0.0000
# 3 18.1953 67.0579 134.5467 0.0000 0.0000 0.0000
# 4 0.0000 0.0000 0.0000 29.3790 0.0000 0.0000
# 5 0.0000 0.0000 0.0000 0.0000 -187.1261 0.0000
# 6 0.0000 0.0000 0.0000 0.0000 0.0000 19.8191
#
#
#
# Elastic Compliance Matrix: (Units=1/GPa)
#
#
# Indices 1 2 3 4 5 6 
#
# 1 0.149303 -0.093642 0.026480 0.000000 0.000000 0.000000
# 2 -0.093642 0.067319 -0.020888 0.000000 0.000000 0.000000
# 3 0.026480 -0.020888 0.014262 0.000000 0.000000 0.000000
# 4 0.000000 0.000000 0.000000 0.034038 0.000000 0.000000
# 5 0.000000 0.000000 0.000000 0.000000 -0.005344 0.000000
# 6 0.000000 0.000000 0.000000 0.000000 0.000000 0.050456
#
#
# Mechanical properties :
#
#
# Convention : Reuss Voigt Hill
#
# Bulk Modulus (GPa) = 18.25338 74.90089 46.57713
# Shear Modulus (GPa) = 9.91287 -16.11704 -3.10208
#
# Velocity S-wave (km/s) = 2.10398 -2.68277 -1.17698
# Velocity P-wave (km/s) = 3.74881 4.88381 4.35346
#
# Compressibility (1/GPa) = 0.05478438
#
# Stress axis : x y z
#
# Youngs Moduli (GPa) = 6.69778 14.85475 70.11699
#
# Poissons Ratio (x) = 1.39102 -1.85670
# Poissons Ratio (y) = 0.62719 1.46460
# Poissons Ratio (z) = -0.17736 0.31028
#
# Static dielectric constant tensor:
#      x y z
#    x 3.337190 0.000000 0.000000 
#    y 0.000000 4.385040 0.000000 
#    z 0.000000 0.000000 4.336810 
# 
# 
# High freq. dielectric constant tensor:
#      x y z
#    x 1.816540 0.000000 0.000000 
#    y 0.000000 1.908750 0.000000 
#    z 0.000000 0.000000 1.904340 
# 
# From -- ./inp_files/2909.got.cif
#   From: 2010.06.25/outbox.cif.g09.slc.cpg/sg52_2_cif.got.tgz:2909.got - 2010.06.26 19:32:48.
