data_PCOD8216085
_publ_section_title
;
Structure prediction by ZEFSAII (Michael W. Deem and Ramdas Pophale) SiO2 
 PCOD8216085
Probable space group: P N N A
;
_chemical_formula_sum "Si O2"
_cell_formula_units_Z 64
_cell_length_a 5.133321
_cell_length_b 18.559773
_cell_length_c 33.572646
_cell_angle_alpha 90.000000
_cell_angle_beta 90.000000
_cell_angle_gamma 90.000000
_cell_volume 3198.575851
_symmetry_space_group_name_H-M "P N N A"
_symmetry_group_IT_number 52
_symmetry_cell_setting 'orthorhombic'
loop_
_space_group_symop_operation_xyz
x,y,z
1/2-x,-y,z
x,1/2-y,1/2-z
1/2-x,1/2+y,1/2-z
-x,-y,-z
1/2+x,y,-z
-x,1/2+y,1/2+z
1/2+x,1/2-y,1/2+z
loop_
_atom_site_type_symbol
_atom_site_label
_atom_site_fract_x
_atom_site_fract_y
_atom_site_fract_z
Si Si1 0.486069 0.166652 0.905089
Si Si2 0.004767 0.453509 0.707562
Si Si3 0.993510 0.953922 0.299345
Si Si4 0.051526 0.828218 0.587350
Si Si5 0.279044 0.085089 0.978523
Si Si6 0.501091 0.532537 0.044695
Si Si7 0.981377 0.169260 0.855062
Si Si8 0.937803 0.331266 0.861190
O O1 0.500938 0.245708 0.925868
O O2 0.381100 0.107759 0.935621
O O3 0.769644 0.143421 0.888334
O O4 0.277711 0.167495 0.869792
O O5 0.750000 0.500000 0.700672
O O6 0.968454 0.379905 0.683671
O O7 0.250000 0.500000 0.691884
O O8 0.043683 0.431875 0.753412
O O9 0.001451 0.880960 0.323965
O O10 0.750000 0.000000 0.314598
O O11 0.250000 0.000000 0.306314
O O12 0.017081 0.880423 0.548482
O O13 0.339705 0.836377 0.605165
O O14 0.838401 0.853154 0.619687
O O15 0.250000 0.000000 0.979509
O O16 0.492946 0.115381 0.010391
O O17 0.750000 0.500000 0.067641
O O18 0.250000 0.500000 0.067115
O O19 0.500000 0.500000 0.000000
O O20 0.911798 0.250917 0.843366
#
# Coordination Sequence:
#
# PCOD8216085 Si02
#       8
#     8   8   8   8   8   8   8   8
#     4  10  21  38  57  84 111 145 187 227 279 340
#     4  10  21  37  56  83 118 149 185 234 280 332
#     4  10  21  36  55  83 114 147 193 233 276 338
#     4  10  21  37  55  80 111 142 186 236 277 331
#     4  10  21  38  57  82 111 139 178 226 273 331
#     4  10  21  37  53  76 108 140 179 231 277 330
#     4  10  21  37  58  82 116 146 188 232 277 339
#     4  10  21  36  57  82 110 149 189 232 279 330
#
# _framework density 20.008906
#
# number of rings (size 3 to 8) (size 9 to 14) (size 15 to 20)
#    0.000    2.000    0.000    3.000    0.000    5.000 
#    4.500    0.000    0.000    9.000    0.000    0.000 
#    0.000    0.000    0.000    0.000    0.000    0.000 
#
# Total GULP energy -793362.941231 kJ/mol
# GULP energy per Si atom -12396.295957 kJ/mol
# Density = 1.996336 g / cm^3
# Si number density = 20.008906 Si / 1000 Ang^3
#
#
#
# Elastic Constant Matrix: (Units=GPa)
#
#
# Indices 1 2 3 4 5 6 
#
# 1 131.0990 35.8136 15.3171 0.0000 0.0000 0.0000
# 2 35.8136 71.3728 49.2654 0.0000 0.0000 0.0000
# 3 15.3171 49.2654 65.2188 0.0000 0.0000 0.0000
# 4 0.0000 0.0000 0.0000 45.0176 0.0000 0.0000
# 5 0.0000 0.0000 0.0000 0.0000 30.0376 0.0000
# 6 0.0000 0.0000 0.0000 0.0000 0.0000 25.3675
#
#
#
# Elastic Compliance Matrix: (Units=1/GPa)
#
#
# Indices 1 2 3 4 5 6 
#
# 1 0.009067 -0.006435 0.002731 0.000000 0.000000 0.000000
# 2 -0.006435 0.033842 -0.024053 0.000000 0.000000 0.000000
# 3 0.002731 -0.024053 0.032861 0.000000 0.000000 0.000000
# 4 0.000000 0.000000 0.000000 0.022214 0.000000 0.000000
# 5 0.000000 0.000000 0.000000 0.000000 0.033292 0.000000
# 6 0.000000 0.000000 0.000000 0.000000 0.000000 0.039420
#
#
# Mechanical properties :
#
#
# Convention : Reuss Voigt Hill
#
# Bulk Modulus (GPa) = 49.36513 52.05363 50.70938
# Shear Modulus (GPa) = 21.46292 31.23752 26.35022
#
# Velocity S-wave (km/s) = 3.27871 3.95546 3.63288
# Velocity P-wave (km/s) = 6.24967 6.85074 6.55710
#
# Compressibility (1/GPa) = 0.02025721
#
# Stress axis : x y z
#
# Youngs Moduli (GPa) = 110.29551 29.54880 30.43150
#
# Poissons Ratio (x) = 0.19014 -0.08312
# Poissons Ratio (y) = 0.70973 0.73196
# Poissons Ratio (z) = -0.30126 0.71073
#
# Static dielectric constant tensor:
#      x y z
#    x 6.130090 0.000000 0.000000 
#    y 0.000000 3.631440 0.000000 
#    z 0.000000 0.000000 3.285740 
# 
# 
# High freq. dielectric constant tensor:
#      x y z
#    x 1.813900 0.000000 0.000000 
#    y 0.000000 1.779160 0.000000 
#    z 0.000000 0.000000 1.751530 
# 
# From -- ./inp_files/43901.got.cif
#   From: 2010.06.25/outbox.cif.g09.slc.cpg/sg52_22_cif.got.tgz:43901.got - 2010.06.26 19:32:48.
