data_PCOD8216435
_publ_section_title
;
Structure prediction by ZEFSAII (Michael W. Deem and Ramdas Pophale) SiO2 
 PCOD8216435
Probable space group: P N N A
;
_chemical_formula_sum "Si O2"
_cell_formula_units_Z 48
_cell_length_a 10.326837
_cell_length_b 15.000085
_cell_length_c 14.771075
_cell_angle_alpha 90.000000
_cell_angle_beta 90.000000
_cell_angle_gamma 90.000000
_cell_volume 2288.090223
_symmetry_space_group_name_H-M "P N N A"
_symmetry_group_IT_number 52
_symmetry_cell_setting 'orthorhombic'
loop_
_space_group_symop_operation_xyz
x,y,z
1/2-x,-y,z
x,1/2-y,1/2-z
1/2-x,1/2+y,1/2-z
-x,-y,-z
1/2+x,y,-z
-x,1/2+y,1/2+z
1/2+x,1/2-y,1/2+z
loop_
_atom_site_type_symbol
_atom_site_label
_atom_site_fract_x
_atom_site_fract_y
_atom_site_fract_z
Si Si1 0.976750 0.128061 0.596442
Si Si2 0.224992 0.604325 0.427713
Si Si3 0.118211 0.964883 0.582572
Si Si4 0.969963 0.803022 0.007751
Si Si5 0.472805 0.194100 0.666257
Si Si6 0.758568 0.894312 0.719346
O O1 0.961383 0.080452 0.498453
O O2 0.047492 0.222846 0.580953
O O3 0.850855 0.149227 0.655673
O O4 0.060984 0.048961 0.641209
O O5 0.250000 0.500000 0.436699
O O6 0.078516 0.626858 0.458071
O O7 0.330245 0.652274 0.492290
O O8 0.242588 0.635468 0.323553
O O9 0.134112 0.883722 0.653394
O O10 0.250000 0.000000 0.538942
O O11 0.023125 0.762951 0.915406
O O12 0.423682 0.250000 0.750000
O O13 0.609053 0.144603 0.681485
O O14 0.750000 0.000000 0.708258
#
# Coordination Sequence:
#
# PCOD8216435 Si02
#       6
#     8   8   8   8   8   8
#     4  10  22  35  64  98 134 163 211 266 332 401
#     4  11  25  45  70  92 131 175 230 272 325 396
#     4  10  22  37  60  95 136 169 200 264 338 392
#     4  11  24  40  65  98 128 172 218 276 330 393
#     4  11  22  40  65  91 131 169 218 265 327 392
#     4  11  21  41  69  95 125 170 223 268 321 394
#
# _framework density 20.978192
#
# number of rings (size 3 to 8) (size 9 to 14) (size 15 to 20)
#    0.000    1.333    3.333    2.000    9.333    0.000 
#    0.000    2.500    0.000    0.000    0.000    0.000 
#    0.000    0.000    0.000    0.000    0.000    0.000 
#
# Total GULP energy -594777.327360 kJ/mol
# GULP energy per Si atom -12391.194320 kJ/mol
# Density = 2.093045 g / cm^3
# Si number density = 20.978192 Si / 1000 Ang^3
#
#
#
# Elastic Constant Matrix: (Units=GPa)
#
#
# Indices 1 2 3 4 5 6 
#
# 1 56.0803 16.6946 9.6213 0.0000 0.0000 0.0000
# 2 16.6946 111.9769 28.5054 0.0000 0.0000 0.0000
# 3 9.6213 28.5054 67.5884 0.0000 0.0000 0.0000
# 4 0.0000 0.0000 0.0000 31.4194 0.0000 0.0000
# 5 0.0000 0.0000 0.0000 0.0000 31.9244 0.0000
# 6 0.0000 0.0000 0.0000 0.0000 0.0000 41.0164
#
#
#
# Elastic Compliance Matrix: (Units=1/GPa)
#
#
# Indices 1 2 3 4 5 6 
#
# 1 0.018828 -0.002380 -0.001676 0.000000 0.000000 0.000000
# 2 -0.002380 0.010305 -0.004007 0.000000 0.000000 0.000000
# 3 -0.001676 -0.004007 0.016724 0.000000 0.000000 0.000000
# 4 0.000000 0.000000 0.000000 0.031827 0.000000 0.000000
# 5 0.000000 0.000000 0.000000 0.000000 0.031324 0.000000
# 6 0.000000 0.000000 0.000000 0.000000 0.000000 0.024381
#
#
# Mechanical properties :
#
#
# Convention : Reuss Voigt Hill
#
# Bulk Modulus (GPa) = 33.63681 38.36534 36.00108
# Shear Modulus (GPa) = 31.36227 32.92699 32.14463
#
# Velocity S-wave (km/s) = 3.87071 3.96609 3.91869
# Velocity P-wave (km/s) = 6.00379 6.26906 6.13786
#
# Compressibility (1/GPa) = 0.02972933
#
# Stress axis : x y z
#
# Youngs Moduli (GPa) = 53.11307 97.03599 59.79360
#
# Poissons Ratio (x) = 0.23098 0.10023
# Poissons Ratio (y) = 0.12643 0.23962
# Poissons Ratio (z) = 0.08903 0.38887
#
# Static dielectric constant tensor:
#      x y z
#    x 3.602130 0.000000 0.000000 
#    y 0.000000 4.336060 0.000000 
#    z 0.000000 0.000000 3.807700 
# 
# 
# High freq. dielectric constant tensor:
#      x y z
#    x 1.803720 0.000000 0.000000 
#    y 0.000000 1.849630 0.000000 
#    z 0.000000 0.000000 1.802740 
# 
# From -- ./inp_files/26050.got.cif
#   From: 2010.06.25/outbox.cif.g09.slc.cpg/sg52_14_cif.got.tgz:26050.got - 2010.06.26 19:32:48.
