data_PCOD8216924
_publ_section_title
;
Structure prediction by ZEFSAII (Michael W. Deem and Ramdas Pophale) SiO2 
 PCOD8216924
Probable space group: P N N A
;
_chemical_formula_sum "Si O2"
_cell_formula_units_Z 48
_cell_length_a 13.764551
_cell_length_b 16.361923
_cell_length_c 9.020116
_cell_angle_alpha 90.000000
_cell_angle_beta 90.000000
_cell_angle_gamma 90.000000
_cell_volume 2031.461128
_symmetry_space_group_name_H-M "P N N A"
_symmetry_group_IT_number 52
_symmetry_cell_setting 'orthorhombic'
loop_
_space_group_symop_operation_xyz
x,y,z
1/2-x,-y,z
x,1/2-y,1/2-z
1/2-x,1/2+y,1/2-z
-x,-y,-z
1/2+x,y,-z
-x,1/2+y,1/2+z
1/2+x,1/2-y,1/2+z
loop_
_atom_site_type_symbol
_atom_site_label
_atom_site_fract_x
_atom_site_fract_y
_atom_site_fract_z
Si Si1 0.683086 0.910402 0.748870
Si Si2 0.266885 0.682466 0.500000
Si Si3 0.031262 0.592346 1.000000
Si Si4 0.317766 0.870085 0.500000
Si Si5 0.387311 0.525132 0.500000
Si Si6 0.316913 0.089597 0.748869
O O1 0.701501 0.834058 0.855952
O O2 0.591200 0.887552 0.647695
O O3 0.778405 0.920727 0.642617
O O4 0.663276 0.990138 0.851213
O O5 0.283864 0.777539 0.500000
O O6 0.363505 0.622703 0.500000
O O7 0.201502 0.665942 0.644049
O O8 0.091199 0.612449 0.852305
O O9 0.932645 0.642766 0.000000
O O10 0.000000 0.500000 0.000000
O O11 0.278405 0.920727 0.642616
O O12 0.500000 0.500000 0.500000
O O13 0.336724 0.490138 0.648787
#
# Coordination Sequence:
#
# PCOD8216924 Si02
#       6
#     8   8   8   8   8   8
#     4  10  24  47  72 103 140 188 240 286 358 427
#     4  11  25  48  70 101 148 188 238 305 358 412
#     4  11  26  42  78 106 141 185 241 292 359 433
#     4  11  26  48  70 105 147 191 236 299 368 420
#     4  11  25  45  78 105 138 193 246 295 350 429
#     4  10  24  47  72 103 140 188 240 286 358 427
#
# _framework density 23.628312999999999
#
# number of rings (size 3 to 8) (size 9 to 14) (size 15 to 20)
#    0.000    1.333    0.000    4.000   14.000    1.333 
#   18.000    0.000    0.000    0.000    0.000    0.000 
#    0.000    0.000    0.000    0.000    0.000    0.000 
#
# Total GULP energy -594936.542775 kJ/mol
# GULP energy per Si atom -12394.511308 kJ/mol
# Density = 2.357453 g / cm^3
# Si number density = 23.628313 Si / 1000 Ang^3
#
#
#
# Elastic Constant Matrix: (Units=GPa)
#
#
# Indices 1 2 3 4 5 6 
#
# 1 180.3229 24.4399 75.8314 0.0000 0.0000 0.0000
# 2 24.4399 100.1101 32.9852 0.0000 0.0000 0.0000
# 3 75.8314 32.9852 199.8583 0.0000 0.0000 0.0000
# 4 0.0000 0.0000 0.0000 40.3948 0.0000 0.0000
# 5 0.0000 0.0000 0.0000 0.0000 65.5456 0.0000
# 6 0.0000 0.0000 0.0000 0.0000 0.0000 35.6687
#
#
#
# Elastic Compliance Matrix: (Units=1/GPa)
#
#
# Indices 1 2 3 4 5 6 
#
# 1 0.006665 -0.000839 -0.002390 0.000000 0.000000 0.000000
# 2 -0.000839 0.010669 -0.001442 0.000000 0.000000 0.000000
# 3 -0.002390 -0.001442 0.006148 0.000000 0.000000 0.000000
# 4 0.000000 0.000000 0.000000 0.024756 0.000000 0.000000
# 5 0.000000 0.000000 0.000000 0.000000 0.015257 0.000000
# 6 0.000000 0.000000 0.000000 0.000000 0.000000 0.028036
#
#
# Mechanical properties :
#
#
# Convention : Reuss Voigt Hill
#
# Bulk Modulus (GPa) = 70.73024 82.97825 76.85425
# Shear Modulus (GPa) = 47.35439 51.45749 49.40594
#
# Velocity S-wave (km/s) = 4.48162 4.67174 4.57767
# Velocity P-wave (km/s) = 7.53521 8.01839 7.78055
#
# Compressibility (1/GPa) = 0.01413822
#
# Stress axis : x y z
#
# Youngs Moduli (GPa) = 150.04850 93.72791 162.64203
#
# Poissons Ratio (x) = 0.07868 0.38874
# Poissons Ratio (y) = 0.12596 0.23459
# Poissons Ratio (z) = 0.35864 0.13519
#
# Static dielectric constant tensor:
#      x y z
#    x 3.909780 0.000000 0.000000 
#    y 0.000000 3.842450 0.000000 
#    z 0.000000 0.000000 4.830650 
# 
# 
# High freq. dielectric constant tensor:
#      x y z
#    x 1.938250 0.000000 0.000000 
#    y 0.000000 1.922060 0.000000 
#    z 0.000000 0.000000 1.970980 
# 
# From -- ./inp_files/10480.got.cif
#   From: 2010.06.25/outbox.cif.g09.slc.cpg/sg52_6_cif.got.tgz:10480.got - 2010.06.26 19:32:48.
