data_PCOD8216129
_publ_section_title
;
Structure prediction by ZEFSAII (Michael W. Deem and Ramdas Pophale) SiO2 
 PCOD8216129
Probable space group: P N N A
;
_chemical_formula_sum "Si O2"
_cell_formula_units_Z 40
_cell_length_a 9.613197
_cell_length_b 14.479227
_cell_length_c 14.065741
_cell_angle_alpha 90.000000
_cell_angle_beta 90.000000
_cell_angle_gamma 90.000000
_cell_volume 1957.833861
_symmetry_space_group_name_H-M "P N N A"
_symmetry_group_IT_number 52
_symmetry_cell_setting 'orthorhombic'
loop_
_space_group_symop_operation_xyz
x,y,z
1/2-x,-y,z
x,1/2-y,1/2-z
1/2-x,1/2+y,1/2-z
-x,-y,-z
1/2+x,y,-z
-x,1/2+y,1/2+z
1/2+x,1/2-y,1/2+z
loop_
_atom_site_type_symbol
_atom_site_label
_atom_site_fract_x
_atom_site_fract_y
_atom_site_fract_z
Si Si1 0.042328 0.906312 0.849678
Si Si2 0.762404 0.104132 0.321526
Si Si3 0.256366 0.226958 0.952991
Si Si4 0.047447 0.116012 0.838055
Si Si5 0.257056 0.684406 0.337189
O O1 0.103809 0.883981 0.745865
O O2 0.117463 0.842430 0.927824
O O3 0.877704 0.891273 0.847808
O O4 0.073051 0.012443 0.876340
O O5 0.781837 0.172240 0.409497
O O6 0.625651 0.131905 0.261860
O O7 0.750000 0.000000 0.361205
O O8 0.110056 0.184903 0.916789
O O9 0.251939 0.242732 0.065643
O O10 0.886628 0.132656 0.817299
O O11 0.295093 0.750000 0.250000
#
# Coordination Sequence:
#
# PCOD8216129 Si02
#       5
#     8   8   8   8   8
#     4  10  21  37  60  87 112 142 183 233 284 330
#     4   9  19  39  63  83 107 144 190 231 270 330
#     4  11  21  37  61  82 110 150 189 227 271 333
#     4  10  21  37  60  87 112 142 183 233 284 330
#     4  12  24  36  53  81 120 154 183 226 279 327
#
# _framework density 20.430743
#
# number of rings (size 3 to 8) (size 9 to 14) (size 15 to 20)
#    0.000    1.600    0.000    8.400    0.000    4.800 
#    0.000    2.000    0.000    9.600    0.000    0.000 
#    0.000    0.000    0.000    0.000    0.000    0.000 
#
# Total GULP energy -496172.308249 kJ/mol
# GULP energy per Si atom -12404.307706 kJ/mol
# Density = 2.038424 g / cm^3
# Si number density = 20.430743 Si / 1000 Ang^3
#
#
#
# Elastic Constant Matrix: (Units=GPa)
#
#
# Indices 1 2 3 4 5 6 
#
# 1 108.5737 -2.8831 -6.9872 0.0000 0.0000 0.0000
# 2 -2.8831 85.1162 42.6560 0.0000 0.0000 0.0000
# 3 -6.9872 42.6560 106.0218 0.0000 0.0000 0.0000
# 4 0.0000 0.0000 0.0000 14.2685 0.0000 0.0000
# 5 0.0000 0.0000 0.0000 0.0000 10.5965 0.0000
# 6 0.0000 0.0000 0.0000 0.0000 0.0000 30.4534
#
#
#
# Elastic Compliance Matrix: (Units=1/GPa)
#
#
# Indices 1 2 3 4 5 6 
#
# 1 0.009250 0.000010 0.000606 0.000000 0.000000 0.000000
# 2 0.000010 0.014716 -0.005920 0.000000 0.000000 0.000000
# 3 0.000606 -0.005920 0.011854 0.000000 0.000000 0.000000
# 4 0.000000 0.000000 0.000000 0.070084 0.000000 0.000000
# 5 0.000000 0.000000 0.000000 0.000000 0.094370 0.000000
# 6 0.000000 0.000000 0.000000 0.000000 0.000000 0.032837
#
#
# Mechanical properties :
#
#
# Convention : Reuss Voigt Hill
#
# Bulk Modulus (GPa) = 39.66684 40.58700 40.12692
# Shear Modulus (GPa) = 19.83155 28.85875 24.34515
#
# Velocity S-wave (km/s) = 3.11894 3.76242 3.45569
# Velocity P-wave (km/s) = 5.69454 6.22762 5.96704
#
# Compressibility (1/GPa) = 0.02520997
#
# Stress axis : x y z
#
# Youngs Moduli (GPa) = 108.11318 67.95425 84.36156
#
# Poissons Ratio (x) = -0.00067 -0.05109
# Poissons Ratio (y) = -0.00106 0.49942
# Poissons Ratio (z) = -0.06548 0.40229
#
# Static dielectric constant tensor:
#      x y z
#    x 3.885200 0.000000 0.000000 
#    y 0.000000 3.655690 0.000000 
#    z 0.000000 0.000000 3.493900 
# 
# 
# High freq. dielectric constant tensor:
#      x y z
#    x 1.811500 0.000000 0.000000 
#    y 0.000000 1.795140 0.000000 
#    z 0.000000 0.000000 1.780250 
# 
# From -- ./inp_files/24427.got.cif
#   From: 2010.06.25/outbox.cif.g09.slc.cpg/sg52_13_cif.got.tgz:24427.got - 2010.06.26 19:32:48.
