data_PCOD8216199
_publ_section_title
;
Structure prediction by ZEFSAII (Michael W. Deem and Ramdas Pophale) SiO2 
 PCOD8216199
Probable space group: P N N A
;
_chemical_formula_sum "Si O2"
_cell_formula_units_Z 56
_cell_length_a 5.551994
_cell_length_b 15.052953
_cell_length_c 30.865195
_cell_angle_alpha 90.000000
_cell_angle_beta 90.000000
_cell_angle_gamma 90.000000
_cell_volume 2579.524867
_symmetry_space_group_name_H-M "P N N A"
_symmetry_group_IT_number 52
_symmetry_cell_setting 'orthorhombic'
loop_
_space_group_symop_operation_xyz
x,y,z
1/2-x,-y,z
x,1/2-y,1/2-z
1/2-x,1/2+y,1/2-z
-x,-y,-z
1/2+x,y,-z
-x,1/2+y,1/2+z
1/2+x,1/2-y,1/2+z
loop_
_atom_site_type_symbol
_atom_site_label
_atom_site_fract_x
_atom_site_fract_y
_atom_site_fract_z
Si Si1 0.232324 0.598095 0.710135
Si Si2 0.269612 0.895297 0.523685
Si Si3 0.574039 0.250000 0.750000
Si Si4 0.506235 0.376870 0.620587
Si Si5 0.250000 0.000000 0.055351
Si Si6 0.612434 0.781759 0.825311
Si Si7 0.641282 0.266145 0.095721
Si Si8 0.593465 0.820779 0.977506
O O1 0.250000 0.500000 0.731485
O O2 0.135136 0.584467 0.661594
O O3 0.486907 0.647346 0.706599
O O4 0.072954 0.660678 0.740718
O O5 0.525707 0.864026 0.501541
O O6 0.271504 0.856557 0.572618
O O7 0.250000 0.000000 0.528272
O O8 0.722777 0.276200 0.793308
O O9 0.551464 0.453607 0.585716
O O10 0.752350 0.337161 0.638301
O O11 0.360276 0.302836 0.594361
O O12 0.110295 0.927920 0.025728
O O13 0.432488 0.718367 0.853430
O O14 0.412988 0.223066 0.070050
O O15 0.336605 0.787800 0.998358
#
# Coordination Sequence:
#
# PCOD8216199 Si02
#       8
#     8   8   4   8   4   8   8   8
#     4  10  21  38  66  96 131 172 219 274 333 404
#     4  10  23  43  70 101 133 173 233 295 348 409
#     4  10  22  40  66  96 138 162 216 278 338 418
#     4  10  22  36  59  94 126 174 224 264 317 394
#     4  12  22  40  58  86 136 180 228 270 318 384
#     4  10  21  41  64  96 127 169 212 271 330 409
#     4  11  23  39  65  92 130 173 224 274 339 404
#     4  12  26  40  55  85 134 184 224 273 324 383
#
# _framework density 21.709425
#
# number of rings (size 3 to 8) (size 9 to 14) (size 15 to 20)
#    0.000    1.429    1.429    3.429    4.000    2.857 
#    0.000    0.000    0.000   20.571    0.000    0.000 
#    0.000    0.000    0.000    0.000    0.000    0.000 
#
# Total GULP energy -694058.670658 kJ/mol
# GULP energy per Si atom -12393.904833 kJ/mol
# Density = 2.166001 g / cm^3
# Si number density = 21.709425 Si / 1000 Ang^3
#
#
#
# Elastic Constant Matrix: (Units=GPa)
#
#
# Indices 1 2 3 4 5 6 
#
# 1 127.1045 53.8982 50.0673 0.0000 0.0000 0.0000
# 2 53.8982 72.2017 48.5545 0.0000 0.0000 0.0000
# 3 50.0673 48.5545 82.5073 0.0000 0.0000 0.0000
# 4 0.0000 0.0000 0.0000 35.7133 0.0000 0.0000
# 5 0.0000 0.0000 0.0000 0.0000 38.6404 0.0000
# 6 0.0000 0.0000 0.0000 0.0000 0.0000 24.5166
#
#
#
# Elastic Compliance Matrix: (Units=1/GPa)
#
#
# Indices 1 2 3 4 5 6 
#
# 1 0.012043 -0.006745 -0.003339 0.000000 0.000000 0.000000
# 2 -0.006745 0.026698 -0.011619 0.000000 0.000000 0.000000
# 3 -0.003339 -0.011619 0.020984 0.000000 0.000000 0.000000
# 4 0.000000 0.000000 0.000000 0.028001 0.000000 0.000000
# 5 0.000000 0.000000 0.000000 0.000000 0.025880 0.000000
# 6 0.000000 0.000000 0.000000 0.000000 0.000000 0.040789
#
#
# Mechanical properties :
#
#
# Convention : Reuss Voigt Hill
#
# Bulk Modulus (GPa) = 61.27275 65.20593 63.23934
# Shear Modulus (GPa) = 24.60166 28.39364 26.49765
#
# Velocity S-wave (km/s) = 3.36999 3.62041 3.49744
# Velocity P-wave (km/s) = 6.58997 6.89764 6.74556
#
# Compressibility (1/GPa) = 0.01632047
#
# Stress axis : x y z
#
# Youngs Moduli (GPa) = 83.03792 37.45543 47.65609
#
# Poissons Ratio (x) = 0.25262 0.15911
# Poissons Ratio (y) = 0.56006 0.55371
# Poissons Ratio (z) = 0.27724 0.43519
#
# Static dielectric constant tensor:
#      x y z
#    x 4.148250 0.000000 0.000000 
#    y 0.000000 3.760600 0.000000 
#    z 0.000000 0.000000 4.011460 
# 
# 
# High freq. dielectric constant tensor:
#      x y z
#    x 1.869790 0.000000 0.000000 
#    y 0.000000 1.834690 0.000000 
#    z 0.000000 0.000000 1.849470 
# 
# From -- ./inp_files/43822.got.cif
#   From: 2010.06.25/outbox.cif.g09.slc.cpg/sg52_22_cif.got.tgz:43822.got - 2010.06.26 19:32:48.
