data_PCOD8216302
_publ_section_title
;
Structure prediction by ZEFSAII (Michael W. Deem and Ramdas Pophale) SiO2 
 PCOD8216302
Probable space group: P N N A
;
_chemical_formula_sum "Si O2"
_cell_formula_units_Z 64
_cell_length_a 8.392804
_cell_length_b 24.576792
_cell_length_c 15.167954
_cell_angle_alpha 90.000000
_cell_angle_beta 90.000000
_cell_angle_gamma 90.000000
_cell_volume 3128.666542
_symmetry_space_group_name_H-M "P N N A"
_symmetry_group_IT_number 52
_symmetry_cell_setting 'orthorhombic'
loop_
_space_group_symop_operation_xyz
x,y,z
1/2-x,-y,z
x,1/2-y,1/2-z
1/2-x,1/2+y,1/2-z
-x,-y,-z
1/2+x,y,-z
-x,1/2+y,1/2+z
1/2+x,1/2-y,1/2+z
loop_
_atom_site_type_symbol
_atom_site_label
_atom_site_fract_x
_atom_site_fract_y
_atom_site_fract_z
Si Si1 0.056443 0.119464 0.509287
Si Si2 0.176738 0.557019 0.898124
Si Si3 0.657943 0.366319 0.431588
Si Si4 0.290067 0.316772 0.096848
Si Si5 0.666259 0.804696 0.932908
Si Si6 0.391326 0.091856 0.791811
Si Si7 0.615960 0.189945 0.769353
Si Si8 0.397233 0.536667 0.436455
O O1 0.197632 0.102482 0.573774
O O2 0.121044 0.169997 0.450588
O O3 0.991564 0.070553 0.446424
O O4 0.914783 0.136819 0.573419
O O5 0.250000 0.500000 0.929024
O O6 0.154905 0.556793 0.793085
O O7 0.777144 0.319972 0.468404
O O8 0.488531 0.339987 0.407481
O O9 0.730339 0.392963 0.344001
O O10 0.654575 0.410411 0.509647
O O11 0.367049 0.259494 0.067948
O O12 0.260772 0.319305 0.201260
O O13 0.810984 0.816916 0.866326
O O14 0.475464 0.146816 0.758394
O O15 0.505709 0.054332 0.850506
O O16 0.543939 0.250000 0.750000
O O17 0.250000 0.500000 0.403439
O O18 0.500000 0.500000 0.500000
#
# Coordination Sequence:
#
# PCOD8216302 Si02
#       8
#     8   8   8   8   8   8   8   8
#     4  10  22  44  69  89 127 161 212 279 333 406
#     4  11  25  45  68  95 124 167 219 277 339 390
#     4  12  23  40  63  94 132 175 221 266 318 397
#     4  10  21  40  65  95 124 167 216 265 336 394
#     4  11  21  39  64  92 130 173 213 260 325 397
#     4  12  25  44  64  98 134 170 226 273 331 398
#     4  10  22  42  62  91 132 169 213 273 329 394
#     4  12  24  43  64  92 133 177 221 268 322 381
#
# _framework density 20.455998999999998
#
# number of rings (size 3 to 8) (size 9 to 14) (size 15 to 20)
#    0.000    1.000    5.000    1.125    3.500    1.000 
#    4.500    0.625    0.000    0.000    0.000    0.000 
#    0.000    0.000    0.000    0.000    0.000    0.000 
#
# Total GULP energy -793759.268235 kJ/mol
# GULP energy per Si atom -12402.488566 kJ/mol
# Density = 2.040944 g / cm^3
# Si number density = 20.455999 Si / 1000 Ang^3
#
#
#
# Elastic Constant Matrix: (Units=GPa)
#
#
# Indices 1 2 3 4 5 6 
#
# 1 81.1400 29.0931 14.1259 0.0000 0.0000 0.0000
# 2 29.0931 94.5138 23.8860 0.0000 0.0000 0.0000
# 3 14.1259 23.8860 82.4603 0.0000 0.0000 0.0000
# 4 0.0000 0.0000 0.0000 31.8389 0.0000 0.0000
# 5 0.0000 0.0000 0.0000 0.0000 30.9040 0.0000
# 6 0.0000 0.0000 0.0000 0.0000 0.0000 39.7229
#
#
#
# Elastic Compliance Matrix: (Units=1/GPa)
#
#
# Indices 1 2 3 4 5 6 
#
# 1 0.013970 -0.003987 -0.001238 0.000000 0.000000 0.000000
# 2 -0.003987 0.012554 -0.002954 0.000000 0.000000 0.000000
# 3 -0.001238 -0.002954 0.013195 0.000000 0.000000 0.000000
# 4 0.000000 0.000000 0.000000 0.031408 0.000000 0.000000
# 5 0.000000 0.000000 0.000000 0.000000 0.032358 0.000000
# 6 0.000000 0.000000 0.000000 0.000000 0.000000 0.025174
#
#
# Mechanical properties :
#
#
# Convention : Reuss Voigt Hill
#
# Bulk Modulus (GPa) = 42.80668 43.59156 43.19912
# Shear Modulus (GPa) = 32.72169 33.22709 32.97439
#
# Velocity S-wave (km/s) = 4.00386 4.03466 4.01929
# Velocity P-wave (km/s) = 6.50739 6.56207 6.53479
#
# Compressibility (1/GPa) = 0.02336084
#
# Stress axis : x y z
#
# Youngs Moduli (GPa) = 71.58425 79.65444 75.78813
#
# Poissons Ratio (x) = 0.31760 0.09383
# Poissons Ratio (y) = 0.28542 0.22384
# Poissons Ratio (z) = 0.08863 0.23526
#
# Static dielectric constant tensor:
#      x y z
#    x 3.667470 0.000000 0.000000 
#    y 0.000000 3.585470 0.000000 
#    z 0.000000 0.000000 3.628290 
# 
# 
# High freq. dielectric constant tensor:
#      x y z
#    x 1.799330 0.000000 0.000000 
#    y 0.000000 1.805810 0.000000 
#    z 0.000000 0.000000 1.798890 
# 
# From -- ./inp_files/25145.got.cif
#   From: 2010.06.25/outbox.cif.g09.slc.cpg/sg52_13_cif.got.tgz:25145.got - 2010.06.26 19:32:48.
