data_PCOD8216122
_publ_section_title
;
Structure prediction by ZEFSAII (Michael W. Deem and Ramdas Pophale) SiO2 
 PCOD8216122
Probable space group: P N N A
;
_chemical_formula_sum "Si O2"
_cell_formula_units_Z 40
_cell_length_a 26.649241
_cell_length_b 10.587900
_cell_length_c 6.556562
_cell_angle_alpha 90.000000
_cell_angle_beta 90.000000
_cell_angle_gamma 90.000000
_cell_volume 1849.996248
_symmetry_space_group_name_H-M "P N N A"
_symmetry_group_IT_number 52
_symmetry_cell_setting 'orthorhombic'
loop_
_space_group_symop_operation_xyz
x,y,z
1/2-x,-y,z
x,1/2-y,1/2-z
1/2-x,1/2+y,1/2-z
-x,-y,-z
1/2+x,y,-z
-x,1/2+y,1/2+z
1/2+x,1/2-y,1/2+z
loop_
_atom_site_type_symbol
_atom_site_label
_atom_site_fract_x
_atom_site_fract_y
_atom_site_fract_z
Si Si1 0.807001 0.960263 0.269455
Si Si2 0.944448 0.895515 0.065004
Si Si3 0.531888 0.947901 0.685872
Si Si4 0.153602 0.226086 0.015856
Si Si5 0.600843 0.614142 0.157070
O O1 0.818812 0.842116 0.412657
O O2 0.750000 0.000000 0.286026
O O3 0.840039 0.080090 0.339881
O O4 0.820198 0.908639 0.041473
O O5 0.997835 0.854783 0.168415
O O6 0.926500 0.013178 0.200273
O O7 0.904696 0.780179 0.060818
O O8 0.950281 0.936809 0.829293
O O9 0.580329 0.883445 0.577786
O O10 0.500000 0.000000 0.500000
O O11 0.158190 0.250000 0.250000
O O12 0.591501 0.750000 0.250000
#
# Coordination Sequence:
#
# PCOD8216122 Si02
#       5
#     8   8   8   8   8
#     4  10  23  41  66  91 123 165 214 265 325 380
#     4   9  19  38  61  89 123 163 209 251 308 375
#     4   9  18  37  60  89 125 164 206 252 306 371
#     4  10  21  40  65  92 126 162 212 267 318 374
#     4  10  21  37  58  85 124 164 200 256 311 370
#
# _framework density 21.621663999999999
#
# number of rings (size 3 to 8) (size 9 to 14) (size 15 to 20)
#    0.000    2.400    0.000    1.200    2.800    3.200 
#    0.000   49.000    0.000    0.000    0.000    0.000 
#    0.000    0.000    0.000    0.000    0.000    0.000 
#
# Total GULP energy -495585.027141 kJ/mol
# GULP energy per Si atom -12389.625679 kJ/mol
# Density = 2.157245 g / cm^3
# Si number density = 21.621664 Si / 1000 Ang^3
#
#
#
# Elastic Constant Matrix: (Units=GPa)
#
#
# Indices 1 2 3 4 5 6 
#
# 1 159.4147 38.5207 75.3082 0.0000 0.0000 0.0000
# 2 38.5207 73.2330 47.1242 0.0000 0.0000 0.0000
# 3 75.3082 47.1242 165.9053 0.0000 0.0000 0.0000
# 4 0.0000 0.0000 0.0000 25.9169 0.0000 0.0000
# 5 0.0000 0.0000 0.0000 0.0000 -4.1665 0.0000
# 6 0.0000 0.0000 0.0000 0.0000 0.0000 -15.8890
#
#
#
# Elastic Compliance Matrix: (Units=1/GPa)
#
#
# Indices 1 2 3 4 5 6 
#
# 1 0.008311 -0.002379 -0.003097 0.000000 0.000000 0.000000
# 2 -0.002379 0.017390 -0.003860 0.000000 0.000000 0.000000
# 3 -0.003097 -0.003860 0.008530 0.000000 0.000000 0.000000
# 4 0.000000 0.000000 0.000000 0.038585 0.000000 0.000000
# 5 0.000000 0.000000 0.000000 0.000000 -0.240007 0.000000
# 6 0.000000 0.000000 0.000000 0.000000 0.000000 -0.062937
#
#
# Mechanical properties :
#
#
# Convention : Reuss Voigt Hill
#
# Bulk Modulus (GPa) = 64.26834 80.05101 72.15967
# Shear Modulus (GPa) = -24.23985 17.01226 -3.61379
#
# Velocity S-wave (km/s) = -3.35190 2.80807 -1.29422
# Velocity P-wave (km/s) = 3.84815 6.90055 5.58685
#
# Compressibility (1/GPa) = 0.01555976
#
# Stress axis : x y z
#
# Youngs Moduli (GPa) = 120.32757 57.50452 117.23959
#
# Poissons Ratio (x) = 0.13679 0.36306
# Poissons Ratio (y) = 0.28623 0.45251
# Poissons Ratio (z) = 0.37262 0.22195
#
# Static dielectric constant tensor:
#      x y z
#    x 4.206290 0.000000 0.000000 
#    y 0.000000 3.632880 0.000000 
#    z 0.000000 0.000000 4.492320 
# 
# 
# High freq. dielectric constant tensor:
#      x y z
#    x 1.841590 0.000000 0.000000 
#    y 0.000000 1.830990 0.000000 
#    z 0.000000 0.000000 1.863500 
# 
# From -- ./inp_files/5585.got.cif
#   From: 2010.06.25/outbox.cif.g09.slc.cpg/sg52_3_cif.got.tgz:5585.got - 2010.06.26 19:32:48.
