data_PCOD8216409
_publ_section_title
;
Structure prediction by ZEFSAII (Michael W. Deem and Ramdas Pophale) SiO2 
 PCOD8216409
Probable space group: P N N A
;
_chemical_formula_sum "Si O2"
_cell_formula_units_Z 48
_cell_length_a 14.000626
_cell_length_b 11.443338
_cell_length_c 13.291790
_cell_angle_alpha 90.000000
_cell_angle_beta 90.000000
_cell_angle_gamma 90.000000
_cell_volume 2129.529454
_symmetry_space_group_name_H-M "P N N A"
_symmetry_group_IT_number 52
_symmetry_cell_setting 'orthorhombic'
loop_
_space_group_symop_operation_xyz
x,y,z
1/2-x,-y,z
x,1/2-y,1/2-z
1/2-x,1/2+y,1/2-z
-x,-y,-z
1/2+x,y,-z
-x,1/2+y,1/2+z
1/2+x,1/2-y,1/2+z
loop_
_atom_site_type_symbol
_atom_site_label
_atom_site_fract_x
_atom_site_fract_y
_atom_site_fract_z
Si Si1 0.682379 0.297022 0.547195
Si Si2 0.391640 0.217626 0.972837
Si Si3 0.967803 0.895014 0.572512
Si Si4 0.647863 0.480067 0.376882
Si Si5 0.650715 0.047933 0.766934
Si Si6 0.026876 0.848347 0.170007
O O1 0.789690 0.253569 0.522746
O O2 0.614047 0.187612 0.523222
O O3 0.663416 0.410302 0.480136
O O4 0.668329 0.336653 0.664150
O O5 0.433646 0.323878 0.906174
O O6 0.396918 0.104884 0.902202
O O7 0.472189 0.207367 0.059647
O O8 0.926389 0.937375 0.678762
O O9 0.000000 0.000000 0.500000
O O10 0.750000 0.500000 0.321669
O O11 0.576162 0.407393 0.305885
O O12 0.750000 0.000000 0.720640
O O13 0.609782 0.944864 0.836245
O O14 0.050285 0.750000 0.250000
#
# Coordination Sequence:
#
# PCOD8216409 Si02
#       6
#     8   8   8   8   8   8
#     4  11  22  43  75 104 135 185 247 299 350 427
#     4  11  22  44  72  99 138 184 232 294 364 421
#     4  12  28  42  62 105 154 189 216 291 384 443
#     4  10  21  43  71  99 127 182 245 290 349 432
#     4  12  25  43  71 111 141 176 247 308 357 417
#     4  12  23  39  68 100 140 178 228 300 359 422
#
# _framework density 22.540191
#
# number of rings (size 3 to 8) (size 9 to 14) (size 15 to 20)
#    0.000    0.667    5.000    3.500    4.667    0.000 
#    0.000    3.333    0.000    0.000    0.000    0.000 
#    0.000    0.000    0.000    0.000    0.000    0.000 
#
# Total GULP energy -595010.061686 kJ/mol
# GULP energy per Si atom -12396.042952 kJ/mol
# Density = 2.248889 g / cm^3
# Si number density = 22.540191 Si / 1000 Ang^3
#
#
#
# Elastic Constant Matrix: (Units=GPa)
#
#
# Indices 1 2 3 4 5 6 
#
# 1 148.4026 62.1995 34.9284 0.0000 0.0000 0.0000
# 2 62.1995 114.5739 22.1091 0.0000 0.0000 0.0000
# 3 34.9284 22.1091 50.5617 0.0000 0.0000 0.0000
# 4 0.0000 0.0000 0.0000 23.8152 0.0000 0.0000
# 5 0.0000 0.0000 0.0000 0.0000 38.2904 0.0000
# 6 0.0000 0.0000 0.0000 0.0000 0.0000 33.3073
#
#
#
# Elastic Compliance Matrix: (Units=1/GPa)
#
#
# Indices 1 2 3 4 5 6 
#
# 1 0.009682 -0.004331 -0.004795 0.000000 0.000000 0.000000
# 2 -0.004331 0.011470 -0.002023 0.000000 0.000000 0.000000
# 3 -0.004795 -0.002023 0.023975 0.000000 0.000000 0.000000
# 4 0.000000 0.000000 0.000000 0.041990 0.000000 0.000000
# 5 0.000000 0.000000 0.000000 0.000000 0.026116 0.000000
# 6 0.000000 0.000000 0.000000 0.000000 0.000000 0.030023
#
#
# Mechanical properties :
#
#
# Convention : Reuss Voigt Hill
#
# Bulk Modulus (GPa) = 43.80516 61.33469 52.56992
# Shear Modulus (GPa) = 28.87436 32.03599 30.45517
#
# Velocity S-wave (km/s) = 3.58301 3.77408 3.67979
# Velocity P-wave (km/s) = 6.04928 6.80161 6.43644
#
# Compressibility (1/GPa) = 0.02282836
#
# Stress axis : x y z
#
# Youngs Moduli (GPa) = 103.28280 87.18662 41.71039
#
# Poissons Ratio (x) = 0.37760 0.19999
# Poissons Ratio (y) = 0.44732 0.08440
# Poissons Ratio (z) = 0.49521 0.17642
#
# Static dielectric constant tensor:
#      x y z
#    x 4.440480 0.000000 0.000000 
#    y 0.000000 4.121600 0.000000 
#    z 0.000000 0.000000 3.630700 
# 
# 
# High freq. dielectric constant tensor:
#      x y z
#    x 1.909540 0.000000 0.000000 
#    y 0.000000 1.895840 0.000000 
#    z 0.000000 0.000000 1.851350 
# 
# From -- ./inp_files/27187.got.cif
#   From: 2010.06.25/outbox.cif.g09.slc.cpg/sg52_14_cif.got.tgz:27187.got - 2010.06.26 19:32:48.
