data_PCOD8216509
_publ_section_title
;
Structure prediction by ZEFSAII (Michael W. Deem and Ramdas Pophale) SiO2 
 PCOD8216509
Probable space group: P N N A
;
_chemical_formula_sum "Si O2"
_cell_formula_units_Z 44
_cell_length_a 8.249483
_cell_length_b 8.133233
_cell_length_c 28.816291
_cell_angle_alpha 90.000000
_cell_angle_beta 90.000000
_cell_angle_gamma 90.000000
_cell_volume 1933.428104
_symmetry_space_group_name_H-M "P N N A"
_symmetry_group_IT_number 52
_symmetry_cell_setting 'orthorhombic'
loop_
_space_group_symop_operation_xyz
x,y,z
1/2-x,-y,z
x,1/2-y,1/2-z
1/2-x,1/2+y,1/2-z
-x,-y,-z
1/2+x,y,-z
-x,1/2+y,1/2+z
1/2+x,1/2-y,1/2+z
loop_
_atom_site_type_symbol
_atom_site_label
_atom_site_fract_x
_atom_site_fract_y
_atom_site_fract_z
Si Si1 0.750000 0.500000 0.141943
Si Si2 0.250000 0.000000 0.344293
Si Si3 0.558346 0.504827 0.447855
Si Si4 0.154560 0.165990 0.120657
Si Si5 0.958538 0.648606 0.064231
Si Si6 0.250000 0.500000 0.008630
Si Si7 0.479711 0.308487 0.802094
O O1 0.904369 0.554131 0.110986
O O2 0.694212 0.648119 0.175601
O O3 0.236356 0.836023 0.378120
O O4 0.403420 0.969703 0.309698
O O5 0.750000 0.500000 0.442948
O O6 0.500000 0.500000 0.500000
O O7 0.476828 0.662529 0.421866
O O8 0.495011 0.336202 0.423953
O O9 0.055741 0.156921 0.169056
O O10 0.250000 0.000000 0.115458
O O11 0.109610 0.558288 0.042076
O O12 0.812571 0.645843 0.025749
O O13 0.458261 0.250000 0.750000
#
# Coordination Sequence:
#
# PCOD8216509 Si02
#       7
#     4   4   8   8   8   4   8
#     4  11  24  44  67 104 146 190 237 306 383 452
#     4   8  24  47  77 104 140 186 245 304 369 456
#     4  12  25  42  64 102 150 195 247 301 359 436
#     4  10  24  45  74 108 140 192 246 304 377 435
#     4  10  22  39  67  99 145 195 246 309 361 432
#     4   9  20  41  66 102 140 198 260 294 364 432
#     4  10  24  48  73 107 139 186 242 304 382 452
#
# _framework density 22.757504999999998
#
# number of rings (size 3 to 8) (size 9 to 14) (size 15 to 20)
#    1.091    0.727    0.000    2.727    3.818    5.091 
#    4.909    1.818    0.000    1.091    0.000    0.000 
#    0.000    0.000    0.000    0.000    0.000    0.000 
#
# Total GULP energy -545188.402618 kJ/mol
# GULP energy per Si atom -12390.645514 kJ/mol
# Density = 2.270571 g / cm^3
# Si number density = 22.757505 Si / 1000 Ang^3
#
#
#
# Elastic Constant Matrix: (Units=GPa)
#
#
# Indices 1 2 3 4 5 6 
#
# 1 101.1314 43.2631 60.9084 0.0000 0.0000 0.0000
# 2 43.2631 118.8886 52.7364 0.0000 0.0000 0.0000
# 3 60.9084 52.7364 170.2697 0.0000 0.0000 0.0000
# 4 0.0000 0.0000 0.0000 40.2057 0.0000 0.0000
# 5 0.0000 0.0000 0.0000 0.0000 17.0842 0.0000
# 6 0.0000 0.0000 0.0000 0.0000 0.0000 28.8632
#
#
#
# Elastic Compliance Matrix: (Units=1/GPa)
#
#
# Indices 1 2 3 4 5 6 
#
# 1 0.013598 -0.003235 -0.003862 0.000000 0.000000 0.000000
# 2 -0.003235 0.010521 -0.002101 0.000000 0.000000 0.000000
# 3 -0.003862 -0.002101 0.007905 0.000000 0.000000 0.000000
# 4 0.000000 0.000000 0.000000 0.024872 0.000000 0.000000
# 5 0.000000 0.000000 0.000000 0.000000 0.058534 0.000000
# 6 0.000000 0.000000 0.000000 0.000000 0.000000 0.034646
#
#
# Mechanical properties :
#
#
# Convention : Reuss Voigt Hill
#
# Bulk Modulus (GPa) = 73.38401 78.23393 75.80897
# Shear Modulus (GPa) = 28.89911 32.78941 30.84426
#
# Velocity S-wave (km/s) = 3.56739 3.79993 3.68549
# Velocity P-wave (km/s) = 7.02029 7.32833 7.17596
#
# Compressibility (1/GPa) = 0.01362695
#
# Stress axis : x y z
#
# Youngs Moduli (GPa) = 73.53889 95.05239 126.49495
#
# Poissons Ratio (x) = 0.30750 0.48857
# Poissons Ratio (y) = 0.23791 0.26579
# Poissons Ratio (z) = 0.28403 0.19972
#
# Static dielectric constant tensor:
#      x y z
#    x 4.293390 0.000000 0.000000 
#    y 0.000000 -14.040000 0.000000 
#    z 0.000000 0.000000 3.919450 
# 
# 
# High freq. dielectric constant tensor:
#      x y z
#    x 1.914990 0.000000 0.000000 
#    y 0.000000 1.886440 0.000000 
#    z 0.000000 0.000000 1.888100 
# 
# From -- ./inp_files/44315.got.cif
#   From: 2010.06.25/outbox.cif.g09.slc.cpg/sg52_23_cif.got.tgz:44315.got - 2010.06.26 19:32:48.
