data_PCOD8216831
_publ_section_title
;
Structure prediction by ZEFSAII (Michael W. Deem and Ramdas Pophale) SiO2 
 PCOD8216831
Probable space group: P N N A
;
_chemical_formula_sum "Si O2"
_cell_formula_units_Z 60
_cell_length_a 16.892549
_cell_length_b 25.543319
_cell_length_c 6.599799
_cell_angle_alpha 90.000000
_cell_angle_beta 90.000000
_cell_angle_gamma 90.000000
_cell_volume 2847.758938
_symmetry_space_group_name_H-M "P N N A"
_symmetry_group_IT_number 52
_symmetry_cell_setting 'orthorhombic'
loop_
_space_group_symop_operation_xyz
x,y,z
1/2-x,-y,z
x,1/2-y,1/2-z
1/2-x,1/2+y,1/2-z
-x,-y,-z
1/2+x,y,-z
-x,1/2+y,1/2+z
1/2+x,1/2-y,1/2+z
loop_
_atom_site_type_symbol
_atom_site_label
_atom_site_fract_x
_atom_site_fract_y
_atom_site_fract_z
Si Si1 0.933669 0.860510 0.943024
Si Si2 0.048479 0.548118 0.585542
Si Si3 0.803764 0.750000 0.250000
Si Si4 0.838541 0.102443 0.772171
Si Si5 0.769874 0.861217 0.110966
Si Si6 0.079479 0.208524 0.408222
Si Si7 0.692484 0.548797 0.134416
Si Si8 0.043060 0.690814 0.235356
O O1 0.889896 0.836691 0.744349
O O2 0.981406 0.909973 0.859725
O O3 0.864008 0.873199 0.104205
O O4 0.995083 0.821848 0.058220
O O5 0.105516 0.568495 0.412630
O O6 0.104404 0.535473 0.779540
O O7 0.000000 0.500000 0.500000
O O8 0.752905 0.800815 0.181563
O O9 0.854924 0.765777 0.446875
O O10 0.811446 0.061616 0.602176
O O11 0.884943 0.152457 0.687246
O O12 0.764188 0.126576 0.889626
O O13 0.728264 0.898975 0.269249
O O14 0.043698 0.250000 0.250000
O O15 0.011520 0.183248 0.541264
O O16 0.750000 0.500000 0.175480
O O17 0.074932 0.750000 0.250000
#
# Coordination Sequence:
#
# PCOD8216831 Si02
#       8
#     8   8   4   8   8   8   8   8
#     4  11  22  38  68  95 128 176 220 271 328 377
#     4  10  23  46  69  99 127 165 226 286 329 397
#     4  12  24  40  64 102 136 172 234 264 322 408
#     4  10  26  42  63  95 131 171 218 263 348 393
#     4  11  24  43  64  97 137 180 218 279 324 403
#     4  12  19  36  63  95 130 169 217 265 320 377
#     4  11  25  46  67  96 135 176 221 277 342 411
#     4  11  20  39  59  92 129 167 215 267 312 394
#
# _framework density 21.069199000000001
#
# number of rings (size 3 to 8) (size 9 to 14) (size 15 to 20)
#    0.000    1.067    4.667    1.600    1.867    4.800 
#    0.000    0.000    0.000    0.000    0.000    0.000 
#    0.000    0.000    0.000    0.000    0.000    0.000 
#
# Total GULP energy -743672.749585 kJ/mol
# GULP energy per Si atom -12394.545826 kJ/mol
# Density = 2.102124 g / cm^3
# Si number density = 21.069199 Si / 1000 Ang^3
#
#
#
# Elastic Constant Matrix: (Units=GPa)
#
#
# Indices 1 2 3 4 5 6 
#
# 1 79.8010 52.2664 18.4040 0.0000 0.0000 0.0000
# 2 52.2664 126.7733 44.3142 0.0000 0.0000 0.0000
# 3 18.4040 44.3142 99.5469 0.0000 0.0000 0.0000
# 4 0.0000 0.0000 0.0000 31.4145 0.0000 0.0000
# 5 0.0000 0.0000 0.0000 0.0000 28.3115 0.0000
# 6 0.0000 0.0000 0.0000 0.0000 0.0000 33.0857
#
#
#
# Elastic Compliance Matrix: (Units=1/GPa)
#
#
# Indices 1 2 3 4 5 6 
#
# 1 0.017167 -0.007068 -0.000027 0.000000 0.000000 0.000000
# 2 -0.007068 0.012252 -0.004147 0.000000 0.000000 0.000000
# 3 -0.000027 -0.004147 0.011897 0.000000 0.000000 0.000000
# 4 0.000000 0.000000 0.000000 0.031832 0.000000 0.000000
# 5 0.000000 0.000000 0.000000 0.000000 0.035321 0.000000
# 6 0.000000 0.000000 0.000000 0.000000 0.000000 0.030225
#
#
# Mechanical properties :
#
#
# Convention : Reuss Voigt Hill
#
# Bulk Modulus (GPa) = 53.10665 59.56560 56.33613
# Shear Modulus (GPa) = 29.85869 31.30480 30.58175
#
# Velocity S-wave (km/s) = 3.76862 3.85880 3.81398
# Velocity P-wave (km/s) = 6.64810 6.94166 6.79646
#
# Compressibility (1/GPa) = 0.01883003
#
# Stress axis : x y z
#
# Youngs Moduli (GPa) = 58.25224 81.62073 84.05638
#
# Poissons Ratio (x) = 0.57689 0.00230
# Poissons Ratio (y) = 0.41172 0.34861
# Poissons Ratio (z) = 0.00160 0.33850
#
# Static dielectric constant tensor:
#      x y z
#    x 3.841850 0.000000 0.000000 
#    y 0.000000 4.116860 0.000000 
#    z 0.000000 0.000000 3.948610 
# 
# 
# High freq. dielectric constant tensor:
#      x y z
#    x 1.814600 0.000000 0.000000 
#    y 0.000000 1.832730 0.000000 
#    z 0.000000 0.000000 1.833580 
# 
# From -- ./inp_files/3601.got.cif
#   From: 2010.06.25/outbox.cif.g09.slc.cpg/sg52_2_cif.got.tgz:3601.got - 2010.06.26 19:32:48.
