data_PCOD8216997
_publ_section_title
;
Structure prediction by ZEFSAII (Michael W. Deem and Ramdas Pophale) SiO2 
 PCOD8216997
Probable space group: P N N A
;
_chemical_formula_sum "Si O2"
_cell_formula_units_Z 64
_cell_length_a 14.531927
_cell_length_b 17.449971
_cell_length_c 12.394981
_cell_angle_alpha 90.000000
_cell_angle_beta 90.000000
_cell_angle_gamma 90.000000
_cell_volume 3143.140412
_symmetry_space_group_name_H-M "P N N A"
_symmetry_group_IT_number 52
_symmetry_cell_setting 'orthorhombic'
loop_
_space_group_symop_operation_xyz
x,y,z
1/2-x,-y,z
x,1/2-y,1/2-z
1/2-x,1/2+y,1/2-z
-x,-y,-z
1/2+x,y,-z
-x,1/2+y,1/2+z
1/2+x,1/2-y,1/2+z
loop_
_atom_site_type_symbol
_atom_site_label
_atom_site_fract_x
_atom_site_fract_y
_atom_site_fract_z
Si Si1 0.074464 0.119672 0.968450
Si Si2 0.507306 0.945912 0.762586
Si Si3 0.151778 0.518527 0.418775
Si Si4 0.111424 0.641566 0.579707
Si Si5 0.634303 0.261873 0.123615
Si Si6 0.155941 0.950835 0.709060
Si Si7 0.070302 0.693101 0.152068
Si Si8 0.178381 0.809137 0.560866
O O1 0.032076 0.115056 0.848526
O O2 0.148801 0.186915 0.952288
O O3 0.999475 0.138708 0.061905
O O4 0.127025 0.040106 0.985571
O O5 0.577406 0.000624 0.826501
O O6 0.569198 0.895758 0.683126
O O7 0.429368 0.990826 0.697017
O O8 0.250000 0.500000 0.367921
O O9 0.150700 0.604767 0.467613
O O10 0.149248 0.587808 0.674206
O O11 0.143789 0.727542 0.609517
O O12 0.653865 0.250000 0.250000
O O13 0.530212 0.289074 0.102057
O O14 0.711500 0.319044 0.077106
O O15 0.138565 0.884580 0.619711
O O16 0.250000 0.000000 0.695638
O O17 0.095891 0.750000 0.250000
O O18 0.149933 0.696990 0.063487
#
# Coordination Sequence:
#
# PCOD8216997 Si02
#       8
#     8   8   8   8   8   8   8   8
#     4  11  19  36  66  98 126 165 213 272 325 386
#     4  11  21  39  61  87 126 171 215 252 321 394
#     4  11  21  35  61  98 129 164 207 269 328 384
#     4  11  20  38  62  94 133 160 208 277 334 377
#     4  11  21  39  67  96 128 168 213 264 331 392
#     4  12  25  40  62  95 133 173 216 270 332 387
#     4  11  22  44  70  89 125 175 219 265 327 397
#     4  12  26  40  65  99 129 166 223 277 326 396
#
# _framework density 20.361801
#
# number of rings (size 3 to 8) (size 9 to 14) (size 15 to 20)
#    0.000    0.750    6.250    4.500    1.750    0.500 
#    0.000    1.875    2.750    0.000    0.000    0.000 
#    0.000    0.000    0.000    0.000    0.000    0.000 
#
# Total GULP energy -793023.877550 kJ/mol
# GULP energy per Si atom -12390.998087 kJ/mol
# Density = 2.031546 g / cm^3
# Si number density = 20.361801 Si / 1000 Ang^3
#
#
#
# Elastic Constant Matrix: (Units=GPa)
#
#
# Indices 1 2 3 4 5 6 
#
# 1 90.1995 24.0928 52.2785 0.0000 0.0000 0.0000
# 2 24.0928 106.6300 41.8635 0.0000 0.0000 0.0000
# 3 52.2785 41.8635 80.4207 0.0000 0.0000 0.0000
# 4 0.0000 0.0000 0.0000 32.7822 0.0000 0.0000
# 5 0.0000 0.0000 0.0000 0.0000 16.7611 0.0000
# 6 0.0000 0.0000 0.0000 0.0000 0.0000 30.8994
#
#
#
# Elastic Compliance Matrix: (Units=1/GPa)
#
#
# Indices 1 2 3 4 5 6 
#
# 1 0.017825 0.000656 -0.011929 0.000000 0.000000 0.000000
# 2 0.000656 0.011811 -0.006575 0.000000 0.000000 0.000000
# 3 -0.011929 -0.006575 0.023612 0.000000 0.000000 0.000000
# 4 0.000000 0.000000 0.000000 0.030504 0.000000 0.000000
# 5 0.000000 0.000000 0.000000 0.000000 0.059662 0.000000
# 6 0.000000 0.000000 0.000000 0.000000 0.000000 0.032363
#
#
# Mechanical properties :
#
#
# Convention : Reuss Voigt Hill
#
# Bulk Modulus (GPa) = 56.97199 57.07998 57.02598
# Shear Modulus (GPa) = 23.00713 26.68959 24.84836
#
# Velocity S-wave (km/s) = 3.36507 3.62438 3.49713
# Velocity P-wave (km/s) = 6.56802 6.75341 6.66136
#
# Compressibility (1/GPa) = 0.01755249
#
# Stress axis : x y z
#
# Youngs Moduli (GPa) = 56.10044 84.66447 42.35204
#
# Poissons Ratio (x) = -0.05552 0.50521
# Poissons Ratio (y) = -0.03679 0.27845
# Poissons Ratio (z) = 0.66921 0.55665
#
# Static dielectric constant tensor:
#      x y z
#    x 3.761310 0.000000 0.000000 
#    y 0.000000 3.856390 0.000000 
#    z 0.000000 0.000000 3.435820 
# 
# 
# High freq. dielectric constant tensor:
#      x y z
#    x 1.792850 0.000000 0.000000 
#    y 0.000000 1.804050 0.000000 
#    z 0.000000 0.000000 1.762610 
# 
# From -- ./inp_files/19883.got.cif
#   From: 2010.06.25/outbox.cif.g09.slc.cpg/sg52_10_cif.got.tgz:19883.got - 2010.06.26 19:32:48.
