data_PCOD8216613
_publ_section_title
;
Structure prediction by ZEFSAII (Michael W. Deem and Ramdas Pophale) SiO2 
 PCOD8216613
Probable space group: P N N A
;
_chemical_formula_sum "Si O2"
_cell_formula_units_Z 64
_cell_length_a 14.770364
_cell_length_b 18.223354
_cell_length_c 11.255942
_cell_angle_alpha 90.000000
_cell_angle_beta 90.000000
_cell_angle_gamma 90.000000
_cell_volume 3029.712065
_symmetry_space_group_name_H-M "P N N A"
_symmetry_group_IT_number 52
_symmetry_cell_setting 'orthorhombic'
loop_
_space_group_symop_operation_xyz
x,y,z
1/2-x,-y,z
x,1/2-y,1/2-z
1/2-x,1/2+y,1/2-z
-x,-y,-z
1/2+x,y,-z
-x,1/2+y,1/2+z
1/2+x,1/2-y,1/2+z
loop_
_atom_site_type_symbol
_atom_site_label
_atom_site_fract_x
_atom_site_fract_y
_atom_site_fract_z
Si Si1 0.857509 0.349111 0.915816
Si Si2 0.952067 0.877984 0.819824
Si Si3 0.500000 0.238948 1.000000
Si Si4 0.147087 0.000000 0.033623
Si Si5 0.142491 0.349111 0.084184
Si Si6 0.850420 0.000000 0.483436
Si Si7 0.413470 0.000000 0.769354
Si Si8 0.547933 0.622016 0.680176
O O1 0.750000 0.338026 0.933559
O O2 0.882239 0.344933 0.776313
O O3 0.908791 0.287348 0.992898
O O4 0.895881 0.426902 0.964074
O O5 0.882239 0.844933 0.723687
O O6 0.026097 0.927507 0.755092
O O7 0.003981 0.811079 0.882572
O O8 0.900213 0.926789 0.917900
O O9 0.503982 0.188921 0.117428
O O10 0.591209 0.287348 0.992898
O O11 0.250000 0.000000 0.076617
O O12 0.141679 0.000000 0.891717
O O13 0.099787 0.926789 0.082100
O O14 0.104119 0.426902 0.035925
O O15 0.845714 0.000000 0.340913
O O16 0.750000 0.000000 0.535261
O O17 0.473904 0.927507 0.755092
#
# Coordination Sequence:
#
# PCOD8216613 Si02
#       8
#     8   8   8   8   8   8   8   8
#     4  11  25  43  68  97 126 170 223 273 324 382
#     4  11  22  41  63  92 130 166 215 269 322 382
#     4  12  24  42  60  96 136 170 206 266 328 390
#     4  11  21  37  65  96 124 168 217 270 323 384
#     4  11  25  43  68  97 126 170 223 273 324 382
#     4  10  22  42  63  93 123 157 217 275 320 382
#     4  11  20  39  65  91 127 172 207 260 336 383
#     4  11  22  41  63  92 130 166 215 269 322 382
#
# _framework density 21.124119
#
# number of rings (size 3 to 8) (size 9 to 14) (size 15 to 20)
#    0.000    1.000    2.500    5.625    0.000    5.500 
#    0.000    0.000    0.000    6.000    0.000    0.000 
#    0.000    0.000    0.000    0.000    0.000    0.000 
#
# Total GULP energy -793672.611534 kJ/mol
# GULP energy per Si atom -12401.134555 kJ/mol
# Density = 2.107604 g / cm^3
# Si number density = 21.124119 Si / 1000 Ang^3
#
#
#
# Elastic Constant Matrix: (Units=GPa)
#
#
# Indices 1 2 3 4 5 6 
#
# 1 97.7770 58.2135 33.8125 0.0000 0.0000 0.0000
# 2 58.2135 150.1647 52.3164 0.0000 0.0000 0.0000
# 3 33.8125 52.3164 130.3728 0.0000 0.0000 0.0000
# 4 0.0000 0.0000 0.0000 -7.6004 0.0000 0.0000
# 5 0.0000 0.0000 0.0000 0.0000 38.5354 0.0000
# 6 0.0000 0.0000 0.0000 0.0000 0.0000 17.6747
#
#
#
# Elastic Compliance Matrix: (Units=1/GPa)
#
#
# Indices 1 2 3 4 5 6 
#
# 1 0.013591 -0.004697 -0.001640 0.000000 0.000000 0.000000
# 2 -0.004697 0.009365 -0.002540 0.000000 0.000000 0.000000
# 3 -0.001640 -0.002540 0.009115 0.000000 0.000000 0.000000
# 4 0.000000 0.000000 0.000000 -0.131572 0.000000 0.000000
# 5 0.000000 0.000000 0.000000 0.000000 0.025950 0.000000
# 6 0.000000 0.000000 0.000000 0.000000 0.000000 0.056578
#
#
# Mechanical properties :
#
#
# Convention : Reuss Voigt Hill
#
# Bulk Modulus (GPa) = 69.84765 74.11103 71.97934
# Shear Modulus (GPa) = 900.20987 25.32007 462.76497
#
# Velocity S-wave (km/s) = 20.66586 3.46588 14.81705
# Velocity P-wave (km/s) = 24.54739 7.15376 18.07969
#
# Compressibility (1/GPa) = 0.01431687
#
# Stress axis : x y z
#
# Youngs Moduli (GPa) = 73.57711 106.77765 109.71162
#
# Poissons Ratio (x) = 0.50159 0.17991
# Poissons Ratio (y) = 0.34563 0.27865
# Poissons Ratio (z) = 0.12066 0.27120
#
# Static dielectric constant tensor:
#      x y z
#    x 3.631240 0.000000 0.000000 
#    y 0.000000 4.069740 0.000000 
#    z 0.000000 0.000000 3.723920 
# 
# 
# High freq. dielectric constant tensor:
#      x y z
#    x 1.817190 0.000000 0.000000 
#    y 0.000000 1.838890 0.000000 
#    z 0.000000 0.000000 1.832960 
# 
# From -- ./inp_files/19885.got.cif
#   From: 2010.06.25/outbox.cif.g09.slc.cpg/sg52_10_cif.got.tgz:19885.got - 2010.06.26 19:32:48.
