data_PCOD8216008
_publ_section_title
;
Structure prediction by ZEFSAII (Michael W. Deem and Ramdas Pophale) SiO2 
 PCOD8216008
Probable space group: P N N A
;
_chemical_formula_sum "Si O2"
_cell_formula_units_Z 60
_cell_length_a 25.596554
_cell_length_b 6.445797
_cell_length_c 17.947341
_cell_angle_alpha 90.000000
_cell_angle_beta 90.000000
_cell_angle_gamma 90.000000
_cell_volume 2961.135219
_symmetry_space_group_name_H-M "P N N A"
_symmetry_group_IT_number 52
_symmetry_cell_setting 'orthorhombic'
loop_
_space_group_symop_operation_xyz
x,y,z
1/2-x,-y,z
x,1/2-y,1/2-z
1/2-x,1/2+y,1/2-z
-x,-y,-z
1/2+x,y,-z
-x,1/2+y,1/2+z
1/2+x,1/2-y,1/2+z
loop_
_atom_site_type_symbol
_atom_site_label
_atom_site_fract_x
_atom_site_fract_y
_atom_site_fract_z
Si Si1 0.871489 0.230675 0.556965
Si Si2 0.432873 0.870690 0.826610
Si Si3 0.192682 0.034395 0.960345
Si Si4 0.871101 0.585118 0.068243
Si Si5 0.153237 0.793418 0.831072
Si Si6 0.053684 0.895404 0.179255
Si Si7 0.191361 0.578229 0.187397
Si Si8 0.115388 0.250000 0.250000
O O1 0.852791 0.424404 0.507860
O O2 0.920827 0.291464 0.606912
O O3 0.821285 0.172250 0.606939
O O4 0.890282 0.041044 0.504449
O O5 0.422150 0.750000 0.750000
O O6 0.416122 0.732515 0.897952
O O7 0.493087 0.927816 0.836952
O O8 0.402162 0.087484 0.824881
O O9 0.179074 0.277245 0.955663
O O10 0.250000 0.000000 0.996023
O O11 0.193520 0.933810 0.877748
O O12 0.853396 0.429035 0.131802
O O13 0.177314 0.750000 0.750000
O O14 0.063929 0.750000 0.250000
O O15 0.079191 0.118570 0.194425
O O16 0.250000 0.500000 0.190068
O O17 0.181319 0.750000 0.250000
O O18 0.152049 0.388864 0.198424
#
# Coordination Sequence:
#
# PCOD8216008 Si02
#       8
#     8   8   8   8   8   8   8   4
#     4  11  24  41  62  92 131 171 216 261 325 386
#     4  10  21  39  68  94 124 168 215 264 329 387
#     4  10  25  42  61  94 127 170 215 257 328 390
#     4  10  23  42  65  91 131 166 208 271 318 393
#     4  10  20  41  65  95 123 161 214 263 321 394
#     4  11  24  40  63  98 126 167 222 268 322 384
#     4  12  25  41  64  95 125 172 222 265 318 380
#     4  12  22  40  60  88 132 156 216 282 310 368
#
# _framework density 20.262499999999999
#
# number of rings (size 3 to 8) (size 9 to 14) (size 15 to 20)
#    0.000    1.333    4.667    0.000    4.667    2.667 
#    2.400    6.000    0.000    0.000    0.000    0.000 
#    0.000    0.000    0.000    0.000    0.000    0.000 
#
# Total GULP energy -744167.984442 kJ/mol
# GULP energy per Si atom -12402.799741 kJ/mol
# Density = 2.021638 g / cm^3
# Si number density = 20.262500 Si / 1000 Ang^3
#
#
#
# Elastic Constant Matrix: (Units=GPa)
#
#
# Indices 1 2 3 4 5 6 
#
# 1 97.3197 35.6065 15.0263 0.0000 0.0000 0.0000
# 2 35.6065 120.1910 34.7765 0.0000 0.0000 0.0000
# 3 15.0263 34.7765 111.6074 0.0000 0.0000 0.0000
# 4 0.0000 0.0000 0.0000 31.4492 0.0000 0.0000
# 5 0.0000 0.0000 0.0000 0.0000 13.2070 0.0000
# 6 0.0000 0.0000 0.0000 0.0000 0.0000 30.6686
#
#
#
# Elastic Compliance Matrix: (Units=1/GPa)
#
#
# Indices 1 2 3 4 5 6 
#
# 1 0.011554 -0.003267 -0.000537 0.000000 0.000000 0.000000
# 2 -0.003267 0.010069 -0.002697 0.000000 0.000000 0.000000
# 3 -0.000537 -0.002697 0.009873 0.000000 0.000000 0.000000
# 4 0.000000 0.000000 0.000000 0.031797 0.000000 0.000000
# 5 0.000000 0.000000 0.000000 0.000000 0.075717 0.000000
# 6 0.000000 0.000000 0.000000 0.000000 0.000000 0.032607
#
#
# Mechanical properties :
#
#
# Convention : Reuss Voigt Hill
#
# Bulk Modulus (GPa) = 54.08098 55.54852 54.81475
# Shear Modulus (GPa) = 26.20758 31.31221 28.75989
#
# Velocity S-wave (km/s) = 3.60029 3.93533 3.77153
# Velocity P-wave (km/s) = 6.63558 6.93708 6.78800
#
# Compressibility (1/GPa) = 0.01849079
#
# Stress axis : x y z
#
# Youngs Moduli (GPa) = 86.55161 99.31960 101.28784
#
# Poissons Ratio (x) = 0.32451 0.05444
# Poissons Ratio (y) = 0.28279 0.27322
# Poissons Ratio (z) = 0.04652 0.26791
#
# Static dielectric constant tensor:
#      x y z
#    x 3.494990 0.000000 0.000000 
#    y 0.000000 3.875730 0.000000 
#    z 0.000000 0.000000 3.815980 
# 
# 
# High freq. dielectric constant tensor:
#      x y z
#    x 1.778270 0.000000 0.000000 
#    y 0.000000 1.806290 0.000000 
#    z 0.000000 0.000000 1.798880 
# 
# From -- ./inp_files/34496.got.cif
#   From: 2010.06.25/outbox.cif.g09.slc.cpg/sg52_18_cif.got.tgz:34496.got - 2010.06.26 19:32:48.
