data_PCOD8216403
_publ_section_title
;
Structure prediction by ZEFSAII (Michael W. Deem and Ramdas Pophale) SiO2 
 PCOD8216403
Probable space group: P N N A
;
_chemical_formula_sum "Si O2"
_cell_formula_units_Z 48
_cell_length_a 9.437485
_cell_length_b 26.597383
_cell_length_c 8.568291
_cell_angle_alpha 90.000000
_cell_angle_beta 90.000000
_cell_angle_gamma 90.000000
_cell_volume 2150.747314
_symmetry_space_group_name_H-M "P N N A"
_symmetry_group_IT_number 52
_symmetry_cell_setting 'orthorhombic'
loop_
_space_group_symop_operation_xyz
x,y,z
1/2-x,-y,z
x,1/2-y,1/2-z
1/2-x,1/2+y,1/2-z
-x,-y,-z
1/2+x,y,-z
-x,1/2+y,1/2+z
1/2+x,1/2-y,1/2+z
loop_
_atom_site_type_symbol
_atom_site_label
_atom_site_fract_x
_atom_site_fract_y
_atom_site_fract_z
Si Si1 0.705561 0.056882 0.026840
Si Si2 0.591177 0.304022 0.426118
Si Si3 0.083173 0.393291 0.806011
Si Si4 0.677369 0.756923 0.579078
Si Si5 0.849630 0.129891 0.472390
Si Si6 0.981142 0.112619 0.143628
O O1 0.602084 0.062634 0.178370
O O2 0.841160 0.092670 0.053201
O O3 0.750000 0.000000 0.004903
O O4 0.612706 0.073523 0.876681
O O5 0.604870 0.338672 0.273392
O O6 0.745091 0.281032 0.460650
O O7 0.486579 0.257526 0.401720
O O8 0.530507 0.335592 0.569468
O O9 0.202531 0.398705 0.940158
O O10 0.927673 0.397042 0.881896
O O11 0.749872 0.750000 0.750000
O O12 0.685220 0.812939 0.514239
O O13 0.952431 0.123762 0.323738
#
# Coordination Sequence:
#
# PCOD8216403 Si02
#       6
#     8   8   8   8   8   8
#     4  10  21  43  69  97 126 163 214 270 329 410
#     4  11  24  42  58  90 126 168 220 258 314 378
#     4  10  23  42  60  87 130 164 206 264 325 376
#     4  12  25  38  62  90 124 174 222 263 305 373
#     4  11  23  39  59  88 125 165 211 262 316 366
#     4  10  23  40  66  93 125 169 209 269 330 384
#
# _framework density 22.317824999999999
#
# number of rings (size 3 to 8) (size 9 to 14) (size 15 to 20)
#    0.000    1.333    1.667    4.500    4.667    4.000 
#    0.000    4.167    0.000    0.000    0.000    0.000 
#    0.000    0.000    0.000    0.000    0.000    0.000 
#
# Total GULP energy -595148.314293 kJ/mol
# GULP energy per Si atom -12398.923214 kJ/mol
# Density = 2.226703 g / cm^3
# Si number density = 22.317825 Si / 1000 Ang^3
#
#
#
# Elastic Constant Matrix: (Units=GPa)
#
#
# Indices 1 2 3 4 5 6 
#
# 1 81.6140 1.3836 16.6209 0.0000 0.0000 0.0000
# 2 1.3836 55.6128 7.1188 0.0000 0.0000 0.0000
# 3 16.6209 7.1188 67.8684 0.0000 0.0000 0.0000
# 4 0.0000 0.0000 0.0000 23.3449 0.0000 0.0000
# 5 0.0000 0.0000 0.0000 0.0000 40.5551 0.0000
# 6 0.0000 0.0000 0.0000 0.0000 0.0000 26.9462
#
#
#
# Elastic Compliance Matrix: (Units=1/GPa)
#
#
# Indices 1 2 3 4 5 6 
#
# 1 0.012896 0.000085 -0.003167 0.000000 0.000000 0.000000
# 2 0.000085 0.018227 -0.001933 0.000000 0.000000 0.000000
# 3 -0.003167 -0.001933 0.015713 0.000000 0.000000 0.000000
# 4 0.000000 0.000000 0.000000 0.042836 0.000000 0.000000
# 5 0.000000 0.000000 0.000000 0.000000 0.024658 0.000000
# 6 0.000000 0.000000 0.000000 0.000000 0.000000 0.037111
#
#
# Mechanical properties :
#
#
# Convention : Reuss Voigt Hill
#
# Bulk Modulus (GPa) = 27.16981 28.37131 27.77056
# Shear Modulus (GPa) = 28.77874 30.16737 29.47305
#
# Velocity S-wave (km/s) = 3.59485 3.68056 3.63796
# Velocity P-wave (km/s) = 5.42504 5.54996 5.48785
#
# Compressibility (1/GPa) = 0.03680556
#
# Stress axis : x y z
#
# Youngs Moduli (GPa) = 77.54121 54.86441 63.64267
#
# Poissons Ratio (x) = -0.00464 0.20157
# Poissons Ratio (y) = -0.00656 0.12299
# Poissons Ratio (z) = 0.24559 0.10603
#
# Static dielectric constant tensor:
#      x y z
#    x 4.299710 0.000000 0.000000 
#    y 0.000000 3.695670 0.000000 
#    z 0.000000 0.000000 4.084660 
# 
# 
# High freq. dielectric constant tensor:
#      x y z
#    x 1.894160 0.000000 0.000000 
#    y 0.000000 1.851250 0.000000 
#    z 0.000000 0.000000 1.878460 
# 
# From -- ./inp_files/7717.got.cif
#   From: 2010.06.25/outbox.cif.g09.slc.cpg/sg52_4_cif.got.tgz:7717.got - 2010.06.26 19:32:48.
