data_PCOD8216378
_publ_section_title
;
Structure prediction by ZEFSAII (Michael W. Deem and Ramdas Pophale) SiO2 
 PCOD8216378
Probable space group: P N N A
;
_chemical_formula_sum "Si O2"
_cell_formula_units_Z 56
_cell_length_a 9.345334
_cell_length_b 19.518748
_cell_length_c 14.902283
_cell_angle_alpha 90.000000
_cell_angle_beta 90.000000
_cell_angle_gamma 90.000000
_cell_volume 2718.313808
_symmetry_space_group_name_H-M "P N N A"
_symmetry_group_IT_number 52
_symmetry_cell_setting 'orthorhombic'
loop_
_space_group_symop_operation_xyz
x,y,z
1/2-x,-y,z
x,1/2-y,1/2-z
1/2-x,1/2+y,1/2-z
-x,-y,-z
1/2+x,y,-z
-x,1/2+y,1/2+z
1/2+x,1/2-y,1/2+z
loop_
_atom_site_type_symbol
_atom_site_label
_atom_site_fract_x
_atom_site_fract_y
_atom_site_fract_z
Si Si1 0.094413 0.687579 0.183498
Si Si2 0.427197 0.697554 0.172248
Si Si3 0.884203 0.410067 0.262581
Si Si4 0.380170 0.544745 0.548783
Si Si5 0.810542 0.156417 0.046403
Si Si6 0.431930 0.934822 0.763161
Si Si7 0.546166 0.258726 0.476414
O O1 0.052337 0.750000 0.250000
O O2 0.262169 0.678270 0.175068
O O3 0.020280 0.702475 0.088915
O O4 0.044986 0.612152 0.212762
O O5 0.468152 0.750000 0.250000
O O6 0.525310 0.631989 0.190170
O O7 0.460773 0.728652 0.075941
O O8 0.875610 0.373678 0.360865
O O9 0.724558 0.417766 0.223454
O O10 0.964333 0.483753 0.263464
O O11 0.250000 0.500000 0.591695
O O12 0.500000 0.500000 0.500000
O O13 0.290037 0.600916 0.491051
O O14 0.445158 0.586676 0.632010
O O15 0.705572 0.222272 0.058523
O O16 0.942258 0.174128 0.980857
#
# Coordination Sequence:
#
# PCOD8216378 Si02
#       7
#     8   8   8   8   8   8   8
#     4  11  25  44  64  98 136 177 227 285 344 413
#     4  11  24  41  67 101 136 176 233 288 345 411
#     4  10  21  42  67  95 129 179 221 278 340 414
#     4  11  21  39  59  96 136 177 222 272 343 422
#     4  11  22  39  67  97 141 176 228 283 344 409
#     4  10  22  43  63  93 132 176 228 271 342 412
#     4  12  24  43  66 102 136 182 233 287 346 411
#
# _framework density 20.601005000000001
#
# number of rings (size 3 to 8) (size 9 to 14) (size 15 to 20)
#    0.000    1.143    5.714    2.571    2.000    1.143 
#    2.571    0.714    0.000    0.000    0.000    0.000 
#    0.000    0.000    0.000    0.000    0.000    0.000 
#
# Total GULP energy -693814.004603 kJ/mol
# GULP energy per Si atom -12389.535796 kJ/mol
# Density = 2.055412 g / cm^3
# Si number density = 20.601005 Si / 1000 Ang^3
#
#
#
# Elastic Constant Matrix: (Units=GPa)
#
#
# Indices 1 2 3 4 5 6 
#
# 1 92.4203 55.8127 44.1218 0.0000 0.0000 0.0000
# 2 55.8127 105.3803 56.3591 0.0000 0.0000 0.0000
# 3 44.1218 56.3591 108.0350 0.0000 0.0000 0.0000
# 4 0.0000 0.0000 0.0000 39.2675 0.0000 0.0000
# 5 0.0000 0.0000 0.0000 0.0000 26.7527 0.0000
# 6 0.0000 0.0000 0.0000 0.0000 0.0000 46.6655
#
#
#
# Elastic Compliance Matrix: (Units=1/GPa)
#
#
# Indices 1 2 3 4 5 6 
#
# 1 0.016599 -0.007165 -0.003041 0.000000 0.000000 0.000000
# 2 -0.007165 0.016254 -0.005553 0.000000 0.000000 0.000000
# 3 -0.003041 -0.005553 0.013395 0.000000 0.000000 0.000000
# 4 0.000000 0.000000 0.000000 0.025466 0.000000 0.000000
# 5 0.000000 0.000000 0.000000 0.000000 0.037379 0.000000
# 6 0.000000 0.000000 0.000000 0.000000 0.000000 0.021429
#
#
# Mechanical properties :
#
#
# Convention : Reuss Voigt Hill
#
# Bulk Modulus (GPa) = 67.89039 68.71365 68.30202
# Shear Modulus (GPa) = 29.94878 32.50659 31.22768
#
# Velocity S-wave (km/s) = 3.81695 3.97660 3.89759
# Velocity P-wave (km/s) = 7.24237 7.38319 7.31312
#
# Compressibility (1/GPa) = 0.01472963
#
# Stress axis : x y z
#
# Youngs Moduli (GPa) = 60.24509 61.52313 74.65271
#
# Poissons Ratio (x) = 0.44079 0.22705
# Poissons Ratio (y) = 0.43164 0.41456
# Poissons Ratio (z) = 0.18323 0.34165
#
# Static dielectric constant tensor:
#      x y z
#    x 3.957910 0.000000 0.000000 
#    y 0.000000 3.952160 0.000000 
#    z 0.000000 0.000000 3.464400 
# 
# 
# High freq. dielectric constant tensor:
#      x y z
#    x 1.820570 0.000000 0.000000 
#    y 0.000000 1.809870 0.000000 
#    z 0.000000 0.000000 1.773260 
# 
# From -- ./inp_files/24958.got.cif
#   From: 2010.06.25/outbox.cif.g09.slc.cpg/sg52_13_cif.got.tgz:24958.got - 2010.06.26 19:32:48.
