data_PCOD8216691
_publ_section_title
;
Structure prediction by ZEFSAII (Michael W. Deem and Ramdas Pophale) SiO2 
 PCOD8216691
Probable space group: P N N A
;
_chemical_formula_sum "Si O2"
_cell_formula_units_Z 32
_cell_length_a 10.928909
_cell_length_b 9.177216
_cell_length_c 12.783246
_cell_angle_alpha 90.000000
_cell_angle_beta 90.000000
_cell_angle_gamma 90.000000
_cell_volume 1282.120694
_symmetry_space_group_name_H-M "P N N A"
_symmetry_group_IT_number 52
_symmetry_cell_setting 'orthorhombic'
loop_
_space_group_symop_operation_xyz
x,y,z
1/2-x,-y,z
x,1/2-y,1/2-z
1/2-x,1/2+y,1/2-z
-x,-y,-z
1/2+x,y,-z
-x,1/2+y,1/2+z
1/2+x,1/2-y,1/2+z
loop_
_atom_site_type_symbol
_atom_site_label
_atom_site_fract_x
_atom_site_fract_y
_atom_site_fract_z
Si Si1 0.505933 0.026583 0.303567
Si Si2 0.484044 0.176145 0.082750
Si Si3 0.227292 0.207633 0.032711
Si Si4 0.750000 0.000000 0.412492
Si Si5 0.642851 0.250000 0.750000
O O1 0.500539 0.083780 0.186544
O O2 0.467094 0.151697 0.387123
O O3 0.640304 0.972628 0.332684
O O4 0.429162 0.878338 0.309833
O O5 0.362276 0.134661 0.012888
O O6 0.604815 0.134823 0.015117
O O7 0.226862 0.187909 0.158301
O O8 0.225898 0.368880 0.989817
#
# Coordination Sequence:
#
# PCOD8216691 Si02
#       5
#     8   8   8   4   4
#     4  10  23  42  67  97 130 172 222 273 328 391
#     4  10  23  44  67  94 130 172 220 273 329 393
#     4  11  23  40  67  98 132 172 220 271 328 392
#     4  10  22  44  70  94 130 182 226 260 324 412
#     4  12  24  38  64  98 134 172 218 274 330 388
#
# _framework density 24.958649000000001
#
# number of rings (size 3 to 8) (size 9 to 14) (size 15 to 20)
#    0.000    1.500    0.000    4.500    0.000   14.000 
#    0.000    2.500    0.000    0.000    0.000    0.000 
#    0.000    0.000    0.000    0.000    0.000    0.000 
#
# Total GULP energy -396443.762848 kJ/mol
# GULP energy per Si atom -12388.867589 kJ/mol
# Density = 2.490184 g / cm^3
# Si number density = 24.958649 Si / 1000 Ang^3
#
#
#
# Elastic Constant Matrix: (Units=GPa)
#
#
# Indices 1 2 3 4 5 6 
#
# 1 195.8013 17.8815 62.2329 0.0000 0.0000 0.0000
# 2 17.8815 72.6657 13.9221 0.0000 0.0000 0.0000
# 3 62.2329 13.9221 92.4031 0.0000 0.0000 0.0000
# 4 0.0000 0.0000 0.0000 28.0626 0.0000 0.0000
# 5 0.0000 0.0000 0.0000 0.0000 -15.3135 0.0000
# 6 0.0000 0.0000 0.0000 0.0000 0.0000 159.0201
#
#
#
# Elastic Compliance Matrix: (Units=1/GPa)
#
#
# Indices 1 2 3 4 5 6 
#
# 1 0.006542 -0.000788 -0.004287 0.000000 0.000000 0.000000
# 2 -0.000788 0.014266 -0.001618 0.000000 0.000000 0.000000
# 3 -0.004287 -0.001618 0.013953 0.000000 0.000000 0.000000
# 4 0.000000 0.000000 0.000000 0.035635 0.000000 0.000000
# 5 0.000000 0.000000 0.000000 0.000000 -0.065302 0.000000
# 6 0.000000 0.000000 0.000000 0.000000 0.000000 0.006289
#
#
# Mechanical properties :
#
#
# Convention : Reuss Voigt Hill
#
# Bulk Modulus (GPa) = 46.78782 60.99368 53.89075
# Shear Modulus (GPa) = 156.76781 52.14276 104.45529
#
# Velocity S-wave (km/s) = 7.93394 4.57570 6.47628
# Velocity P-wave (km/s) = 10.13492 7.23927 8.80692
#
# Compressibility (1/GPa) = 0.02137308
#
# Stress axis : x y z
#
# Youngs Moduli (GPa) = 152.86283 70.09807 71.66764
#
# Poissons Ratio (x) = 0.05527 0.30724
# Poissons Ratio (y) = 0.12052 0.11598
# Poissons Ratio (z) = 0.65533 0.11344
#
# Static dielectric constant tensor:
#      x y z
#    x 5.095080 0.000000 0.000000 
#    y 0.000000 4.402850 0.000000 
#    z 0.000000 0.000000 4.333770 
# 
# 
# High freq. dielectric constant tensor:
#      x y z
#    x 2.016370 0.000000 0.000000 
#    y 0.000000 1.995760 0.000000 
#    z 0.000000 0.000000 1.991030 
# 
# From -- ./inp_files/19020.got.cif
#   From: 2010.06.25/outbox.cif.g09.slc.cpg/sg52_10_cif.got.tgz:19020.got - 2010.06.26 19:32:48.
