data_PCOD8216874
_publ_section_title
;
Structure prediction by ZEFSAII (Michael W. Deem and Ramdas Pophale) SiO2 
 PCOD8216874
Probable space group: P N N A
;
_chemical_formula_sum "Si O2"
_cell_formula_units_Z 40
_cell_length_a 12.179484
_cell_length_b 5.231630
_cell_length_c 28.610598
_cell_angle_alpha 90.000000
_cell_angle_beta 90.000000
_cell_angle_gamma 90.000000
_cell_volume 1823.025930
_symmetry_space_group_name_H-M "P N N A"
_symmetry_group_IT_number 52
_symmetry_cell_setting 'orthorhombic'
loop_
_space_group_symop_operation_xyz
x,y,z
1/2-x,-y,z
x,1/2-y,1/2-z
1/2-x,1/2+y,1/2-z
-x,-y,-z
1/2+x,y,-z
-x,1/2+y,1/2+z
1/2+x,1/2-y,1/2+z
loop_
_atom_site_type_symbol
_atom_site_label
_atom_site_fract_x
_atom_site_fract_y
_atom_site_fract_z
Si Si1 0.852725 0.631826 0.667617
Si Si2 0.995155 0.750000 0.750000
Si Si3 0.020641 0.973613 0.445747
Si Si4 0.459851 0.491511 0.607309
Si Si5 0.750000 0.500000 0.330456
Si Si6 0.358216 0.750000 0.750000
Si Si7 0.250000 0.500000 0.093383
O O1 0.750000 0.500000 0.694103
O O2 0.918100 0.799800 0.705149
O O3 0.796509 0.780382 0.625707
O O4 0.941674 0.441944 0.643726
O O5 0.067855 0.499783 0.746585
O O6 0.946998 0.738999 0.425825
O O7 0.149450 0.905071 0.438988
O O8 0.000000 0.000000 0.500000
O O9 0.986173 0.236586 0.421422
O O10 0.350772 0.428509 0.636322
O O11 0.719293 0.259603 0.296244
#
# Coordination Sequence:
#
# PCOD8216874 Si02
#       7
#     8   4   8   8   4   4   4
#     4  11  24  45  67 104 142 187 235 289 359 421
#     4  12  29  43  74 104 146 189 259 294 344 442
#     4  11  25  47  73 107 138 178 237 297 366 440
#     4  11  26  45  72 103 137 187 235 287 362 433
#     4  12  28  48  74  99 154 193 246 302 356 426
#     4  12  29  49  68 108 148 201 245 304 354 414
#     4  10  24  42  72  97 144 183 216 296 366 412
#
# _framework density 21.941538999999999
#
# number of rings (size 3 to 8) (size 9 to 14) (size 15 to 20)
#    0.000    0.800    4.000    1.200    9.800    4.000 
#    0.000    0.000    0.000    0.000    0.000    0.000 
#    0.000    0.000    0.000    0.000    0.000    0.000 
#
# Total GULP energy -495788.341514 kJ/mol
# GULP energy per Si atom -12394.708538 kJ/mol
# Density = 2.189160 g / cm^3
# Si number density = 21.941539 Si / 1000 Ang^3
#
#
#
# Elastic Constant Matrix: (Units=GPa)
#
#
# Indices 1 2 3 4 5 6 
#
# 1 164.1087 51.1627 82.9470 0.0000 0.0000 0.0000
# 2 51.1627 126.3472 48.1478 0.0000 0.0000 0.0000
# 3 82.9470 48.1478 154.7091 0.0000 0.0000 0.0000
# 4 0.0000 0.0000 0.0000 3.0438 0.0000 0.0000
# 5 0.0000 0.0000 0.0000 0.0000 40.5733 0.0000
# 6 0.0000 0.0000 0.0000 0.0000 0.0000 14.1537
#
#
#
# Elastic Compliance Matrix: (Units=1/GPa)
#
#
# Indices 1 2 3 4 5 6 
#
# 1 0.008782 -0.001999 -0.004086 0.000000 0.000000 0.000000
# 2 -0.001999 0.009435 -0.001864 0.000000 0.000000 0.000000
# 3 -0.004086 -0.001864 0.009235 0.000000 0.000000 0.000000
# 4 0.000000 0.000000 0.000000 0.328540 0.000000 0.000000
# 5 0.000000 0.000000 0.000000 0.000000 0.024647 0.000000
# 6 0.000000 0.000000 0.000000 0.000000 0.000000 0.070653
#
#
# Mechanical properties :
#
#
# Convention : Reuss Voigt Hill
#
# Bulk Modulus (GPa) = 86.56505 89.96445 88.26475
# Shear Modulus (GPa) = 10.61478 29.08133 19.84805
#
# Velocity S-wave (km/s) = 2.20188 3.64455 3.01090
# Velocity P-wave (km/s) = 6.78252 7.66820 7.23892
#
# Compressibility (1/GPa) = 0.01155201
#
# Stress axis : x y z
#
# Youngs Moduli (GPa) = 113.86712 105.99219 108.28469
#
# Poissons Ratio (x) = 0.21188 0.44250
# Poissons Ratio (y) = 0.22762 0.20189
# Poissons Ratio (z) = 0.46531 0.19762
#
# Static dielectric constant tensor:
#      x y z
#    x 5.442810 0.000000 0.000000 
#    y 0.000000 4.599070 0.000000 
#    z 0.000000 0.000000 4.216030 
# 
# 
# High freq. dielectric constant tensor:
#      x y z
#    x 1.887320 0.000000 0.000000 
#    y 0.000000 1.852300 0.000000 
#    z 0.000000 0.000000 1.863000 
# 
# From -- ./inp_files/42602.got.cif
#   From: 2010.06.25/outbox.cif.g09.slc.cpg/sg52_22_cif.got.tgz:42602.got - 2010.06.26 19:32:48.
