data_PCOD8216742
_publ_section_title
;
Structure prediction by ZEFSAII (Michael W. Deem and Ramdas Pophale) SiO2 
 PCOD8216742
Probable space group: P N N A
;
_chemical_formula_sum "Si O2"
_cell_formula_units_Z 56
_cell_length_a 14.313013
_cell_length_b 20.901871
_cell_length_c 9.312583
_cell_angle_alpha 90.000000
_cell_angle_beta 90.000000
_cell_angle_gamma 90.000000
_cell_volume 2786.033828
_symmetry_space_group_name_H-M "P N N A"
_symmetry_group_IT_number 52
_symmetry_cell_setting 'orthorhombic'
loop_
_space_group_symop_operation_xyz
x,y,z
1/2-x,-y,z
x,1/2-y,1/2-z
1/2-x,1/2+y,1/2-z
-x,-y,-z
1/2+x,y,-z
-x,1/2+y,1/2+z
1/2+x,1/2-y,1/2+z
loop_
_atom_site_type_symbol
_atom_site_label
_atom_site_fract_x
_atom_site_fract_y
_atom_site_fract_z
Si Si1 0.691487 0.755786 0.578370
Si Si2 0.179952 0.055175 0.818751
Si Si3 0.096048 0.381797 0.145276
Si Si4 0.154887 0.155884 0.053804
Si Si5 0.756086 0.392294 0.045897
Si Si6 0.500118 0.754949 0.416465
Si Si7 0.065704 0.969588 0.616379
O O1 0.692632 0.750000 0.750000
O O2 0.753493 0.697654 0.515831
O O3 0.732642 0.822213 0.519988
O O4 0.587447 0.751785 0.520870
O O5 0.231343 0.106471 0.714892
O O6 0.250000 0.000000 0.871176
O O7 0.095022 0.021064 0.735606
O O8 0.145065 0.093194 0.956400
O O9 0.160206 0.365471 0.281279
O O10 0.061944 0.318200 0.061602
O O11 0.001732 0.418065 0.194281
O O12 0.165479 0.421834 0.038431
O O13 0.061274 0.195830 0.031903
O O14 0.848076 0.436086 0.032038
O O15 0.531540 0.750000 0.250000
O O16 0.000000 0.000000 0.500000
#
# Coordination Sequence:
#
# PCOD8216742 Si02
#       7
#     8   8   8   8   8   8   8
#     4  12  23  40  66 101 133 167 217 272 336 399
#     4  10  25  44  63  95 129 173 229 267 318 398
#     4  11  21  43  67  93 133 170 214 276 333 386
#     4  11  24  43  64  96 137 167 212 277 335 391
#     4  11  22  41  66  94 130 171 219 273 323 392
#     4  10  23  40  65  97 130 173 210 263 340 396
#     4  11  23  41  68  93 127 175 229 267 318 391
#
# _framework density 20.100258
#
# number of rings (size 3 to 8) (size 9 to 14) (size 15 to 20)
#    0.000    1.143    5.714    0.429    2.000    4.000 
#    2.571    0.000    0.000    0.000    0.000    0.000 
#    0.000    0.000    0.000    0.000    0.000    0.000 
#
# Total GULP energy -694209.512472 kJ/mol
# GULP energy per Si atom -12396.598437 kJ/mol
# Density = 2.005451 g / cm^3
# Si number density = 20.100258 Si / 1000 Ang^3
#
#
#
# Elastic Constant Matrix: (Units=GPa)
#
#
# Indices 1 2 3 4 5 6 
#
# 1 112.5225 47.5769 53.5416 0.0000 0.0000 0.0000
# 2 47.5769 112.7370 61.8968 0.0000 0.0000 0.0000
# 3 53.5416 61.8968 73.9360 0.0000 0.0000 0.0000
# 4 0.0000 0.0000 0.0000 41.1233 0.0000 0.0000
# 5 0.0000 0.0000 0.0000 0.0000 34.8798 0.0000
# 6 0.0000 0.0000 0.0000 0.0000 0.0000 34.6085
#
#
#
# Elastic Compliance Matrix: (Units=1/GPa)
#
#
# Indices 1 2 3 4 5 6 
#
# 1 0.013582 -0.000614 -0.009322 0.000000 0.000000 0.000000
# 2 -0.000614 0.016443 -0.013321 0.000000 0.000000 0.000000
# 3 -0.009322 -0.013321 0.031428 0.000000 0.000000 0.000000
# 4 0.000000 0.000000 0.000000 0.024317 0.000000 0.000000
# 5 0.000000 0.000000 0.000000 0.000000 0.028670 0.000000
# 6 0.000000 0.000000 0.000000 0.000000 0.000000 0.028895
#
#
# Mechanical properties :
#
#
# Convention : Reuss Voigt Hill
#
# Bulk Modulus (GPa) = 66.93680 69.46958 68.20319
# Shear Modulus (GPa) = 25.66370 31.20100 28.43235
#
# Velocity S-wave (km/s) = 3.57709 3.94416 3.76510
# Velocity P-wave (km/s) = 7.10173 7.44167 7.27368
#
# Compressibility (1/GPa) = 0.01493947
#
# Stress axis : x y z
#
# Youngs Moduli (GPa) = 73.62526 60.81614 31.81919
#
# Poissons Ratio (x) = 0.03734 0.29661
# Poissons Ratio (y) = 0.04520 0.42386
# Poissons Ratio (z) = 0.68632 0.81013
#
# Static dielectric constant tensor:
#      x y z
#    x 4.575810 0.000000 0.000000 
#    y 0.000000 3.402860 0.000000 
#    z 0.000000 0.000000 3.471720 
# 
# 
# High freq. dielectric constant tensor:
#      x y z
#    x 1.802060 0.000000 0.000000 
#    y 0.000000 1.790440 0.000000 
#    z 0.000000 0.000000 1.769000 
# 
# From -- ./inp_files/10835.got.cif
#   From: 2010.06.25/outbox.cif.g09.slc.cpg/sg52_6_cif.got.tgz:10835.got - 2010.06.26 19:32:48.
