data_PCOD8216668
_publ_section_title
;
Structure prediction by ZEFSAII (Michael W. Deem and Ramdas Pophale) SiO2 
 PCOD8216668
Probable space group: P N N A
;
_chemical_formula_sum "Si O2"
_cell_formula_units_Z 28
_cell_length_a 17.786363
_cell_length_b 7.838159
_cell_length_c 8.115432
_cell_angle_alpha 90.000000
_cell_angle_beta 90.000000
_cell_angle_gamma 90.000000
_cell_volume 1131.391375
_symmetry_space_group_name_H-M "P N N A"
_symmetry_group_IT_number 52
_symmetry_cell_setting 'orthorhombic'
loop_
_space_group_symop_operation_xyz
x,y,z
1/2-x,-y,z
x,1/2-y,1/2-z
1/2-x,1/2+y,1/2-z
-x,-y,-z
1/2+x,y,-z
-x,1/2+y,1/2+z
1/2+x,1/2-y,1/2+z
loop_
_atom_site_type_symbol
_atom_site_label
_atom_site_fract_x
_atom_site_fract_y
_atom_site_fract_z
Si Si1 0.213441 0.178544 0.419168
Si Si2 0.864093 0.163854 0.020972
Si Si3 0.399291 0.523586 0.835347
Si Si4 0.531682 0.750000 0.750000
O O1 0.175663 0.250000 0.250000
O O2 0.276511 0.311800 0.480555
O O3 0.250000 0.000000 0.370952
O O4 0.155472 0.153259 0.568440
O O5 0.914325 0.128928 0.860106
O O6 0.901161 0.338242 0.086211
O O7 0.871861 0.004368 0.145722
O O8 0.480433 0.612237 0.844928
#
# Coordination Sequence:
#
# PCOD8216668 Si02
#       4
#     8   8   8   4
#     4  10  22  43  69  98 135 185 232 286 346 410
#     4  10  22  45  69  97 140 177 228 285 345 412
#     4  10  24  41  66 102 133 174 231 284 339 414
#     4  12  22  42  70 104 134 182 220 282 356 406
#
# _framework density 24.748287000000001
#
# number of rings (size 3 to 8) (size 9 to 14) (size 15 to 20)
#    0.000    1.714    1.429    1.714    0.000    9.143 
#   15.429    0.000    0.000    0.000    0.000    0.000 
#    0.000    0.000    0.000    0.000    0.000    0.000 
#
# Total GULP energy -347086.359954 kJ/mol
# GULP energy per Si atom -12395.941427 kJ/mol
# Density = 2.469196 g / cm^3
# Si number density = 24.748287 Si / 1000 Ang^3
#
#
#
# Elastic Constant Matrix: (Units=GPa)
#
#
# Indices 1 2 3 4 5 6 
#
# 1 139.4469 25.5295 86.2967 0.0000 0.0000 0.0000
# 2 25.5295 78.8002 32.1918 0.0000 0.0000 0.0000
# 3 86.2967 32.1918 177.4479 0.0000 0.0000 0.0000
# 4 0.0000 0.0000 0.0000 53.4062 0.0000 0.0000
# 5 0.0000 0.0000 0.0000 0.0000 45.7292 0.0000
# 6 0.0000 0.0000 0.0000 0.0000 0.0000 10.5377
#
#
#
# Elastic Compliance Matrix: (Units=1/GPa)
#
#
# Indices 1 2 3 4 5 6 
#
# 1 0.010401 -0.001408 -0.004803 0.000000 0.000000 0.000000
# 2 -0.001408 0.013897 -0.001837 0.000000 0.000000 0.000000
# 3 -0.004803 -0.001837 0.008304 0.000000 0.000000 0.000000
# 4 0.000000 0.000000 0.000000 0.018724 0.000000 0.000000
# 5 0.000000 0.000000 0.000000 0.000000 0.021868 0.000000
# 6 0.000000 0.000000 0.000000 0.000000 0.000000 0.094898
#
#
# Mechanical properties :
#
#
# Convention : Reuss Voigt Hill
#
# Bulk Modulus (GPa) = 60.57654 75.97013 68.27333
# Shear Modulus (GPa) = 26.35892 38.71307 32.53600
#
# Velocity S-wave (km/s) = 3.26710 3.95938 3.62978
# Velocity P-wave (km/s) = 6.22592 7.18791 6.72414
#
# Compressibility (1/GPa) = 0.01650804
#
# Stress axis : x y z
#
# Youngs Moduli (GPa) = 96.14269 71.95995 120.41788
#
# Poissons Ratio (x) = 0.10129 0.57836
# Poissons Ratio (y) = 0.13533 0.22115
# Poissons Ratio (z) = 0.46177 0.13215
#
# Static dielectric constant tensor:
#      x y z
#    x 4.308970 0.000000 0.000000 
#    y 0.000000 4.350930 0.000000 
#    z 0.000000 0.000000 4.792450 
# 
# 
# High freq. dielectric constant tensor:
#      x y z
#    x 1.973670 0.000000 0.000000 
#    y 0.000000 1.986230 0.000000 
#    z 0.000000 0.000000 1.996590 
# 
# From -- ./inp_files/11343.got.cif
#   From: 2010.06.25/outbox.cif.g09.slc.cpg/sg52_6_cif.got.tgz:11343.got - 2010.06.26 19:32:48.
