data_PCOD8216118
_publ_section_title
;
Structure prediction by ZEFSAII (Michael W. Deem and Ramdas Pophale) SiO2 
 PCOD8216118
Probable space group: P N N A
;
_chemical_formula_sum "Si O2"
_cell_formula_units_Z 32
_cell_length_a 5.135554
_cell_length_b 8.490898
_cell_length_c 37.572130
_cell_angle_alpha 90.000000
_cell_angle_beta 90.000000
_cell_angle_gamma 90.000000
_cell_volume 1638.350207
_symmetry_space_group_name_H-M "P N N A"
_symmetry_group_IT_number 52
_symmetry_cell_setting 'orthorhombic'
loop_
_space_group_symop_operation_xyz
x,y,z
1/2-x,-y,z
x,1/2-y,1/2-z
1/2-x,1/2+y,1/2-z
-x,-y,-z
1/2+x,y,-z
-x,1/2+y,1/2+z
1/2+x,1/2-y,1/2+z
loop_
_atom_site_type_symbol
_atom_site_label
_atom_site_fract_x
_atom_site_fract_y
_atom_site_fract_z
Si Si1 0.506283 0.602163 0.355822
Si Si2 0.509628 0.895983 0.405922
Si Si3 0.507501 0.600689 0.274507
Si Si4 0.178409 0.823071 0.516185
O O1 0.750000 0.500000 0.370164
O O2 0.460274 0.759914 0.377796
O O3 0.556441 0.653600 0.315137
O O4 0.250000 0.500000 0.359896
O O5 0.592580 0.816148 0.443010
O O6 0.750000 0.000000 0.391782
O O7 0.250000 0.000000 0.410667
O O8 0.750000 0.500000 0.260296
O O9 0.473766 0.750000 0.250000
O O10 0.250000 0.500000 0.270990
O O11 0.456765 0.738739 0.508409
O O12 0.250000 0.000000 0.502816
#
# Coordination Sequence:
#
# PCOD8216118 Si02
#       4
#     8   8   8   8
#     4  10  22  39  55  76 112 149 172 206 271 327
#     4  11  21  33  55  83 104 134 184 227 257 305
#     4  10  21  37  58  82 108 141 178 216 262 313
#     4   9  16  28  47  73 103 131 166 219 271 305
#
# _framework density 19.531841
#
# number of rings (size 3 to 8) (size 9 to 14) (size 15 to 20)
#    0.000    2.000    0.000    6.000    0.000    2.000 
#    0.000    0.000    0.000    4.500    0.000    0.000 
#    0.000    0.000    0.000    0.000    0.000    0.000 
#
# Total GULP energy -396703.390567 kJ/mol
# GULP energy per Si atom -12396.980955 kJ/mol
# Density = 1.948739 g / cm^3
# Si number density = 19.531841 Si / 1000 Ang^3
#
#
#
# Elastic Constant Matrix: (Units=GPa)
#
#
# Indices 1 2 3 4 5 6 
#
# 1 142.4269 20.6177 35.1352 0.0000 0.0000 0.0000
# 2 20.6177 62.0815 55.3854 0.0000 0.0000 0.0000
# 3 35.1352 55.3854 97.3569 0.0000 0.0000 0.0000
# 4 0.0000 0.0000 0.0000 21.7788 0.0000 0.0000
# 5 0.0000 0.0000 0.0000 0.0000 107.4594 0.0000
# 6 0.0000 0.0000 0.0000 0.0000 0.0000 18.8652
#
#
#
# Elastic Compliance Matrix: (Units=1/GPa)
#
#
# Indices 1 2 3 4 5 6 
#
# 1 0.007708 -0.000159 -0.002691 0.000000 0.000000 0.000000
# 2 -0.000159 0.032712 -0.018552 0.000000 0.000000 0.000000
# 3 -0.002691 -0.018552 0.021797 0.000000 0.000000 0.000000
# 4 0.000000 0.000000 0.000000 0.045916 0.000000 0.000000
# 5 0.000000 0.000000 0.000000 0.000000 0.009306 0.000000
# 6 0.000000 0.000000 0.000000 0.000000 0.000000 0.053008
#
#
# Mechanical properties :
#
#
# Convention : Reuss Voigt Hill
#
# Bulk Modulus (GPa) = 51.51432 58.23800 54.87616
# Shear Modulus (GPa) = 22.75612 42.33582 32.54597
#
# Velocity S-wave (km/s) = 3.41703 4.66072 4.08647
# Velocity P-wave (km/s) = 6.48073 7.67104 7.10087
#
# Compressibility (1/GPa) = 0.01941208
#
# Stress axis : x y z
#
# Youngs Moduli (GPa) = 129.73396 30.57026 45.87819
#
# Poissons Ratio (x) = 0.00485 0.12348
# Poissons Ratio (y) = 0.02060 0.85113
# Poissons Ratio (z) = 0.34917 0.56714
#
# Static dielectric constant tensor:
#      x y z
#    x 4.157750 0.000000 0.000000 
#    y 0.000000 3.027960 0.000000 
#    z 0.000000 0.000000 3.508590 
# 
# 
# High freq. dielectric constant tensor:
#      x y z
#    x 1.797940 0.000000 0.000000 
#    y 0.000000 1.720330 0.000000 
#    z 0.000000 0.000000 1.758100 
# 
# From -- ./inp_files/43452.got.cif
#   From: 2010.06.25/outbox.cif.g09.slc.cpg/sg52_22_cif.got.tgz:43452.got - 2010.06.26 19:32:48.
