data_PCOD8216823
_publ_section_title
;
Structure prediction by ZEFSAII (Michael W. Deem and Ramdas Pophale) SiO2 
 PCOD8216823
Probable space group: P N N A
;
_chemical_formula_sum "Si O2"
_cell_formula_units_Z 40
_cell_length_a 18.703489
_cell_length_b 17.395047
_cell_length_c 5.752475
_cell_angle_alpha 90.000000
_cell_angle_beta 90.000000
_cell_angle_gamma 90.000000
_cell_volume 1871.556640
_symmetry_space_group_name_H-M "P N N A"
_symmetry_group_IT_number 52
_symmetry_cell_setting 'orthorhombic'
loop_
_space_group_symop_operation_xyz
x,y,z
1/2-x,-y,z
x,1/2-y,1/2-z
1/2-x,1/2+y,1/2-z
-x,-y,-z
1/2+x,y,-z
-x,1/2+y,1/2+z
1/2+x,1/2-y,1/2+z
loop_
_atom_site_type_symbol
_atom_site_label
_atom_site_fract_x
_atom_site_fract_y
_atom_site_fract_z
Si Si1 0.822713 0.466155 0.451081
Si Si2 0.428512 0.080454 0.333540
Si Si3 0.913086 0.931577 0.361655
Si Si4 0.175093 0.208869 0.492582
Si Si5 0.825800 0.172191 0.381085
O O1 0.750000 0.500000 0.567874
O O2 0.875954 0.421809 0.617613
O O3 0.863595 0.539627 0.346880
O O4 0.799902 0.400977 0.268942
O O5 0.510353 0.097561 0.260627
O O6 0.398944 0.150339 0.488530
O O7 0.425673 0.999236 0.458308
O O8 0.875575 0.864458 0.503473
O O9 0.151619 0.250000 0.250000
O O10 0.258053 0.187079 0.451868
O O11 0.167289 0.250000 0.750000
O O12 0.845669 0.250000 0.250000
#
# Coordination Sequence:
#
# PCOD8216823 Si02
#       5
#     8   8   8   8   8
#     4  11  22  39  69  97 129 177 234 286 349 418
#     4  10  24  39  69  93 129 183 217 297 342 416
#     4  10  23  45  60  99 135 172 235 278 350 414
#     4  11  26  44  69 100 139 186 229 283 340 409
#     4  10  24  41  61  98 134 173 234 284 344 413
#
# _framework density 21.372582999999999
#
# number of rings (size 3 to 8) (size 9 to 14) (size 15 to 20)
#    0.000    1.600    2.000    0.600   11.200    0.800 
#    3.600    0.000    0.000    0.000    0.000    0.000 
#    0.000    0.000    0.000    0.000    0.000    0.000 
#
# Total GULP energy -495700.484555 kJ/mol
# GULP energy per Si atom -12392.512114 kJ/mol
# Density = 2.132394 g / cm^3
# Si number density = 21.372583 Si / 1000 Ang^3
#
#
#
# Elastic Constant Matrix: (Units=GPa)
#
#
# Indices 1 2 3 4 5 6 
#
# 1 150.1728 77.9584 39.0029 0.0000 0.0000 0.0000
# 2 77.9584 109.7577 37.7724 0.0000 0.0000 0.0000
# 3 39.0029 37.7724 88.2244 0.0000 0.0000 0.0000
# 4 0.0000 0.0000 0.0000 24.3657 0.0000 0.0000
# 5 0.0000 0.0000 0.0000 0.0000 24.8252 0.0000
# 6 0.0000 0.0000 0.0000 0.0000 0.0000 15.7780
#
#
#
# Elastic Compliance Matrix: (Units=1/GPa)
#
#
# Indices 1 2 3 4 5 6 
#
# 1 0.010772 -0.007051 -0.001743 0.000000 0.000000 0.000000
# 2 -0.007051 0.015301 -0.003434 0.000000 0.000000 0.000000
# 3 -0.001743 -0.003434 0.013576 0.000000 0.000000 0.000000
# 4 0.000000 0.000000 0.000000 0.041041 0.000000 0.000000
# 5 0.000000 0.000000 0.000000 0.000000 0.040282 0.000000
# 6 0.000000 0.000000 0.000000 0.000000 0.000000 0.063379
#
#
# Mechanical properties :
#
#
# Convention : Reuss Voigt Hill
#
# Bulk Modulus (GPa) = 65.82342 73.06914 69.44628
# Shear Modulus (GPa) = 23.37848 25.88855 24.63352
#
# Velocity S-wave (km/s) = 3.31093 3.48415 3.39864
# Velocity P-wave (km/s) = 6.74398 7.10269 6.92566
#
# Compressibility (1/GPa) = 0.01519216
#
# Stress axis : x y z
#
# Youngs Moduli (GPa) = 92.83050 65.35482 73.66197
#
# Poissons Ratio (x) = 0.46084 0.12842
# Poissons Ratio (y) = 0.65458 0.25293
# Poissons Ratio (z) = 0.16183 0.22441
#
# Static dielectric constant tensor:
#      x y z
#    x 4.169360 0.000000 0.000000 
#    y 0.000000 3.904670 0.000000 
#    z 0.000000 0.000000 3.785360 
# 
# 
# High freq. dielectric constant tensor:
#      x y z
#    x 1.850810 0.000000 0.000000 
#    y 0.000000 1.843240 0.000000 
#    z 0.000000 0.000000 1.822510 
# 
# From -- ./inp_files/3166.got.cif
#   From: 2010.06.25/outbox.cif.g09.slc.cpg/sg52_2_cif.got.tgz:3166.got - 2010.06.26 19:32:48.
