data_PCOD8216274
_publ_section_title
;
Structure prediction by ZEFSAII (Michael W. Deem and Ramdas Pophale) SiO2 
 PCOD8216274
Probable space group: P N N A
;
_chemical_formula_sum "Si O2"
_cell_formula_units_Z 40
_cell_length_a 17.494215
_cell_length_b 8.495324
_cell_length_c 13.324218
_cell_angle_alpha 90.000000
_cell_angle_beta 90.000000
_cell_angle_gamma 90.000000
_cell_volume 1980.232282
_symmetry_space_group_name_H-M "P N N A"
_symmetry_group_IT_number 52
_symmetry_cell_setting 'orthorhombic'
loop_
_space_group_symop_operation_xyz
x,y,z
1/2-x,-y,z
x,1/2-y,1/2-z
1/2-x,1/2+y,1/2-z
-x,-y,-z
1/2+x,y,-z
-x,1/2+y,1/2+z
1/2+x,1/2-y,1/2+z
loop_
_atom_site_type_symbol
_atom_site_label
_atom_site_fract_x
_atom_site_fract_y
_atom_site_fract_z
Si Si1 0.408439 0.687750 0.640312
Si Si2 0.303126 0.143703 0.345951
Si Si3 0.954892 0.147450 0.540842
Si Si4 0.620038 0.680172 0.356128
Si Si5 0.238329 0.313412 0.950693
O O1 0.390369 0.750000 0.750000
O O2 0.493114 0.735078 0.606151
O O3 0.398064 0.502419 0.639870
O O4 0.349526 0.769996 0.564351
O O5 0.317073 0.250000 0.250000
O O6 0.385258 0.087590 0.389016
O O7 0.260488 0.237059 0.435825
O O8 0.250000 0.000000 0.311476
O O9 0.926372 0.239065 0.444212
O O10 0.000000 0.000000 0.500000
O O11 0.592745 0.750000 0.250000
O O12 0.710106 0.716072 0.371682
O O13 0.250000 0.500000 0.935921
#
# Coordination Sequence:
#
# PCOD8216274 Si02
#       5
#     8   8   8   8   8
#     4  12  23  39  62  90 122 159 202 256 315 374
#     4  10  22  40  62  88 120 160 206 254 311 376
#     4  11  23  42  63  88 125 162 206 261 318 381
#     4  11  23  39  60  89 120 159 203 249 308 377
#     4  10  21  40  62  87 120 160 205 256 308 370
#
# _framework density 20.199649999999998
#
# number of rings (size 3 to 8) (size 9 to 14) (size 15 to 20)
#    0.000    1.200    0.000    8.400    0.000    3.200 
#    0.000   10.000    0.000    0.000    0.000    0.000 
#    0.000    0.000    0.000    0.000    0.000    0.000 
#
# Total GULP energy -496106.981505 kJ/mol
# GULP energy per Si atom -12402.674538 kJ/mol
# Density = 2.015367 g / cm^3
# Si number density = 20.199650 Si / 1000 Ang^3
#
#
#
# Elastic Constant Matrix: (Units=GPa)
#
#
# Indices 1 2 3 4 5 6 
#
# 1 130.2909 49.0440 52.2403 0.0000 0.0000 0.0000
# 2 49.0440 135.6731 53.2066 0.0000 0.0000 0.0000
# 3 52.2403 53.2066 124.6059 0.0000 0.0000 0.0000
# 4 0.0000 0.0000 0.0000 31.6770 0.0000 0.0000
# 5 0.0000 0.0000 0.0000 0.0000 26.5928 0.0000
# 6 0.0000 0.0000 0.0000 0.0000 0.0000 35.3271
#
#
#
# Elastic Compliance Matrix: (Units=1/GPa)
#
#
# Indices 1 2 3 4 5 6 
#
# 1 0.009798 -0.002319 -0.003117 0.000000 0.000000 0.000000
# 2 -0.002319 0.009402 -0.003042 0.000000 0.000000 0.000000
# 3 -0.003117 -0.003042 0.010631 0.000000 0.000000 0.000000
# 4 0.000000 0.000000 0.000000 0.031569 0.000000 0.000000
# 5 0.000000 0.000000 0.000000 0.000000 0.037604 0.000000
# 6 0.000000 0.000000 0.000000 0.000000 0.000000 0.028307
#
#
# Mechanical properties :
#
#
# Convention : Reuss Voigt Hill
#
# Bulk Modulus (GPa) = 77.67964 77.72795 77.70379
# Shear Modulus (GPa) = 33.65629 34.45800 34.05715
#
# Velocity S-wave (km/s) = 4.08632 4.13470 4.11058
# Velocity P-wave (km/s) = 7.79765 7.83312 7.81541
#
# Compressibility (1/GPa) = 0.01287339
#
# Stress axis : x y z
#
# Youngs Moduli (GPa) = 102.06039 106.35837 94.06132
#
# Poissons Ratio (x) = 0.24668 0.29323
# Poissons Ratio (y) = 0.23671 0.28617
# Poissons Ratio (z) = 0.31817 0.32358
#
# Static dielectric constant tensor:
#      x y z
#    x 4.112440 0.000000 0.000000 
#    y 0.000000 0.322930 0.000000 
#    z 0.000000 0.000000 3.798540 
# 
# 
# High freq. dielectric constant tensor:
#      x y z
#    x 1.801050 0.000000 0.000000 
#    y 0.000000 1.786740 0.000000 
#    z 0.000000 0.000000 1.801250 
# 
# From -- ./inp_files/20278.got.cif
#   From: 2010.06.25/outbox.cif.g09.slc.cpg/sg52_11_cif.got.tgz:20278.got - 2010.06.26 19:32:48.
