data_PCOD8216838
_publ_section_title
;
Structure prediction by ZEFSAII (Michael W. Deem and Ramdas Pophale) SiO2 
 PCOD8216838
Probable space group: P N N A
;
_chemical_formula_sum "Si O2"
_cell_formula_units_Z 28
_cell_length_a 21.021383
_cell_length_b 12.252200
_cell_length_c 5.227637
_cell_angle_alpha 90.000000
_cell_angle_beta 90.000000
_cell_angle_gamma 90.000000
_cell_volume 1346.420717
_symmetry_space_group_name_H-M "P N N A"
_symmetry_group_IT_number 52
_symmetry_cell_setting 'orthorhombic'
loop_
_space_group_symop_operation_xyz
x,y,z
1/2-x,-y,z
x,1/2-y,1/2-z
1/2-x,1/2+y,1/2-z
-x,-y,-z
1/2+x,y,-z
-x,1/2+y,1/2+z
1/2+x,1/2-y,1/2+z
loop_
_atom_site_type_symbol
_atom_site_label
_atom_site_fract_x
_atom_site_fract_y
_atom_site_fract_z
Si Si1 0.390615 0.566895 0.841893
Si Si2 0.486015 0.750000 0.750000
Si Si3 0.091233 0.850715 0.902395
Si Si4 0.824693 0.986079 0.854027
O O1 0.442940 0.659190 0.886391
O O2 0.425058 0.448955 0.797569
O O3 0.346803 0.591362 0.590917
O O4 0.345694 0.566826 0.088531
O O5 0.526877 0.690041 0.534041
O O6 0.122721 0.750000 0.750000
O O7 0.141994 0.894595 0.111580
O O8 0.750000 0.000000 0.856530
#
# Coordination Sequence:
#
# PCOD8216838 Si02
#       4
#     8   4   8   8
#     4  10  25  42  70  99 129 182 218 276 335 388
#     4  12  24  44  64 104 140 170 226 272 338 398
#     4  10  24  41  70  99 134 178 214 279 336 394
#     4  10  23  48  68  97 135 175 228 274 328 398
#
# _framework density 20.795876
#
# number of rings (size 3 to 8) (size 9 to 14) (size 15 to 20)
#    1.714    0.000    0.000    3.429    4.000    2.286 
#    2.571    2.857    0.000    0.000    0.000    0.000 
#    0.000    0.000    0.000    0.000    0.000    0.000 
#
# Total GULP energy -347034.229015 kJ/mol
# GULP energy per Si atom -12394.079608 kJ/mol
# Density = 2.074854 g / cm^3
# Si number density = 20.795876 Si / 1000 Ang^3
#
#
#
# Elastic Constant Matrix: (Units=GPa)
#
#
# Indices 1 2 3 4 5 6 
#
# 1 160.1059 58.5473 62.7458 0.0000 0.0000 0.0000
# 2 58.5473 103.7367 23.6468 0.0000 0.0000 0.0000
# 3 62.7458 23.6468 144.7304 0.0000 0.0000 0.0000
# 4 0.0000 0.0000 0.0000 11.4729 0.0000 0.0000
# 5 0.0000 0.0000 0.0000 0.0000 15.5506 0.0000
# 6 0.0000 0.0000 0.0000 0.0000 0.0000 18.7476
#
#
#
# Elastic Compliance Matrix: (Units=1/GPa)
#
#
# Indices 1 2 3 4 5 6 
#
# 1 0.009128 -0.004414 -0.003236 0.000000 0.000000 0.000000
# 2 -0.004414 0.012147 -0.000071 0.000000 0.000000 0.000000
# 3 -0.003236 -0.000071 0.008324 0.000000 0.000000 0.000000
# 4 0.000000 0.000000 0.000000 0.087162 0.000000 0.000000
# 5 0.000000 0.000000 0.000000 0.000000 0.064306 0.000000
# 6 0.000000 0.000000 0.000000 0.000000 0.000000 0.053340
#
#
# Mechanical properties :
#
#
# Convention : Reuss Voigt Hill
#
# Bulk Modulus (GPa) = 70.63739 77.60587 74.12163
# Shear Modulus (GPa) = 19.64100 26.72977 23.18538
#
# Velocity S-wave (km/s) = 3.07655 3.58905 3.34264
# Velocity P-wave (km/s) = 6.83088 7.38742 7.11460
#
# Compressibility (1/GPa) = 0.01415681
#
# Stress axis : x y z
#
# Youngs Moduli (GPa) = 109.54917 82.32315 120.13415
#
# Poissons Ratio (x) = 0.36339 0.38878
# Poissons Ratio (y) = 0.48357 0.00853
# Poissons Ratio (z) = 0.35453 0.00584
#
# Static dielectric constant tensor:
#      x y z
#    x 3.436240 0.000000 0.000000 
#    y 0.000000 3.824020 0.000000 
#    z 0.000000 0.000000 3.841760 
# 
# 
# High freq. dielectric constant tensor:
#      x y z
#    x 1.797090 0.000000 0.000000 
#    y 0.000000 1.807140 0.000000 
#    z 0.000000 0.000000 1.824500 
# 
# From -- ./inp_files/3783.got.cif
#   From: 2010.06.25/outbox.cif.g09.slc.cpg/sg52_2_cif.got.tgz:3783.got - 2010.06.26 19:32:48.
