data_PCOD8216090
_publ_section_title
;
Structure prediction by ZEFSAII (Michael W. Deem and Ramdas Pophale) SiO2 
 PCOD8216090
Probable space group: P N N A
;
_chemical_formula_sum "Si O2"
_cell_formula_units_Z 52
_cell_length_a 25.484096
_cell_length_b 18.537030
_cell_length_c 5.214129
_cell_angle_alpha 90.000000
_cell_angle_beta 90.000000
_cell_angle_gamma 90.000000
_cell_volume 2463.151683
_symmetry_space_group_name_H-M "P N N A"
_symmetry_group_IT_number 52
_symmetry_cell_setting 'orthorhombic'
loop_
_space_group_symop_operation_xyz
x,y,z
1/2-x,-y,z
x,1/2-y,1/2-z
1/2-x,1/2+y,1/2-z
-x,-y,-z
1/2+x,y,-z
-x,1/2+y,1/2+z
1/2+x,1/2-y,1/2+z
loop_
_atom_site_type_symbol
_atom_site_label
_atom_site_fract_x
_atom_site_fract_y
_atom_site_fract_z
Si Si1 0.034073 0.577736 0.712848
Si Si2 0.793812 0.056111 0.538521
Si Si3 0.719533 0.322274 0.121450
Si Si4 0.642339 0.532142 0.464948
Si Si5 0.876578 0.874673 0.092738
Si Si6 0.519081 0.089960 0.286744
Si Si7 0.642406 0.250000 0.750000
O O1 0.095402 0.582512 0.639492
O O2 0.016733 0.495989 0.760829
O O3 0.003124 0.618219 0.485009
O O4 0.017504 0.617625 0.978604
O O5 0.768894 0.133754 0.481321
O O6 0.818699 0.025421 0.276917
O O7 0.750000 0.000000 0.632626
O O8 0.833370 0.066863 0.777724
O O9 0.742597 0.250000 0.250000
O O10 0.683725 0.367089 0.319266
O O11 0.679462 0.305068 0.897554
O O12 0.621650 0.452432 0.550835
O O13 0.921073 0.879650 0.317053
O O14 0.892160 0.803601 0.926569
#
# Coordination Sequence:
#
# PCOD8216090 Si02
#       7
#     8   8   8   8   8   8   4
#     4   9  18  34  50  86 114 156 186 245 291 368
#     4  12  23  37  59  91 120 166 204 260 311 365
#     4  10  23  39  57  85 123 163 209 254 310 381
#     4  11  23  36  61  87 130 156 209 254 316 357
#     4  10  21  36  57  90 121 166 194 261 308 387
#     4   9  18  31  57  79 119 150 195 227 309 359
#     4  10  22  38  58  80 126 156 208 246 312 372
#
# _framework density 21.111163999999999
#
# number of rings (size 3 to 8) (size 9 to 14) (size 15 to 20)
#    0.000    1.846    1.538    2.308    6.462    2.462 
#    0.000    0.000    0.000    0.000    2.000    0.000 
#    0.000    0.000    0.000    0.000    0.000    0.000 
#
# Total GULP energy -644336.524225 kJ/mol
# GULP energy per Si atom -12391.087004 kJ/mol
# Density = 2.106311 g / cm^3
# Si number density = 21.111164 Si / 1000 Ang^3
#
#
#
# Elastic Constant Matrix: (Units=GPa)
#
#
# Indices 1 2 3 4 5 6 
#
# 1 105.0040 47.8168 52.2673 0.0000 0.0000 0.0000
# 2 47.8168 77.9369 36.6815 0.0000 0.0000 0.0000
# 3 52.2673 36.6815 146.3714 0.0000 0.0000 0.0000
# 4 0.0000 0.0000 0.0000 19.8005 0.0000 0.0000
# 5 0.0000 0.0000 0.0000 0.0000 42.1735 0.0000
# 6 0.0000 0.0000 0.0000 0.0000 0.0000 26.4822
#
#
#
# Elastic Compliance Matrix: (Units=1/GPa)
#
#
# Indices 1 2 3 4 5 6 
#
# 1 0.014534 -0.007340 -0.003350 0.000000 0.000000 0.000000
# 2 -0.007340 0.018254 -0.001953 0.000000 0.000000 0.000000
# 3 -0.003350 -0.001953 0.008518 0.000000 0.000000 0.000000
# 4 0.000000 0.000000 0.000000 0.050504 0.000000 0.000000
# 5 0.000000 0.000000 0.000000 0.000000 0.023712 0.000000
# 6 0.000000 0.000000 0.000000 0.000000 0.000000 0.037761
#
#
# Mechanical properties :
#
#
# Convention : Reuss Voigt Hill
#
# Bulk Modulus (GPa) = 62.43151 66.98262 64.70707
# Shear Modulus (GPa) = 27.18744 30.52767 28.85756
#
# Velocity S-wave (km/s) = 3.59252 3.80681 3.70122
# Velocity P-wave (km/s) = 6.84435 7.14981 6.99875
#
# Compressibility (1/GPa) = 0.01601755
#
# Stress axis : x y z
#
# Youngs Moduli (GPa) = 68.80595 54.78361 117.40067
#
# Poissons Ratio (x) = 0.40211 0.39333
# Poissons Ratio (y) = 0.50504 0.22934
# Poissons Ratio (z) = 0.23052 0.10702
#
# Static dielectric constant tensor:
#      x y z
#    x 3.778730 0.000000 0.000000 
#    y 0.000000 3.497030 0.000000 
#    z 0.000000 0.000000 3.962070 
# 
# 
# High freq. dielectric constant tensor:
#      x y z
#    x 1.818670 0.000000 0.000000 
#    y 0.000000 1.784300 0.000000 
#    z 0.000000 0.000000 1.837370 
# 
# From -- ./inp_files/5910.got.cif
#   From: 2010.06.25/outbox.cif.g09.slc.cpg/sg52_3_cif.got.tgz:5910.got - 2010.06.26 19:32:48.
