data_PCOD8216632
_publ_section_title
;
Structure prediction by ZEFSAII (Michael W. Deem and Ramdas Pophale) SiO2 
 PCOD8216632
Probable space group: P N N A
;
_chemical_formula_sum "Si O2"
_cell_formula_units_Z 56
_cell_length_a 5.140354
_cell_length_b 14.201064
_cell_length_c 34.145610
_cell_angle_alpha 90.000000
_cell_angle_beta 90.000000
_cell_angle_gamma 90.000000
_cell_volume 2492.578180
_symmetry_space_group_name_H-M "P N N A"
_symmetry_group_IT_number 52
_symmetry_cell_setting 'orthorhombic'
loop_
_space_group_symop_operation_xyz
x,y,z
1/2-x,-y,z
x,1/2-y,1/2-z
1/2-x,1/2+y,1/2-z
-x,-y,-z
1/2+x,y,-z
-x,1/2+y,1/2+z
1/2+x,1/2-y,1/2+z
loop_
_atom_site_type_symbol
_atom_site_label
_atom_site_fract_x
_atom_site_fract_y
_atom_site_fract_z
Si Si1 0.902842 0.402593 0.650876
Si Si2 0.335364 0.308893 0.929980
Si Si3 0.750000 0.000000 0.473508
Si Si4 0.930073 0.375081 0.474301
Si Si5 0.004013 0.437736 0.733430
Si Si6 0.335465 0.213222 0.382259
Si Si7 0.750000 0.500000 0.408342
Si Si8 0.001498 0.435801 0.819249
O O1 0.750000 0.500000 0.653679
O O2 0.740687 0.313203 0.635559
O O3 0.990958 0.371312 0.694928
O O4 0.129748 0.420273 0.619620
O O5 0.250670 0.408133 0.947121
O O6 0.438846 0.234926 0.962251
O O7 0.574911 0.330965 0.900553
O O8 0.070536 0.266215 0.912216
O O9 0.500000 0.000000 0.500000
O O10 0.666256 0.398902 0.497226
O O11 0.951098 0.441872 0.435880
O O12 0.250000 0.500000 0.724127
O O13 0.750000 0.500000 0.736796
O O14 0.039544 0.387898 0.775920
O O15 0.466180 0.146787 0.350040
O O16 0.750000 0.500000 0.820069
O O17 0.250000 0.500000 0.830200
#
# Coordination Sequence:
#
# PCOD8216632 Si02
#       8
#     8   8   4   8   8   8   4   8
#     4  11  24  42  69  96 142 182 232 287 338 404
#     4  12  26  46  70 101 136 173 224 278 342 413
#     4  12  26  48  74  99 130 176 226 279 346 414
#     4  12  26  45  67  95 133 172 219 280 343 410
#     4   9  19  38  64  96 131 184 226 278 338 393
#     4  12  26  42  68 105 135 182 224 281 343 404
#     4  12  24  42  66  97 130 178 232 279 336 416
#     4  10  22  42  67  98 141 178 228 281 340 405
#
# _framework density 22.466698999999998
#
# number of rings (size 3 to 8) (size 9 to 14) (size 15 to 20)
#    0.000    0.857    2.143    4.714    5.000    0.571 
#    0.000    0.000    0.000    6.857    0.000    0.000 
#    0.000    0.000    0.000    0.000    0.000    0.000 
#
# Total GULP energy -694108.091946 kJ/mol
# GULP energy per Si atom -12394.787356 kJ/mol
# Density = 2.241556 g / cm^3
# Si number density = 22.466699 Si / 1000 Ang^3
#
#
#
# Elastic Constant Matrix: (Units=GPa)
#
#
# Indices 1 2 3 4 5 6 
#
# 1 133.9949 21.5797 32.8837 0.0000 0.0000 0.0000
# 2 21.5797 100.7427 37.1009 0.0000 0.0000 0.0000
# 3 32.8837 37.1009 109.1879 0.0000 0.0000 0.0000
# 4 0.0000 0.0000 0.0000 4.0894 0.0000 0.0000
# 5 0.0000 0.0000 0.0000 0.0000 31.8591 0.0000
# 6 0.0000 0.0000 0.0000 0.0000 0.0000 29.0183
#
#
#
# Elastic Compliance Matrix: (Units=1/GPa)
#
#
# Indices 1 2 3 4 5 6 
#
# 1 0.008139 -0.000961 -0.002125 0.000000 0.000000 0.000000
# 2 -0.000961 0.011460 -0.003604 0.000000 0.000000 0.000000
# 3 -0.002125 -0.003604 0.011023 0.000000 0.000000 0.000000
# 4 0.000000 0.000000 0.000000 0.244533 0.000000 0.000000
# 5 0.000000 0.000000 0.000000 0.000000 0.031388 0.000000
# 6 0.000000 0.000000 0.000000 0.000000 0.000000 0.034461
#
#
# Mechanical properties :
#
#
# Convention : Reuss Voigt Hill
#
# Bulk Modulus (GPa) = 57.99914 58.56160 58.28037
# Shear Modulus (GPa) = 13.88382 29.81743 21.85062
#
# Velocity S-wave (km/s) = 2.48860 3.64701 3.12200
# Velocity P-wave (km/s) = 5.84202 6.62244 6.24443
#
# Compressibility (1/GPa) = 0.01724163
#
# Stress axis : x y z
#
# Youngs Moduli (GPa) = 122.86280 87.26357 90.71812
#
# Poissons Ratio (x) = 0.08386 0.19275
# Poissons Ratio (y) = 0.11807 0.32699
# Poissons Ratio (z) = 0.26105 0.31453
#
# Static dielectric constant tensor:
#      x y z
#    x 4.033850 0.000000 0.000000 
#    y 0.000000 3.823350 0.000000 
#    z 0.000000 0.000000 4.651430 
# 
# 
# High freq. dielectric constant tensor:
#      x y z
#    x 1.891180 0.000000 0.000000 
#    y 0.000000 1.871370 0.000000 
#    z 0.000000 0.000000 1.910120 
# 
# From -- ./inp_files/43815.got.cif
#   From: 2010.06.25/outbox.cif.g09.slc.cpg/sg52_22_cif.got.tgz:43815.got - 2010.06.26 19:32:48.
