data_PCOD8216021
_publ_section_title
;
Structure prediction by ZEFSAII (Michael W. Deem and Ramdas Pophale) SiO2 
 PCOD8216021
Probable space group: P N N A
;
_chemical_formula_sum "Si O2"
_cell_formula_units_Z 20
_cell_length_a 8.694044
_cell_length_b 6.699718
_cell_length_c 15.739302
_cell_angle_alpha 90.000000
_cell_angle_beta 90.000000
_cell_angle_gamma 90.000000
_cell_volume 916.777245
_symmetry_space_group_name_H-M "P N N A"
_symmetry_group_IT_number 52
_symmetry_cell_setting 'orthorhombic'
loop_
_space_group_symop_operation_xyz
x,y,z
1/2-x,-y,z
x,1/2-y,1/2-z
1/2-x,1/2+y,1/2-z
-x,-y,-z
1/2+x,y,-z
-x,1/2+y,1/2+z
1/2+x,1/2-y,1/2+z
loop_
_atom_site_type_symbol
_atom_site_label
_atom_site_fract_x
_atom_site_fract_y
_atom_site_fract_z
Si Si1 0.495065 0.709592 0.390958
Si Si2 0.250000 0.000000 0.000079
Si Si3 0.568196 0.026414 0.270295
O O1 0.342893 0.661116 0.444100
O O2 0.644044 0.639060 0.442465
O O3 0.484719 0.595806 0.302593
O O4 0.510224 0.944979 0.363382
O O5 0.517689 0.250000 0.250000
O O6 0.750000 0.000000 0.264661
#
# Coordination Sequence:
#
# PCOD8216021 Si02
#       3
#     8   4   8
#     4  10  21  39  66  91 134 167 220 275 327 398
#     4  10  20  42  64 100 130 166 220 284 334 380
#     4  11  19  39  67  92 125 182 223 262 321 405
#
# _framework density 21.815550000000002
#
# number of rings (size 3 to 8) (size 9 to 14) (size 15 to 20)
#    0.000    1.600    6.000    0.000    0.000    0.000 
#    7.200   22.000    0.000    0.000    0.000    0.000 
#    0.000    0.000    0.000    0.000    0.000    0.000 
#
# Total GULP energy -247829.881106 kJ/mol
# GULP energy per Si atom -12391.494055 kJ/mol
# Density = 2.176590 g / cm^3
# Si number density = 21.815550 Si / 1000 Ang^3
#
#
#
# Elastic Constant Matrix: (Units=GPa)
#
#
# Indices 1 2 3 4 5 6 
#
# 1 89.4032 43.4950 53.8270 0.0000 0.0000 0.0000
# 2 43.4950 167.1101 69.4425 0.0000 0.0000 0.0000
# 3 53.8270 69.4425 130.0695 0.0000 0.0000 0.0000
# 4 0.0000 0.0000 0.0000 39.8371 0.0000 0.0000
# 5 0.0000 0.0000 0.0000 0.0000 10.3048 0.0000
# 6 0.0000 0.0000 0.0000 0.0000 0.0000 14.5022
#
#
#
# Elastic Compliance Matrix: (Units=1/GPa)
#
#
# Indices 1 2 3 4 5 6 
#
# 1 0.015278 -0.001734 -0.005397 0.000000 0.000000 0.000000
# 2 -0.001734 0.007887 -0.003493 0.000000 0.000000 0.000000
# 3 -0.005397 -0.003493 0.011787 0.000000 0.000000 0.000000
# 4 0.000000 0.000000 0.000000 0.025102 0.000000 0.000000
# 5 0.000000 0.000000 0.000000 0.000000 0.097043 0.000000
# 6 0.000000 0.000000 0.000000 0.000000 0.000000 0.068955
#
#
# Mechanical properties :
#
#
# Convention : Reuss Voigt Hill
#
# Bulk Modulus (GPa) = 72.97293 80.01242 76.49267
# Shear Modulus (GPa) = 19.85173 27.58337 23.71755
#
# Velocity S-wave (km/s) = 3.01986 3.55968 3.30083
# Velocity P-wave (km/s) = 6.75885 7.32472 7.04747
#
# Compressibility (1/GPa) = 0.01370371
#
# Stress axis : x y z
#
# Youngs Moduli (GPa) = 65.45303 126.79142 84.84211
#
# Poissons Ratio (x) = 0.21984 0.45788
# Poissons Ratio (y) = 0.11349 0.29637
# Poissons Ratio (z) = 0.35324 0.44291
#
# Static dielectric constant tensor:
#      x y z
#    x 3.793010 0.000000 0.000000 
#    y 0.000000 4.423830 0.000000 
#    z 0.000000 0.000000 4.546930 
# 
# 
# High freq. dielectric constant tensor:
#      x y z
#    x 1.840450 0.000000 0.000000 
#    y 0.000000 1.854820 0.000000 
#    z 0.000000 0.000000 1.870540 
# 
# From -- ./inp_files/30496.got.cif
#   From: 2010.06.25/outbox.cif.g09.slc.cpg/sg52_16_cif.got.tgz:30496.got - 2010.06.26 19:32:48.
