data_PCOD8216214
_publ_section_title
;
Structure prediction by ZEFSAII (Michael W. Deem and Ramdas Pophale) SiO2 
 PCOD8216214
Probable space group: P N N A
;
_chemical_formula_sum "Si O2"
_cell_formula_units_Z 64
_cell_length_a 21.787893
_cell_length_b 8.546680
_cell_length_c 17.482542
_cell_angle_alpha 90.000000
_cell_angle_beta 90.000000
_cell_angle_gamma 90.000000
_cell_volume 3255.496687
_symmetry_space_group_name_H-M "P N N A"
_symmetry_group_IT_number 52
_symmetry_cell_setting 'orthorhombic'
loop_
_space_group_symop_operation_xyz
x,y,z
1/2-x,-y,z
x,1/2-y,1/2-z
1/2-x,1/2+y,1/2-z
-x,-y,-z
1/2+x,y,-z
-x,1/2+y,1/2+z
1/2+x,1/2-y,1/2+z
loop_
_atom_site_type_symbol
_atom_site_label
_atom_site_fract_x
_atom_site_fract_y
_atom_site_fract_z
Si Si1 0.596230 0.315866 0.611638
Si Si2 0.230195 0.324815 0.328594
Si Si3 0.111231 0.688718 0.967639
Si Si4 0.470338 0.106398 0.066240
Si Si5 0.057400 0.307539 0.831914
Si Si6 0.235207 0.682668 0.492507
Si Si7 0.524253 0.657923 0.172772
Si Si8 0.145298 0.158834 0.534726
O O1 0.657172 0.299386 0.662215
O O2 0.577026 0.497788 0.612776
O O3 0.542881 0.208560 0.645491
O O4 0.607822 0.267532 0.523815
O O5 0.250000 0.500000 0.320256
O O6 0.253469 0.250000 0.250000
O O7 0.263959 0.255603 0.404216
O O8 0.078120 0.701473 0.886205
O O9 0.136662 0.519621 0.992024
O O10 0.062924 0.742781 0.031287
O O11 0.169582 0.803059 0.967315
O O12 0.517710 0.173358 0.127460
O O13 0.500000 0.000000 0.000000
O O14 0.079277 0.250000 0.750000
O O15 0.021016 0.470370 0.820051
O O16 0.118973 0.328954 0.880317
O O17 0.250000 0.500000 0.494199
O O18 0.284125 0.787375 0.538942
O O19 0.541285 0.750000 0.250000
#
# Coordination Sequence:
#
# PCOD8216214 Si02
#       8
#     8   8   8   8   8   8   8   8
#     4  11  21  38  62  86 119 158 206 246 307 369
#     4  10  22  39  57  83 117 154 196 246 300 356
#     4  11  22  38  61  88 119 158 204 252 305 368
#     4  12  21  36  63  89 123 162 206 249 308 382
#     4  11  24  38  59  90 124 159 200 254 313 370
#     4  10  22  39  63  86 113 155 208 252 306 371
#     4  11  23  39  59  88 125 157 198 252 317 374
#     4  10  21  39  60  87 117 155 204 257 296 370
#
# _framework density 19.659058999999999
#
# number of rings (size 3 to 8) (size 9 to 14) (size 15 to 20)
#    0.000    1.250    2.500    4.500    0.000    4.000 
#    0.000    6.875    0.000    0.000    0.000    0.000 
#    0.000    0.000    0.000    0.000    0.000    0.000 
#
# Total GULP energy -793578.592214 kJ/mol
# GULP energy per Si atom -12399.665503 kJ/mol
# Density = 1.961431 g / cm^3
# Si number density = 19.659059 Si / 1000 Ang^3
#
#
#
# Elastic Constant Matrix: (Units=GPa)
#
#
# Indices 1 2 3 4 5 6 
#
# 1 95.2478 24.6629 40.0779 0.0000 0.0000 0.0000
# 2 24.6629 86.2620 37.4503 0.0000 0.0000 0.0000
# 3 40.0779 37.4503 99.8182 0.0000 0.0000 0.0000
# 4 0.0000 0.0000 0.0000 32.2403 0.0000 0.0000
# 5 0.0000 0.0000 0.0000 0.0000 21.6467 0.0000
# 6 0.0000 0.0000 0.0000 0.0000 0.0000 38.7369
#
#
#
# Elastic Compliance Matrix: (Units=1/GPa)
#
#
# Indices 1 2 3 4 5 6 
#
# 1 0.012841 -0.001712 -0.004514 0.000000 0.000000 0.000000
# 2 -0.001712 0.014076 -0.004594 0.000000 0.000000 0.000000
# 3 -0.004514 -0.004594 0.013554 0.000000 0.000000 0.000000
# 4 0.000000 0.000000 0.000000 0.031017 0.000000 0.000000
# 5 0.000000 0.000000 0.000000 0.000000 0.046196 0.000000
# 6 0.000000 0.000000 0.000000 0.000000 0.000000 0.025815
#
#
# Mechanical properties :
#
#
# Convention : Reuss Voigt Hill
#
# Bulk Modulus (GPa) = 53.09829 53.96777 53.53303
# Shear Modulus (GPa) = 29.16859 30.46726 29.81792
#
# Velocity S-wave (km/s) = 3.85609 3.94100 3.89878
# Velocity P-wave (km/s) = 6.84793 6.94407 6.89617
#
# Compressibility (1/GPa) = 0.01883300
#
# Stress axis : x y z
#
# Youngs Moduli (GPa) = 77.87292 71.04054 73.77848
#
# Poissons Ratio (x) = 0.12161 0.33301
# Poissons Ratio (y) = 0.13331 0.33894
# Poissons Ratio (z) = 0.35149 0.32636
#
# Static dielectric constant tensor:
#      x y z
#    x 3.618070 0.000000 0.000000 
#    y 0.000000 3.757430 0.000000 
#    z 0.000000 0.000000 3.760020 
# 
# 
# High freq. dielectric constant tensor:
#      x y z
#    x 1.764200 0.000000 0.000000 
#    y 0.000000 1.779600 0.000000 
#    z 0.000000 0.000000 1.759730 
# 
# From -- ./inp_files/34128.got.cif
#   From: 2010.06.25/outbox.cif.g09.slc.cpg/sg52_18_cif.got.tgz:34128.got - 2010.06.26 19:32:48.
