data_PCOD8216210
_publ_section_title
;
Structure prediction by ZEFSAII (Michael W. Deem and Ramdas Pophale) SiO2 
 PCOD8216210
Probable space group: P N N A
;
_chemical_formula_sum "Si O2"
_cell_formula_units_Z 36
_cell_length_a 17.290517
_cell_length_b 8.055287
_cell_length_c 12.909749
_cell_angle_alpha 90.000000
_cell_angle_beta 90.000000
_cell_angle_gamma 90.000000
_cell_volume 1798.070832
_symmetry_space_group_name_H-M "P N N A"
_symmetry_group_IT_number 52
_symmetry_cell_setting 'orthorhombic'
loop_
_space_group_symop_operation_xyz
x,y,z
1/2-x,-y,z
x,1/2-y,1/2-z
1/2-x,1/2+y,1/2-z
-x,-y,-z
1/2+x,y,-z
-x,1/2+y,1/2+z
1/2+x,1/2-y,1/2+z
loop_
_atom_site_type_symbol
_atom_site_label
_atom_site_fract_x
_atom_site_fract_y
_atom_site_fract_z
Si Si1 0.618571 0.552328 0.938347
Si Si2 0.250000 0.500000 0.899283
Si Si3 0.405074 0.250000 0.250000
Si Si4 0.006173 0.681731 0.906100
Si Si5 0.036212 0.010796 0.796066
Si Si6 0.667753 0.250000 0.250000
O O1 0.647014 0.652996 0.835722
O O2 0.586244 0.366542 0.909747
O O3 0.682867 0.560155 0.025153
O O4 0.542723 0.646066 0.982035
O O5 0.276452 0.654696 0.829673
O O6 0.459615 0.381061 0.307249
O O7 0.023538 0.873000 0.883549
O O8 0.046038 0.569058 0.817535
O O9 0.113520 0.121051 0.814032
#
# Coordination Sequence:
#
# PCOD8216210 Si02
#       6
#     8   4   4   8   8   4
#     4  10  21  39  58  87 120 169 198 254 308 373
#     4  12  26  42  60  88 138 164 196 254 330 396
#     4   9  20  38  60  84 115 156 210 252 291 352
#     4   9  18  36  65  88 119 153 205 260 313 352
#     4   9  18  37  63  93 116 148 209 270 303 367
#     4  11  24  38  62  94 123 164 196 264 339 388
#
# _framework density 20.021456000000001
#
# number of rings (size 3 to 8) (size 9 to 14) (size 15 to 20)
#    0.000    2.222    2.222    0.000    6.222    0.889 
#    0.000    4.444    0.000    0.000    0.000    0.000 
#    0.000    0.000    0.000    0.000    0.000    0.000 
#
# Total GULP energy -446113.343535 kJ/mol
# GULP energy per Si atom -12392.037320 kJ/mol
# Density = 1.997589 g / cm^3
# Si number density = 20.021456 Si / 1000 Ang^3
#
#
#
# Elastic Constant Matrix: (Units=GPa)
#
#
# Indices 1 2 3 4 5 6 
#
# 1 79.6832 47.0121 44.2049 0.0000 0.0000 0.0000
# 2 47.0121 129.7966 48.1938 0.0000 0.0000 0.0000
# 3 44.2049 48.1938 99.7064 0.0000 0.0000 0.0000
# 4 0.0000 0.0000 0.0000 40.4833 0.0000 0.0000
# 5 0.0000 0.0000 0.0000 0.0000 28.6679 0.0000
# 6 0.0000 0.0000 0.0000 0.0000 0.0000 25.4595
#
#
#
# Elastic Compliance Matrix: (Units=1/GPa)
#
#
# Indices 1 2 3 4 5 6 
#
# 1 0.018550 -0.004467 -0.006065 0.000000 0.000000 0.000000
# 2 -0.004467 0.010465 -0.003078 0.000000 0.000000 0.000000
# 3 -0.006065 -0.003078 0.014206 0.000000 0.000000 0.000000
# 4 0.000000 0.000000 0.000000 0.024702 0.000000 0.000000
# 5 0.000000 0.000000 0.000000 0.000000 0.034882 0.000000
# 6 0.000000 0.000000 0.000000 0.000000 0.000000 0.039278
#
#
# Mechanical properties :
#
#
# Convention : Reuss Voigt Hill
#
# Bulk Modulus (GPa) = 62.49457 65.33418 63.91438
# Shear Modulus (GPa) = 28.63100 30.24050 29.43575
#
# Velocity S-wave (km/s) = 3.78566 3.89061 3.83849
# Velocity P-wave (km/s) = 7.09858 7.27223 7.18593
#
# Compressibility (1/GPa) = 0.01600139
#
# Stress axis : x y z
#
# Youngs Moduli (GPa) = 53.90954 95.55588 70.39199
#
# Poissons Ratio (x) = 0.42682 0.42693
# Poissons Ratio (y) = 0.24080 0.21667
# Poissons Ratio (z) = 0.32696 0.29413
#
# Static dielectric constant tensor:
#      x y z
#    x 3.448420 0.000000 0.000000 
#    y 0.000000 3.908680 0.000000 
#    z 0.000000 0.000000 3.580820 
# 
# 
# High freq. dielectric constant tensor:
#      x y z
#    x 1.747420 0.000000 0.000000 
#    y 0.000000 1.784610 0.000000 
#    z 0.000000 0.000000 1.783760 
# 
# From -- ./inp_files/26820.got.cif
#   From: 2010.06.25/outbox.cif.g09.slc.cpg/sg52_14_cif.got.tgz:26820.got - 2010.06.26 19:32:48.
