data_PCOD8216202
_publ_section_title
;
Structure prediction by ZEFSAII (Michael W. Deem and Ramdas Pophale) SiO2 
 PCOD8216202
Probable space group: P N N A
;
_chemical_formula_sum "Si O2"
_cell_formula_units_Z 40
_cell_length_a 17.159415
_cell_length_b 5.477583
_cell_length_c 18.468974
_cell_angle_alpha 90.000000
_cell_angle_beta 90.000000
_cell_angle_gamma 90.000000
_cell_volume 1735.938019
_symmetry_space_group_name_H-M "P N N A"
_symmetry_group_IT_number 52
_symmetry_cell_setting 'orthorhombic'
loop_
_space_group_symop_operation_xyz
x,y,z
1/2-x,-y,z
x,1/2-y,1/2-z
1/2-x,1/2+y,1/2-z
-x,-y,-z
1/2+x,y,-z
-x,1/2+y,1/2+z
1/2+x,1/2-y,1/2+z
loop_
_atom_site_type_symbol
_atom_site_label
_atom_site_fract_x
_atom_site_fract_y
_atom_site_fract_z
Si Si1 0.564470 0.256216 0.168231
Si Si2 0.380404 0.251928 0.167978
Si Si3 0.339851 0.966876 0.951018
Si Si4 0.955228 0.346438 0.060342
Si Si5 0.118655 0.266095 0.406555
O O1 0.596198 0.250000 0.250000
O O2 0.472720 0.217407 0.166496
O O3 0.613590 0.055191 0.124615
O O4 0.584721 0.505487 0.125895
O O5 0.349312 0.250000 0.250000
O O6 0.356028 0.511858 0.131872
O O7 0.343227 0.009478 0.129995
O O8 0.250000 0.000000 0.933453
O O9 0.386532 0.202605 0.982560
O O10 0.350739 0.750904 0.009847
O O11 0.025237 0.187675 0.095743
O O12 0.000000 0.500000 0.000000
#
# Coordination Sequence:
#
# PCOD8216202 Si02
#       5
#     8   8   8   8   8
#     4  10  22  40  61  94 133 178 224 276 337 408
#     4  10  21  38  69 103 131 162 222 286 342 398
#     4  12  25  41  62  97 135 181 228 278 338 416
#     4  11  21  41  69  91 128 173 228 287 334 399
#     4  11  21  39  68  97 131 172 221 278 336 400
#
# _framework density 23.042297999999999
#
# number of rings (size 3 to 8) (size 9 to 14) (size 15 to 20)
#    0.000    1.200    4.000    3.600    0.000    1.600 
#    3.600    0.000    0.000    2.400    0.000    0.000 
#    0.000    0.000    0.000    0.000    0.000    0.000 
#
# Total GULP energy -495599.693404 kJ/mol
# GULP energy per Si atom -12389.992335 kJ/mol
# Density = 2.298985 g / cm^3
# Si number density = 23.042298 Si / 1000 Ang^3
#
#
#
# Elastic Constant Matrix: (Units=GPa)
#
#
# Indices 1 2 3 4 5 6 
#
# 1 56.6425 11.9883 17.4020 0.0000 0.0000 0.0000
# 2 11.9883 135.6931 63.6252 0.0000 0.0000 0.0000
# 3 17.4020 63.6252 176.1861 0.0000 0.0000 0.0000
# 4 0.0000 0.0000 0.0000 34.1822 0.0000 0.0000
# 5 0.0000 0.0000 0.0000 0.0000 12.3930 0.0000
# 6 0.0000 0.0000 0.0000 0.0000 0.0000 10.6636
#
#
#
# Elastic Compliance Matrix: (Units=1/GPa)
#
#
# Indices 1 2 3 4 5 6 
#
# 1 0.018303 -0.000926 -0.001473 0.000000 0.000000 0.000000
# 2 -0.000926 0.008919 -0.003129 0.000000 0.000000 0.000000
# 3 -0.001473 -0.003129 0.006951 0.000000 0.000000 0.000000
# 4 0.000000 0.000000 0.000000 0.029255 0.000000 0.000000
# 5 0.000000 0.000000 0.000000 0.000000 0.080691 0.000000
# 6 0.000000 0.000000 0.000000 0.000000 0.000000 0.093777
#
#
# Mechanical properties :
#
#
# Convention : Reuss Voigt Hill
#
# Bulk Modulus (GPa) = 43.26072 61.61695 52.43883
# Shear Modulus (GPa) = 19.48111 29.81484 24.64797
#
# Velocity S-wave (km/s) = 2.91082 3.60101 3.27415
# Velocity P-wave (km/s) = 5.48747 6.63992 6.09101
#
# Compressibility (1/GPa) = 0.02311566
#
# Stress axis : x y z
#
# Youngs Moduli (GPa) = 54.63509 112.12404 143.85591
#
# Poissons Ratio (x) = 0.10385 0.21195
# Poissons Ratio (y) = 0.05060 0.45017
# Poissons Ratio (z) = 0.08050 0.35087
#
# Static dielectric constant tensor:
#      x y z
#    x 3.690970 0.000000 0.000000 
#    y 0.000000 4.339470 0.000000 
#    z 0.000000 0.000000 4.636060 
# 
# 
# High freq. dielectric constant tensor:
#      x y z
#    x 1.864610 0.000000 0.000000 
#    y 0.000000 1.917740 0.000000 
#    z 0.000000 0.000000 1.916840 
# 
# From -- ./inp_files/33445.got.cif
#   From: 2010.06.25/outbox.cif.g09.slc.cpg/sg52_17_cif.got.tgz:33445.got - 2010.06.26 19:32:48.
