data_PCOD8216786
_publ_section_title
;
Structure prediction by ZEFSAII (Michael W. Deem and Ramdas Pophale) SiO2 
 PCOD8216786
Probable space group: P N N A
;
_chemical_formula_sum "Si O2"
_cell_formula_units_Z 24
_cell_length_a 16.403285
_cell_length_b 12.782219
_cell_length_c 5.211449
_cell_angle_alpha 90.000000
_cell_angle_beta 90.000000
_cell_angle_gamma 90.000000
_cell_volume 1092.686498
_symmetry_space_group_name_H-M "P N N A"
_symmetry_group_IT_number 52
_symmetry_cell_setting 'orthorhombic'
loop_
_space_group_symop_operation_xyz
x,y,z
1/2-x,-y,z
x,1/2-y,1/2-z
1/2-x,1/2+y,1/2-z
-x,-y,-z
1/2+x,y,-z
-x,1/2+y,1/2+z
1/2+x,1/2-y,1/2+z
loop_
_atom_site_type_symbol
_atom_site_label
_atom_site_fract_x
_atom_site_fract_y
_atom_site_fract_z
Si Si1 0.091963 0.558640 0.923155
Si Si2 0.402885 0.566508 0.405612
Si Si3 0.500338 0.750000 0.250000
Si Si4 0.750000 0.500000 0.835751
O O1 0.056904 0.676049 0.925052
O O2 0.079351 0.506341 0.646046
O O3 0.052814 0.486776 0.152665
O O4 0.189120 0.568468 0.986347
O O5 0.442153 0.681191 0.437772
O O6 0.305827 0.574854 0.346474
#
# Coordination Sequence:
#
# PCOD8216786 Si02
#       4
#     8   8   4   4
#     4  10  23  43  65  92 131 166 211 269 310 380
#     4  10  23  43  65  92 131 166 211 269 310 380
#     4  12  24  42  72  96 124 172 220 254 328 372
#     4   8  22  46  58  92 140 162 210 268 314 366
#
# _framework density 21.964212
#
# number of rings (size 3 to 8) (size 9 to 14) (size 15 to 20)
#    2.000    0.000    0.000    3.000    0.000    5.333 
#   12.000    0.000    0.000    0.000    0.000    0.000 
#    0.000    0.000    0.000    0.000    0.000    0.000 
#
# Total GULP energy -297385.873394 kJ/mol
# GULP energy per Si atom -12391.078058 kJ/mol
# Density = 2.191422 g / cm^3
# Si number density = 21.964212 Si / 1000 Ang^3
#
#
#
# Elastic Constant Matrix: (Units=GPa)
#
#
# Indices 1 2 3 4 5 6 
#
# 1 145.4025 89.0587 53.1636 0.0000 0.0000 0.0000
# 2 89.0587 155.8909 51.6223 0.0000 0.0000 0.0000
# 3 53.1636 51.6223 144.8449 0.0000 0.0000 0.0000
# 4 0.0000 0.0000 0.0000 10.5935 0.0000 0.0000
# 5 0.0000 0.0000 0.0000 0.0000 43.7513 0.0000
# 6 0.0000 0.0000 0.0000 0.0000 0.0000 44.0897
#
#
#
# Elastic Compliance Matrix: (Units=1/GPa)
#
#
# Indices 1 2 3 4 5 6 
#
# 1 0.011094 -0.005657 -0.002056 0.000000 0.000000 0.000000
# 2 -0.005657 0.010158 -0.001544 0.000000 0.000000 0.000000
# 3 -0.002056 -0.001544 0.008209 0.000000 0.000000 0.000000
# 4 0.000000 0.000000 0.000000 0.094397 0.000000 0.000000
# 5 0.000000 0.000000 0.000000 0.000000 0.022856 0.000000
# 6 0.000000 0.000000 0.000000 0.000000 0.000000 0.022681
#
#
# Mechanical properties :
#
#
# Convention : Reuss Voigt Hill
#
# Bulk Modulus (GPa) = 91.34823 92.64750 91.99787
# Shear Modulus (GPa) = 26.10172 36.50648 31.30410
#
# Velocity S-wave (km/s) = 3.45102 4.08130 3.77932
# Velocity P-wave (km/s) = 7.58678 8.03007 7.81157
#
# Compressibility (1/GPa) = 0.01094712
#
# Stress axis : x y z
#
# Youngs Moduli (GPa) = 90.13775 98.44592 121.82209
#
# Poissons Ratio (x) = 0.55693 0.25044
# Poissons Ratio (y) = 0.50993 0.18807
# Poissons Ratio (z) = 0.18530 0.15198
#
# Static dielectric constant tensor:
#      x y z
#    x 4.353660 0.000000 0.000000 
#    y 0.000000 3.574700 0.000000 
#    z 0.000000 0.000000 3.719220 
# 
# 
# High freq. dielectric constant tensor:
#      x y z
#    x 1.906630 0.000000 0.000000 
#    y 0.000000 1.825660 0.000000 
#    z 0.000000 0.000000 1.858720 
# 
# From -- ./inp_files/1798.got.cif
#   From: 2010.06.25/outbox.cif.g09.slc.cpg/sg52_1_cif.got.tgz:1798.got - 2010.06.26 19:32:48.
