data_PCOD8216453
_publ_section_title
;
Structure prediction by ZEFSAII (Michael W. Deem and Ramdas Pophale) SiO2 
 PCOD8216453
Probable space group: P N N A
;
_chemical_formula_sum "Si O2"
_cell_formula_units_Z 60
_cell_length_a 11.325818
_cell_length_b 8.736787
_cell_length_c 27.465184
_cell_angle_alpha 90.000000
_cell_angle_beta 90.000000
_cell_angle_gamma 90.000000
_cell_volume 2717.714548
_symmetry_space_group_name_H-M "P N N A"
_symmetry_group_IT_number 52
_symmetry_cell_setting 'orthorhombic'
loop_
_space_group_symop_operation_xyz
x,y,z
1/2-x,-y,z
x,1/2-y,1/2-z
1/2-x,1/2+y,1/2-z
-x,-y,-z
1/2+x,y,-z
-x,1/2+y,1/2+z
1/2+x,1/2-y,1/2+z
loop_
_atom_site_type_symbol
_atom_site_label
_atom_site_fract_x
_atom_site_fract_y
_atom_site_fract_z
Si Si1 0.316616 0.846005 0.526474
Si Si2 0.058906 0.207887 0.359179
Si Si3 0.456411 0.379415 0.088944
Si Si4 0.901373 0.715010 0.173512
Si Si5 0.799924 0.174625 0.113871
Si Si6 0.615877 0.021347 0.242184
Si Si7 0.464432 0.750000 0.250000
Si Si8 0.768724 0.820983 0.933534
O O1 0.442514 0.895477 0.548398
O O2 0.232172 0.748037 0.561963
O O3 0.344501 0.745088 0.478717
O O4 0.250000 0.000000 0.510969
O O5 0.097037 0.193053 0.300751
O O6 0.161917 0.309449 0.382776
O O7 0.937099 0.298481 0.372290
O O8 0.068971 0.043390 0.386131
O O9 0.505507 0.268817 0.130788
O O10 0.346859 0.287417 0.067095
O O11 0.767950 0.731901 0.155366
O O12 0.938751 0.839957 0.212499
O O13 0.902714 0.549121 0.199982
O O14 0.750000 0.000000 0.114899
O O15 0.750000 0.000000 0.227049
O O16 0.546084 0.875547 0.225339
O O17 0.750000 0.000000 0.943740
#
# Coordination Sequence:
#
# PCOD8216453 Si02
#       8
#     8   8   8   8   8   8   4   8
#     4  11  24  46  79 112 142 184 227 291 371 448
#     4  12  25  47  71 103 146 192 247 300 359 436
#     4  11  25  48  74 104 146 186 241 293 361 443
#     4  10  22  37  63 100 144 184 226 288 361 422
#     4  11  23  39  69 109 149 183 231 294 365 431
#     4  11  20  35  59  99 142 184 229 290 356 429
#     4  12  24  38  68 102 138 190 252 290 360 418
#     4  12  31  49  73 103 143 191 243 306 363 432
#
# _framework density 22.077373000000001
#
# number of rings (size 3 to 8) (size 9 to 14) (size 15 to 20)
#    0.000    0.800    2.667    5.200    7.467    1.600 
#    0.000    2.667    0.000    0.000    0.000    0.000 
#    0.000    0.000    0.000    0.000    0.000    0.000 
#
# Total GULP energy -743333.644633 kJ/mol
# GULP energy per Si atom -12388.894077 kJ/mol
# Density = 2.202712 g / cm^3
# Si number density = 22.077373 Si / 1000 Ang^3
#
#
#
# Elastic Constant Matrix: (Units=GPa)
#
#
# Indices 1 2 3 4 5 6 
#
# 1 72.8279 26.4659 25.2911 0.0000 0.0000 0.0000
# 2 26.4659 124.7808 42.1549 0.0000 0.0000 0.0000
# 3 25.2911 42.1549 133.9208 0.0000 0.0000 0.0000
# 4 0.0000 0.0000 0.0000 33.5449 0.0000 0.0000
# 5 0.0000 0.0000 0.0000 0.0000 23.6382 0.0000
# 6 0.0000 0.0000 0.0000 0.0000 0.0000 33.1243
#
#
#
# Elastic Compliance Matrix: (Units=1/GPa)
#
#
# Indices 1 2 3 4 5 6 
#
# 1 0.015389 -0.002554 -0.002102 0.000000 0.000000 0.000000
# 2 -0.002554 0.009391 -0.002474 0.000000 0.000000 0.000000
# 3 -0.002102 -0.002474 0.008643 0.000000 0.000000 0.000000
# 4 0.000000 0.000000 0.000000 0.029811 0.000000 0.000000
# 5 0.000000 0.000000 0.000000 0.000000 0.042304 0.000000
# 6 0.000000 0.000000 0.000000 0.000000 0.000000 0.030189
#
#
# Mechanical properties :
#
#
# Convention : Reuss Voigt Hill
#
# Bulk Modulus (GPa) = 52.18301 57.70592 54.94446
# Shear Modulus (GPa) = 31.97425 33.90267 32.93846
#
# Velocity S-wave (km/s) = 3.80976 3.92296 3.86677
# Velocity P-wave (km/s) = 6.56049 6.83479 6.69904
#
# Compressibility (1/GPa) = 0.01916333
#
# Stress axis : x y z
#
# Youngs Moduli (GPa) = 64.98085 106.47955 115.70242
#
# Poissons Ratio (x) = 0.27192 0.24325
# Poissons Ratio (y) = 0.16595 0.28624
# Poissons Ratio (z) = 0.13662 0.26342
#
# Static dielectric constant tensor:
#      x y z
#    x 3.739860 0.000000 0.000000 
#    y 0.000000 4.359170 0.000000 
#    z 0.000000 0.000000 3.173340 
# 
# 
# High freq. dielectric constant tensor:
#      x y z
#    x 1.836790 0.000000 0.000000 
#    y 0.000000 1.882560 0.000000 
#    z 0.000000 0.000000 1.894710 
# 
# From -- ./inp_files/42796.got.cif
#   From: 2010.06.25/outbox.cif.g09.slc.cpg/sg52_22_cif.got.tgz:42796.got - 2010.06.26 19:32:48.
