data_PCOD8216495
_publ_section_title
;
Structure prediction by ZEFSAII (Michael W. Deem and Ramdas Pophale) SiO2 
 PCOD8216495
Probable space group: P N N A
;
_chemical_formula_sum "Si O2"
_cell_formula_units_Z 44
_cell_length_a 13.845640
_cell_length_b 13.088152
_cell_length_c 12.538887
_cell_angle_alpha 90.000000
_cell_angle_beta 90.000000
_cell_angle_gamma 90.000000
_cell_volume 2272.219873
_symmetry_space_group_name_H-M "P N N A"
_symmetry_group_IT_number 52
_symmetry_cell_setting 'orthorhombic'
loop_
_space_group_symop_operation_xyz
x,y,z
1/2-x,-y,z
x,1/2-y,1/2-z
1/2-x,1/2+y,1/2-z
-x,-y,-z
1/2+x,y,-z
-x,1/2+y,1/2+z
1/2+x,1/2-y,1/2+z
loop_
_atom_site_type_symbol
_atom_site_label
_atom_site_fract_x
_atom_site_fract_y
_atom_site_fract_z
Si Si1 0.196359 0.820848 0.012799
Si Si2 0.750000 0.000000 0.841421
Si Si3 0.596249 0.223123 0.527847
Si Si4 0.552913 0.687860 0.858817
Si Si5 0.055164 0.836765 0.831758
Si Si6 0.917529 0.955211 0.695221
O O1 0.192191 0.918801 0.088339
O O2 0.302405 0.775005 0.000013
O O3 0.131974 0.730465 0.059862
O O4 0.150811 0.860825 0.900834
O O5 0.674490 0.062784 0.770439
O O6 0.551550 0.197244 0.412818
O O7 0.532977 0.304910 0.591908
O O8 0.600941 0.118890 0.595326
O O9 0.554771 0.750000 0.750000
O O10 0.578851 0.570636 0.842724
O O11 0.086104 0.750000 0.750000
O O12 0.016206 0.931627 0.760955
#
# Coordination Sequence:
#
# PCOD8216495 Si02
#       6
#     8   4   8   8   8   8
#     4  11  23  39  59  93 122 158 209 254 304 364
#     4  12  22  34  66  94 120 160 206 268 302 362
#     4  10  22  39  62  87 123 163 201 249 309 364
#     4  11  23  39  61  91 125 160 208 258 301 365
#     4   9  21  40  61  84 124 162 196 249 307 370
#     4  11  21  38  63  91 122 160 209 251 315 360
#
# _framework density 19.364322999999999
#
# number of rings (size 3 to 8) (size 9 to 14) (size 15 to 20)
#    0.000    1.455    3.636    1.636    0.000    2.909 
#    0.000    0.000    0.000    2.182    0.000    0.000 
#    0.000    0.000    0.000    0.000    0.000    0.000 
#
# Total GULP energy -545629.999669 kJ/mol
# GULP energy per Si atom -12400.681811 kJ/mol
# Density = 1.932025 g / cm^3
# Si number density = 19.364323 Si / 1000 Ang^3
#
#
#
# Elastic Constant Matrix: (Units=GPa)
#
#
# Indices 1 2 3 4 5 6 
#
# 1 101.6007 10.6842 29.3541 0.0000 0.0000 0.0000
# 2 10.6842 66.2870 -16.6721 0.0000 0.0000 0.0000
# 3 29.3541 -16.6721 41.2088 0.0000 0.0000 0.0000
# 4 0.0000 0.0000 0.0000 14.4441 0.0000 0.0000
# 5 0.0000 0.0000 0.0000 0.0000 29.7566 0.0000
# 6 0.0000 0.0000 0.0000 0.0000 0.0000 23.1601
#
#
#
# Elastic Compliance Matrix: (Units=1/GPa)
#
#
# Indices 1 2 3 4 5 6 
#
# 1 0.013861 -0.005252 -0.011999 0.000000 0.000000 0.000000
# 2 -0.005252 0.018785 0.011341 0.000000 0.000000 0.000000
# 3 -0.011999 0.011341 0.037402 0.000000 0.000000 0.000000
# 4 0.000000 0.000000 0.000000 0.069233 0.000000 0.000000
# 5 0.000000 0.000000 0.000000 0.000000 0.033606 0.000000
# 6 0.000000 0.000000 0.000000 0.000000 0.000000 0.043178
#
#
# Mechanical properties :
#
#
# Convention : Reuss Voigt Hill
#
# Bulk Modulus (GPa) = 17.17362 28.42546 22.79954
# Shear Modulus (GPa) = 20.21892 25.85417 23.03655
#
# Velocity S-wave (km/s) = 3.23481 3.65793 3.45286
# Velocity P-wave (km/s) = 4.77911 5.70541 5.26268
#
# Compressibility (1/GPa) = 0.05822886
#
# Stress axis : x y z
#
# Youngs Moduli (GPa) = 72.14301 53.23432 26.73663
#
# Poissons Ratio (x) = 0.27959 0.32080
# Poissons Ratio (y) = 0.37890 -0.30322
# Poissons Ratio (z) = 0.86562 -0.60373
#
# Static dielectric constant tensor:
#      x y z
#    x 3.562100 0.000000 0.000000 
#    y 0.000000 3.513800 0.000000 
#    z 0.000000 0.000000 3.812770 
# 
# 
# High freq. dielectric constant tensor:
#      x y z
#    x 1.751360 0.000000 0.000000 
#    y 0.000000 1.754440 0.000000 
#    z 0.000000 0.000000 1.761390 
# 
# From -- ./inp_files/19457.got.cif
#   From: 2010.06.25/outbox.cif.g09.slc.cpg/sg52_10_cif.got.tgz:19457.got - 2010.06.26 19:32:48.
