data_PCOD8216929
_publ_section_title
;
Structure prediction by ZEFSAII (Michael W. Deem and Ramdas Pophale) SiO2 
 PCOD8216929
Probable space group: P N N A
;
_chemical_formula_sum "Si O2"
_cell_formula_units_Z 40
_cell_length_a 11.738731
_cell_length_b 22.563115
_cell_length_c 6.994023
_cell_angle_alpha 90.000000
_cell_angle_beta 90.000000
_cell_angle_gamma 90.000000
_cell_volume 1852.453280
_symmetry_space_group_name_H-M "P N N A"
_symmetry_group_IT_number 52
_symmetry_cell_setting 'orthorhombic'
loop_
_space_group_symop_operation_xyz
x,y,z
1/2-x,-y,z
x,1/2-y,1/2-z
1/2-x,1/2+y,1/2-z
-x,-y,-z
1/2+x,y,-z
-x,1/2+y,1/2+z
1/2+x,1/2-y,1/2+z
loop_
_atom_site_type_symbol
_atom_site_label
_atom_site_fract_x
_atom_site_fract_y
_atom_site_fract_z
Si Si1 0.550841 0.943810 0.395075
Si Si2 0.661269 0.250000 0.250000
Si Si3 0.097372 0.088489 0.040624
Si Si4 0.255568 0.801139 0.125360
Si Si5 0.522727 0.654459 0.790602
Si Si6 0.750000 0.500000 0.308013
O O1 0.476739 0.938311 0.207011
O O2 0.550641 0.884561 0.522831
O O3 0.680426 0.956017 0.331058
O O4 0.500000 0.000000 0.500000
O O5 0.745990 0.278143 0.406606
O O6 0.579946 0.300606 0.158903
O O7 0.176166 0.138114 0.136605
O O8 0.170795 0.037256 0.946788
O O9 0.012078 0.112602 0.882478
O O10 0.317718 0.750000 0.250000
O O11 0.131331 0.809386 0.216360
#
# Coordination Sequence:
#
# PCOD8216929 Si02
#       6
#     8   4   8   8   8   4
#     4  12  27  44  71 102 143 184 239 295 353 430
#     4  10  24  48  68 108 142 182 236 286 358 422
#     4  11  26  46  67 103 144 184 236 297 354 424
#     4  11  24  43  76 101 139 187 231 290 354 424
#     4  11  24  47  69 105 142 186 237 292 356 425
#     4  12  26  46  74 104 138 196 234 294 370 426
#
# _framework density 21.592986
#
# number of rings (size 3 to 8) (size 9 to 14) (size 15 to 20)
#    0.000    0.800    3.000    3.000    5.600    4.800 
#    7.200    0.000    0.000    0.000    0.000    0.000 
#    0.000    0.000    0.000    0.000    0.000    0.000 
#
# Total GULP energy -496100.449240 kJ/mol
# GULP energy per Si atom -12402.511231 kJ/mol
# Density = 2.154384 g / cm^3
# Si number density = 21.592986 Si / 1000 Ang^3
#
#
#
# Elastic Constant Matrix: (Units=GPa)
#
#
# Indices 1 2 3 4 5 6 
#
# 1 86.8418 36.1497 57.2765 0.0000 0.0000 0.0000
# 2 36.1497 119.7459 55.5049 0.0000 0.0000 0.0000
# 3 57.2765 55.5049 110.7580 0.0000 0.0000 0.0000
# 4 0.0000 0.0000 0.0000 58.2140 0.0000 0.0000
# 5 0.0000 0.0000 0.0000 0.0000 31.7392 0.0000
# 6 0.0000 0.0000 0.0000 0.0000 0.0000 28.2248
#
#
#
# Elastic Compliance Matrix: (Units=1/GPa)
#
#
# Indices 1 2 3 4 5 6 
#
# 1 0.017662 -0.001431 -0.008417 0.000000 0.000000 0.000000
# 2 -0.001431 0.010994 -0.004770 0.000000 0.000000 0.000000
# 3 -0.008417 -0.004770 0.015771 0.000000 0.000000 0.000000
# 4 0.000000 0.000000 0.000000 0.017178 0.000000 0.000000
# 5 0.000000 0.000000 0.000000 0.000000 0.031507 0.000000
# 6 0.000000 0.000000 0.000000 0.000000 0.000000 0.035430
#
#
# Mechanical properties :
#
#
# Convention : Reuss Voigt Hill
#
# Bulk Modulus (GPa) = 65.81772 68.35643 67.08708
# Shear Modulus (GPa) = 30.70509 34.86324 32.78416
#
# Velocity S-wave (km/s) = 3.77502 4.02252 3.90074
# Velocity P-wave (km/s) = 7.03906 7.30067 7.17105
#
# Compressibility (1/GPa) = 0.01519348
#
# Stress axis : x y z
#
# Youngs Moduli (GPa) = 56.61909 90.96131 63.40597
#
# Poissons Ratio (x) = 0.13013 0.53366
# Poissons Ratio (y) = 0.08100 0.30242
# Poissons Ratio (z) = 0.47654 0.43384
#
# Static dielectric constant tensor:
#      x y z
#    x 3.776740 0.000000 0.000000 
#    y 0.000000 4.111170 0.000000 
#    z 0.000000 0.000000 4.027960 
# 
# 
# High freq. dielectric constant tensor:
#      x y z
#    x 1.846170 0.000000 0.000000 
#    y 0.000000 1.872570 0.000000 
#    z 0.000000 0.000000 1.857880 
# 
# From -- ./inp_files/1435.got.cif
#   From: 2010.06.25/outbox.cif.g09.slc.cpg/sg52_1_cif.got.tgz:1435.got - 2010.06.26 19:32:48.
