data_PCOD8216690
_publ_section_title
;
Structure prediction by ZEFSAII (Michael W. Deem and Ramdas Pophale) SiO2 
 PCOD8216690
Probable space group: P N N A
;
_chemical_formula_sum "Si O2"
_cell_formula_units_Z 48
_cell_length_a 22.347106
_cell_length_b 8.482040
_cell_length_c 11.204989
_cell_angle_alpha 90.000000
_cell_angle_beta 90.000000
_cell_angle_gamma 90.000000
_cell_volume 2123.894986
_symmetry_space_group_name_H-M "P N N A"
_symmetry_group_IT_number 52
_symmetry_cell_setting 'orthorhombic'
loop_
_space_group_symop_operation_xyz
x,y,z
1/2-x,-y,z
x,1/2-y,1/2-z
1/2-x,1/2+y,1/2-z
-x,-y,-z
1/2+x,y,-z
-x,1/2+y,1/2+z
1/2+x,1/2-y,1/2+z
loop_
_atom_site_type_symbol
_atom_site_label
_atom_site_fract_x
_atom_site_fract_y
_atom_site_fract_z
Si Si1 0.525104 0.250000 0.250000
Si Si2 0.880543 0.547414 0.375887
Si Si3 0.434789 0.250000 0.750000
Si Si4 0.216078 0.250000 0.750000
Si Si5 0.975581 0.540213 0.875595
Si Si6 0.337535 0.922307 0.370692
Si Si7 0.312684 0.934051 0.109095
Si Si8 0.250000 0.500000 0.933037
O O1 0.566463 0.324156 0.355716
O O2 0.481233 0.387574 0.207867
O O3 0.894073 0.380582 0.314240
O O4 0.821736 0.613964 0.313290
O O5 0.866433 0.522607 0.516690
O O6 0.480090 0.320086 0.844541
O O7 0.253346 0.341452 0.852311
O O8 0.908098 0.599464 0.883950
O O9 0.000000 0.500000 0.000000
O O10 0.325089 0.004593 0.242100
O O11 0.306849 0.752672 0.378322
O O12 0.308864 0.017368 0.481893
O O13 0.250000 0.000000 0.059649
#
# Coordination Sequence:
#
# PCOD8216690 Si02
#       8
#     4   8   4   4   8   8   8   4
#     4   9  22  44  69 101 142 186 241 296 358 418
#     4  10  22  44  70 105 143 182 237 300 348 429
#     4  10  24  43  73 105 140 187 242 292 370 412
#     4  11  26  43  74 100 144 181 237 294 356 416
#     4  11  24  46  70 103 139 188 234 295 359 425
#     4  11  25  47  70  98 145 182 237 290 354 424
#     4  11  23  43  69 101 140 191 233 290 351 427
#     4  12  26  50  72 104 138 196 228 300 352 420
#
# _framework density 22.599986999999999
#
# number of rings (size 3 to 8) (size 9 to 14) (size 15 to 20)
#    0.000    1.333    2.500    2.000    5.833    3.333 
#    3.000    4.167    0.000    0.000    0.000    0.000 
#    0.000    0.000    0.000    0.000    0.000    0.000 
#
# Total GULP energy -595008.299575 kJ/mol
# GULP energy per Si atom -12396.006241 kJ/mol
# Density = 2.254855 g / cm^3
# Si number density = 22.599987 Si / 1000 Ang^3
#
#
#
# Elastic Constant Matrix: (Units=GPa)
#
#
# Indices 1 2 3 4 5 6 
#
# 1 117.3238 60.6515 63.5700 0.0000 0.0000 0.0000
# 2 60.6515 120.6417 51.3172 0.0000 0.0000 0.0000
# 3 63.5700 51.3172 164.4175 0.0000 0.0000 0.0000
# 4 0.0000 0.0000 0.0000 23.0463 0.0000 0.0000
# 5 0.0000 0.0000 0.0000 0.0000 35.0909 0.0000
# 6 0.0000 0.0000 0.0000 0.0000 0.0000 19.0361
#
#
#
# Elastic Compliance Matrix: (Units=1/GPa)
#
#
# Indices 1 2 3 4 5 6 
#
# 1 0.013016 -0.005077 -0.003448 0.000000 0.000000 0.000000
# 2 -0.005077 0.011538 -0.001638 0.000000 0.000000 0.000000
# 3 -0.003448 -0.001638 0.007927 0.000000 0.000000 0.000000
# 4 0.000000 0.000000 0.000000 0.043391 0.000000 0.000000
# 5 0.000000 0.000000 0.000000 0.000000 0.028497 0.000000
# 6 0.000000 0.000000 0.000000 0.000000 0.000000 0.052532
#
#
# Mechanical properties :
#
#
# Convention : Reuss Voigt Hill
#
# Bulk Modulus (GPa) = 82.27456 83.71782 82.99619
# Shear Modulus (GPa) = 27.58170 30.55761 29.06965
#
# Velocity S-wave (km/s) = 3.49725 3.68109 3.59035
# Velocity P-wave (km/s) = 7.26577 7.42906 7.34787
#
# Compressibility (1/GPa) = 0.01215443
#
# Stress axis : x y z
#
# Youngs Moduli (GPa) = 76.82660 86.66719 126.15898
#
# Poissons Ratio (x) = 0.44003 0.43499
# Poissons Ratio (y) = 0.39006 0.20668
# Poissons Ratio (z) = 0.26489 0.14198
#
# Static dielectric constant tensor:
#      x y z
#    x 3.864610 0.000000 0.000000 
#    y 0.000000 3.906020 0.000000 
#    z 0.000000 0.000000 4.483860 
# 
# 
# High freq. dielectric constant tensor:
#      x y z
#    x 1.885890 0.000000 0.000000 
#    y 0.000000 1.888010 0.000000 
#    z 0.000000 0.000000 1.907170 
# 
# From -- ./inp_files/22369.got.cif
#   From: 2010.06.25/outbox.cif.g09.slc.cpg/sg52_12_cif.got.tgz:22369.got - 2010.06.26 19:32:48.
