data_PCOD8216299
_publ_section_title
;
Structure prediction by ZEFSAII (Michael W. Deem and Ramdas Pophale) SiO2 
 PCOD8216299
Probable space group: P N N A
;
_chemical_formula_sum "Si O2"
_cell_formula_units_Z 60
_cell_length_a 30.446096
_cell_length_b 17.866920
_cell_length_c 5.272772
_cell_angle_alpha 90.000000
_cell_angle_beta 90.000000
_cell_angle_gamma 90.000000
_cell_volume 2868.271764
_symmetry_space_group_name_H-M "P N N A"
_symmetry_group_IT_number 52
_symmetry_cell_setting 'orthorhombic'
loop_
_space_group_symop_operation_xyz
x,y,z
1/2-x,-y,z
x,1/2-y,1/2-z
1/2-x,1/2+y,1/2-z
-x,-y,-z
1/2+x,y,-z
-x,1/2+y,1/2+z
1/2+x,1/2-y,1/2+z
loop_
_atom_site_type_symbol
_atom_site_label
_atom_site_fract_x
_atom_site_fract_y
_atom_site_fract_z
Si Si1 0.542000 0.968140 0.360171
Si Si2 0.061422 0.121459 0.825633
Si Si3 0.184206 0.250000 0.250000
Si Si4 0.776235 0.612755 0.468781
Si Si5 0.986942 0.832313 0.693057
Si Si6 0.849238 0.863632 0.407936
Si Si7 0.365027 0.476935 0.047463
Si Si8 0.814546 0.453883 0.476622
O O1 0.527724 0.888007 0.247391
O O2 0.583525 0.955689 0.544714
O O3 0.500000 0.000000 0.500000
O O4 0.555174 0.031176 0.153396
O O5 0.033659 0.156654 0.588868
O O6 0.112969 0.139240 0.803565
O O7 0.050162 0.155166 0.096432
O O8 0.214396 0.318918 0.341270
O O9 0.150933 0.216643 0.456755
O O10 0.800188 0.628127 0.203494
O O11 0.794359 0.533220 0.564759
O O12 0.723774 0.607011 0.432109
O O13 0.005794 0.750000 0.750000
O O14 0.859899 0.933581 0.593643
O O15 0.342762 0.456277 0.779280
O O16 0.344529 0.430652 0.282320
#
# Coordination Sequence:
#
# PCOD8216299 Si02
#       8
#     8   8   4   8   8   8   8   8
#     4   9  21  40  66  93 122 160 212 261 310 372
#     4  10  23  39  61  88 126 164 207 247 315 390
#     4  12  22  36  58  86 130 158 200 254 324 372
#     4  10  23  36  59  85 122 161 203 248 304 366
#     4  11  23  38  59  88 124 167 203 258 314 377
#     4  10  23  37  57  91 125 162 202 253 317 383
#     4  10  21  40  65  89 118 158 208 258 305 362
#     4  10  22  40  63  87 116 161 212 249 293 364
#
# _framework density 20.918517999999999
#
# number of rings (size 3 to 8) (size 9 to 14) (size 15 to 20)
#    0.000    1.867    1.333    1.200    4.667   10.667 
#    0.000    0.000    2.933    0.000    0.000    0.000 
#    0.000    0.000    0.000    0.000    0.000    0.000 
#
# Total GULP energy -743602.676891 kJ/mol
# GULP energy per Si atom -12393.377948 kJ/mol
# Density = 2.087091 g / cm^3
# Si number density = 20.918518 Si / 1000 Ang^3
#
#
#
# Elastic Constant Matrix: (Units=GPa)
#
#
# Indices 1 2 3 4 5 6 
#
# 1 147.6009 49.4433 45.4048 0.0000 0.0000 0.0000
# 2 49.4433 119.0773 25.2045 0.0000 0.0000 0.0000
# 3 45.4048 25.2045 93.6133 0.0000 0.0000 0.0000
# 4 0.0000 0.0000 0.0000 22.8554 0.0000 0.0000
# 5 0.0000 0.0000 0.0000 0.0000 21.3259 0.0000
# 6 0.0000 0.0000 0.0000 0.0000 0.0000 21.9399
#
#
#
# Elastic Compliance Matrix: (Units=1/GPa)
#
#
# Indices 1 2 3 4 5 6 
#
# 1 0.008831 -0.002927 -0.003495 0.000000 0.000000 0.000000
# 2 -0.002927 0.009876 -0.001239 0.000000 0.000000 0.000000
# 3 -0.003495 -0.001239 0.012711 0.000000 0.000000 0.000000
# 4 0.000000 0.000000 0.000000 0.043753 0.000000 0.000000
# 5 0.000000 0.000000 0.000000 0.000000 0.046891 0.000000
# 6 0.000000 0.000000 0.000000 0.000000 0.000000 0.045579
#
#
# Mechanical properties :
#
#
# Convention : Reuss Voigt Hill
#
# Bulk Modulus (GPa) = 62.13174 66.71075 64.42124
# Shear Modulus (GPa) = 26.54938 29.24015 27.89477
#
# Velocity S-wave (km/s) = 3.56642 3.74279 3.65567
# Velocity P-wave (km/s) = 6.83560 7.11603 6.97723
#
# Compressibility (1/GPa) = 0.01609483
#
# Stress axis : x y z
#
# Youngs Moduli (GPa) = 113.24250 101.26048 78.67143
#
# Poissons Ratio (x) = 0.29638 0.27496
# Poissons Ratio (y) = 0.33145 0.09750
# Poissons Ratio (z) = 0.39579 0.12549
#
# Static dielectric constant tensor:
#      x y z
#    x 3.926500 0.000000 0.000000 
#    y 0.000000 4.165270 0.000000 
#    z 0.000000 0.000000 3.561520 
# 
# 
# High freq. dielectric constant tensor:
#      x y z
#    x 1.816690 0.000000 0.000000 
#    y 0.000000 1.801140 0.000000 
#    z 0.000000 0.000000 1.812650 
# 
# From -- ./inp_files/6510.got.cif
#   From: 2010.06.25/outbox.cif.g09.slc.cpg/sg52_4_cif.got.tgz:6510.got - 2010.06.26 19:32:48.
