data_PCOD8216155
_publ_section_title
;
Structure prediction by ZEFSAII (Michael W. Deem and Ramdas Pophale) SiO2 
 PCOD8216155
Probable space group: P N N A
;
_chemical_formula_sum "Si O2"
_cell_formula_units_Z 40
_cell_length_a 15.458341
_cell_length_b 9.074457
_cell_length_c 14.286169
_cell_angle_alpha 90.000000
_cell_angle_beta 90.000000
_cell_angle_gamma 90.000000
_cell_volume 2004.007367
_symmetry_space_group_name_H-M "P N N A"
_symmetry_group_IT_number 52
_symmetry_cell_setting 'orthorhombic'
loop_
_space_group_symop_operation_xyz
x,y,z
1/2-x,-y,z
x,1/2-y,1/2-z
1/2-x,1/2+y,1/2-z
-x,-y,-z
1/2+x,y,-z
-x,1/2+y,1/2+z
1/2+x,1/2-y,1/2+z
loop_
_atom_site_type_symbol
_atom_site_label
_atom_site_fract_x
_atom_site_fract_y
_atom_site_fract_z
Si Si1 0.029957 0.596179 0.412112
Si Si2 0.440364 0.591508 0.931766
Si Si3 0.826168 0.888494 0.596919
Si Si4 0.005216 0.084905 0.274776
Si Si5 0.290805 0.150602 0.163827
O O1 0.012071 0.504393 0.319777
O O2 0.132772 0.630583 0.412444
O O3 0.000000 0.500000 0.500000
O O4 0.978414 0.748249 0.410057
O O5 0.431153 0.496179 0.836620
O O6 0.500000 0.500000 0.000000
O O7 0.350258 0.605563 0.986975
O O8 0.904950 0.920322 0.667990
O O9 0.791297 0.724948 0.613915
O O10 0.750000 0.000000 0.619384
O O11 0.976080 0.250000 0.250000
O O12 0.325707 0.250000 0.250000
O O13 0.250000 0.000000 0.203143
#
# Coordination Sequence:
#
# PCOD8216155 Si02
#       5
#     8   8   8   8   8
#     4  12  23  37  59  87 119 159 198 237 286 348
#     4  10  21  38  57  83 117 156 196 235 284 348
#     4  11  22  38  61  88 119 150 190 243 298 345
#     4  11  22  38  60  89 120 153 193 239 290 352
#     4  12  22  35  57  89 123 152 186 240 299 347
#
# _framework density 19.960007000000001
#
# number of rings (size 3 to 8) (size 9 to 14) (size 15 to 20)
#    0.000    0.800    0.000   12.600    0.000    0.000 
#    0.000    0.000    0.000    8.400    0.000    0.000 
#    0.000    0.000    0.000    0.000    0.000    0.000 
#
# Total GULP energy -495869.801164 kJ/mol
# GULP energy per Si atom -12396.745029 kJ/mol
# Density = 1.991458 g / cm^3
# Si number density = 19.960007 Si / 1000 Ang^3
#
#
#
# Elastic Constant Matrix: (Units=GPa)
#
#
# Indices 1 2 3 4 5 6 
#
# 1 67.8072 36.9318 59.6490 0.0000 0.0000 0.0000
# 2 36.9318 167.8297 70.4955 0.0000 0.0000 0.0000
# 3 59.6490 70.4955 159.1111 0.0000 0.0000 0.0000
# 4 0.0000 0.0000 0.0000 35.6818 0.0000 0.0000
# 5 0.0000 0.0000 0.0000 0.0000 35.7372 0.0000
# 6 0.0000 0.0000 0.0000 0.0000 0.0000 26.8422
#
#
#
# Elastic Compliance Matrix: (Units=1/GPa)
#
#
# Indices 1 2 3 4 5 6 
#
# 1 0.022403 -0.001723 -0.007635 0.000000 0.000000 0.000000
# 2 -0.001723 0.007453 -0.002656 0.000000 0.000000 0.000000
# 3 -0.007635 -0.002656 0.010324 0.000000 0.000000 0.000000
# 4 0.000000 0.000000 0.000000 0.028025 0.000000 0.000000
# 5 0.000000 0.000000 0.000000 0.000000 0.027982 0.000000
# 6 0.000000 0.000000 0.000000 0.000000 0.000000 0.037255
#
#
# Mechanical properties :
#
#
# Convention : Reuss Voigt Hill
#
# Bulk Modulus (GPa) = 61.91407 80.98895 71.45151
# Shear Modulus (GPa) = 30.70220 34.83037 32.76628
#
# Velocity S-wave (km/s) = 3.92623 4.18186 4.05606
# Velocity P-wave (km/s) = 7.18610 7.99881 7.60332
#
# Compressibility (1/GPa) = 0.01615142
#
# Stress axis : x y z
#
# Youngs Moduli (GPa) = 44.63782 134.16835 96.85949
#
# Poissons Ratio (x) = 0.23113 0.73954
# Poissons Ratio (y) = 0.07690 0.25730
# Poissons Ratio (z) = 0.34082 0.35641
#
# Static dielectric constant tensor:
#      x y z
#    x 3.766900 0.000000 0.000000 
#    y 0.000000 3.935010 0.000000 
#    z 0.000000 0.000000 4.290990 
# 
# 
# High freq. dielectric constant tensor:
#      x y z
#    x 1.746400 0.000000 0.000000 
#    y 0.000000 1.809950 0.000000 
#    z 0.000000 0.000000 1.781680 
# 
# From -- ./inp_files/20288.got.cif
#   From: 2010.06.25/outbox.cif.g09.slc.cpg/sg52_11_cif.got.tgz:20288.got - 2010.06.26 19:32:48.
