data_PCOD8216629
_publ_section_title
;
Structure prediction by ZEFSAII (Michael W. Deem and Ramdas Pophale) SiO2 
 PCOD8216629
Probable space group: P N N A
;
_chemical_formula_sum "Si O2"
_cell_formula_units_Z 32
_cell_length_a 8.522497
_cell_length_b 14.823553
_cell_length_c 10.905608
_cell_angle_alpha 90.000000
_cell_angle_beta 90.000000
_cell_angle_gamma 90.000000
_cell_volume 1377.745656
_symmetry_space_group_name_H-M "P N N A"
_symmetry_group_IT_number 52
_symmetry_cell_setting 'orthorhombic'
loop_
_space_group_symop_operation_xyz
x,y,z
1/2-x,-y,z
x,1/2-y,1/2-z
1/2-x,1/2+y,1/2-z
-x,-y,-z
1/2+x,y,-z
-x,1/2+y,1/2+z
1/2+x,1/2-y,1/2+z
loop_
_atom_site_type_symbol
_atom_site_label
_atom_site_fract_x
_atom_site_fract_y
_atom_site_fract_z
Si Si1 0.437438 0.498411 0.637846
Si Si2 0.046509 0.306251 0.357358
Si Si3 0.766259 0.210914 0.480075
Si Si4 0.497778 0.156195 0.320425
O O1 0.250000 0.500000 0.642483
O O2 0.500000 0.500000 0.500000
O O3 0.507461 0.405575 0.690677
O O4 0.513196 0.577287 0.719753
O O5 0.130947 0.250000 0.250000
O O6 0.166216 0.298328 0.471509
O O7 0.887362 0.254105 0.387463
O O8 0.652884 0.143594 0.404776
O O9 0.846738 0.154182 0.589909
O O10 0.507926 0.250000 0.250000
#
# Coordination Sequence:
#
# PCOD8216629 Si02
#       4
#     8   8   8   8
#     4  12  25  42  69 102 135 177 230 288 344 411
#     4  11  22  41  64  92 127 170 218 270 332 403
#     4  10  22  42  67  94 135 177 218 282 349 403
#     4  11  23  43  68 100 137 178 229 286 346 411
#
# _framework density 23.226348000000002
#
# number of rings (size 3 to 8) (size 9 to 14) (size 15 to 20)
#    0.000    1.000    0.000    9.000    0.000    2.000 
#    0.000   13.750    0.000    0.000    0.000    0.000 
#    0.000    0.000    0.000    0.000    0.000    0.000 
#
# Total GULP energy -396760.687341 kJ/mol
# GULP energy per Si atom -12398.771479 kJ/mol
# Density = 2.317348 g / cm^3
# Si number density = 23.226348 Si / 1000 Ang^3
#
#
#
# Elastic Constant Matrix: (Units=GPa)
#
#
# Indices 1 2 3 4 5 6 
#
# 1 76.6954 9.1115 36.5926 0.0000 0.0000 0.0000
# 2 9.1115 143.2823 69.5175 0.0000 0.0000 0.0000
# 3 36.5926 69.5175 137.1469 0.0000 0.0000 0.0000
# 4 0.0000 0.0000 0.0000 50.2616 0.0000 0.0000
# 5 0.0000 0.0000 0.0000 0.0000 32.2271 0.0000
# 6 0.0000 0.0000 0.0000 0.0000 0.0000 18.9948
#
#
#
# Elastic Compliance Matrix: (Units=1/GPa)
#
#
# Indices 1 2 3 4 5 6 
#
# 1 0.015127 0.001321 -0.004706 0.000000 0.000000 0.000000
# 2 0.001321 0.009371 -0.005102 0.000000 0.000000 0.000000
# 3 -0.004706 -0.005102 0.011133 0.000000 0.000000 0.000000
# 4 0.000000 0.000000 0.000000 0.019896 0.000000 0.000000
# 5 0.000000 0.000000 0.000000 0.000000 0.031030 0.000000
# 6 0.000000 0.000000 0.000000 0.000000 0.000000 0.052646
#
#
# Mechanical properties :
#
#
# Convention : Reuss Voigt Hill
#
# Bulk Modulus (GPa) = 53.59907 65.28532 59.44219
# Shear Modulus (GPa) = 30.78901 36.42356 33.60628
#
# Velocity S-wave (km/s) = 3.64484 3.96435 3.80795
# Velocity P-wave (km/s) = 6.39062 7.00885 6.70687
#
# Compressibility (1/GPa) = 0.01865704
#
# Stress axis : x y z
#
# Youngs Moduli (GPa) = 66.10776 106.71461 89.82046
#
# Poissons Ratio (x) = -0.14099 0.42267
# Poissons Ratio (y) = -0.08734 0.45830
# Poissons Ratio (z) = 0.31108 0.54450
#
# Static dielectric constant tensor:
#      x y z
#    x 4.440940 0.000000 0.000000 
#    y 0.000000 4.238340 0.000000 
#    z 0.000000 0.000000 4.429390 
# 
# 
# High freq. dielectric constant tensor:
#      x y z
#    x 1.937200 0.000000 0.000000 
#    y 0.000000 1.891220 0.000000 
#    z 0.000000 0.000000 1.936790 
# 
# From -- ./inp_files/16402.got.cif
#   From: 2010.06.25/outbox.cif.g09.slc.cpg/sg52_9_cif.got.tgz:16402.got - 2010.06.26 19:32:48.
