data_PCOD8216988
_publ_section_title
;
Structure prediction by ZEFSAII (Michael W. Deem and Ramdas Pophale) SiO2 
 PCOD8216988
Probable space group: P N N A
;
_chemical_formula_sum "Si O2"
_cell_formula_units_Z 64
_cell_length_a 21.441404
_cell_length_b 9.020926
_cell_length_c 15.869406
_cell_angle_alpha 90.000000
_cell_angle_beta 90.000000
_cell_angle_gamma 90.000000
_cell_volume 3069.481437
_symmetry_space_group_name_H-M "P N N A"
_symmetry_group_IT_number 52
_symmetry_cell_setting 'orthorhombic'
loop_
_space_group_symop_operation_xyz
x,y,z
1/2-x,-y,z
x,1/2-y,1/2-z
1/2-x,1/2+y,1/2-z
-x,-y,-z
1/2+x,y,-z
-x,1/2+y,1/2+z
1/2+x,1/2-y,1/2+z
loop_
_atom_site_type_symbol
_atom_site_label
_atom_site_fract_x
_atom_site_fract_y
_atom_site_fract_z
Si Si1 0.688518 0.430160 0.580608
Si Si2 0.423053 0.380673 0.471772
Si Si3 0.040283 0.481539 0.628674
Si Si4 0.098977 0.573945 0.096059
Si Si5 0.982644 0.905852 0.299434
Si Si6 0.137997 0.268622 0.843157
Si Si7 0.693456 0.381631 0.992292
Si Si8 0.693571 0.580252 0.761407
O O1 0.750000 0.500000 0.536581
O O2 0.624185 0.480600 0.537168
O O3 0.699890 0.253659 0.573699
O O4 0.684383 0.486719 0.676367
O O5 0.444982 0.376786 0.569818
O O6 0.483616 0.390228 0.413207
O O7 0.387805 0.230505 0.448701
O O8 0.102747 0.382146 0.631393
O O9 0.018977 0.528148 0.723499
O O10 0.027175 0.548619 0.122704
O O11 0.131011 0.569539 0.186659
O O12 0.126871 0.454255 0.032155
O O13 0.998740 0.750000 0.250000
O O14 0.914011 0.897874 0.339161
O O15 0.169734 0.250000 0.750000
O O16 0.189299 0.315449 0.912715
O O17 0.750000 0.500000 0.985893
O O18 0.750000 0.500000 0.812319
O O19 0.712387 0.750000 0.750000
#
# Coordination Sequence:
#
# PCOD8216988 Si02
#       8
#     8   8   8   8   8   8   8   8
#     4  11  24  40  61  86 129 176 228 264 322 395
#     4  11  18  35  62  96 121 168 216 273 325 387
#     4   9  18  33  66  92 122 159 225 264 324 397
#     4  12  22  36  63  96 138 168 214 265 335 389
#     4   9  17  36  61  94 122 172 209 257 332 391
#     4   9  19  42  69  90 120 165 215 275 341 403
#     4  12  27  43  62  95 134 171 217 278 331 391
#     4  11  24  37  58  87 130 182 220 264 311 384
#
# _framework density 20.850425999999999
#
# number of rings (size 3 to 8) (size 9 to 14) (size 15 to 20)
#    0.000    1.750    5.000    2.250    5.250    0.500 
#    0.000    0.625    2.750    3.000    0.000    0.000 
#    0.000    0.000    0.000    0.000    0.000    0.000 
#
# Total GULP energy -792880.711122 kJ/mol
# GULP energy per Si atom -12388.761111 kJ/mol
# Density = 2.080297 g / cm^3
# Si number density = 20.850426 Si / 1000 Ang^3
#
#
#
# Elastic Constant Matrix: (Units=GPa)
#
#
# Indices 1 2 3 4 5 6 
#
# 1 48.3294 26.8177 28.6748 0.0000 0.0000 0.0000
# 2 26.8177 94.0384 47.0105 0.0000 0.0000 0.0000
# 3 28.6748 47.0105 113.5343 0.0000 0.0000 0.0000
# 4 0.0000 0.0000 0.0000 29.1457 0.0000 0.0000
# 5 0.0000 0.0000 0.0000 0.0000 26.1308 0.0000
# 6 0.0000 0.0000 0.0000 0.0000 0.0000 21.4818
#
#
#
# Elastic Compliance Matrix: (Units=1/GPa)
#
#
# Indices 1 2 3 4 5 6 
#
# 1 0.026252 -0.005261 -0.004452 0.000000 0.000000 0.000000
# 2 -0.005261 0.014464 -0.004660 0.000000 0.000000 0.000000
# 3 -0.004452 -0.004660 0.011862 0.000000 0.000000 0.000000
# 4 0.000000 0.000000 0.000000 0.034310 0.000000 0.000000
# 5 0.000000 0.000000 0.000000 0.000000 0.038269 0.000000
# 6 0.000000 0.000000 0.000000 0.000000 0.000000 0.046551
#
#
# Mechanical properties :
#
#
# Convention : Reuss Voigt Hill
#
# Bulk Modulus (GPa) = 41.96110 51.21202 46.58656
# Shear Modulus (GPa) = 23.99246 25.57826 24.78536
#
# Velocity S-wave (km/s) = 3.39587 3.50630 3.45153
# Velocity P-wave (km/s) = 5.96191 6.40368 6.18674
#
# Compressibility (1/GPa) = 0.02383160
#
# Stress axis : x y z
#
# Youngs Moduli (GPa) = 38.09222 69.13729 84.30293
#
# Poissons Ratio (x) = 0.36373 0.37532
# Poissons Ratio (y) = 0.20040 0.39288
# Poissons Ratio (z) = 0.16959 0.32220
#
# Static dielectric constant tensor:
#      x y z
#    x 3.969140 0.000000 0.000000 
#    y 0.000000 3.555940 0.000000 
#    z 0.000000 0.000000 3.964410 
# 
# 
# High freq. dielectric constant tensor:
#      x y z
#    x 1.807660 0.000000 0.000000 
#    y 0.000000 1.786090 0.000000 
#    z 0.000000 0.000000 1.823870 
# 
# From -- ./inp_files/34380.got.cif
#   From: 2010.06.25/outbox.cif.g09.slc.cpg/sg52_18_cif.got.tgz:34380.got - 2010.06.26 19:32:48.
