data_PCOD8216501
_publ_section_title
;
Structure prediction by ZEFSAII (Michael W. Deem and Ramdas Pophale) SiO2 
 PCOD8216501
Probable space group: P N N A
;
_chemical_formula_sum "Si O2"
_cell_formula_units_Z 48
_cell_length_a 16.531491
_cell_length_b 19.243345
_cell_length_c 7.496598
_cell_angle_alpha 90.000000
_cell_angle_beta 90.000000
_cell_angle_gamma 90.000000
_cell_volume 2384.826637
_symmetry_space_group_name_H-M "P N N A"
_symmetry_group_IT_number 52
_symmetry_cell_setting 'orthorhombic'
loop_
_space_group_symop_operation_xyz
x,y,z
1/2-x,-y,z
x,1/2-y,1/2-z
1/2-x,1/2+y,1/2-z
-x,-y,-z
1/2+x,y,-z
-x,1/2+y,1/2+z
1/2+x,1/2-y,1/2+z
loop_
_atom_site_type_symbol
_atom_site_label
_atom_site_fract_x
_atom_site_fract_y
_atom_site_fract_z
Si Si1 0.219186 0.924020 0.963659
Si Si2 0.472360 0.925594 0.567739
Si Si3 0.781071 0.673265 0.760259
Si Si4 0.779591 0.574848 0.072200
Si Si5 0.031506 0.576216 0.456975
Si Si6 0.469967 0.826909 0.256168
O O1 0.237788 0.907103 0.758865
O O2 0.250000 0.000000 0.018921
O O3 0.264952 0.866752 0.077968
O O4 0.124865 0.919159 0.997601
O O5 0.376089 0.925051 0.594352
O O6 0.516218 0.906103 0.751298
O O7 0.504549 0.869828 0.423959
O O8 0.500000 0.000000 0.500000
O O9 0.740955 0.750000 0.750000
O O10 0.875614 0.680997 0.787965
O O11 0.746942 0.630917 0.929902
O O12 0.750000 0.500000 0.002692
O O13 0.000000 0.500000 0.500000
O O14 0.984668 0.633151 0.572226
O O15 0.509996 0.750000 0.250000
#
# Coordination Sequence:
#
# PCOD8216501 Si02
#       6
#     8   8   8   8   8   8
#     4  11  24  39  62  93 123 165 209 262 309 368
#     4  11  23  38  67  96 120 167 213 261 313 372
#     4  10  22  41  63  88 124 167 205 250 313 376
#     4  10  22  39  63  92 124 159 206 259 309 365
#     4  12  23  40  65  93 126 164 214 265 314 376
#     4  10  23  43  64  92 129 165 208 263 315 375
#
# _framework density 20.12725
#
# number of rings (size 3 to 8) (size 9 to 14) (size 15 to 20)
#    0.000    1.333    1.667    4.500    4.667    1.333 
#    6.000    5.000    0.000    0.000    0.000    0.000 
#    0.000    0.000    0.000    0.000    0.000    0.000 
#
# Total GULP energy -595349.687127 kJ/mol
# GULP energy per Si atom -12403.118482 kJ/mol
# Density = 2.008144 g / cm^3
# Si number density = 20.127250 Si / 1000 Ang^3
#
#
#
# Elastic Constant Matrix: (Units=GPa)
#
#
# Indices 1 2 3 4 5 6 
#
# 1 53.6575 12.8905 30.9750 0.0000 0.0000 0.0000
# 2 12.8905 186.0577 101.6998 0.0000 0.0000 0.0000
# 3 30.9750 101.6998 176.8692 0.0000 0.0000 0.0000
# 4 0.0000 0.0000 0.0000 29.1357 0.0000 0.0000
# 5 0.0000 0.0000 0.0000 0.0000 36.2262 0.0000
# 6 0.0000 0.0000 0.0000 0.0000 0.0000 25.6687
#
#
#
# Elastic Compliance Matrix: (Units=1/GPa)
#
#
# Indices 1 2 3 4 5 6 
#
# 1 0.020815 0.000803 -0.004107 0.000000 0.000000 0.000000
# 2 0.000803 0.007869 -0.004665 0.000000 0.000000 0.000000
# 3 -0.004107 -0.004665 0.009056 0.000000 0.000000 0.000000
# 4 0.000000 0.000000 0.000000 0.034322 0.000000 0.000000
# 5 0.000000 0.000000 0.000000 0.000000 0.027604 0.000000
# 6 0.000000 0.000000 0.000000 0.000000 0.000000 0.038958
#
#
# Mechanical properties :
#
#
# Convention : Reuss Voigt Hill
#
# Bulk Modulus (GPa) = 45.87035 78.63501 62.25268
# Shear Modulus (GPa) = 30.89669 36.27406 33.58538
#
# Velocity S-wave (km/s) = 3.92224 4.24988 4.08935
# Velocity P-wave (km/s) = 6.58420 7.95209 7.30025
#
# Compressibility (1/GPa) = 0.02180058
#
# Stress axis : x y z
#
# Youngs Moduli (GPa) = 48.04317 127.07840 110.42782
#
# Poissons Ratio (x) = -0.10201 0.45351
# Poissons Ratio (y) = -0.03856 0.51518
# Poissons Ratio (z) = 0.19730 0.59286
#
# Static dielectric constant tensor:
#      x y z
#    x 3.588590 0.000000 0.000000 
#    y 0.000000 3.987420 0.000000 
#    z 0.000000 0.000000 3.958860 
# 
# 
# High freq. dielectric constant tensor:
#      x y z
#    x 1.780650 0.000000 0.000000 
#    y 0.000000 1.789290 0.000000 
#    z 0.000000 0.000000 1.801400 
# 
# From -- ./inp_files/12293.got.cif
#   From: 2010.06.25/outbox.cif.g09.slc.cpg/sg52_7_cif.got.tgz:12293.got - 2010.06.26 19:32:48.
