data_PCOD8216204
_publ_section_title
;
Structure prediction by ZEFSAII (Michael W. Deem and Ramdas Pophale) SiO2 
 PCOD8216204
Probable space group: P N N A
;
_chemical_formula_sum "Si O2"
_cell_formula_units_Z 60
_cell_length_a 27.967047
_cell_length_b 19.892271
_cell_length_c 5.210985
_cell_angle_alpha 90.000000
_cell_angle_beta 90.000000
_cell_angle_gamma 90.000000
_cell_volume 2899.017270
_symmetry_space_group_name_H-M "P N N A"
_symmetry_group_IT_number 52
_symmetry_cell_setting 'orthorhombic'
loop_
_space_group_symop_operation_xyz
x,y,z
1/2-x,-y,z
x,1/2-y,1/2-z
1/2-x,1/2+y,1/2-z
-x,-y,-z
1/2+x,y,-z
-x,1/2+y,1/2+z
1/2+x,1/2-y,1/2+z
loop_
_atom_site_type_symbol
_atom_site_label
_atom_site_fract_x
_atom_site_fract_y
_atom_site_fract_z
Si Si1 0.864224 0.633637 0.579759
Si Si2 0.716053 0.142697 0.566860
Si Si3 0.052199 0.047293 0.250790
Si Si4 0.202205 0.472364 0.694397
Si Si5 0.175298 0.250000 0.750000
Si Si6 0.310966 0.172613 0.190501
Si Si7 0.444041 0.462119 0.753944
Si Si8 0.149381 0.606478 0.812242
O O1 0.838653 0.650524 0.843860
O O2 0.918060 0.612791 0.656960
O O3 0.833203 0.570510 0.480165
O O4 0.860821 0.699482 0.400397
O O5 0.724251 0.072590 0.423083
O O6 0.717060 0.208117 0.390384
O O7 0.755392 0.150027 0.790596
O O8 0.997055 0.068220 0.289845
O O9 0.069263 0.017216 0.525123
O O10 0.059303 0.992258 0.030323
O O11 0.250000 0.500000 0.546406
O O12 0.170957 0.532362 0.803833
O O13 0.318263 0.250000 0.250000
O O14 0.341414 0.134111 0.405096
O O15 0.328631 0.154712 0.905711
O O16 0.407634 0.399823 0.772428
#
# Coordination Sequence:
#
# PCOD8216204 Si02
#       8
#     8   8   8   8   4   8   8   8
#     4  11  22  38  61  90 129 167 214 264 321 390
#     4  11  24  39  62  87 132 168 220 258 314 384
#     4  10  21  38  69  94 133 161 209 258 330 404
#     4  11  22  36  58  96 128 166 203 269 327 373
#     4  10  24  40  58  88 122 178 216 262 310 380
#     4  12  27  43  66  87 125 184 219 255 307 388
#     4  10  21  41  63 102 125 164 203 268 333 380
#     4  12  24  42  65  94 130 161 216 272 321 372
#
# _framework density 20.696667999999999
#
# number of rings (size 3 to 8) (size 9 to 14) (size 15 to 20)
#    0.000    1.067    2.667    4.000    7.467    0.533 
#    0.000    0.000    1.467    1.600    0.000    0.000 
#    0.000    0.000    0.000    0.000    0.000    0.000 
#
# Total GULP energy -743614.205879 kJ/mol
# GULP energy per Si atom -12393.570098 kJ/mol
# Density = 2.064956 g / cm^3
# Si number density = 20.696668 Si / 1000 Ang^3
#
#
#
# Elastic Constant Matrix: (Units=GPa)
#
#
# Indices 1 2 3 4 5 6 
#
# 1 120.8589 32.1795 8.1613 0.0000 0.0000 0.0000
# 2 32.1795 103.8568 10.2491 0.0000 0.0000 0.0000
# 3 8.1613 10.2491 64.9183 0.0000 0.0000 0.0000
# 4 0.0000 0.0000 0.0000 1.7672 0.0000 0.0000
# 5 0.0000 0.0000 0.0000 0.0000 29.2546 0.0000
# 6 0.0000 0.0000 0.0000 0.0000 0.0000 311.8375
#
#
#
# Elastic Compliance Matrix: (Units=1/GPa)
#
#
# Indices 1 2 3 4 5 6 
#
# 1 0.009050 -0.002734 -0.000706 0.000000 0.000000 0.000000
# 2 -0.002734 0.010607 -0.001331 0.000000 0.000000 0.000000
# 3 -0.000706 -0.001331 0.015703 0.000000 0.000000 0.000000
# 4 0.000000 0.000000 0.000000 0.565858 0.000000 0.000000
# 5 0.000000 0.000000 0.000000 0.000000 0.034183 0.000000
# 6 0.000000 0.000000 0.000000 0.000000 0.000000 0.003207
#
#
# Mechanical properties :
#
#
# Convention : Reuss Voigt Hill
#
# Bulk Modulus (GPa) = 38.73362 43.42375 41.07868
# Shear Modulus (GPa) = 7.61318 84.50815 46.06067
#
# Velocity S-wave (km/s) = 1.92001 6.39691 4.72265
# Velocity P-wave (km/s) = 4.86526 8.69409 7.04478
#
# Compressibility (1/GPa) = 0.02581737
#
# Stress axis : x y z
#
# Youngs Moduli (GPa) = 110.49935 94.27552 63.68268
#
# Poissons Ratio (x) = 0.25778 0.04496
# Poissons Ratio (y) = 0.30215 0.08475
# Poissons Ratio (z) = 0.07802 0.12547
#
# Static dielectric constant tensor:
#      x y z
#    x 3.913840 0.000000 0.000000 
#    y 0.000000 4.849220 0.000000 
#    z 0.000000 0.000000 3.940180 
# 
# 
# High freq. dielectric constant tensor:
#      x y z
#    x 1.804740 0.000000 0.000000 
#    y 0.000000 1.801010 0.000000 
#    z 0.000000 0.000000 1.822040 
# 
# From -- ./inp_files/5946.got.cif
#   From: 2010.06.25/outbox.cif.g09.slc.cpg/sg52_3_cif.got.tgz:5946.got - 2010.06.26 19:32:48.
