data_PCOD8216677
_publ_section_title
;
Structure prediction by ZEFSAII (Michael W. Deem and Ramdas Pophale) SiO2 
 PCOD8216677
Probable space group: P N N A
;
_chemical_formula_sum "Si O2"
_cell_formula_units_Z 40
_cell_length_a 13.869846
_cell_length_b 14.717663
_cell_length_c 8.167786
_cell_angle_alpha 90.000000
_cell_angle_beta 90.000000
_cell_angle_gamma 90.000000
_cell_volume 1667.304199
_symmetry_space_group_name_H-M "P N N A"
_symmetry_group_IT_number 52
_symmetry_cell_setting 'orthorhombic'
loop_
_space_group_symop_operation_xyz
x,y,z
1/2-x,-y,z
x,1/2-y,1/2-z
1/2-x,1/2+y,1/2-z
-x,-y,-z
1/2+x,y,-z
-x,1/2+y,1/2+z
1/2+x,1/2-y,1/2+z
loop_
_atom_site_type_symbol
_atom_site_label
_atom_site_fract_x
_atom_site_fract_y
_atom_site_fract_z
Si Si1 0.018236 0.605470 0.018867
Si Si2 0.344730 0.452698 0.554858
Si Si3 0.631169 0.271969 0.926722
Si Si4 0.720811 0.897197 0.395683
Si Si5 0.477146 0.881789 0.877632
O O1 0.983492 0.649897 0.190310
O O2 0.128607 0.629913 0.999823
O O3 0.000000 0.500000 0.000000
O O4 0.955535 0.658192 0.882812
O O5 0.250000 0.500000 0.468148
O O6 0.300776 0.390927 0.701183
O O7 0.419952 0.523452 0.632496
O O8 0.410292 0.392262 0.433915
O O9 0.680011 0.250000 0.750000
O O10 0.701585 0.322186 0.053659
O O11 0.586435 0.182776 0.009235
O O12 0.750000 0.000000 0.442051
#
# Coordination Sequence:
#
# PCOD8216677 Si02
#       5
#     8   8   8   8   8
#     4  12  23  45  75 103 146 199 247 309 392 459
#     4  10  22  43  74 108 147 197 244 300 387 468
#     4  12  28  46  72 112 156 195 259 326 376 457
#     4  11  23  45  75 102 145 200 248 304 389 461
#     4  11  25  44  73 109 151 193 248 322 382 452
#
# _framework density 23.990824
#
# number of rings (size 3 to 8) (size 9 to 14) (size 15 to 20)
#    0.000    0.800    4.000    3.000    2.800    5.600 
#    0.000    6.000    0.000    0.000    0.000    0.000 
#    0.000    0.000    0.000    0.000    0.000    0.000 
#
# Total GULP energy -495791.856699 kJ/mol
# GULP energy per Si atom -12394.796417 kJ/mol
# Density = 2.393622 g / cm^3
# Si number density = 23.990824 Si / 1000 Ang^3
#
#
#
# Elastic Constant Matrix: (Units=GPa)
#
#
# Indices 1 2 3 4 5 6 
#
# 1 157.4403 27.5246 40.6472 0.0000 0.0000 0.0000
# 2 27.5246 74.3027 32.3302 0.0000 0.0000 0.0000
# 3 40.6472 32.3302 97.3470 0.0000 0.0000 0.0000
# 4 0.0000 0.0000 0.0000 28.3719 0.0000 0.0000
# 5 0.0000 0.0000 0.0000 0.0000 46.9575 0.0000
# 6 0.0000 0.0000 0.0000 0.0000 0.0000 43.8157
#
#
#
# Elastic Compliance Matrix: (Units=1/GPa)
#
#
# Indices 1 2 3 4 5 6 
#
# 1 0.007279 -0.001606 -0.002506 0.000000 0.000000 0.000000
# 2 -0.001606 0.016086 -0.004672 0.000000 0.000000 0.000000
# 3 -0.002506 -0.004672 0.012871 0.000000 0.000000 0.000000
# 4 0.000000 0.000000 0.000000 0.035246 0.000000 0.000000
# 5 0.000000 0.000000 0.000000 0.000000 0.021296 0.000000
# 6 0.000000 0.000000 0.000000 0.000000 0.000000 0.022823
#
#
# Mechanical properties :
#
#
# Convention : Reuss Voigt Hill
#
# Bulk Modulus (GPa) = 53.56737 58.89931 56.23334
# Shear Modulus (GPa) = 35.87014 39.06823 37.46918
#
# Velocity S-wave (km/s) = 3.87093 4.03980 3.95627
# Velocity P-wave (km/s) = 6.50811 6.80912 6.66031
#
# Compressibility (1/GPa) = 0.01866808
#
# Stress axis : x y z
#
# Youngs Moduli (GPa) = 137.37355 62.16509 77.69701
#
# Poissons Ratio (x) = 0.09985 0.19472
# Poissons Ratio (y) = 0.22064 0.36298
# Poissons Ratio (z) = 0.34427 0.29042
#
# Static dielectric constant tensor:
#      x y z
#    x 3.514560 0.000000 0.000000 
#    y 0.000000 4.367290 0.000000 
#    z 0.000000 0.000000 4.262390 
# 
# 
# High freq. dielectric constant tensor:
#      x y z
#    x 1.973840 0.000000 0.000000 
#    y 0.000000 1.945270 0.000000 
#    z 0.000000 0.000000 1.939810 
# 
# From -- ./inp_files/10032.got.cif
#   From: 2010.06.25/outbox.cif.g09.slc.cpg/sg52_6_cif.got.tgz:10032.got - 2010.06.26 19:32:48.
