data_PCOD8216432
_publ_section_title
;
Structure prediction by ZEFSAII (Michael W. Deem and Ramdas Pophale) SiO2 
 PCOD8216432
Probable space group: P N N A
;
_chemical_formula_sum "Si O2"
_cell_formula_units_Z 40
_cell_length_a 5.434323
_cell_length_b 17.711186
_cell_length_c 18.294013
_cell_angle_alpha 90.000000
_cell_angle_beta 90.000000
_cell_angle_gamma 90.000000
_cell_volume 1760.767751
_symmetry_space_group_name_H-M "P N N A"
_symmetry_group_IT_number 52
_symmetry_cell_setting 'orthorhombic'
loop_
_space_group_symop_operation_xyz
x,y,z
1/2-x,-y,z
x,1/2-y,1/2-z
1/2-x,1/2+y,1/2-z
-x,-y,-z
1/2+x,y,-z
-x,1/2+y,1/2+z
1/2+x,1/2-y,1/2+z
loop_
_atom_site_type_symbol
_atom_site_label
_atom_site_fract_x
_atom_site_fract_y
_atom_site_fract_z
Si Si1 0.074490 0.888294 0.696221
Si Si2 0.250000 0.000000 0.217948
Si Si3 0.447556 0.633184 0.682977
Si Si4 0.264462 0.750000 0.250000
Si Si5 0.759856 0.411142 0.459226
Si Si6 0.463372 0.414697 0.971680
O O1 0.335267 0.878326 0.736290
O O2 0.113866 0.908061 0.612307
O O3 0.946719 0.960701 0.730535
O O4 0.925140 0.811106 0.707115
O O5 0.374535 0.061922 0.165080
O O6 0.600390 0.710592 0.686824
O O7 0.246080 0.633940 0.618340
O O8 0.750000 0.500000 0.444663
O O9 0.515846 0.385942 0.503955
O O10 0.500000 0.500000 0.000000
O O11 0.730541 0.375538 0.986027
#
# Coordination Sequence:
#
# PCOD8216432 Si02
#       6
#     8   4   8   4   8   8
#     4  11  23  42  69  97 138 187 233 295 348 423
#     4  10  22  34  68 102 126 166 240 286 350 410
#     4  11  24  42  68 100 134 185 237 291 347 426
#     4  10  26  44  68  92 140 184 258 278 346 414
#     4  10  23  40  67 102 141 173 218 290 362 420
#     4  10  23  39  65 101 143 176 221 288 363 424
#
# _framework density 22.717361
#
# number of rings (size 3 to 8) (size 9 to 14) (size 15 to 20)
#    0.000    1.600    0.000    3.600   21.000    0.000 
#    0.000    2.000    0.000    0.000    0.000    0.000 
#    0.000    0.000    0.000    0.000    0.000    0.000 
#
# Total GULP energy -495871.315682 kJ/mol
# GULP energy per Si atom -12396.782892 kJ/mol
# Density = 2.266566 g / cm^3
# Si number density = 22.717361 Si / 1000 Ang^3
#
#
#
# Elastic Constant Matrix: (Units=GPa)
#
#
# Indices 1 2 3 4 5 6 
#
# 1 133.7857 18.2431 30.5846 0.0000 0.0000 0.0000
# 2 18.2431 96.1747 17.1678 0.0000 0.0000 0.0000
# 3 30.5846 17.1678 127.6780 0.0000 0.0000 0.0000
# 4 0.0000 0.0000 0.0000 8.8288 0.0000 0.0000
# 5 0.0000 0.0000 0.0000 0.0000 38.0613 0.0000
# 6 0.0000 0.0000 0.0000 0.0000 0.0000 18.9196
#
#
#
# Elastic Compliance Matrix: (Units=1/GPa)
#
#
# Indices 1 2 3 4 5 6 
#
# 1 0.008043 -0.001211 -0.001764 0.000000 0.000000 0.000000
# 2 -0.001211 0.010836 -0.001167 0.000000 0.000000 0.000000
# 3 -0.001764 -0.001167 0.008412 0.000000 0.000000 0.000000
# 4 0.000000 0.000000 0.000000 0.113266 0.000000 0.000000
# 5 0.000000 0.000000 0.000000 0.000000 0.026273 0.000000
# 6 0.000000 0.000000 0.000000 0.000000 0.000000 0.052855
#
#
# Mechanical properties :
#
#
# Convention : Reuss Voigt Hill
#
# Bulk Modulus (GPa) = 52.61177 54.40327 53.50752
# Shear Modulus (GPa) = 21.33982 32.60480 26.97231
#
# Velocity S-wave (km/s) = 3.06823 3.79256 3.44946
# Velocity P-wave (km/s) = 5.98010 6.57099 6.28249
#
# Compressibility (1/GPa) = 0.01900715
#
# Stress axis : x y z
#
# Youngs Moduli (GPa) = 124.33213 92.28733 118.88300
#
# Poissons Ratio (x) = 0.11174 0.20969
# Poissons Ratio (y) = 0.15054 0.13873
# Poissons Ratio (z) = 0.21930 0.10769
#
# Static dielectric constant tensor:
#      x y z
#    x 6.421090 0.000000 0.000000 
#    y 0.000000 4.246080 0.000000 
#    z 0.000000 0.000000 3.963240 
# 
# 
# High freq. dielectric constant tensor:
#      x y z
#    x 1.920340 0.000000 0.000000 
#    y 0.000000 1.867130 0.000000 
#    z 0.000000 0.000000 1.887570 
# 
# From -- ./inp_files/30156.got.cif
#   From: 2010.06.25/outbox.cif.g09.slc.cpg/sg52_16_cif.got.tgz:30156.got - 2010.06.26 19:32:48.
