data_PCOD8216789
_publ_section_title
;
Structure prediction by ZEFSAII (Michael W. Deem and Ramdas Pophale) SiO2 
 PCOD8216789
Probable space group: P N N A
;
_chemical_formula_sum "Si O2"
_cell_formula_units_Z 36
_cell_length_a 14.411007
_cell_length_b 14.796226
_cell_length_c 8.216299
_cell_angle_alpha 90.000000
_cell_angle_beta 90.000000
_cell_angle_gamma 90.000000
_cell_volume 1751.949247
_symmetry_space_group_name_H-M "P N N A"
_symmetry_group_IT_number 52
_symmetry_cell_setting 'orthorhombic'
loop_
_space_group_symop_operation_xyz
x,y,z
1/2-x,-y,z
x,1/2-y,1/2-z
1/2-x,1/2+y,1/2-z
-x,-y,-z
1/2+x,y,-z
-x,1/2+y,1/2+z
1/2+x,1/2-y,1/2+z
loop_
_atom_site_type_symbol
_atom_site_label
_atom_site_fract_x
_atom_site_fract_y
_atom_site_fract_z
Si Si1 0.750000 0.000000 0.242938
Si Si2 0.134936 0.261446 0.060546
Si Si3 0.979860 0.329860 0.629437
Si Si4 0.308005 0.185012 0.901836
Si Si5 0.067544 0.441989 0.894328
O O1 0.747432 0.906527 0.142273
O O2 0.843178 0.001617 0.349653
O O3 0.118564 0.250000 0.250000
O O4 0.242130 0.245166 0.016499
O O5 0.103091 0.358872 0.000756
O O6 0.073799 0.188685 0.967112
O O7 0.949501 0.250000 0.750000
O O8 0.898236 0.346794 0.500724
O O9 0.005752 0.416896 0.736619
O O10 0.335553 0.250000 0.750000
O O11 0.000000 0.500000 0.000000
#
# Coordination Sequence:
#
# PCOD8216789 Si02
#       5
#     4   8   8   8   8
#     4  12  26  44  72  98 140 184 226 288 358 410
#     4  11  23  44  68 100 138 184 231 293 351 416
#     4  10  23  43  67 100 135 181 233 280 351 418
#     4  12  24  44  70  99 142 185 232 292 350 418
#     4  11  26  45  69 103 145 181 236 295 352 427
#
# _framework density 20.548541
#
# number of rings (size 3 to 8) (size 9 to 14) (size 15 to 20)
#    0.000    0.889    4.444    2.000    9.333    4.444 
#    0.000    0.000    0.000    0.000    0.000    0.000 
#    0.000    0.000    0.000    0.000    0.000    0.000 
#
# Total GULP energy -446414.091190 kJ/mol
# GULP energy per Si atom -12400.391422 kJ/mol
# Density = 2.050177 g / cm^3
# Si number density = 20.548541 Si / 1000 Ang^3
#
#
#
# Elastic Constant Matrix: (Units=GPa)
#
#
# Indices 1 2 3 4 5 6 
#
# 1 120.6136 46.5073 32.7786 0.0000 0.0000 0.0000
# 2 46.5073 98.2668 48.3470 0.0000 0.0000 0.0000
# 3 32.7786 48.3470 112.1303 0.0000 0.0000 0.0000
# 4 0.0000 0.0000 0.0000 26.2819 0.0000 0.0000
# 5 0.0000 0.0000 0.0000 0.0000 48.5432 0.0000
# 6 0.0000 0.0000 0.0000 0.0000 0.0000 -203.3852
#
#
#
# Elastic Compliance Matrix: (Units=1/GPa)
#
#
# Indices 1 2 3 4 5 6 
#
# 1 0.010257 -0.004289 -0.001149 0.000000 0.000000 0.000000
# 2 -0.004289 0.014710 -0.005089 0.000000 0.000000 0.000000
# 3 -0.001149 -0.005089 0.011448 0.000000 0.000000 0.000000
# 4 0.000000 0.000000 0.000000 0.038049 0.000000 0.000000
# 5 0.000000 0.000000 0.000000 0.000000 0.020600 0.000000
# 6 0.000000 0.000000 0.000000 0.000000 0.000000 -0.004917
#
#
# Mechanical properties :
#
#
# Convention : Reuss Voigt Hill
#
# Bulk Modulus (GPa) = 65.09772 65.14182 65.11977
# Shear Modulus (GPa) = 42.98429 -12.15350 15.41540
#
# Velocity S-wave (km/s) = 4.57863 -2.43462 2.74194
# Velocity P-wave (km/s) = 7.72661 4.88540 6.46404
#
# Compressibility (1/GPa) = 0.01536152
#
# Stress axis : x y z
#
# Youngs Moduli (GPa) = 97.49403 67.98154 87.35035
#
# Poissons Ratio (x) = 0.29158 0.10037
# Poissons Ratio (y) = 0.41816 0.44449
# Poissons Ratio (z) = 0.11203 0.34593
#
# Static dielectric constant tensor:
#      x y z
#    x 3.941720 0.000000 0.000000 
#    y 0.000000 3.528650 0.000000 
#    z 0.000000 0.000000 3.716540 
# 
# 
# High freq. dielectric constant tensor:
#      x y z
#    x 1.820010 0.000000 0.000000 
#    y 0.000000 1.800290 0.000000 
#    z 0.000000 0.000000 1.808630 
# 
# From -- ./inp_files/9934.got.cif
#   From: 2010.06.25/outbox.cif.g09.slc.cpg/sg52_5_cif.got.tgz:9934.got - 2010.06.26 19:32:48.
