data_PCOD8216811
_publ_section_title
;
Structure prediction by ZEFSAII (Michael W. Deem and Ramdas Pophale) SiO2 
 PCOD8216811
Probable space group: P N N A
;
_chemical_formula_sum "Si O2"
_cell_formula_units_Z 24
_cell_length_a 15.023825
_cell_length_b 4.923023
_cell_length_c 14.620365
_cell_angle_alpha 90.000000
_cell_angle_beta 90.000000
_cell_angle_gamma 90.000000
_cell_volume 1081.360735
_symmetry_space_group_name_H-M "P N N A"
_symmetry_group_IT_number 52
_symmetry_cell_setting 'orthorhombic'
loop_
_space_group_symop_operation_xyz
x,y,z
1/2-x,-y,z
x,1/2-y,1/2-z
1/2-x,1/2+y,1/2-z
-x,-y,-z
1/2+x,y,-z
-x,1/2+y,1/2+z
1/2+x,1/2-y,1/2+z
loop_
_atom_site_type_symbol
_atom_site_label
_atom_site_fract_x
_atom_site_fract_y
_atom_site_fract_z
Si Si1 0.250000 0.000000 0.810418
Si Si2 0.594864 0.254926 0.932053
Si Si3 0.387792 0.243988 0.952435
Si Si4 0.308427 0.750000 0.250000
O O1 0.209926 0.250000 0.750000
O O2 0.327511 0.143014 0.869029
O O3 0.489191 0.257919 0.919898
O O4 0.631851 0.343778 0.834595
O O5 0.635204 0.456308 0.009889
O O6 0.625489 0.956284 0.961692
O O7 0.250000 0.500000 0.283666
#
# Coordination Sequence:
#
# PCOD8216811 Si02
#       4
#     4   8   8   4
#     4  12  26  42  68 106 132 172 226 282 336 394
#     4  10  23  44  66  95 130 177 219 269 335 397
#     4  10  23  44  69  93 131 177 217 271 338 395
#     4  12  26  40  66 102 130 170 226 276 330 394
#
# _framework density 22.19426
#
# number of rings (size 3 to 8) (size 9 to 14) (size 15 to 20)
#    0.000    1.333    0.000    4.000    9.333    0.000 
#    3.000    0.000    0.000    0.000    0.000    0.000 
#    0.000    0.000    0.000    0.000    0.000    0.000 
#
# Total GULP energy -297604.196169 kJ/mol
# GULP energy per Si atom -12400.174840 kJ/mol
# Density = 2.214375 g / cm^3
# Si number density = 22.194260 Si / 1000 Ang^3
#
#
#
# Elastic Constant Matrix: (Units=GPa)
#
#
# Indices 1 2 3 4 5 6 
#
# 1 79.9656 46.7513 66.2249 0.0000 0.0000 0.0000
# 2 46.7513 127.3062 36.7562 0.0000 0.0000 0.0000
# 3 66.2249 36.7562 130.1884 0.0000 0.0000 0.0000
# 4 0.0000 0.0000 0.0000 23.2406 0.0000 0.0000
# 5 0.0000 0.0000 0.0000 0.0000 16.3416 0.0000
# 6 0.0000 0.0000 0.0000 0.0000 0.0000 22.9097
#
#
#
# Elastic Compliance Matrix: (Units=1/GPa)
#
#
# Indices 1 2 3 4 5 6 
#
# 1 0.025286 -0.006067 -0.011150 0.000000 0.000000 0.000000
# 2 -0.006067 0.010008 0.000261 0.000000 0.000000 0.000000
# 3 -0.011150 0.000261 0.013279 0.000000 0.000000 0.000000
# 4 0.000000 0.000000 0.000000 0.043028 0.000000 0.000000
# 5 0.000000 0.000000 0.000000 0.000000 0.061194 0.000000
# 6 0.000000 0.000000 0.000000 0.000000 0.000000 0.043650
#
#
# Mechanical properties :
#
#
# Convention : Reuss Voigt Hill
#
# Bulk Modulus (GPa) = 68.20713 70.76944 69.48828
# Shear Modulus (GPa) = 21.25453 25.01357 23.13405
#
# Velocity S-wave (km/s) = 3.09796 3.36077 3.23204
# Velocity P-wave (km/s) = 6.60266 6.85677 6.73091
#
# Compressibility (1/GPa) = 0.01466122
#
# Stress axis : x y z
#
# Youngs Moduli (GPa) = 39.54719 99.92234 75.30460
#
# Poissons Ratio (x) = 0.60621 0.83964
# Poissons Ratio (y) = 0.23992 -0.01962
# Poissons Ratio (z) = 0.44095 -0.02604
#
# Static dielectric constant tensor:
#      x y z
#    x 3.924940 0.000000 0.000000 
#    y 0.000000 4.298610 0.000000 
#    z 0.000000 0.000000 3.837350 
# 
# 
# High freq. dielectric constant tensor:
#      x y z
#    x 1.871140 0.000000 0.000000 
#    y 0.000000 1.894570 0.000000 
#    z 0.000000 0.000000 1.872850 
# 
# From -- ./inp_files/20070.got.cif
#   From: 2010.06.25/outbox.cif.g09.slc.cpg/sg52_11_cif.got.tgz:20070.got - 2010.06.26 19:32:48.
