data_PCOD8216083
_publ_section_title
;
Structure prediction by ZEFSAII (Michael W. Deem and Ramdas Pophale) SiO2 
 PCOD8216083
Probable space group: P N N A
;
_chemical_formula_sum "Si O2"
_cell_formula_units_Z 64
_cell_length_a 12.353296
_cell_length_b 12.348753
_cell_length_c 21.423206
_cell_angle_alpha 90.000000
_cell_angle_beta 90.000000
_cell_angle_gamma 90.000000
_cell_volume 3268.062967
_symmetry_space_group_name_H-M "P N N A"
_symmetry_group_IT_number 52
_symmetry_cell_setting 'orthorhombic'
loop_
_space_group_symop_operation_xyz
x,y,z
1/2-x,-y,z
x,1/2-y,1/2-z
1/2-x,1/2+y,1/2-z
-x,-y,-z
1/2+x,y,-z
-x,1/2+y,1/2+z
1/2+x,1/2-y,1/2+z
loop_
_atom_site_type_symbol
_atom_site_label
_atom_site_fract_x
_atom_site_fract_y
_atom_site_fract_z
Si Si1 0.273189 0.789033 0.968895
Si Si2 0.654359 0.930492 0.475527
Si Si3 0.646770 0.573792 0.794848
Si Si4 0.136279 0.293430 0.400402
Si Si5 0.985676 0.860402 0.068221
Si Si6 0.927587 0.400661 0.432340
Si Si7 0.936652 0.551345 0.904900
Si Si8 0.159651 0.822774 0.171296
O O1 0.204941 0.685352 0.987831
O O2 0.387498 0.771345 0.931915
O O3 0.197161 0.863853 0.925051
O O4 0.315118 0.839804 0.034351
O O5 0.558022 0.921155 0.425985
O O6 0.750000 0.000000 0.444396
O O7 0.619291 0.978037 0.542262
O O8 0.750000 0.500000 0.808454
O O9 0.556961 0.516955 0.839633
O O10 0.664221 0.699209 0.807868
O O11 0.621700 0.583683 0.720578
O O12 0.131422 0.162311 0.398008
O O13 0.216022 0.345142 0.348875
O O14 0.014990 0.338791 0.388681
O O15 0.074785 0.823794 0.116126
O O16 0.930721 0.974153 0.085159
O O17 0.046325 0.870557 0.003255
#
# Coordination Sequence:
#
# PCOD8216083 Si02
#       8
#     8   8   8   8   8   8   8   8
#     4  11  20  35  57  89 126 159 197 240 312 377
#     4  11  22  33  60  97 125 161 189 247 329 377
#     4  11  24  40  61  85 118 159 201 254 299 356
#     4  11  20  35  60  86 128 159 198 254 303 374
#     4  10  23  36  57  83 124 162 200 255 293 362
#     4  10  21  36  54  89 120 161 200 244 306 357
#     4  11  22  37  60  90 131 157 199 258 313 372
#     4  11  24  40  59  89 116 162 209 246 307 357
#
# _framework density 19.583466000000001
#
# number of rings (size 3 to 8) (size 9 to 14) (size 15 to 20)
#    0.000    1.250    5.000    1.500    3.500    0.000 
#    0.000    0.000    0.000    1.500    0.000    0.000 
#    0.000    0.000    0.000    0.000    0.000    0.000 
#
# Total GULP energy -792878.870328 kJ/mol
# GULP energy per Si atom -12388.732349 kJ/mol
# Density = 1.953889 g / cm^3
# Si number density = 19.583466 Si / 1000 Ang^3
#
#
#
# Elastic Constant Matrix: (Units=GPa)
#
#
# Indices 1 2 3 4 5 6 
#
# 1 100.8555 21.4389 31.7499 0.0000 0.0000 0.0000
# 2 21.4389 53.4426 26.8166 0.0000 0.0000 0.0000
# 3 31.7499 26.8166 69.4533 0.0000 0.0000 0.0000
# 4 0.0000 0.0000 0.0000 24.7292 0.0000 0.0000
# 5 0.0000 0.0000 0.0000 0.0000 15.0287 0.0000
# 6 0.0000 0.0000 0.0000 0.0000 0.0000 35.0688
#
#
#
# Elastic Compliance Matrix: (Units=1/GPa)
#
#
# Indices 1 2 3 4 5 6 
#
# 1 0.011850 -0.002525 -0.004442 0.000000 0.000000 0.000000
# 2 -0.002525 0.023746 -0.008014 0.000000 0.000000 0.000000
# 3 -0.004442 -0.008014 0.019523 0.000000 0.000000 0.000000
# 4 0.000000 0.000000 0.000000 0.040438 0.000000 0.000000
# 5 0.000000 0.000000 0.000000 0.000000 0.066539 0.000000
# 6 0.000000 0.000000 0.000000 0.000000 0.000000 0.028515
#
#
# Mechanical properties :
#
#
# Convention : Reuss Voigt Hill
#
# Bulk Modulus (GPa) = 39.75097 42.64023 41.19560
# Shear Modulus (GPa) = 21.83778 24.54842 23.19310
#
# Velocity S-wave (km/s) = 3.34295 3.54436 3.44513
# Velocity P-wave (km/s) = 5.93656 6.21054 6.07510
#
# Compressibility (1/GPa) = 0.02515662
#
# Stress axis : x y z
#
# Youngs Moduli (GPa) = 84.38561 42.11246 51.22057
#
# Poissons Ratio (x) = 0.10632 0.22755
# Poissons Ratio (y) = 0.21305 0.41050
# Poissons Ratio (z) = 0.37488 0.33751
#
# Static dielectric constant tensor:
#      x y z
#    x 3.916700 0.000000 0.000000 
#    y 0.000000 3.873670 0.000000 
#    z 0.000000 0.000000 3.603720 
# 
# 
# High freq. dielectric constant tensor:
#      x y z
#    x 1.769910 0.000000 0.000000 
#    y 0.000000 1.773150 0.000000 
#    z 0.000000 0.000000 1.719670 
# 
# From -- ./inp_files/40331.got.cif
#   From: 2010.06.25/outbox.cif.g09.slc.cpg/sg52_21_cif.got.tgz:40331.got - 2010.06.26 19:32:48.
