data_PCOD8216836
_publ_section_title
;
Structure prediction by ZEFSAII (Michael W. Deem and Ramdas Pophale) SiO2 
 PCOD8216836
Probable space group: P N N A
;
_chemical_formula_sum "Si O2"
_cell_formula_units_Z 40
_cell_length_a 22.029821
_cell_length_b 8.546049
_cell_length_c 9.348678
_cell_angle_alpha 90.000000
_cell_angle_beta 90.000000
_cell_angle_gamma 90.000000
_cell_volume 1760.056253
_symmetry_space_group_name_H-M "P N N A"
_symmetry_group_IT_number 52
_symmetry_cell_setting 'orthorhombic'
loop_
_space_group_symop_operation_xyz
x,y,z
1/2-x,-y,z
x,1/2-y,1/2-z
1/2-x,1/2+y,1/2-z
-x,-y,-z
1/2+x,y,-z
-x,1/2+y,1/2+z
1/2+x,1/2-y,1/2+z
loop_
_atom_site_type_symbol
_atom_site_label
_atom_site_fract_x
_atom_site_fract_y
_atom_site_fract_z
Si Si1 0.665195 0.750000 0.250000
Si Si2 0.951754 0.811931 0.591235
Si Si3 0.750000 0.500000 0.405165
Si Si4 0.750000 0.000000 0.633810
Si Si5 0.662196 0.750000 0.750000
Si Si6 0.325666 0.766748 0.077464
Si Si7 0.418598 0.160833 0.492573
O O1 0.709556 0.618075 0.312853
O O2 0.620793 0.839474 0.362019
O O3 0.960446 0.750000 0.750000
O O4 0.894687 0.722877 0.520262
O O5 0.014009 0.768844 0.512231
O O6 0.930729 0.992725 0.580406
O O7 0.705106 0.416163 0.513423
O O8 0.704280 0.902509 0.735281
O O9 0.788740 0.888748 0.526970
O O10 0.618854 0.727564 0.613478
O O11 0.323040 0.750000 0.250000
#
# Coordination Sequence:
#
# PCOD8216836 Si02
#       7
#     4   8   4   4   4   8   8
#     4  12  30  50  76 108 158 208 232 326 382 474
#     4  10  23  47  75 107 147 199 255 316 369 452
#     4  12  31  49  74 112 163 199 254 304 409 447
#     4  12  23  37  74 110 151 173 260 308 377 413
#     4  12  26  44  76 110 142 204 248 332 358 470
#     4  11  24  44  75 110 140 197 249 320 351 453
#     4  11  25  48  75 106 152 198 255 311 382 451
#
# _framework density 22.726547
#
# number of rings (size 3 to 8) (size 9 to 14) (size 15 to 20)
#    0.000    0.800    4.000    1.800    5.600    0.800 
#    7.200    2.000    0.000    0.000    0.000    0.000 
#    0.000    0.000    0.000    0.000    0.000    0.000 
#
# Total GULP energy -495560.418895 kJ/mol
# GULP energy per Si atom -12389.010472 kJ/mol
# Density = 2.267482 g / cm^3
# Si number density = 22.726547 Si / 1000 Ang^3
#
#
#
# Elastic Constant Matrix: (Units=GPa)
#
#
# Indices 1 2 3 4 5 6 
#
# 1 253.2193 81.2831 79.0183 0.0000 0.0000 0.0000
# 2 81.2831 121.2068 58.1098 0.0000 0.0000 0.0000
# 3 79.0183 58.1098 108.7668 0.0000 0.0000 0.0000
# 4 0.0000 0.0000 0.0000 45.0509 0.0000 0.0000
# 5 0.0000 0.0000 0.0000 0.0000 33.5171 0.0000
# 6 0.0000 0.0000 0.0000 0.0000 0.0000 31.3193
#
#
#
# Elastic Compliance Matrix: (Units=1/GPa)
#
#
# Indices 1 2 3 4 5 6 
#
# 1 0.005590 -0.002422 -0.002767 0.000000 0.000000 0.000000
# 2 -0.002422 0.012141 -0.004727 0.000000 0.000000 0.000000
# 3 -0.002767 -0.004727 0.013730 0.000000 0.000000 0.000000
# 4 0.000000 0.000000 0.000000 0.022197 0.000000 0.000000
# 5 0.000000 0.000000 0.000000 0.000000 0.029836 0.000000
# 6 0.000000 0.000000 0.000000 0.000000 0.000000 0.031929
#
#
# Mechanical properties :
#
#
# Convention : Reuss Voigt Hill
#
# Bulk Modulus (GPa) = 85.99513 102.22391 94.10952
# Shear Modulus (GPa) = 35.93750 39.62958 37.78354
#
# Velocity S-wave (km/s) = 3.98087 4.18036 4.08184
# Velocity P-wave (km/s) = 7.68446 8.26911 7.98214
#
# Compressibility (1/GPa) = 0.01162857
#
# Stress axis : x y z
#
# Youngs Moduli (GPa) = 178.88556 82.36687 72.83575
#
# Poissons Ratio (x) = 0.19951 0.20155
# Poissons Ratio (y) = 0.43330 0.34427
# Poissons Ratio (z) = 0.49500 0.38932
#
# Static dielectric constant tensor:
#      x y z
#    x 5.010380 0.000000 0.000000 
#    y 0.000000 4.028060 0.000000 
#    z 0.000000 0.000000 4.257390 
# 
# 
# High freq. dielectric constant tensor:
#      x y z
#    x 1.935790 0.000000 0.000000 
#    y 0.000000 1.895710 0.000000 
#    z 0.000000 0.000000 1.874370 
# 
# From -- ./inp_files/14100.got.cif
#   From: 2010.06.25/outbox.cif.g09.slc.cpg/sg52_8_cif.got.tgz:14100.got - 2010.06.26 19:32:48.
