data_PCOD8216147
_publ_section_title
;
Structure prediction by ZEFSAII (Michael W. Deem and Ramdas Pophale) SiO2 
 PCOD8216147
Probable space group: P N N A
;
_chemical_formula_sum "Si O2"
_cell_formula_units_Z 60
_cell_length_a 18.891418
_cell_length_b 25.249262
_cell_length_c 6.059179
_cell_angle_alpha 90.000000
_cell_angle_beta 90.000000
_cell_angle_gamma 90.000000
_cell_volume 2890.194225
_symmetry_space_group_name_H-M "P N N A"
_symmetry_group_IT_number 52
_symmetry_cell_setting 'orthorhombic'
loop_
_space_group_symop_operation_xyz
x,y,z
1/2-x,-y,z
x,1/2-y,1/2-z
1/2-x,1/2+y,1/2-z
-x,-y,-z
1/2+x,y,-z
-x,1/2+y,1/2+z
1/2+x,1/2-y,1/2+z
loop_
_atom_site_type_symbol
_atom_site_label
_atom_site_fract_x
_atom_site_fract_y
_atom_site_fract_z
Si Si1 0.069595 0.939397 0.039226
Si Si2 0.100528 0.165278 0.055909
Si Si3 0.486115 0.369713 0.840778
Si Si4 0.152390 0.250000 0.750000
Si Si5 0.168789 0.513795 0.783313
Si Si6 0.433698 0.574171 0.777450
Si Si7 0.145213 0.617404 0.080891
Si Si8 0.225901 0.195465 0.364440
O O1 0.112401 0.896223 0.181649
O O2 0.001859 0.959943 0.183504
O O3 0.129293 0.980747 0.956543
O O4 0.036839 0.917429 0.815233
O O5 0.028437 0.173187 0.196585
O O6 0.167675 0.165467 0.217877
O O7 0.101113 0.217110 0.906550
O O8 0.099413 0.111142 0.915018
O O9 0.540655 0.389365 0.024849
O O10 0.414072 0.347918 0.950793
O O11 0.199763 0.208888 0.610741
O O12 0.250000 0.500000 0.738648
O O13 0.126325 0.463699 0.884045
O O14 0.164644 0.564014 0.945972
O O15 0.211475 0.654303 0.113843
O O16 0.251045 0.250000 0.250000
#
# Coordination Sequence:
#
# PCOD8216147 Si02
#       8
#     8   8   8   4   8   8   8   8
#     4   9  21  41  62  85 127 170 210 248 307 377
#     4  10  21  37  67  91 120 162 209 259 317 384
#     4   9  20  39  66  88 124 165 206 257 315 367
#     4  10  22  40  66  90 120 158 212 266 318 376
#     4  11  25  35  57  98 128 169 208 259 313 367
#     4  10  21  39  63  89 127 165 208 254 311 380
#     4  10  23  41  63  89 134 163 210 261 311 383
#     4  10  23  41  69  91 121 169 210 258 328 376
#
# _framework density 20.759851000000001
#
# number of rings (size 3 to 8) (size 9 to 14) (size 15 to 20)
#    0.000    2.133    0.000    1.200    5.600   10.667 
#    0.000    0.000   57.200    0.000    0.000    0.000 
#    0.000    0.000    0.000    0.000    0.000    0.000 
#
# Total GULP energy -743480.581701 kJ/mol
# GULP energy per Si atom -12391.343028 kJ/mol
# Density = 2.071260 g / cm^3
# Si number density = 20.759851 Si / 1000 Ang^3
#
#
#
# Elastic Constant Matrix: (Units=GPa)
#
#
# Indices 1 2 3 4 5 6 
#
# 1 168.4868 67.0313 60.4201 0.0000 0.0000 0.0000
# 2 67.0313 66.9557 28.1232 0.0000 0.0000 0.0000
# 3 60.4201 28.1232 100.0244 0.0000 0.0000 0.0000
# 4 0.0000 0.0000 0.0000 19.0634 0.0000 0.0000
# 5 0.0000 0.0000 0.0000 0.0000 24.7606 0.0000
# 6 0.0000 0.0000 0.0000 0.0000 0.0000 21.9198
#
#
#
# Elastic Compliance Matrix: (Units=1/GPa)
#
#
# Indices 1 2 3 4 5 6 
#
# 1 0.011163 -0.009461 -0.004083 0.000000 0.000000 0.000000
# 2 -0.009461 0.024953 -0.001301 0.000000 0.000000 0.000000
# 3 -0.004083 -0.001301 0.012830 0.000000 0.000000 0.000000
# 4 0.000000 0.000000 0.000000 0.052456 0.000000 0.000000
# 5 0.000000 0.000000 0.000000 0.000000 0.040387 0.000000
# 6 0.000000 0.000000 0.000000 0.000000 0.000000 0.045621
#
#
# Mechanical properties :
#
#
# Convention : Reuss Voigt Hill
#
# Bulk Modulus (GPa) = 51.93139 71.84623 61.88881
# Shear Modulus (GPa) = 22.36937 25.14159 23.75548
#
# Velocity S-wave (km/s) = 3.28614 3.48382 3.38642
# Velocity P-wave (km/s) = 6.28235 7.13204 6.72064
#
# Compressibility (1/GPa) = 0.01925618
#
# Stress axis : x y z
#
# Youngs Moduli (GPa) = 89.57818 40.07477 77.94316
#
# Poissons Ratio (x) = 0.37915 0.31826
# Poissons Ratio (y) = 0.84750 0.10141
# Poissons Ratio (z) = 0.36577 0.05214
#
# Static dielectric constant tensor:
#      x y z
#    x 3.985140 0.000000 0.000000 
#    y 0.000000 3.521020 0.000000 
#    z 0.000000 0.000000 4.163330 
# 
# 
# High freq. dielectric constant tensor:
#      x y z
#    x 1.820880 0.000000 0.000000 
#    y 0.000000 1.785150 0.000000 
#    z 0.000000 0.000000 1.829950 
# 
# From -- ./inp_files/3592.got.cif
#   From: 2010.06.25/outbox.cif.g09.slc.cpg/sg52_2_cif.got.tgz:3592.got - 2010.06.26 19:32:48.
