data_PCOD8216145
_publ_section_title
;
Structure prediction by ZEFSAII (Michael W. Deem and Ramdas Pophale) SiO2 
 PCOD8216145
Probable space group: P N N A
;
_chemical_formula_sum "Si O2"
_cell_formula_units_Z 28
_cell_length_a 7.909709
_cell_length_b 7.716933
_cell_length_c 21.140830
_cell_angle_alpha 90.000000
_cell_angle_beta 90.000000
_cell_angle_gamma 90.000000
_cell_volume 1290.408662
_symmetry_space_group_name_H-M "P N N A"
_symmetry_group_IT_number 52
_symmetry_cell_setting 'orthorhombic'
loop_
_space_group_symop_operation_xyz
x,y,z
1/2-x,-y,z
x,1/2-y,1/2-z
1/2-x,1/2+y,1/2-z
-x,-y,-z
1/2+x,y,-z
-x,1/2+y,1/2+z
1/2+x,1/2-y,1/2+z
loop_
_atom_site_type_symbol
_atom_site_label
_atom_site_fract_x
_atom_site_fract_y
_atom_site_fract_z
Si Si1 0.250000 0.500000 0.360676
Si Si2 0.804715 0.812670 0.414766
Si Si3 0.317075 0.191720 0.452151
Si Si4 0.904388 0.604482 0.298454
O O1 0.232645 0.329040 0.404102
O O2 0.422406 0.495490 0.318336
O O3 0.695714 0.747903 0.474726
O O4 0.800043 0.677079 0.358322
O O5 0.988872 0.825985 0.441541
O O6 0.750000 0.000000 0.389014
O O7 0.250000 0.000000 0.439461
O O8 0.750000 0.500000 0.264664
O O9 0.968643 0.750000 0.250000
#
# Coordination Sequence:
#
# PCOD8216145 Si02
#       4
#     4   8   8   8
#     4  10  26  44  68 100 130 170 226 270 334 394
#     4  10  21  37  64  97 133 169 214 265 331 394
#     4  10  21  37  64 100 131 172 205 268 340 381
#     4  11  26  45  66  96 127 179 225 272 332 389
#
# _framework density 21.698553
#
# number of rings (size 3 to 8) (size 9 to 14) (size 15 to 20)
#    0.000    1.714    0.000    4.286   10.000    3.429 
#   10.286    0.000    0.000    0.000    0.000    0.000 
#    0.000    0.000    0.000    0.000    0.000    0.000 
#
# Total GULP energy -346974.414571 kJ/mol
# GULP energy per Si atom -12391.943378 kJ/mol
# Density = 2.164917 g / cm^3
# Si number density = 21.698553 Si / 1000 Ang^3
#
#
#
# Elastic Constant Matrix: (Units=GPa)
#
#
# Indices 1 2 3 4 5 6 
#
# 1 90.8559 39.3601 30.2489 0.0000 0.0000 0.0000
# 2 39.3601 89.3849 36.1376 0.0000 0.0000 0.0000
# 3 30.2489 36.1376 76.7257 0.0000 0.0000 0.0000
# 4 0.0000 0.0000 0.0000 27.5950 0.0000 0.0000
# 5 0.0000 0.0000 0.0000 0.0000 31.2851 0.0000
# 6 0.0000 0.0000 0.0000 0.0000 0.0000 41.9426
#
#
#
# Elastic Compliance Matrix: (Units=1/GPa)
#
#
# Indices 1 2 3 4 5 6 
#
# 1 0.014242 -0.004942 -0.003287 0.000000 0.000000 0.000000
# 2 -0.004942 0.015534 -0.005368 0.000000 0.000000 0.000000
# 3 -0.003287 -0.005368 0.016858 0.000000 0.000000 0.000000
# 4 0.000000 0.000000 0.000000 0.036238 0.000000 0.000000
# 5 0.000000 0.000000 0.000000 0.000000 0.031964 0.000000
# 6 0.000000 0.000000 0.000000 0.000000 0.000000 0.023842
#
#
# Mechanical properties :
#
#
# Convention : Reuss Voigt Hill
#
# Bulk Modulus (GPa) = 51.44323 52.05107 51.74715
# Shear Modulus (GPa) = 29.01025 30.24587 29.62806
#
# Velocity S-wave (km/s) = 3.66042 3.73756 3.69919
# Velocity P-wave (km/s) = 6.45171 6.53194 6.49195
#
# Compressibility (1/GPa) = 0.01943890
#
# Stress axis : x y z
#
# Youngs Moduli (GPa) = 70.21527 64.37403 59.32031
#
# Poissons Ratio (x) = 0.31817 0.19498
# Poissons Ratio (y) = 0.34704 0.31843
# Poissons Ratio (z) = 0.23079 0.34556
#
# Static dielectric constant tensor:
#      x y z
#    x 4.050320 0.000000 0.000000 
#    y 0.000000 3.940150 0.000000 
#    z 0.000000 0.000000 7.102540 
# 
# 
# High freq. dielectric constant tensor:
#      x y z
#    x 1.868670 0.000000 0.000000 
#    y 0.000000 1.852540 0.000000 
#    z 0.000000 0.000000 1.851130 
# 
# From -- ./inp_files/35390.got.cif
#   From: 2010.06.25/outbox.cif.g09.slc.cpg/sg52_18_cif.got.tgz:35390.got - 2010.06.26 19:32:48.
