data_PCOD8216033
_publ_section_title
;
Structure prediction by ZEFSAII (Michael W. Deem and Ramdas Pophale) SiO2 
 PCOD8216033
Probable space group: P N N A
;
_chemical_formula_sum "Si O2"
_cell_formula_units_Z 48
_cell_length_a 8.587185
_cell_length_b 14.918738
_cell_length_c 16.778900
_cell_angle_alpha 90.000000
_cell_angle_beta 90.000000
_cell_angle_gamma 90.000000
_cell_volume 2149.544261
_symmetry_space_group_name_H-M "P N N A"
_symmetry_group_IT_number 52
_symmetry_cell_setting 'orthorhombic'
loop_
_space_group_symop_operation_xyz
x,y,z
1/2-x,-y,z
x,1/2-y,1/2-z
1/2-x,1/2+y,1/2-z
-x,-y,-z
1/2+x,y,-z
-x,1/2+y,1/2+z
1/2+x,1/2-y,1/2+z
loop_
_atom_site_type_symbol
_atom_site_label
_atom_site_fract_x
_atom_site_fract_y
_atom_site_fract_z
Si Si1 0.346446 0.379233 0.532021
Si Si2 0.432125 0.478171 0.913189
Si Si3 0.981161 0.395701 0.773400
Si Si4 0.532458 0.769400 0.375462
Si Si5 0.274601 0.750000 0.250000
Si Si6 0.526967 0.446122 0.401196
Si Si7 0.275778 0.750000 0.750000
O O1 0.433364 0.282849 0.542317
O O2 0.367423 0.403664 0.437978
O O3 0.455324 0.450728 0.577065
O O4 0.170108 0.386281 0.563320
O O5 0.250000 0.500000 0.910688
O O6 0.526684 0.537098 0.848358
O O7 0.457883 0.374925 0.890633
O O8 0.500000 0.500000 0.000000
O O9 0.823689 0.340207 0.761929
O O10 0.017674 0.449301 0.693423
O O11 0.123762 0.329327 0.786847
O O12 0.372669 0.743215 0.331631
O O13 0.666834 0.722612 0.322670
#
# Coordination Sequence:
#
# PCOD8216033 Si02
#       7
#     8   8   8   8   4   8   4
#     4  10  23  41  68 104 143 177 235 295 366 444
#     4  12  30  50  77 107 151 204 255 315 378 451
#     4  11  24  47  71 100 146 188 243 301 368 446
#     4  11  24  45  71 105 144 189 252 298 378 448
#     4  10  28  42  70 108 142 184 252 310 364 430
#     4  10  23  42  70 103 140 184 230 298 377 430
#     4  10  20  42  72 104 124 190 248 296 358 440
#
# _framework density 22.330316
#
# number of rings (size 3 to 8) (size 9 to 14) (size 15 to 20)
#    0.000    1.333    3.333    0.000   11.667    4.000 
#    0.000    0.000    0.000    0.000    0.000    0.000 
#    0.000    0.000    0.000    0.000    0.000    0.000 
#
# Total GULP energy -594814.875659 kJ/mol
# GULP energy per Si atom -12391.976576 kJ/mol
# Density = 2.227949 g / cm^3
# Si number density = 22.330316 Si / 1000 Ang^3
#
#
#
# Elastic Constant Matrix: (Units=GPa)
#
#
# Indices 1 2 3 4 5 6 
#
# 1 96.9812 46.3499 38.1098 0.0000 0.0000 0.0000
# 2 46.3499 144.5443 41.1394 0.0000 0.0000 0.0000
# 3 38.1098 41.1394 133.1650 0.0000 0.0000 0.0000
# 4 0.0000 0.0000 0.0000 32.9999 0.0000 0.0000
# 5 0.0000 0.0000 0.0000 0.0000 25.4344 0.0000
# 6 0.0000 0.0000 0.0000 0.0000 0.0000 97.6451
#
#
#
# Elastic Compliance Matrix: (Units=1/GPa)
#
#
# Indices 1 2 3 4 5 6 
#
# 1 0.012986 -0.003406 -0.002664 0.000000 0.000000 0.000000
# 2 -0.003406 0.008478 -0.001645 0.000000 0.000000 0.000000
# 3 -0.002664 -0.001645 0.008780 0.000000 0.000000 0.000000
# 4 0.000000 0.000000 0.000000 0.030303 0.000000 0.000000
# 5 0.000000 0.000000 0.000000 0.000000 0.039317 0.000000
# 6 0.000000 0.000000 0.000000 0.000000 0.000000 0.010241
#
#
# Mechanical properties :
#
#
# Convention : Reuss Voigt Hill
#
# Bulk Modulus (GPa) = 67.49839 69.54319 68.52079
# Shear Modulus (GPa) = 38.32201 47.82195 43.07198
#
# Velocity S-wave (km/s) = 4.14713 4.63273 4.39664
# Velocity P-wave (km/s) = 7.29551 7.73478 7.51835
#
# Compressibility (1/GPa) = 0.01481517
#
# Stress axis : x y z
#
# Youngs Moduli (GPa) = 77.00642 117.94546 113.89507
#
# Poissons Ratio (x) = 0.40170 0.30344
# Poissons Ratio (y) = 0.26227 0.18731
# Poissons Ratio (z) = 0.20516 0.19397
#
# Static dielectric constant tensor:
#      x y z
#    x 4.177360 0.000000 0.000000 
#    y 0.000000 3.894150 0.000000 
#    z 0.000000 0.000000 4.195910 
# 
# 
# High freq. dielectric constant tensor:
#      x y z
#    x 1.885740 0.000000 0.000000 
#    y 0.000000 1.881390 0.000000 
#    z 0.000000 0.000000 1.880250 
# 
# From -- ./inp_files/31295.got.cif
#   From: 2010.06.25/outbox.cif.g09.slc.cpg/sg52_16_cif.got.tgz:31295.got - 2010.06.26 19:32:48.
