data_PCOD8216777
_publ_section_title
;
Structure prediction by ZEFSAII (Michael W. Deem and Ramdas Pophale) SiO2 
 PCOD8216777
Probable space group: P N N A
;
_chemical_formula_sum "Si O2"
_cell_formula_units_Z 56
_cell_length_a 9.908222
_cell_length_b 17.695527
_cell_length_c 13.952294
_cell_angle_alpha 90.000000
_cell_angle_beta 90.000000
_cell_angle_gamma 90.000000
_cell_volume 2446.272588
_symmetry_space_group_name_H-M "P N N A"
_symmetry_group_IT_number 52
_symmetry_cell_setting 'orthorhombic'
loop_
_space_group_symop_operation_xyz
x,y,z
1/2-x,-y,z
x,1/2-y,1/2-z
1/2-x,1/2+y,1/2-z
-x,-y,-z
1/2+x,y,-z
-x,1/2+y,1/2+z
1/2+x,1/2-y,1/2+z
loop_
_atom_site_type_symbol
_atom_site_label
_atom_site_fract_x
_atom_site_fract_y
_atom_site_fract_z
Si Si1 0.023263 0.899420 0.581424
Si Si2 0.982826 0.589113 0.294823
Si Si3 0.421310 0.319837 0.478019
Si Si4 0.333225 0.781958 0.494301
Si Si5 0.394563 0.468482 0.574218
Si Si6 0.247262 0.674319 0.802241
Si Si7 0.883962 0.048291 0.609128
O O1 0.109956 0.867949 0.669218
O O2 0.110092 0.893347 0.481149
O O3 0.880641 0.853556 0.571744
O O4 0.005362 0.988102 0.599369
O O5 0.947160 0.502152 0.324111
O O6 0.838487 0.625165 0.268866
O O7 0.054098 0.636236 0.379080
O O8 0.089471 0.592636 0.207851
O O9 0.308201 0.255308 0.462798
O O10 0.555085 0.281942 0.517660
O O11 0.383742 0.377582 0.565028
O O12 0.334826 0.808782 0.603822
O O13 0.250000 0.500000 0.545843
O O14 0.500000 0.500000 0.500000
O O15 0.201441 0.750000 0.750000
O O16 0.750000 0.000000 0.613631
#
# Coordination Sequence:
#
# PCOD8216777 Si02
#       7
#     8   8   8   8   8   8   8
#     4  11  26  46  72 103 136 188 240 299 355 423
#     4  11  25  44  72 103 144 184 239 299 355 422
#     4  11  24  43  72 107 140 196 226 291 367 435
#     4  12  23  45  74  97 148 184 236 285 362 434
#     4  10  23  42  68 102 143 183 230 285 351 424
#     4  12  25  44  72 106 137 184 242 294 356 431
#     4  11  26  45  70 101 140 188 241 300 357 413
#
# _framework density 22.891971000000002
#
# number of rings (size 3 to 8) (size 9 to 14) (size 15 to 20)
#    0.000    0.857    4.286    2.571    4.000    3.429 
#    2.571    0.000    0.000    0.000    0.000    0.000 
#    0.000    0.000    0.000    0.000    0.000    0.000 
#
# Total GULP energy -694362.158590 kJ/mol
# GULP energy per Si atom -12399.324261 kJ/mol
# Density = 2.283987 g / cm^3
# Si number density = 22.891971 Si / 1000 Ang^3
#
#
#
# Elastic Constant Matrix: (Units=GPa)
#
#
# Indices 1 2 3 4 5 6 
#
# 1 75.9186 -0.9722 12.9390 0.0000 0.0000 0.0000
# 2 -0.9722 89.8226 28.7517 0.0000 0.0000 0.0000
# 3 12.9390 28.7517 87.1200 0.0000 0.0000 0.0000
# 4 0.0000 0.0000 0.0000 42.8570 0.0000 0.0000
# 5 0.0000 0.0000 0.0000 0.0000 28.3313 0.0000
# 6 0.0000 0.0000 0.0000 0.0000 0.0000 36.2875
#
#
#
# Elastic Compliance Matrix: (Units=1/GPa)
#
#
# Indices 1 2 3 4 5 6 
#
# 1 0.013577 0.000886 -0.002309 0.000000 0.000000 0.000000
# 2 0.000886 0.012506 -0.004259 0.000000 0.000000 0.000000
# 3 -0.002309 -0.004259 0.013227 0.000000 0.000000 0.000000
# 4 0.000000 0.000000 0.000000 0.023333 0.000000 0.000000
# 5 0.000000 0.000000 0.000000 0.000000 0.035297 0.000000
# 6 0.000000 0.000000 0.000000 0.000000 0.000000 0.027558
#
#
# Mechanical properties :
#
#
# Convention : Reuss Voigt Hill
#
# Bulk Modulus (GPa) = 35.78298 37.14424 36.46361
# Shear Modulus (GPa) = 34.20533 35.63800 34.92166
#
# Velocity S-wave (km/s) = 3.86969 3.94990 3.91000
# Velocity P-wave (km/s) = 5.96919 6.08797 6.02887
#
# Compressibility (1/GPa) = 0.02794624
#
# Stress axis : x y z
#
# Youngs Moduli (GPa) = 73.65480 79.96247 75.60389
#
# Poissons Ratio (x) = -0.07085 0.17456
# Poissons Ratio (y) = -0.06526 0.32198
# Poissons Ratio (z) = 0.17006 0.34055
#
# Static dielectric constant tensor:
#      x y z
#    x 4.002970 0.000000 0.000000 
#    y 0.000000 4.617190 0.000000 
#    z 0.000000 0.000000 4.209450 
# 
# 
# High freq. dielectric constant tensor:
#      x y z
#    x 1.908750 0.000000 0.000000 
#    y 0.000000 1.921310 0.000000 
#    z 0.000000 0.000000 1.893840 
# 
# From -- ./inp_files/24953.got.cif
#   From: 2010.06.25/outbox.cif.g09.slc.cpg/sg52_13_cif.got.tgz:24953.got - 2010.06.26 19:32:48.
