data_PCOD8216445
_publ_section_title
;
Structure prediction by ZEFSAII (Michael W. Deem and Ramdas Pophale) SiO2 
 PCOD8216445
Probable space group: P N N A
;
_chemical_formula_sum "Si O2"
_cell_formula_units_Z 56
_cell_length_a 28.837456
_cell_length_b 16.367222
_cell_length_c 5.386536
_cell_angle_alpha 90.000000
_cell_angle_beta 90.000000
_cell_angle_gamma 90.000000
_cell_volume 2542.385979
_symmetry_space_group_name_H-M "P N N A"
_symmetry_group_IT_number 52
_symmetry_cell_setting 'orthorhombic'
loop_
_space_group_symop_operation_xyz
x,y,z
1/2-x,-y,z
x,1/2-y,1/2-z
1/2-x,1/2+y,1/2-z
-x,-y,-z
1/2+x,y,-z
-x,1/2+y,1/2+z
1/2+x,1/2-y,1/2+z
loop_
_atom_site_type_symbol
_atom_site_label
_atom_site_fract_x
_atom_site_fract_y
_atom_site_fract_z
Si Si1 0.537751 0.039523 0.833591
Si Si2 0.115803 0.974864 0.437984
Si Si3 0.908855 0.872791 0.224967
Si Si4 0.805416 0.840009 0.211681
Si Si5 0.905624 0.203771 0.508911
Si Si6 0.207400 0.439797 0.209829
Si Si7 0.510699 0.183118 0.543357
O O1 0.509302 0.088360 0.626585
O O2 0.571781 0.968167 0.745163
O O3 0.570031 0.108782 0.957170
O O4 0.500000 0.000000 0.000000
O O5 0.121383 0.882257 0.534092
O O6 0.101138 0.039500 0.647208
O O7 0.160917 0.005563 0.288705
O O8 0.860573 0.826251 0.204733
O O9 0.946221 0.812921 0.353960
O O10 0.783077 0.750000 0.250000
O O11 0.788927 0.892905 0.447496
O O12 0.790613 0.879842 0.948554
O O13 0.897406 0.250000 0.250000
O O14 0.960246 0.196708 0.573361
O O15 0.883745 0.250000 0.750000
O O16 0.250000 0.500000 0.234636
O O17 0.521053 0.250000 0.750000
#
# Coordination Sequence:
#
# PCOD8216445 Si02
#       7
#     8   8   8   8   8   8   8
#     4  11  21  35  61  88 124 170 222 260 321 380
#     4  10  23  42  62  91 125 166 223 269 327 398
#     4  10  22  36  61  91 126 173 214 266 330 399
#     4  11  24  42  71 105 142 167 214 280 351 398
#     4  11  26  41  60  87 126 177 224 277 323 371
#     4  11  24  47  73 102 130 180 219 274 339 419
#     4  10  24  35  53  88 129 177 221 269 322 383
#
# _framework density 22.026551999999999
#
# number of rings (size 3 to 8) (size 9 to 14) (size 15 to 20)
#    0.000    1.429    1.429    2.571   12.000    2.286 
#    0.000    2.143    0.000    0.000    0.000    0.000 
#    0.000    0.000    0.000    0.000    0.000    0.000 
#
# Total GULP energy -694007.421892 kJ/mol
# GULP energy per Si atom -12392.989677 kJ/mol
# Density = 2.197642 g / cm^3
# Si number density = 22.026552 Si / 1000 Ang^3
#
#
#
# Elastic Constant Matrix: (Units=GPa)
#
#
# Indices 1 2 3 4 5 6 
#
# 1 54.6380 35.0120 21.5671 0.0000 0.0000 0.0000
# 2 35.0120 136.2287 41.1904 0.0000 0.0000 0.0000
# 3 21.5671 41.1904 112.4488 0.0000 0.0000 0.0000
# 4 0.0000 0.0000 0.0000 35.9815 0.0000 0.0000
# 5 0.0000 0.0000 0.0000 0.0000 23.0330 0.0000
# 6 0.0000 0.0000 0.0000 0.0000 0.0000 21.9341
#
#
#
# Elastic Compliance Matrix: (Units=1/GPa)
#
#
# Indices 1 2 3 4 5 6 
#
# 1 0.022505 -0.005037 -0.002471 0.000000 0.000000 0.000000
# 2 -0.005037 0.009382 -0.002471 0.000000 0.000000 0.000000
# 3 -0.002471 -0.002471 0.010272 0.000000 0.000000 0.000000
# 4 0.000000 0.000000 0.000000 0.027792 0.000000 0.000000
# 5 0.000000 0.000000 0.000000 0.000000 0.043416 0.000000
# 6 0.000000 0.000000 0.000000 0.000000 0.000000 0.045591
#
#
# Mechanical properties :
#
#
# Convention : Reuss Voigt Hill
#
# Bulk Modulus (GPa) = 45.04164 55.42826 50.23495
# Shear Modulus (GPa) = 26.83600 29.89280 28.36440
#
# Velocity S-wave (km/s) = 3.49427 3.68792 3.59240
# Velocity P-wave (km/s) = 6.06408 6.58432 6.32955
#
# Compressibility (1/GPa) = 0.02220168
#
# Stress axis : x y z
#
# Youngs Moduli (GPa) = 44.43377 106.58546 97.35237
#
# Poissons Ratio (x) = 0.53685 0.24060
# Poissons Ratio (y) = 0.22380 0.24053
# Poissons Ratio (z) = 0.10981 0.26334
#
# Static dielectric constant tensor:
#      x y z
#    x 3.714970 0.000000 0.000000 
#    y 0.000000 4.209240 0.000000 
#    z 0.000000 0.000000 4.002150 
# 
# 
# High freq. dielectric constant tensor:
#      x y z
#    x 1.840070 0.000000 0.000000 
#    y 0.000000 1.882460 0.000000 
#    z 0.000000 0.000000 1.871330 
# 
# From -- ./inp_files/6402.got.cif
#   From: 2010.06.25/outbox.cif.g09.slc.cpg/sg52_4_cif.got.tgz:6402.got - 2010.06.26 19:32:48.
