data_PCOD8216156
_publ_section_title
;
Structure prediction by ZEFSAII (Michael W. Deem and Ramdas Pophale) SiO2 
 PCOD8216156
Probable space group: P N N A
;
_chemical_formula_sum "Si O2"
_cell_formula_units_Z 48
_cell_length_a 5.219731
_cell_length_b 19.354707
_cell_length_c 23.356910
_cell_angle_alpha 90.000000
_cell_angle_beta 90.000000
_cell_angle_gamma 90.000000
_cell_volume 2359.663694
_symmetry_space_group_name_H-M "P N N A"
_symmetry_group_IT_number 52
_symmetry_cell_setting 'orthorhombic'
loop_
_space_group_symop_operation_xyz
x,y,z
1/2-x,-y,z
x,1/2-y,1/2-z
1/2-x,1/2+y,1/2-z
-x,-y,-z
1/2+x,y,-z
-x,1/2+y,1/2+z
1/2+x,1/2-y,1/2+z
loop_
_atom_site_type_symbol
_atom_site_label
_atom_site_fract_x
_atom_site_fract_y
_atom_site_fract_z
Si Si1 0.814257 0.180698 0.717114
Si Si2 0.250000 0.000000 0.876192
Si Si3 0.682158 0.649606 0.146781
Si Si4 0.560009 0.945490 0.782670
Si Si5 0.451676 0.103717 0.963038
Si Si6 0.915455 0.260142 0.036901
Si Si7 0.250000 0.000000 0.679917
O O1 0.864716 0.250000 0.750000
O O2 0.535952 0.177941 0.688845
O O3 0.815054 0.127501 0.769966
O O4 0.038588 0.169689 0.670694
O O5 0.442837 0.044710 0.914804
O O6 0.145680 0.060147 0.833528
O O7 0.635862 0.683857 0.085743
O O8 0.662360 0.565640 0.141239
O O9 0.750000 0.000000 0.810863
O O10 0.476088 0.975573 0.721244
O O11 0.413882 0.181654 0.938327
O O12 0.728117 0.092400 0.990817
O O13 0.694248 0.272576 0.990189
#
# Coordination Sequence:
#
# PCOD8216156 Si02
#       7
#     8   4   8   8   8   8   4
#     4  11  24  39  61  93 125 159 208 251 298 372
#     4  11  24  34  62  86 116 166 202 249 296 362
#     4  11  22  40  67  86 123 166 198 248 317 366
#     4  10  21  38  57  86 127 155 198 248 294 362
#     4  10  23  41  59  83 119 158 204 254 303 356
#     4  10  22  42  62  89 120 155 204 258 306 357
#     4   9  20  40  58  88 120 166 190 237 314 368
#
# _framework density 20.341881000000001
#
# number of rings (size 3 to 8) (size 9 to 14) (size 15 to 20)
#    0.000    1.667    1.667    2.000    4.667    1.333 
#    0.000    0.833    0.000    0.000    0.000    0.000 
#    0.000    0.000    0.000    0.000    0.000    0.000 
#
# Total GULP energy -594837.779399 kJ/mol
# GULP energy per Si atom -12392.453737 kJ/mol
# Density = 2.029558 g / cm^3
# Si number density = 20.341881 Si / 1000 Ang^3
#
#
#
# Elastic Constant Matrix: (Units=GPa)
#
#
# Indices 1 2 3 4 5 6 
#
# 1 50.2995 -2.1702 -9.7138 0.0000 0.0000 0.0000
# 2 -2.1702 123.2963 49.3017 0.0000 0.0000 0.0000
# 3 -9.7138 49.3017 74.2563 0.0000 0.0000 0.0000
# 4 0.0000 0.0000 0.0000 26.3005 0.0000 0.0000
# 5 0.0000 0.0000 0.0000 0.0000 19.5037 0.0000
# 6 0.0000 0.0000 0.0000 0.0000 0.0000 26.0132
#
#
#
# Elastic Compliance Matrix: (Units=1/GPa)
#
#
# Indices 1 2 3 4 5 6 
#
# 1 0.020481 -0.000968 0.003322 0.000000 0.000000 0.000000
# 2 -0.000968 0.011088 -0.007488 0.000000 0.000000 0.000000
# 3 0.003322 -0.007488 0.018873 0.000000 0.000000 0.000000
# 4 0.000000 0.000000 0.000000 0.038022 0.000000 0.000000
# 5 0.000000 0.000000 0.000000 0.000000 0.051272 0.000000
# 6 0.000000 0.000000 0.000000 0.000000 0.000000 0.038442
#
#
# Mechanical properties :
#
#
# Convention : Reuss Voigt Hill
#
# Bulk Modulus (GPa) = 24.89236 35.85419 30.37327
# Shear Modulus (GPa) = 24.77242 28.39245 26.58244
#
# Velocity S-wave (km/s) = 3.49349 3.74004 3.61887
# Velocity P-wave (km/s) = 5.34193 6.02616 5.69433
#
# Compressibility (1/GPa) = 0.04017298
#
# Stress axis : x y z
#
# Youngs Moduli (GPa) = 48.82661 90.18952 52.98551
#
# Poissons Ratio (x) = 0.08728 -0.17600
# Poissons Ratio (y) = 0.04725 0.39677
# Poissons Ratio (z) = -0.16219 0.67536
#
# Static dielectric constant tensor:
#      x y z
#    x 3.856510 0.000000 0.000000 
#    y 0.000000 3.995010 0.000000 
#    z 0.000000 0.000000 3.449450 
# 
# 
# High freq. dielectric constant tensor:
#      x y z
#    x 1.807310 0.000000 0.000000 
#    y 0.000000 1.803410 0.000000 
#    z 0.000000 0.000000 1.775580 
# 
# From -- ./inp_files/35159.got.cif
#   From: 2010.06.25/outbox.cif.g09.slc.cpg/sg52_18_cif.got.tgz:35159.got - 2010.06.26 19:32:48.
