data_PCOD8216251
_publ_section_title
;
Structure prediction by ZEFSAII (Michael W. Deem and Ramdas Pophale) SiO2 
 PCOD8216251
Probable space group: P N N A
;
_chemical_formula_sum "Si O2"
_cell_formula_units_Z 32
_cell_length_a 12.257846
_cell_length_b 11.982494
_cell_length_c 7.930300
_cell_angle_alpha 90.000000
_cell_angle_beta 90.000000
_cell_angle_gamma 90.000000
_cell_volume 1164.799023
_symmetry_space_group_name_H-M "P N N A"
_symmetry_group_IT_number 52
_symmetry_cell_setting 'orthorhombic'
loop_
_space_group_symop_operation_xyz
x,y,z
1/2-x,-y,z
x,1/2-y,1/2-z
1/2-x,1/2+y,1/2-z
-x,-y,-z
1/2+x,y,-z
-x,1/2+y,1/2+z
1/2+x,1/2-y,1/2+z
loop_
_atom_site_type_symbol
_atom_site_label
_atom_site_fract_x
_atom_site_fract_y
_atom_site_fract_z
Si Si1 0.072162 0.867603 0.304893
Si Si2 0.869948 0.786113 0.483148
Si Si3 0.948739 0.598071 0.689783
Si Si4 0.824674 0.102986 0.352012
O O1 0.130845 0.750000 0.250000
O O2 0.946654 0.841708 0.343587
O O3 0.122415 0.926967 0.468194
O O4 0.073228 0.965447 0.162823
O O5 0.750514 0.788167 0.395374
O O6 0.910746 0.659495 0.518435
O O7 0.874292 0.855297 0.657663
O O8 0.076967 0.628137 0.722084
O O9 0.750000 0.000000 0.291133
#
# Coordination Sequence:
#
# PCOD8216251 Si02
#       4
#     8   8   8   8
#     4  11  23  37  59  97 134 173 228 288 345 420
#     4  10  21  41  65  93 131 173 228 292 343 412
#     4  10  21  39  65  98 131 171 238 289 340 429
#     4  11  19  39  71  92 125 183 235 276 350 419
#
# _framework density 27.472550999999999
#
# number of rings (size 3 to 8) (size 9 to 14) (size 15 to 20)
#    0.000    1.500    5.000    1.500    3.500    1.000 
#    9.000    0.000    0.000    1.500    0.000    0.000 
#    0.000    0.000    0.000    0.000    0.000    0.000 
#
# Total GULP energy -396550.646227 kJ/mol
# GULP energy per Si atom -12392.207695 kJ/mol
# Density = 2.741002 g / cm^3
# Si number density = 27.472551 Si / 1000 Ang^3
#
#
#
# Elastic Constant Matrix: (Units=GPa)
#
#
# Indices 1 2 3 4 5 6 
#
# 1 114.3788 39.0375 32.3938 0.0000 0.0000 0.0000
# 2 39.0375 215.5417 40.5558 0.0000 0.0000 0.0000
# 3 32.3938 40.5558 44.8601 0.0000 0.0000 0.0000
# 4 0.0000 0.0000 0.0000 41.3944 0.0000 0.0000
# 5 0.0000 0.0000 0.0000 0.0000 2.3614 0.0000
# 6 0.0000 0.0000 0.0000 0.0000 0.0000 34.8259
#
#
#
# Elastic Compliance Matrix: (Units=1/GPa)
#
#
# Indices 1 2 3 4 5 6 
#
# 1 0.011055 -0.000603 -0.007438 0.000000 0.000000 0.000000
# 2 -0.000603 0.005623 -0.004649 0.000000 0.000000 0.000000
# 3 -0.007438 -0.004649 0.031865 0.000000 0.000000 0.000000
# 4 0.000000 0.000000 0.000000 0.024158 0.000000 0.000000
# 5 0.000000 0.000000 0.000000 0.000000 0.423470 0.000000
# 6 0.000000 0.000000 0.000000 0.000000 0.000000 0.028714
#
#
# Mechanical properties :
#
#
# Convention : Reuss Voigt Hill
#
# Bulk Modulus (GPa) = 43.16875 66.52829 54.84852
# Shear Modulus (GPa) = 8.96080 33.23591 21.09836
#
# Velocity S-wave (km/s) = 1.80798 3.48197 2.77425
# Velocity P-wave (km/s) = 4.48396 6.35880 5.50183
#
# Compressibility (1/GPa) = 0.02316490
#
# Stress axis : x y z
#
# Youngs Moduli (GPa) = 90.45538 177.83195 31.38221
#
# Poissons Ratio (x) = 0.10718 0.23343
# Poissons Ratio (y) = 0.05452 0.14588
# Poissons Ratio (z) = 0.67282 0.82666
#
# Static dielectric constant tensor:
#      x y z
#    x 4.954330 0.000000 0.000000 
#    y 0.000000 5.179280 0.000000 
#    z 0.000000 0.000000 4.776140 
# 
# 
# High freq. dielectric constant tensor:
#      x y z
#    x 2.097370 0.000000 0.000000 
#    y 0.000000 2.115640 0.000000 
#    z 0.000000 0.000000 2.085080 
# 
# From -- ./inp_files/19096.got.cif
#   From: 2010.06.25/outbox.cif.g09.slc.cpg/sg52_10_cif.got.tgz:19096.got - 2010.06.26 19:32:48.
