data_PCOD8216449
_publ_section_title
;
Structure prediction by ZEFSAII (Michael W. Deem and Ramdas Pophale) SiO2 
 PCOD8216449
Probable space group: P N N A
;
_chemical_formula_sum "Si O2"
_cell_formula_units_Z 60
_cell_length_a 8.614411
_cell_length_b 12.652109
_cell_length_c 24.138825
_cell_angle_alpha 90.000000
_cell_angle_beta 90.000000
_cell_angle_gamma 90.000000
_cell_volume 2630.901808
_symmetry_space_group_name_H-M "P N N A"
_symmetry_group_IT_number 52
_symmetry_cell_setting 'orthorhombic'
loop_
_space_group_symop_operation_xyz
x,y,z
1/2-x,-y,z
x,1/2-y,1/2-z
1/2-x,1/2+y,1/2-z
-x,-y,-z
1/2+x,y,-z
-x,1/2+y,1/2+z
1/2+x,1/2-y,1/2+z
loop_
_atom_site_type_symbol
_atom_site_label
_atom_site_fract_x
_atom_site_fract_y
_atom_site_fract_z
Si Si1 0.993920 0.242126 0.541888
Si Si2 0.082586 0.044973 0.183404
Si Si3 0.420079 0.032950 0.060644
Si Si4 0.167100 0.726558 0.571536
Si Si5 0.655570 0.896685 0.626409
Si Si6 0.053259 0.216163 0.333048
Si Si7 0.250000 0.500000 0.558116
Si Si8 0.931268 0.496012 0.211425
O O1 0.923203 0.343092 0.574875
O O2 0.958104 0.267844 0.478002
O O3 0.916385 0.138771 0.567921
O O4 0.176576 0.218937 0.549524
O O5 0.065064 0.170082 0.195937
O O6 0.962685 0.980446 0.223134
O O7 0.250000 0.000000 0.200043
O O8 0.051869 0.028526 0.118165
O O9 0.582969 0.009697 0.025176
O O10 0.250000 0.000000 0.035099
O O11 0.222732 0.608946 0.591796
O O12 0.083111 0.786156 0.620992
O O13 0.772721 0.805975 0.646087
O O14 0.750000 0.000000 0.611523
O O15 0.522000 0.920693 0.672162
O O16 0.001226 0.121708 0.293300
O O17 0.750000 0.500000 0.197294
#
# Coordination Sequence:
#
# PCOD8216449 Si02
#       8
#     8   8   8   8   8   8   4   8
#     4  11  24  39  62  93 127 170 216 262 323 390
#     4  11  22  40  65  96 126 169 213 265 330 399
#     4  10  22  37  61  90 134 167 213 262 321 395
#     4  11  24  39  64  93 133 170 215 260 328 395
#     4  10  22  44  67  90 123 166 218 273 321 382
#     4  11  22  44  67  92 130 169 215 271 327 387
#     4  10  22  38  58  96 132 174 212 264 320 396
#     4  11  25  42  67  93 128 167 220 271 327 384
#
# _framework density 22.805868
#
# number of rings (size 3 to 8) (size 9 to 14) (size 15 to 20)
#    0.000    1.333    1.333    4.800    3.733    1.067 
#    0.000   12.667    0.000    0.000    0.000    0.000 
#    0.000    0.000    0.000    0.000    0.000    0.000 
#
# Total GULP energy -743338.153288 kJ/mol
# GULP energy per Si atom -12388.969221 kJ/mol
# Density = 2.275396 g / cm^3
# Si number density = 22.805868 Si / 1000 Ang^3
#
#
#
# Elastic Constant Matrix: (Units=GPa)
#
#
# Indices 1 2 3 4 5 6 
#
# 1 166.6803 20.9942 43.5200 0.0000 0.0000 0.0000
# 2 20.9942 54.2216 19.4414 0.0000 0.0000 0.0000
# 3 43.5200 19.4414 81.7732 0.0000 0.0000 0.0000
# 4 0.0000 0.0000 0.0000 -11.8461 0.0000 0.0000
# 5 0.0000 0.0000 0.0000 0.0000 34.7918 0.0000
# 6 0.0000 0.0000 0.0000 0.0000 0.0000 36.4118
#
#
#
# Elastic Compliance Matrix: (Units=1/GPa)
#
#
# Indices 1 2 3 4 5 6 
#
# 1 0.007080 -0.001520 -0.003407 0.000000 0.000000 0.000000
# 2 -0.001520 0.020488 -0.004062 0.000000 0.000000 0.000000
# 3 -0.003407 -0.004062 0.015008 0.000000 0.000000 0.000000
# 4 0.000000 0.000000 0.000000 -0.084416 0.000000 0.000000
# 5 0.000000 0.000000 0.000000 0.000000 0.028742 0.000000
# 6 0.000000 0.000000 0.000000 0.000000 0.000000 0.027464
#
#
# Mechanical properties :
#
#
# Convention : Reuss Voigt Hill
#
# Bulk Modulus (GPa) = 40.65303 52.28736 46.47019
# Shear Modulus (GPa) = 123.32424 26.45278 74.88851
#
# Velocity S-wave (km/s) = 7.36159 3.40944 5.73661
# Velocity P-wave (km/s) = 9.49325 6.20290 8.01866
#
# Compressibility (1/GPa) = 0.02459841
#
# Stress axis : x y z
#
# Youngs Moduli (GPa) = 141.23308 48.80957 66.63180
#
# Poissons Ratio (x) = 0.07419 0.22701
# Poissons Ratio (y) = 0.21467 0.27066
# Poissons Ratio (z) = 0.48117 0.19826
#
# Static dielectric constant tensor:
#      x y z
#    x 4.590090 0.000000 0.000000 
#    y 0.000000 4.102140 0.000000 
#    z 0.000000 0.000000 3.902660 
# 
# 
# High freq. dielectric constant tensor:
#      x y z
#    x 1.937080 0.000000 0.000000 
#    y 0.000000 1.884730 0.000000 
#    z 0.000000 0.000000 1.899300 
# 
# From -- ./inp_files/42349.got.cif
#   From: 2010.06.25/outbox.cif.g09.slc.cpg/sg52_22_cif.got.tgz:42349.got - 2010.06.26 19:32:48.
