data_PCOD8216894
_publ_section_title
;
Structure prediction by ZEFSAII (Michael W. Deem and Ramdas Pophale) SiO2 
 PCOD8216894
Probable space group: P N N A
;
_chemical_formula_sum "Si O2"
_cell_formula_units_Z 40
_cell_length_a 10.526311
_cell_length_b 14.280368
_cell_length_c 12.224503
_cell_angle_alpha 90.000000
_cell_angle_beta 90.000000
_cell_angle_gamma 90.000000
_cell_volume 1837.582337
_symmetry_space_group_name_H-M "P N N A"
_symmetry_group_IT_number 52
_symmetry_cell_setting 'orthorhombic'
loop_
_space_group_symop_operation_xyz
x,y,z
1/2-x,-y,z
x,1/2-y,1/2-z
1/2-x,1/2+y,1/2-z
-x,-y,-z
1/2+x,y,-z
-x,1/2+y,1/2+z
1/2+x,1/2-y,1/2+z
loop_
_atom_site_type_symbol
_atom_site_label
_atom_site_fract_x
_atom_site_fract_y
_atom_site_fract_z
Si Si1 0.857720 0.389424 0.005655
Si Si2 0.094904 0.151382 0.813132
Si Si3 0.183908 0.250000 0.250000
Si Si4 0.346057 0.426801 0.227958
Si Si5 0.250000 0.500000 0.809727
Si Si6 0.393404 0.733747 0.018785
O O1 0.861175 0.458132 0.111387
O O2 0.973413 0.317528 0.002140
O O3 0.875752 0.455784 0.898238
O O4 0.723658 0.334297 0.009052
O O5 0.084273 0.250000 0.750000
O O6 0.206301 0.086258 0.766160
O O7 0.968628 0.088130 0.802426
O O8 0.116103 0.175397 0.940140
O O9 0.274290 0.331000 0.211305
O O10 0.101599 0.225716 0.142711
O O11 0.250000 0.500000 0.284883
#
# Coordination Sequence:
#
# PCOD8216894 Si02
#       6
#     8   8   4   8   4   8
#     4  11  22  40  71 104 134 177 238 290 338 418
#     4  12  23  46  67 103 148 182 219 296 368 411
#     4  10  24  44  68 102 128 182 238 288 334 426
#     4  11  22  42  72 100 132 180 237 284 344 418
#     4  12  26  36  70 112 140 178 236 294 356 418
#     4  11  24  45  72  96 142 184 231 285 360 414
#
# _framework density 21.767733
#
# number of rings (size 3 to 8) (size 9 to 14) (size 15 to 20)
#    0.000    0.800    6.000    1.200    5.600    3.200 
#    1.800    1.000    0.000    0.000    0.000    0.000 
#    0.000    0.000    0.000    0.000    0.000    0.000 
#
# Total GULP energy -495797.986341 kJ/mol
# GULP energy per Si atom -12394.949659 kJ/mol
# Density = 2.171819 g / cm^3
# Si number density = 21.767733 Si / 1000 Ang^3
#
#
#
# Elastic Constant Matrix: (Units=GPa)
#
#
# Indices 1 2 3 4 5 6 
#
# 1 101.3424 25.7066 23.2866 0.0000 0.0000 0.0000
# 2 25.7066 73.4734 27.6110 0.0000 0.0000 0.0000
# 3 23.2866 27.6110 142.4800 0.0000 0.0000 0.0000
# 4 0.0000 0.0000 0.0000 29.0837 0.0000 0.0000
# 5 0.0000 0.0000 0.0000 0.0000 16.9084 0.0000
# 6 0.0000 0.0000 0.0000 0.0000 0.0000 37.4481
#
#
#
# Elastic Compliance Matrix: (Units=1/GPa)
#
#
# Indices 1 2 3 4 5 6 
#
# 1 0.010996 -0.003421 -0.001134 0.000000 0.000000 0.000000
# 2 -0.003421 0.015744 -0.002492 0.000000 0.000000 0.000000
# 3 -0.001134 -0.002492 0.007687 0.000000 0.000000 0.000000
# 4 0.000000 0.000000 0.000000 0.034383 0.000000 0.000000
# 5 0.000000 0.000000 0.000000 0.000000 0.059142 0.000000
# 6 0.000000 0.000000 0.000000 0.000000 0.000000 0.026704
#
#
# Mechanical properties :
#
#
# Convention : Reuss Voigt Hill
#
# Bulk Modulus (GPa) = 49.18263 52.27826 50.73045
# Shear Modulus (GPa) = 28.48560 32.73415 30.60988
#
# Velocity S-wave (km/s) = 3.62140 3.88208 3.75401
# Velocity P-wave (km/s) = 6.33478 6.64550 6.49200
#
# Compressibility (1/GPa) = 0.02033238
#
# Stress axis : x y z
#
# Youngs Moduli (GPa) = 90.94279 63.51744 130.09335
#
# Poissons Ratio (x) = 0.21729 0.14755
# Poissons Ratio (y) = 0.31111 0.32417
# Poissons Ratio (z) = 0.10315 0.15828
#
# Static dielectric constant tensor:
#      x y z
#    x 3.897140 0.000000 0.000000 
#    y 0.000000 3.829930 0.000000 
#    z 0.000000 0.000000 4.400770 
# 
# 
# High freq. dielectric constant tensor:
#      x y z
#    x 1.855920 0.000000 0.000000 
#    y 0.000000 1.845640 0.000000 
#    z 0.000000 0.000000 1.855600 
# 
# From -- ./inp_files/18040.got.cif
#   From: 2010.06.25/outbox.cif.g09.slc.cpg/sg52_10_cif.got.tgz:18040.got - 2010.06.26 19:32:48.
