data_PCOD8216343
_publ_section_title
;
Structure prediction by ZEFSAII (Michael W. Deem and Ramdas Pophale) SiO2 
 PCOD8216343
Probable space group: P N N A
;
_chemical_formula_sum "Si O2"
_cell_formula_units_Z 28
_cell_length_a 12.374273
_cell_length_b 7.739989
_cell_length_c 14.015287
_cell_angle_alpha 90.000000
_cell_angle_beta 90.000000
_cell_angle_gamma 90.000000
_cell_volume 1342.338456
_symmetry_space_group_name_H-M "P N N A"
_symmetry_group_IT_number 52
_symmetry_cell_setting 'orthorhombic'
loop_
_space_group_symop_operation_xyz
x,y,z
1/2-x,-y,z
x,1/2-y,1/2-z
1/2-x,1/2+y,1/2-z
-x,-y,-z
1/2+x,y,-z
-x,1/2+y,1/2+z
1/2+x,1/2-y,1/2+z
loop_
_atom_site_type_symbol
_atom_site_label
_atom_site_fract_x
_atom_site_fract_y
_atom_site_fract_z
Si Si1 0.250000 0.000000 0.665061
Si Si2 0.543877 0.077415 0.205163
Si Si3 0.187454 0.320783 0.544354
Si Si4 0.160803 0.139684 0.162987
O O1 0.144722 0.006082 0.732592
O O2 0.255396 0.170641 0.598522
O O3 0.491940 0.250000 0.250000
O O4 0.577772 0.137792 0.100016
O O5 0.454835 0.930667 0.196277
O O6 0.250000 0.500000 0.542752
O O7 0.153319 0.256902 0.437788
O O8 0.206619 0.250000 0.250000
O O9 0.250000 0.000000 0.141561
#
# Coordination Sequence:
#
# PCOD8216343 Si02
#       4
#     4   8   8   8
#     4  10  22  40  72 100 122 162 218 278 316 372
#     4  10  21  41  66  97 126 162 216 269 324 377
#     4  10  22  40  66  96 129 162 217 265 322 378
#     4  11  25  41  62  88 133 177 209 259 323 392
#
# _framework density 20.859121999999999
#
# number of rings (size 3 to 8) (size 9 to 14) (size 15 to 20)
#    0.000    1.714    1.429    1.714    6.000    0.000 
#    0.000    2.857    0.000    0.000    0.000    0.000 
#    0.000    0.000    0.000    0.000    0.000    0.000 
#
# Total GULP energy -347018.831481 kJ/mol
# GULP energy per Si atom -12393.529696 kJ/mol
# Density = 2.081165 g / cm^3
# Si number density = 20.859122 Si / 1000 Ang^3
#
#
#
# Elastic Constant Matrix: (Units=GPa)
#
#
# Indices 1 2 3 4 5 6 
#
# 1 80.2948 18.3590 33.7811 0.0000 0.0000 0.0000
# 2 18.3590 79.4740 46.2761 0.0000 0.0000 0.0000
# 3 33.7811 46.2761 189.6603 0.0000 0.0000 0.0000
# 4 0.0000 0.0000 0.0000 33.8305 0.0000 0.0000
# 5 0.0000 0.0000 0.0000 0.0000 14.0198 0.0000
# 6 0.0000 0.0000 0.0000 0.0000 0.0000 25.2373
#
#
#
# Elastic Compliance Matrix: (Units=1/GPa)
#
#
# Indices 1 2 3 4 5 6 
#
# 1 0.013741 -0.002039 -0.001950 0.000000 0.000000 0.000000
# 2 -0.002039 0.014969 -0.003289 0.000000 0.000000 0.000000
# 3 -0.001950 -0.003289 0.006422 0.000000 0.000000 0.000000
# 4 0.000000 0.000000 0.000000 0.029559 0.000000 0.000000
# 5 0.000000 0.000000 0.000000 0.000000 0.071328 0.000000
# 6 0.000000 0.000000 0.000000 0.000000 0.000000 0.039624
#
#
# Mechanical properties :
#
#
# Convention : Reuss Voigt Hill
#
# Bulk Modulus (GPa) = 48.59987 60.69571 54.64779
# Shear Modulus (GPa) = 25.37332 31.35172 28.36252
#
# Velocity S-wave (km/s) = 3.49150 3.88109 3.69144
# Velocity P-wave (km/s) = 6.29315 7.01747 6.66516
#
# Compressibility (1/GPa) = 0.02057619
#
# Stress axis : x y z
#
# Youngs Moduli (GPa) = 72.77693 66.80506 155.70396
#
# Poissons Ratio (x) = 0.13620 0.30361
# Poissons Ratio (y) = 0.14837 0.51214
# Poissons Ratio (z) = 0.14191 0.21974
#
# Static dielectric constant tensor:
#      x y z
#    x 3.469930 0.000000 0.000000 
#    y 0.000000 3.763530 0.000000 
#    z 0.000000 0.000000 4.375660 
# 
# 
# High freq. dielectric constant tensor:
#      x y z
#    x 1.800080 0.000000 0.000000 
#    y 0.000000 1.810560 0.000000 
#    z 0.000000 0.000000 1.843430 
# 
# From -- ./inp_files/18770.got.cif
#   From: 2010.06.25/outbox.cif.g09.slc.cpg/sg52_10_cif.got.tgz:18770.got - 2010.06.26 19:32:48.
