data_PCOD8216146
_publ_section_title
;
Structure prediction by ZEFSAII (Michael W. Deem and Ramdas Pophale) SiO2 
 PCOD8216146
Probable space group: P N N A
;
_chemical_formula_sum "Si O2"
_cell_formula_units_Z 36
_cell_length_a 8.031240
_cell_length_b 13.950050
_cell_length_c 15.419726
_cell_angle_alpha 90.000000
_cell_angle_beta 90.000000
_cell_angle_gamma 90.000000
_cell_volume 1727.567499
_symmetry_space_group_name_H-M "P N N A"
_symmetry_group_IT_number 52
_symmetry_cell_setting 'orthorhombic'
loop_
_space_group_symop_operation_xyz
x,y,z
1/2-x,-y,z
x,1/2-y,1/2-z
1/2-x,1/2+y,1/2-z
-x,-y,-z
1/2+x,y,-z
-x,1/2+y,1/2+z
1/2+x,1/2-y,1/2+z
loop_
_atom_site_type_symbol
_atom_site_label
_atom_site_fract_x
_atom_site_fract_y
_atom_site_fract_z
Si Si1 0.933836 0.529154 0.788071
Si Si2 0.482163 0.322746 0.920495
Si Si3 0.021600 0.605787 0.608728
Si Si4 0.750000 0.000000 0.996989
Si Si5 0.644460 0.090962 0.415468
O O1 0.750000 0.500000 0.756660
O O2 0.036480 0.576005 0.709104
O O3 0.905471 0.611473 0.859082
O O4 0.041597 0.441703 0.829800
O O5 0.539023 0.214190 0.905485
O O6 0.286533 0.330373 0.894230
O O7 0.514768 0.361721 0.017673
O O8 0.894519 0.532953 0.565656
O O9 0.196227 0.588415 0.559464
O O10 0.750000 0.000000 0.453590
#
# Coordination Sequence:
#
# PCOD8216146 Si02
#       5
#     8   8   8   4   8
#     4  11  22  39  62  92 128 163 199 254 314 370
#     4  11  21  38  65  94 122 160 206 258 302 374
#     4  11  23  42  64  88 123 160 215 252 311 368
#     4  10  24  42  64  82 118 172 200 256 316 378
#     4  10  21  37  64  94 126 162 198 253 318 368
#
# _framework density 20.838546999999998
#
# number of rings (size 3 to 8) (size 9 to 14) (size 15 to 20)
#    0.000    1.333    1.111    6.667    4.667    0.000 
#    0.000    0.000    0.000    0.000    0.000    0.000 
#    0.000    0.000    0.000    0.000    0.000    0.000 
#
# Total GULP energy -446258.807282 kJ/mol
# GULP energy per Si atom -12396.077980 kJ/mol
# Density = 2.079112 g / cm^3
# Si number density = 20.838547 Si / 1000 Ang^3
#
#
#
# Elastic Constant Matrix: (Units=GPa)
#
#
# Indices 1 2 3 4 5 6 
#
# 1 65.9679 9.3474 16.0589 0.0000 0.0000 0.0000
# 2 9.3474 82.3026 31.9808 0.0000 0.0000 0.0000
# 3 16.0589 31.9808 109.3453 0.0000 0.0000 0.0000
# 4 0.0000 0.0000 0.0000 22.3101 0.0000 0.0000
# 5 0.0000 0.0000 0.0000 0.0000 27.8460 0.0000
# 6 0.0000 0.0000 0.0000 0.0000 0.0000 21.3995
#
#
#
# Elastic Compliance Matrix: (Units=1/GPa)
#
#
# Indices 1 2 3 4 5 6 
#
# 1 0.015795 -0.001007 -0.002025 0.000000 0.000000 0.000000
# 2 -0.001007 0.013772 -0.003880 0.000000 0.000000 0.000000
# 3 -0.002025 -0.003880 0.010578 0.000000 0.000000 0.000000
# 4 0.000000 0.000000 0.000000 0.044823 0.000000 0.000000
# 5 0.000000 0.000000 0.000000 0.000000 0.035912 0.000000
# 6 0.000000 0.000000 0.000000 0.000000 0.000000 0.046730
#
#
# Mechanical properties :
#
#
# Convention : Reuss Voigt Hill
#
# Bulk Modulus (GPa) = 37.99387 41.37666 39.68527
# Shear Modulus (GPa) = 26.28712 27.65969 26.97341
#
# Velocity S-wave (km/s) = 3.55557 3.64721 3.60168
# Velocity P-wave (km/s) = 5.92690 6.13475 6.03172
#
# Compressibility (1/GPa) = 0.02632003
#
# Stress axis : x y z
#
# Youngs Moduli (GPa) = 63.31293 72.60908 94.53918
#
# Poissons Ratio (x) = 0.07311 0.19146
# Poissons Ratio (y) = 0.06375 0.36683
# Poissons Ratio (z) = 0.12822 0.28174
#
# Static dielectric constant tensor:
#      x y z
#    x 3.895210 0.000000 0.000000 
#    y 0.000000 3.671370 0.000000 
#    z 0.000000 0.000000 3.756970 
# 
# 
# High freq. dielectric constant tensor:
#      x y z
#    x 1.817030 0.000000 0.000000 
#    y 0.000000 1.802570 0.000000 
#    z 0.000000 0.000000 1.815220 
# 
# From -- ./inp_files/24273.got.cif
#   From: 2010.06.25/outbox.cif.g09.slc.cpg/sg52_13_cif.got.tgz:24273.got - 2010.06.26 19:32:48.
