data_PCOD8216595
_publ_section_title
;
Structure prediction by ZEFSAII (Michael W. Deem and Ramdas Pophale) SiO2 
 PCOD8216595
Probable space group: P N N A
;
_chemical_formula_sum "Si O2"
_cell_formula_units_Z 44
_cell_length_a 14.132852
_cell_length_b 8.897410
_cell_length_c 16.433718
_cell_angle_alpha 90.000000
_cell_angle_beta 90.000000
_cell_angle_gamma 90.000000
_cell_volume 2066.470667
_symmetry_space_group_name_H-M "P N N A"
_symmetry_group_IT_number 52
_symmetry_cell_setting 'orthorhombic'
loop_
_space_group_symop_operation_xyz
x,y,z
1/2-x,-y,z
x,1/2-y,1/2-z
1/2-x,1/2+y,1/2-z
-x,-y,-z
1/2+x,y,-z
-x,1/2+y,1/2+z
1/2+x,1/2-y,1/2+z
loop_
_atom_site_type_symbol
_atom_site_label
_atom_site_fract_x
_atom_site_fract_y
_atom_site_fract_z
Si Si1 0.661459 0.399728 0.954807
Si Si2 0.011687 0.206904 0.337416
Si Si3 0.013803 0.960059 0.115099
Si Si4 0.655306 0.070458 0.002260
Si Si5 0.540571 0.250000 0.250000
Si Si6 0.140815 0.023071 0.636908
O O1 0.750000 0.500000 0.925432
O O2 0.580321 0.407971 0.885897
O O3 0.690161 0.225172 0.961279
O O4 0.622026 0.461872 0.040466
O O5 0.055882 0.250000 0.250000
O O6 0.991872 0.362565 0.382599
O O7 0.912069 0.122923 0.328152
O O8 0.024398 0.872693 0.201344
O O9 0.923529 0.889114 0.069242
O O10 0.111552 0.951455 0.063774
O O11 0.750000 0.000000 0.041519
O O12 0.606204 0.169463 0.315632
O O13 0.250000 0.000000 0.655877
#
# Coordination Sequence:
#
# PCOD8216595 Si02
#       6
#     8   8   8   8   4   8
#     4  10  23  43  65  96 125 170 222 262 317 386
#     4  11  23  43  65  92 131 170 210 266 327 380
#     4  10  23  40  64  93 128 168 212 265 323 389
#     4  10  22  41  66  93 124 167 219 263 321 379
#     4  12  22  40  62  92 136 164 216 264 328 380
#     4  11  25  39  62  97 131 170 214 260 325 387
#
# _framework density 21.292342000000001
#
# number of rings (size 3 to 8) (size 9 to 14) (size 15 to 20)
#    0.000    1.455    3.636    0.545    6.364    2.182 
#    0.000    3.636    4.000    0.000    0.000    0.000 
#    0.000    0.000    0.000    0.000    0.000    0.000 
#
# Total GULP energy -545467.423263 kJ/mol
# GULP energy per Si atom -12396.986892 kJ/mol
# Density = 2.124388 g / cm^3
# Si number density = 21.292342 Si / 1000 Ang^3
#
#
#
# Elastic Constant Matrix: (Units=GPa)
#
#
# Indices 1 2 3 4 5 6 
#
# 1 98.9729 54.3068 41.6547 0.0000 0.0000 0.0000
# 2 54.3068 91.1911 29.2112 0.0000 0.0000 0.0000
# 3 41.6547 29.2112 109.1106 0.0000 0.0000 0.0000
# 4 0.0000 0.0000 0.0000 38.3015 0.0000 0.0000
# 5 0.0000 0.0000 0.0000 0.0000 17.0258 0.0000
# 6 0.0000 0.0000 0.0000 0.0000 0.0000 32.8116
#
#
#
# Elastic Compliance Matrix: (Units=1/GPa)
#
#
# Indices 1 2 3 4 5 6 
#
# 1 0.016466 -0.008523 -0.004004 0.000000 0.000000 0.000000
# 2 -0.008523 0.016406 -0.001139 0.000000 0.000000 0.000000
# 3 -0.004004 -0.001139 0.010999 0.000000 0.000000 0.000000
# 4 0.000000 0.000000 0.000000 0.026109 0.000000 0.000000
# 5 0.000000 0.000000 0.000000 0.000000 0.058734 0.000000
# 6 0.000000 0.000000 0.000000 0.000000 0.000000 0.030477
#
#
# Mechanical properties :
#
#
# Convention : Reuss Voigt Hill
#
# Bulk Modulus (GPa) = 60.46342 61.06889 60.76615
# Shear Modulus (GPa) = 26.03689 29.23458 27.63574
#
# Velocity S-wave (km/s) = 3.50069 3.70943 3.60657
# Velocity P-wave (km/s) = 6.69315 6.86221 6.77821
#
# Compressibility (1/GPa) = 0.01653893
#
# Stress axis : x y z
#
# Youngs Moduli (GPa) = 60.73235 60.95171 90.92148
#
# Poissons Ratio (x) = 0.51950 0.36407
# Poissons Ratio (y) = 0.51763 0.10352
# Poissons Ratio (z) = 0.24319 0.06939
#
# Static dielectric constant tensor:
#      x y z
#    x 3.640130 0.000000 0.000000 
#    y 0.000000 3.910290 0.000000 
#    z 0.000000 0.000000 3.901990 
# 
# 
# High freq. dielectric constant tensor:
#      x y z
#    x 1.813790 0.000000 0.000000 
#    y 0.000000 1.845850 0.000000 
#    z 0.000000 0.000000 1.833890 
# 
# From -- ./inp_files/32936.got.cif
#   From: 2010.06.25/outbox.cif.g09.slc.cpg/sg52_17_cif.got.tgz:32936.got - 2010.06.26 19:32:48.
