data_PCOD8216843
_publ_section_title
;
Structure prediction by ZEFSAII (Michael W. Deem and Ramdas Pophale) SiO2 
 PCOD8216843
Probable space group: P N N A
;
_chemical_formula_sum "Si O2"
_cell_formula_units_Z 60
_cell_length_a 14.491958
_cell_length_b 8.111095
_cell_length_c 25.957832
_cell_angle_alpha 90.000000
_cell_angle_beta 90.000000
_cell_angle_gamma 90.000000
_cell_volume 3051.230185
_symmetry_space_group_name_H-M "P N N A"
_symmetry_group_IT_number 52
_symmetry_cell_setting 'orthorhombic'
loop_
_space_group_symop_operation_xyz
x,y,z
1/2-x,-y,z
x,1/2-y,1/2-z
1/2-x,1/2+y,1/2-z
-x,-y,-z
1/2+x,y,-z
-x,1/2+y,1/2+z
1/2+x,1/2-y,1/2+z
loop_
_atom_site_type_symbol
_atom_site_label
_atom_site_fract_x
_atom_site_fract_y
_atom_site_fract_z
Si Si1 0.078607 0.825618 0.453538
Si Si2 0.572557 0.250000 0.250000
Si Si3 0.660569 0.580059 0.275848
Si Si4 0.959267 0.707107 0.364714
Si Si5 0.548546 0.201084 0.545903
Si Si6 0.269599 0.687219 0.905450
Si Si7 0.419992 0.348177 0.622863
Si Si8 0.768280 0.815539 0.985304
O O1 0.181426 0.753321 0.453574
O O2 0.034505 0.806924 0.397002
O O3 0.018013 0.741060 0.498891
O O4 0.084339 0.018472 0.464468
O O5 0.626231 0.425800 0.240400
O O6 0.515157 0.281400 0.303431
O O7 0.750000 0.500000 0.304494
O O8 0.693241 0.750000 0.250000
O O9 0.581629 0.642574 0.315078
O O10 0.855147 0.771964 0.369017
O O11 0.956360 0.528566 0.392626
O O12 0.491668 0.216223 0.599435
O O13 0.639910 0.314149 0.550095
O O14 0.250000 0.500000 0.891585
O O15 0.182718 0.805948 0.895827
O O16 0.293943 0.703402 0.965562
O O17 0.750000 0.000000 0.003822
#
# Coordination Sequence:
#
# PCOD8216843 Si02
#       8
#     8   4   8   8   8   8   8   8
#     4  11  23  39  62  87 121 160 200 250 314 362
#     4  10  24  40  56  88 120 160 216 258 300 370
#     4  11  23  38  60  86 125 167 211 257 308 364
#     4  11  23  40  60  86 120 164 203 257 305 361
#     4  11  23  39  60  90 122 156 204 250 299 385
#     4  12  23  34  55  85 125 164 203 244 302 367
#     4  11  23  38  56  87 121 159 206 248 302 363
#     4  12  24  39  60  88 122 161 202 251 304 366
#
# _framework density 19.664199
#
# number of rings (size 3 to 8) (size 9 to 14) (size 15 to 20)
#    0.000    0.800    3.333    5.600    3.733    1.067 
#    0.000    0.000    0.000    0.000    1.733    0.000 
#    0.000    0.000    0.000    0.000    0.000    0.000 
#
# Total GULP energy -743419.532351 kJ/mol
# GULP energy per Si atom -12390.325539 kJ/mol
# Density = 1.961944 g / cm^3
# Si number density = 19.664199 Si / 1000 Ang^3
#
#
#
# Elastic Constant Matrix: (Units=GPa)
#
#
# Indices 1 2 3 4 5 6 
#
# 1 106.3457 17.9344 44.1509 0.0000 0.0000 0.0000
# 2 17.9344 83.6360 26.0804 0.0000 0.0000 0.0000
# 3 44.1509 26.0804 91.7426 0.0000 0.0000 0.0000
# 4 0.0000 0.0000 0.0000 29.5774 0.0000 0.0000
# 5 0.0000 0.0000 0.0000 0.0000 22.8931 0.0000
# 6 0.0000 0.0000 0.0000 0.0000 0.0000 29.9412
#
#
#
# Elastic Compliance Matrix: (Units=1/GPa)
#
#
# Indices 1 2 3 4 5 6 
#
# 1 0.011804 -0.000834 -0.005444 0.000000 0.000000 0.000000
# 2 -0.000834 0.013178 -0.003345 0.000000 0.000000 0.000000
# 3 -0.005444 -0.003345 0.014471 0.000000 0.000000 0.000000
# 4 0.000000 0.000000 0.000000 0.033810 0.000000 0.000000
# 5 0.000000 0.000000 0.000000 0.000000 0.043681 0.000000
# 6 0.000000 0.000000 0.000000 0.000000 0.000000 0.033399
#
#
# Mechanical properties :
#
#
# Convention : Reuss Voigt Hill
#
# Bulk Modulus (GPa) = 49.48472 50.89507 50.18990
# Shear Modulus (GPa) = 28.35694 29.38624 28.87159
#
# Velocity S-wave (km/s) = 3.80156 3.86994 3.83591
# Velocity P-wave (km/s) = 6.66999 6.77546 6.72293
#
# Compressibility (1/GPa) = 0.02020826
#
# Stress axis : x y z
#
# Youngs Moduli (GPa) = 84.71800 75.88141 69.10502
#
# Poissons Ratio (x) = 0.06326 0.37618
# Poissons Ratio (y) = 0.07063 0.23117
# Poissons Ratio (z) = 0.46117 0.25383
#
# Static dielectric constant tensor:
#      x y z
#    x 3.385490 0.000000 0.000000 
#    y 0.000000 3.861810 0.000000 
#    z 0.000000 0.000000 3.415530 
# 
# 
# High freq. dielectric constant tensor:
#      x y z
#    x 1.737520 0.000000 0.000000 
#    y 0.000000 1.788530 0.000000 
#    z 0.000000 0.000000 1.747010 
# 
# From -- ./inp_files/40632.got.cif
#   From: 2010.06.25/outbox.cif.g09.slc.cpg/sg52_21_cif.got.tgz:40632.got - 2010.06.26 19:32:48.
