data_PCOD8216323
_publ_section_title
;
Structure prediction by ZEFSAII (Michael W. Deem and Ramdas Pophale) SiO2 
 PCOD8216323
Probable space group: P N N A
;
_chemical_formula_sum "Si O2"
_cell_formula_units_Z 48
_cell_length_a 16.551644
_cell_length_b 8.938431
_cell_length_c 14.467970
_cell_angle_alpha 90.000000
_cell_angle_beta 90.000000
_cell_angle_gamma 90.000000
_cell_volume 2140.474352
_symmetry_space_group_name_H-M "P N N A"
_symmetry_group_IT_number 52
_symmetry_cell_setting 'orthorhombic'
loop_
_space_group_symop_operation_xyz
x,y,z
1/2-x,-y,z
x,1/2-y,1/2-z
1/2-x,1/2+y,1/2-z
-x,-y,-z
1/2+x,y,-z
-x,1/2+y,1/2+z
1/2+x,1/2-y,1/2+z
loop_
_atom_site_type_symbol
_atom_site_label
_atom_site_fract_x
_atom_site_fract_y
_atom_site_fract_z
Si Si1 0.836448 0.250000 0.750000
Si Si2 0.615769 0.440731 0.505966
Si Si3 0.369378 0.233022 0.564816
Si Si4 0.287153 0.840730 0.837766
Si Si5 0.963593 0.732623 0.858643
Si Si6 0.155338 0.969905 0.397572
Si Si7 0.250000 0.500000 0.363478
O O1 0.884812 0.150107 0.675096
O O2 0.783433 0.369342 0.697705
O O3 0.606541 0.618039 0.492042
O O4 0.636760 0.359335 0.408409
O O5 0.542863 0.376113 0.570196
O O6 0.690977 0.408323 0.571392
O O7 0.286776 0.247727 0.620568
O O8 0.442802 0.184838 0.632834
O O9 0.353864 0.094378 0.498855
O O10 0.321539 0.750000 0.750000
O O11 0.250000 0.000000 0.808212
O O12 0.943639 0.750000 0.750000
O O13 0.898684 0.616758 0.896831
O O14 0.250000 0.000000 0.374321
#
# Coordination Sequence:
#
# PCOD8216323 Si02
#       7
#     4   8   8   8   8   8   4
#     4  12  22  34  64 102 134 168 212 290 332 410
#     4  11  22  43  67  96 135 176 225 280 340 400
#     4  11  23  46  65  93 139 179 216 279 341 406
#     4  10  21  40  69  98 128 175 231 283 331 394
#     4  12  27  43  66  99 136 181 220 272 346 414
#     4  12  25  41  68 100 133 172 228 282 339 397
#     4  12  20  38  64  98 136 164 224 276 348 394
#
# _framework density 22.424935000000001
#
# number of rings (size 3 to 8) (size 9 to 14) (size 15 to 20)
#    0.000    0.667    5.000    4.500    2.333    2.000 
#    0.000    3.333    0.000    0.000    0.000    0.000 
#    0.000    0.000    0.000    0.000    0.000    0.000 
#
# Total GULP energy -594718.269407 kJ/mol
# GULP energy per Si atom -12389.963946 kJ/mol
# Density = 2.237389 g / cm^3
# Si number density = 22.424935 Si / 1000 Ang^3
#
#
#
# Elastic Constant Matrix: (Units=GPa)
#
#
# Indices 1 2 3 4 5 6 
#
# 1 63.8109 -2.4700 8.7260 0.0000 0.0000 0.0000
# 2 -2.4700 73.3723 39.3861 0.0000 0.0000 0.0000
# 3 8.7260 39.3861 130.4692 0.0000 0.0000 0.0000
# 4 0.0000 0.0000 0.0000 53.4457 0.0000 0.0000
# 5 0.0000 0.0000 0.0000 0.0000 46.5962 0.0000
# 6 0.0000 0.0000 0.0000 0.0000 0.0000 10.8540
#
#
#
# Elastic Compliance Matrix: (Units=1/GPa)
#
#
# Indices 1 2 3 4 5 6 
#
# 1 0.015923 0.001322 -0.001464 0.000000 0.000000 0.000000
# 2 0.001322 0.016375 -0.005032 0.000000 0.000000 0.000000
# 3 -0.001464 -0.005032 0.009281 0.000000 0.000000 0.000000
# 4 0.000000 0.000000 0.000000 0.018711 0.000000 0.000000
# 5 0.000000 0.000000 0.000000 0.000000 0.021461 0.000000
# 6 0.000000 0.000000 0.000000 0.000000 0.000000 0.092132
#
#
# Mechanical properties :
#
#
# Convention : Reuss Voigt Hill
#
# Bulk Modulus (GPa) = 32.01907 39.88183 35.95045
# Shear Modulus (GPa) = 25.68844 36.97987 31.33415
#
# Velocity S-wave (km/s) = 3.38824 4.06526 3.74209
# Velocity P-wave (km/s) = 5.44208 6.31334 5.89383
#
# Compressibility (1/GPa) = 0.03123139
#
# Stress axis : x y z
#
# Youngs Moduli (GPa) = 62.80350 61.07037 107.74130
#
# Poissons Ratio (x) = -0.08073 0.15773
# Poissons Ratio (y) = -0.08302 0.54211
# Poissons Ratio (z) = 0.09194 0.30728
#
# Static dielectric constant tensor:
#      x y z
#    x 3.553890 0.000000 0.000000 
#    y 0.000000 4.375720 0.000000 
#    z 0.000000 0.000000 4.282320 
# 
# 
# High freq. dielectric constant tensor:
#      x y z
#    x 1.861290 0.000000 0.000000 
#    y 0.000000 1.887450 0.000000 
#    z 0.000000 0.000000 1.899630 
# 
# From -- ./inp_files/28126.got.cif
#   From: 2010.06.25/outbox.cif.g09.slc.cpg/sg52_15_cif.got.tgz:28126.got - 2010.06.26 19:32:48.
