data_PCOD8216935
_publ_section_title
;
Structure prediction by ZEFSAII (Michael W. Deem and Ramdas Pophale) SiO2 
 PCOD8216935
Probable space group: P N N A
;
_chemical_formula_sum "Si O2"
_cell_formula_units_Z 40
_cell_length_a 22.763551
_cell_length_b 5.192461
_cell_length_c 14.629110
_cell_angle_alpha 90.000000
_cell_angle_beta 90.000000
_cell_angle_gamma 90.000000
_cell_volume 1729.143990
_symmetry_space_group_name_H-M "P N N A"
_symmetry_group_IT_number 52
_symmetry_cell_setting 'orthorhombic'
loop_
_space_group_symop_operation_xyz
x,y,z
1/2-x,-y,z
x,1/2-y,1/2-z
1/2-x,1/2+y,1/2-z
-x,-y,-z
1/2+x,y,-z
-x,1/2+y,1/2+z
1/2+x,1/2-y,1/2+z
loop_
_atom_site_type_symbol
_atom_site_label
_atom_site_fract_x
_atom_site_fract_y
_atom_site_fract_z
Si Si1 0.250000 0.500000 0.311876
Si Si2 0.487191 0.750000 0.750000
Si Si3 0.315854 0.282003 0.847968
Si Si4 0.850222 0.787579 0.914023
Si Si5 0.434692 0.750000 0.250000
Si Si6 0.250000 0.500000 0.996376
Si Si7 0.886525 0.704526 0.387504
O O1 0.255067 0.750000 0.250000
O O2 0.191186 0.520585 0.375653
O O3 0.526357 0.500172 0.735220
O O4 0.448897 0.775128 0.657363
O O5 0.283519 0.250000 0.750000
O O6 0.267706 0.257243 0.929384
O O7 0.342506 0.566163 0.863129
O O8 0.365918 0.065978 0.845739
O O9 0.894669 0.691424 0.837415
O O10 0.804382 0.562071 0.938394
O O11 0.889400 0.849783 0.003431
#
# Coordination Sequence:
#
# PCOD8216935 Si02
#       7
#     4   4   8   8   4   4   8
#     4  12  25  44  77 102 148 192 227 280 357 424
#     4  12  26  50  73 104 129 192 234 312 350 404
#     4  11  21  41  70 108 143 188 220 280 347 438
#     4  11  26  47  69 111 140 190 229 292 344 437
#     4  12  30  44  75  98 141 180 254 286 360 400
#     4  10  25  42  71 108 152 184 233 274 363 430
#     4  11  24  45  76  97 144 179 237 289 356 403
#
# _framework density 23.132833999999999
#
# number of rings (size 3 to 8) (size 9 to 14) (size 15 to 20)
#    0.000    0.800    3.000    3.000    1.400   12.000 
#    0.000    0.000    0.000    0.000    0.000    0.000 
#    0.000    0.000    0.000    0.000    0.000    0.000 
#
# Total GULP energy -495759.849249 kJ/mol
# GULP energy per Si atom -12393.996231 kJ/mol
# Density = 2.308018 g / cm^3
# Si number density = 23.132834 Si / 1000 Ang^3
#
#
#
# Elastic Constant Matrix: (Units=GPa)
#
#
# Indices 1 2 3 4 5 6 
#
# 1 115.5052 34.3980 70.8504 0.0000 0.0000 0.0000
# 2 34.3980 118.9853 37.9373 0.0000 0.0000 0.0000
# 3 70.8504 37.9373 194.1838 0.0000 0.0000 0.0000
# 4 0.0000 0.0000 0.0000 21.4455 0.0000 0.0000
# 5 0.0000 0.0000 0.0000 0.0000 88.6742 0.0000
# 6 0.0000 0.0000 0.0000 0.0000 0.0000 35.7226
#
#
#
# Elastic Compliance Matrix: (Units=1/GPa)
#
#
# Indices 1 2 3 4 5 6 
#
# 1 0.011646 -0.002146 -0.003830 0.000000 0.000000 0.000000
# 2 -0.002146 0.009358 -0.001045 0.000000 0.000000 0.000000
# 3 -0.003830 -0.001045 0.006751 0.000000 0.000000 0.000000
# 4 0.000000 0.000000 0.000000 0.046630 0.000000 0.000000
# 5 0.000000 0.000000 0.000000 0.000000 0.011277 0.000000
# 6 0.000000 0.000000 0.000000 0.000000 0.000000 0.027993
#
#
# Mechanical properties :
#
#
# Convention : Reuss Voigt Hill
#
# Bulk Modulus (GPa) = 72.92173 79.44953 76.18563
# Shear Modulus (GPa) = 37.80177 48.20102 43.00139
#
# Velocity S-wave (km/s) = 4.04681 4.56967 4.31616
# Velocity P-wave (km/s) = 7.30938 7.89062 7.60556
#
# Compressibility (1/GPa) = 0.01371333
#
# Stress axis : x y z
#
# Youngs Moduli (GPa) = 85.86736 106.86044 148.11725
#
# Poissons Ratio (x) = 0.22928 0.56728
# Poissons Ratio (y) = 0.18424 0.15484
# Poissons Ratio (z) = 0.32887 0.11171
#
# Static dielectric constant tensor:
#      x y z
#    x 4.179540 0.000000 0.000000 
#    y 0.000000 4.389520 0.000000 
#    z 0.000000 0.000000 4.909740 
# 
# 
# High freq. dielectric constant tensor:
#      x y z
#    x 1.898870 0.000000 0.000000 
#    y 0.000000 1.912970 0.000000 
#    z 0.000000 0.000000 1.943100 
# 
# From -- ./inp_files/29105.got.cif
#   From: 2010.06.25/outbox.cif.g09.slc.cpg/sg52_15_cif.got.tgz:29105.got - 2010.06.26 19:32:48.
