data_PCOD8216678
_publ_section_title
;
Structure prediction by ZEFSAII (Michael W. Deem and Ramdas Pophale) SiO2 
 PCOD8216678
Probable space group: P N N A
;
_chemical_formula_sum "Si O2"
_cell_formula_units_Z 44
_cell_length_a 10.325554
_cell_length_b 17.351383
_cell_length_c 11.243743
_cell_angle_alpha 90.000000
_cell_angle_beta 90.000000
_cell_angle_gamma 90.000000
_cell_volume 2014.458703
_symmetry_space_group_name_H-M "P N N A"
_symmetry_group_IT_number 52
_symmetry_cell_setting 'orthorhombic'
loop_
_space_group_symop_operation_xyz
x,y,z
1/2-x,-y,z
x,1/2-y,1/2-z
1/2-x,1/2+y,1/2-z
-x,-y,-z
1/2+x,y,-z
-x,1/2+y,1/2+z
1/2+x,1/2-y,1/2+z
loop_
_atom_site_type_symbol
_atom_site_label
_atom_site_fract_x
_atom_site_fract_y
_atom_site_fract_z
Si Si1 0.250000 0.000000 0.483147
Si Si2 0.902581 0.589773 0.558066
Si Si3 0.870481 0.355083 0.594906
Si Si4 0.471405 0.750000 0.750000
Si Si5 0.250000 0.500000 0.618182
Si Si6 0.565105 0.987159 0.729271
Si Si7 0.312741 0.600018 0.810244
O O1 0.375572 0.001350 0.400645
O O2 0.251018 0.079414 0.562449
O O3 0.778423 0.648985 0.548680
O O4 0.872906 0.516167 0.469815
O O5 0.919580 0.564704 0.694234
O O6 0.033855 0.628645 0.514761
O O7 0.866743 0.417857 0.700091
O O8 0.930382 0.276476 0.647166
O O9 0.375874 0.684108 0.802072
O O10 0.221854 0.578435 0.696659
O O11 0.416511 0.968684 0.708384
#
# Coordination Sequence:
#
# PCOD8216678 Si02
#       7
#     4   8   8   4   4   8   8
#     4  11  21  38  62  90 129 167 224 276 330 385
#     4  12  20  37  69  99 126 155 215 282 324 379
#     4  11  22  38  64  94 128 169 207 266 324 389
#     4  10  22  44  56  86 134 178 218 250 334 398
#     4  11  17  34  64  96 117 157 218 274 324 363
#     4  11  19  36  61  95 123 156 214 271 331 377
#     4  10  23  37  59  88 128 176 214 272 322 398
#
# _framework density 21.842093999999999
#
# number of rings (size 3 to 8) (size 9 to 14) (size 15 to 20)
#    0.000    1.091    7.273    2.182    0.000    0.000 
#    6.545    0.000    0.000    1.091    0.000    0.000 
#    0.000    0.000    0.000    0.000    0.000    0.000 
#
# Total GULP energy -545081.287931 kJ/mol
# GULP energy per Si atom -12388.211089 kJ/mol
# Density = 2.179238 g / cm^3
# Si number density = 21.842094 Si / 1000 Ang^3
#
#
#
# Elastic Constant Matrix: (Units=GPa)
#
#
# Indices 1 2 3 4 5 6 
#
# 1 83.4152 36.6057 34.2150 0.0000 0.0000 0.0000
# 2 36.6057 102.8226 47.7886 0.0000 0.0000 0.0000
# 3 34.2150 47.7886 147.0725 0.0000 0.0000 0.0000
# 4 0.0000 0.0000 0.0000 23.6151 0.0000 0.0000
# 5 0.0000 0.0000 0.0000 0.0000 23.7591 0.0000
# 6 0.0000 0.0000 0.0000 0.0000 0.0000 32.8440
#
#
#
# Elastic Compliance Matrix: (Units=1/GPa)
#
#
# Indices 1 2 3 4 5 6 
#
# 1 0.014703 -0.004293 -0.002026 0.000000 0.000000 0.000000
# 2 -0.004293 0.012709 -0.003131 0.000000 0.000000 0.000000
# 3 -0.002026 -0.003131 0.008288 0.000000 0.000000 0.000000
# 4 0.000000 0.000000 0.000000 0.042346 0.000000 0.000000
# 5 0.000000 0.000000 0.000000 0.000000 0.042089 0.000000
# 6 0.000000 0.000000 0.000000 0.000000 0.000000 0.030447
#
#
# Mechanical properties :
#
#
# Convention : Reuss Voigt Hill
#
# Bulk Modulus (GPa) = 59.52001 63.39210 61.45606
# Shear Modulus (GPa) = 28.55825 30.35705 29.45765
#
# Velocity S-wave (km/s) = 3.61984 3.73210 3.67640
# Velocity P-wave (km/s) = 6.69181 6.90343 6.79844
#
# Compressibility (1/GPa) = 0.01680107
#
# Stress axis : x y z
#
# Youngs Moduli (GPa) = 68.01345 78.68484 120.65774
#
# Poissons Ratio (x) = 0.33779 0.24440
# Poissons Ratio (y) = 0.29198 0.37776
# Poissons Ratio (z) = 0.13777 0.24635
#
# Static dielectric constant tensor:
#      x y z
#    x 4.167920 0.000000 0.000000 
#    y 0.000000 3.579270 0.000000 
#    z 0.000000 0.000000 4.228460 
# 
# 
# High freq. dielectric constant tensor:
#      x y z
#    x 1.873730 0.000000 0.000000 
#    y 0.000000 1.800910 0.000000 
#    z 0.000000 0.000000 1.872350 
# 
# From -- ./inp_files/16910.got.cif
#   From: 2010.06.25/outbox.cif.g09.slc.cpg/sg52_9_cif.got.tgz:16910.got - 2010.06.26 19:32:48.
