data_PCOD8216763
_publ_section_title
;
Structure prediction by ZEFSAII (Michael W. Deem and Ramdas Pophale) SiO2 
 PCOD8216763
Probable space group: P N N A
;
_chemical_formula_sum "Si O2"
_cell_formula_units_Z 48
_cell_length_a 14.381424
_cell_length_b 17.266796
_cell_length_c 9.279442
_cell_angle_alpha 90.000000
_cell_angle_beta 90.000000
_cell_angle_gamma 90.000000
_cell_volume 2304.281378
_symmetry_space_group_name_H-M "P N N A"
_symmetry_group_IT_number 52
_symmetry_cell_setting 'orthorhombic'
loop_
_space_group_symop_operation_xyz
x,y,z
1/2-x,-y,z
x,1/2-y,1/2-z
1/2-x,1/2+y,1/2-z
-x,-y,-z
1/2+x,y,-z
-x,1/2+y,1/2+z
1/2+x,1/2-y,1/2+z
loop_
_atom_site_type_symbol
_atom_site_label
_atom_site_fract_x
_atom_site_fract_y
_atom_site_fract_z
Si Si1 0.324418 0.936070 0.973470
Si Si2 0.429903 0.230628 0.083158
Si Si3 0.583648 0.153595 0.471568
Si Si4 0.152244 0.465539 0.207828
Si Si5 0.244937 0.270928 0.592387
Si Si6 0.006040 0.079344 0.810105
O O1 0.302279 0.854722 0.898816
O O2 0.422142 0.969323 0.909933
O O3 0.250000 0.000000 0.930471
O O4 0.325755 0.920564 0.144740
O O5 0.421279 0.250000 0.250000
O O6 0.493685 0.292443 0.996740
O O7 0.473104 0.145319 0.077961
O O8 0.328799 0.230383 0.017453
O O9 0.601240 0.091300 0.597041
O O10 0.672510 0.207741 0.461484
O O11 0.567045 0.110054 0.322547
O O12 0.250000 0.500000 0.144797
O O13 0.081879 0.534487 0.246855
O O14 0.282483 0.250000 0.750000
#
# Coordination Sequence:
#
# PCOD8216763 Si02
#       6
#     8   8   8   8   8   8
#     4  11  24  43  69 100 136 183 226 279 342 408
#     4  10  23  41  72  96 134 178 222 281 346 402
#     4  11  24  44  68 101 134 179 224 283 345 410
#     4  11  26  42  69 102 136 177 235 281 342 410
#     4  12  24  45  67 100 137 174 230 281 340 406
#     4  11  22  48  67  96 139 181 219 283 348 404
#
# _framework density 20.830788999999999
#
# number of rings (size 3 to 8) (size 9 to 14) (size 15 to 20)
#    0.000    1.000    3.333    3.500    7.000    3.333 
#    0.000    0.000    0.000    0.000    0.000    0.000 
#    0.000    0.000    0.000    0.000    0.000    0.000 
#
# Total GULP energy -595174.847240 kJ/mol
# GULP energy per Si atom -12399.475984 kJ/mol
# Density = 2.078338 g / cm^3
# Si number density = 20.830789 Si / 1000 Ang^3
#
#
#
# Elastic Constant Matrix: (Units=GPa)
#
#
# Indices 1 2 3 4 5 6 
#
# 1 154.2700 46.1840 48.3461 0.0000 0.0000 0.0000
# 2 46.1840 97.9337 39.2854 0.0000 0.0000 0.0000
# 3 48.3461 39.2854 52.7254 0.0000 0.0000 0.0000
# 4 0.0000 0.0000 0.0000 87.9958 0.0000 0.0000
# 5 0.0000 0.0000 0.0000 0.0000 128.3267 0.0000
# 6 0.0000 0.0000 0.0000 0.0000 0.0000 42.8515
#
#
#
# Elastic Compliance Matrix: (Units=1/GPa)
#
#
# Indices 1 2 3 4 5 6 
#
# 1 0.009222 -0.001365 -0.007439 0.000000 0.000000 0.000000
# 2 -0.001365 0.014766 -0.009751 0.000000 0.000000 0.000000
# 3 -0.007439 -0.009751 0.033053 0.000000 0.000000 0.000000
# 4 0.000000 0.000000 0.000000 0.011364 0.000000 0.000000
# 5 0.000000 0.000000 0.000000 0.000000 0.007793 0.000000
# 6 0.000000 0.000000 0.000000 0.000000 0.000000 0.023336
#
#
# Mechanical properties :
#
#
# Convention : Reuss Voigt Hill
#
# Bulk Modulus (GPa) = 50.17194 63.61779 56.89486
# Shear Modulus (GPa) = 34.89503 63.24238 49.06870
#
# Velocity S-wave (km/s) = 4.09732 5.51597 4.85870
# Velocity P-wave (km/s) = 6.82069 8.43650 7.67126
#
# Compressibility (1/GPa) = 0.01993146
#
# Stress axis : x y z
#
# Youngs Moduli (GPa) = 108.43560 67.72313 30.25480
#
# Poissons Ratio (x) = 0.09243 0.22507
# Poissons Ratio (y) = 0.14799 0.29500
# Poissons Ratio (z) = 0.80667 0.66034
#
# Static dielectric constant tensor:
#      x y z
#    x 3.948120 0.000000 0.000000 
#    y 0.000000 4.054080 0.000000 
#    z 0.000000 0.000000 3.736220 
# 
# 
# High freq. dielectric constant tensor:
#      x y z
#    x 1.837160 0.000000 0.000000 
#    y 0.000000 1.818390 0.000000 
#    z 0.000000 0.000000 1.811380 
# 
# From -- ./inp_files/10441.got.cif
#   From: 2010.06.25/outbox.cif.g09.slc.cpg/sg52_6_cif.got.tgz:10441.got - 2010.06.26 19:32:48.
