data_PCOD8216800
_publ_section_title
;
Structure prediction by ZEFSAII (Michael W. Deem and Ramdas Pophale) SiO2 
 PCOD8216800
Probable space group: P N N A
;
_chemical_formula_sum "Si O2"
_cell_formula_units_Z 24
_cell_length_a 14.013992
_cell_length_b 13.968561
_cell_length_c 5.343189
_cell_angle_alpha 90.000000
_cell_angle_beta 90.000000
_cell_angle_gamma 90.000000
_cell_volume 1045.957577
_symmetry_space_group_name_H-M "P N N A"
_symmetry_group_IT_number 52
_symmetry_cell_setting 'orthorhombic'
loop_
_space_group_symop_operation_xyz
x,y,z
1/2-x,-y,z
x,1/2-y,1/2-z
1/2-x,1/2+y,1/2-z
-x,-y,-z
1/2+x,y,-z
-x,1/2+y,1/2+z
1/2+x,1/2-y,1/2+z
loop_
_atom_site_type_symbol
_atom_site_label
_atom_site_fract_x
_atom_site_fract_y
_atom_site_fract_z
Si Si1 0.965875 0.250000 0.750000
Si Si2 0.044735 0.043663 0.754671
Si Si3 0.750000 0.000000 0.376320
Si Si4 0.281942 0.292767 0.005859
O O1 0.033194 0.157856 0.764855
O O2 0.894120 0.262044 0.987980
O O3 0.156486 0.020422 0.787620
O O4 0.000000 0.000000 0.500000
O O5 0.000000 0.000000 0.000000
O O6 0.729295 0.906451 0.542026
O O7 0.227449 0.250000 0.250000
O O8 0.237720 0.250000 0.750000
#
# Coordination Sequence:
#
# PCOD8216800 Si02
#       4
#     4   8   4   8
#     4  10  24  48  70 102 146 192 238 306 366 426
#     4  12  27  48  74 106 151 193 245 308 370 438
#     4  12  26  48  76 112 146 202 248 306 370 448
#     4  10  23  43  70 102 145 183 244 298 356 440
#
# _framework density 22.945482999999999
#
# number of rings (size 3 to 8) (size 9 to 14) (size 15 to 20)
#    1.000    0.000    3.333    2.000    2.333    5.333 
#    0.000    0.000    0.000    0.000    0.000    0.000 
#    0.000    0.000    0.000    0.000    0.000    0.000 
#
# Total GULP energy -297343.250231 kJ/mol
# GULP energy per Si atom -12389.302093 kJ/mol
# Density = 2.289326 g / cm^3
# Si number density = 22.945483 Si / 1000 Ang^3
#
#
#
# Elastic Constant Matrix: (Units=GPa)
#
#
# Indices 1 2 3 4 5 6 
#
# 1 139.1871 44.6676 48.2870 0.0000 0.0000 0.0000
# 2 44.6676 238.7006 88.5282 0.0000 0.0000 0.0000
# 3 48.2870 88.5282 185.1999 0.0000 0.0000 0.0000
# 4 0.0000 0.0000 0.0000 31.3231 0.0000 0.0000
# 5 0.0000 0.0000 0.0000 0.0000 8.7516 0.0000
# 6 0.0000 0.0000 0.0000 0.0000 0.0000 44.6097
#
#
#
# Elastic Compliance Matrix: (Units=1/GPa)
#
#
# Indices 1 2 3 4 5 6 
#
# 1 0.008050 -0.000885 -0.001676 0.000000 0.000000 0.000000
# 2 -0.000885 0.005189 -0.002250 0.000000 0.000000 0.000000
# 3 -0.001676 -0.002250 0.006912 0.000000 0.000000 0.000000
# 4 0.000000 0.000000 0.000000 0.031925 0.000000 0.000000
# 5 0.000000 0.000000 0.000000 0.000000 0.114264 0.000000
# 6 0.000000 0.000000 0.000000 0.000000 0.000000 0.022417
#
#
# Mechanical properties :
#
#
# Convention : Reuss Voigt Hill
#
# Bulk Modulus (GPa) = 94.96599 102.89479 98.93039
# Shear Modulus (GPa) = 24.76612 42.37721 33.57167
#
# Velocity S-wave (km/s) = 3.28890 4.30218 3.82921
# Velocity P-wave (km/s) = 7.47663 8.34379 7.92209
#
# Compressibility (1/GPa) = 0.01053009
#
# Stress axis : x y z
#
# Youngs Moduli (GPa) = 124.22463 192.70236 144.67589
#
# Poissons Ratio (x) = 0.17051 0.24246
# Poissons Ratio (y) = 0.10992 0.32550
# Poissons Ratio (z) = 0.20819 0.43356
#
# Static dielectric constant tensor:
#      x y z
#    x 4.116550 0.000000 0.000000 
#    y 0.000000 4.282690 0.000000 
#    z 0.000000 0.000000 3.795980 
# 
# 
# High freq. dielectric constant tensor:
#      x y z
#    x 1.899220 0.000000 0.000000 
#    y 0.000000 1.930490 0.000000 
#    z 0.000000 0.000000 1.887660 
# 
# From -- ./inp_files/1720.got.cif
#   From: 2010.06.25/outbox.cif.g09.slc.cpg/sg52_1_cif.got.tgz:1720.got - 2010.06.26 19:32:48.
