data_PCOD8216840
_publ_section_title
;
Structure prediction by ZEFSAII (Michael W. Deem and Ramdas Pophale) SiO2 
 PCOD8216840
Probable space group: P N N A
;
_chemical_formula_sum "Si O2"
_cell_formula_units_Z 48
_cell_length_a 9.214016
_cell_length_b 13.497084
_cell_length_c 17.833738
_cell_angle_alpha 90.000000
_cell_angle_beta 90.000000
_cell_angle_gamma 90.000000
_cell_volume 2217.845530
_symmetry_space_group_name_H-M "P N N A"
_symmetry_group_IT_number 52
_symmetry_cell_setting 'orthorhombic'
loop_
_space_group_symop_operation_xyz
x,y,z
1/2-x,-y,z
x,1/2-y,1/2-z
1/2-x,1/2+y,1/2-z
-x,-y,-z
1/2+x,y,-z
-x,1/2+y,1/2+z
1/2+x,1/2-y,1/2+z
loop_
_atom_site_type_symbol
_atom_site_label
_atom_site_fract_x
_atom_site_fract_y
_atom_site_fract_z
Si Si1 0.264062 0.612843 0.954550
Si Si2 0.423445 0.488018 0.698884
Si Si3 0.074724 0.333846 0.391168
Si Si4 0.024192 0.768021 0.468326
Si Si5 0.609027 0.824921 0.310530
Si Si6 0.884702 0.177671 0.819702
O O1 0.250000 0.500000 0.979765
O O2 0.431657 0.631974 0.969043
O O3 0.226862 0.631931 0.867621
O O4 0.180749 0.694816 0.004598
O O5 0.250000 0.500000 0.694045
O O6 0.475428 0.429636 0.624958
O O7 0.463573 0.418684 0.769646
O O8 0.516000 0.587540 0.709711
O O9 0.236606 0.356985 0.361323
O O10 0.053224 0.316114 0.480066
O O11 0.020055 0.233051 0.351586
O O12 0.022110 0.730294 0.383628
O O13 0.684783 0.750000 0.250000
O O14 0.851118 0.250000 0.750000
#
# Coordination Sequence:
#
# PCOD8216840 Si02
#       6
#     8   8   8   8   8   8
#     4  11  23  42  68  96 138 178 230 276 340 405
#     4  11  25  40  69 105 132 179 227 282 346 405
#     4  10  23  49  67  94 140 183 223 283 339 407
#     4  11  25  44  67  99 136 182 223 286 338 402
#     4   9  21  40  70  95 138 173 219 277 348 394
#     4  12  27  43  70 101 139 179 232 279 343 409
#
# _framework density 21.642624000000001
#
# number of rings (size 3 to 8) (size 9 to 14) (size 15 to 20)
#    0.000    1.333    1.667    3.000   11.667    0.667 
#    0.000    0.000    0.000    0.000    0.000    0.000 
#    0.000    0.000    0.000    0.000    0.000    0.000 
#
# Total GULP energy -594986.460399 kJ/mol
# GULP energy per Si atom -12395.551258 kJ/mol
# Density = 2.159336 g / cm^3
# Si number density = 21.642624 Si / 1000 Ang^3
#
#
#
# Elastic Constant Matrix: (Units=GPa)
#
#
# Indices 1 2 3 4 5 6 
#
# 1 93.2987 20.0495 -2.1534 0.0000 0.0000 0.0000
# 2 20.0495 93.3740 18.1194 0.0000 0.0000 0.0000
# 3 -2.1534 18.1194 98.2499 0.0000 0.0000 0.0000
# 4 0.0000 0.0000 0.0000 17.8135 0.0000 0.0000
# 5 0.0000 0.0000 0.0000 0.0000 15.1013 0.0000
# 6 0.0000 0.0000 0.0000 0.0000 0.0000 36.2223
#
#
#
# Elastic Compliance Matrix: (Units=1/GPa)
#
#
# Indices 1 2 3 4 5 6 
#
# 1 0.011286 -0.002563 0.000720 0.000000 0.000000 0.000000
# 2 -0.002563 0.011689 -0.002212 0.000000 0.000000 0.000000
# 3 0.000720 -0.002212 0.010602 0.000000 0.000000 0.000000
# 4 0.000000 0.000000 0.000000 0.056137 0.000000 0.000000
# 5 0.000000 0.000000 0.000000 0.000000 0.066219 0.000000
# 6 0.000000 0.000000 0.000000 0.000000 0.000000 0.027607
#
#
# Mechanical properties :
#
#
# Convention : Reuss Voigt Hill
#
# Bulk Modulus (GPa) = 39.26670 39.66154 39.46412
# Shear Modulus (GPa) = 24.98261 30.42123 27.70192
#
# Velocity S-wave (km/s) = 3.40122 3.75322 3.58155
# Velocity P-wave (km/s) = 5.79716 6.09489 5.94789
#
# Compressibility (1/GPa) = 0.02546687
#
# Stress axis : x y z
#
# Youngs Moduli (GPa) = 88.60804 85.54920 94.32332
#
# Poissons Ratio (x) = 0.21926 -0.06792
# Poissons Ratio (y) = 0.22710 0.20864
# Poissons Ratio (z) = -0.06380 0.18923
#
# Static dielectric constant tensor:
#      x y z
#    x 3.806340 0.000000 0.000000 
#    y 0.000000 3.881840 0.000000 
#    z 0.000000 0.000000 4.056440 
# 
# 
# High freq. dielectric constant tensor:
#      x y z
#    x 1.849950 0.000000 0.000000 
#    y 0.000000 1.850050 0.000000 
#    z 0.000000 0.000000 1.853610 
# 
# From -- ./inp_files/31258.got.cif
#   From: 2010.06.25/outbox.cif.g09.slc.cpg/sg52_16_cif.got.tgz:31258.got - 2010.06.26 19:32:48.
