data_PCOD8216303
_publ_section_title
;
Structure prediction by ZEFSAII (Michael W. Deem and Ramdas Pophale) SiO2 
 PCOD8216303
Probable space group: P N N A
;
_chemical_formula_sum "Si O2"
_cell_formula_units_Z 64
_cell_length_a 22.644343
_cell_length_b 16.219680
_cell_length_c 8.410637
_cell_angle_alpha 90.000000
_cell_angle_beta 90.000000
_cell_angle_gamma 90.000000
_cell_volume 3089.092377
_symmetry_space_group_name_H-M "P N N A"
_symmetry_group_IT_number 52
_symmetry_cell_setting 'orthorhombic'
loop_
_space_group_symop_operation_xyz
x,y,z
1/2-x,-y,z
x,1/2-y,1/2-z
1/2-x,1/2+y,1/2-z
-x,-y,-z
1/2+x,y,-z
-x,1/2+y,1/2+z
1/2+x,1/2-y,1/2+z
loop_
_atom_site_type_symbol
_atom_site_label
_atom_site_fract_x
_atom_site_fract_y
_atom_site_fract_z
Si Si1 0.724254 0.085012 0.398979
Si Si2 0.155136 0.838124 0.671536
Si Si3 0.926692 0.188907 0.614654
Si Si4 0.577976 0.075155 0.893095
Si Si5 0.644319 0.174529 0.642985
Si Si6 0.377904 0.990679 0.802353
Si Si7 0.501017 0.968076 0.678288
Si Si8 0.045945 0.240371 0.938227
O O1 0.775254 0.143030 0.328247
O O2 0.696607 0.138214 0.539113
O O3 0.750000 0.000000 0.471961
O O4 0.679229 0.059897 0.258263
O O5 0.142968 0.750000 0.750000
O O6 0.128099 0.836688 0.494620
O O7 0.123306 0.911976 0.765378
O O8 0.902059 0.250000 0.750000
O O9 0.955696 0.109335 0.698181
O O10 0.979517 0.232257 0.515227
O O11 0.622504 0.102373 0.756643
O O12 0.521767 0.033896 0.809513
O O13 0.553600 0.147574 0.004456
O O14 0.615906 0.015255 0.007157
O O15 0.668366 0.250000 0.750000
O O16 0.590725 0.201348 0.531173
O O17 0.433488 0.946625 0.717778
O O18 0.500000 0.000000 0.500000
O O19 0.056643 0.250000 0.750000
#
# Coordination Sequence:
#
# PCOD8216303 Si02
#       8
#     8   8   8   8   8   8   8   8
#     4  10  23  46  65  85 123 173 232 272 330 387
#     4  11  27  42  66  92 126 181 218 281 335 393
#     4  11  24  40  62  95 137 175 215 272 336 408
#     4  11  24  37  67 106 130 171 211 271 332 403
#     4  10  22  39  65  97 125 163 217 275 332 387
#     4  11  23  43  67  94 132 172 224 272 325 399
#     4  12  23  40  67 101 138 179 214 265 338 404
#     4  10  21  40  65  97 134 174 211 266 335 398
#
# _framework density 20.718057999999999
#
# number of rings (size 3 to 8) (size 9 to 14) (size 15 to 20)
#    0.000    1.250    1.250    4.875    5.250    3.500 
#    0.000    3.750    0.000    0.000    0.000    0.000 
#    0.000    0.000    0.000    0.000    0.000    0.000 
#
# Total GULP energy -793649.153298 kJ/mol
# GULP energy per Si atom -12400.768020 kJ/mol
# Density = 2.067090 g / cm^3
# Si number density = 20.718058 Si / 1000 Ang^3
#
#
#
# Elastic Constant Matrix: (Units=GPa)
#
#
# Indices 1 2 3 4 5 6 
#
# 1 107.1211 40.7747 56.7415 0.0000 0.0000 0.0000
# 2 40.7747 113.3616 60.2598 0.0000 0.0000 0.0000
# 3 56.7415 60.2598 130.7380 0.0000 0.0000 0.0000
# 4 0.0000 0.0000 0.0000 35.8381 0.0000 0.0000
# 5 0.0000 0.0000 0.0000 0.0000 19.4416 0.0000
# 6 0.0000 0.0000 0.0000 0.0000 0.0000 22.6853
#
#
#
# Elastic Compliance Matrix: (Units=1/GPa)
#
#
# Indices 1 2 3 4 5 6 
#
# 1 0.012500 -0.002136 -0.004441 0.000000 0.000000 0.000000
# 2 -0.002136 0.012049 -0.004627 0.000000 0.000000 0.000000
# 3 -0.004441 -0.004627 0.011709 0.000000 0.000000 0.000000
# 4 0.000000 0.000000 0.000000 0.027903 0.000000 0.000000
# 5 0.000000 0.000000 0.000000 0.000000 0.051436 0.000000
# 6 0.000000 0.000000 0.000000 0.000000 0.000000 0.044081
#
#
# Mechanical properties :
#
#
# Convention : Reuss Voigt Hill
#
# Bulk Modulus (GPa) = 72.19340 74.08585 73.13963
# Shear Modulus (GPa) = 26.78052 28.48931 27.63492
#
# Velocity S-wave (km/s) = 3.59920 3.71225 3.65616
# Velocity P-wave (km/s) = 7.22451 7.36282 7.29399
#
# Compressibility (1/GPa) = 0.01385168
#
# Stress axis : x y z
#
# Youngs Moduli (GPa) = 79.99690 82.99513 85.40527
#
# Poissons Ratio (x) = 0.17724 0.37929
# Poissons Ratio (y) = 0.17084 0.39515
# Poissons Ratio (z) = 0.35527 0.38400
#
# Static dielectric constant tensor:
#      x y z
#    x 3.753440 0.000000 0.000000 
#    y 0.000000 4.036050 0.000000 
#    z 0.000000 0.000000 3.536620 
# 
# 
# High freq. dielectric constant tensor:
#      x y z
#    x 1.801120 0.000000 0.000000 
#    y 0.000000 1.828050 0.000000 
#    z 0.000000 0.000000 1.813280 
# 
# From -- ./inp_files/13588.got.cif
#   From: 2010.06.25/outbox.cif.g09.slc.cpg/sg52_7_cif.got.tgz:13588.got - 2010.06.26 19:32:48.
