data_PCOD8216994
_publ_section_title
;
Structure prediction by ZEFSAII (Michael W. Deem and Ramdas Pophale) SiO2 
 PCOD8216994
Probable space group: P N N A
;
_chemical_formula_sum "Si O2"
_cell_formula_units_Z 32
_cell_length_a 33.310997
_cell_length_b 4.951645
_cell_length_c 10.022872
_cell_angle_alpha 90.000000
_cell_angle_beta 90.000000
_cell_angle_gamma 90.000000
_cell_volume 1653.214922
_symmetry_space_group_name_H-M "P N N A"
_symmetry_group_IT_number 52
_symmetry_cell_setting 'orthorhombic'
loop_
_space_group_symop_operation_xyz
x,y,z
1/2-x,-y,z
x,1/2-y,1/2-z
1/2-x,1/2+y,1/2-z
-x,-y,-z
1/2+x,y,-z
-x,1/2+y,1/2+z
1/2+x,1/2-y,1/2+z
loop_
_atom_site_type_symbol
_atom_site_label
_atom_site_fract_x
_atom_site_fract_y
_atom_site_fract_z
Si Si1 0.978870 0.750000 0.750000
Si Si2 0.126000 0.791876 0.407534
Si Si3 0.079455 0.199138 0.014229
Si Si4 0.207229 0.504131 0.155044
Si Si5 0.467757 0.750000 0.750000
O O1 0.952575 0.869537 0.870850
O O2 0.005783 0.501226 0.800678
O O3 0.121941 0.750000 0.250000
O O4 0.117721 0.502930 0.475920
O O5 0.092950 0.994104 0.464838
O O6 0.169964 0.917949 0.441614
O O7 0.060013 0.154163 0.870995
O O8 0.250000 0.500000 0.074021
O O9 0.196084 0.250000 0.250000
O O10 0.215889 0.750000 0.250000
#
# Coordination Sequence:
#
# PCOD8216994 Si02
#       5
#     4   8   8   8   4
#     4  12  22  42  58  80 106 144 192 238 286 330
#     4  11  19  35  56  83 112 147 183 223 273 332
#     4  12  23  38  59  81 110 147 186 231 280 329
#     4   9  17  29  49  81 118 146 174 220 276 324
#     4  12  26  40  56  82 110 144 190 238 284 332
#
# _framework density 19.356224999999998
#
# number of rings (size 3 to 8) (size 9 to 14) (size 15 to 20)
#    0.000    1.000    2.500    7.500    0.000    0.000 
#    0.000    0.000    0.000    0.000    0.000    3.500 
#    0.000    2.000    0.000    0.000    0.000    0.000 
#
# Total GULP energy -396644.247751 kJ/mol
# GULP energy per Si atom -12395.132742 kJ/mol
# Density = 1.931217 g / cm^3
# Si number density = 19.356225 Si / 1000 Ang^3
#
#
#
# Elastic Constant Matrix: (Units=GPa)
#
#
# Indices 1 2 3 4 5 6 
#
# 1 119.4482 31.6827 40.5472 0.0000 0.0000 0.0000
# 2 31.6827 109.0646 10.9627 0.0000 0.0000 0.0000
# 3 40.5472 10.9627 79.0107 0.0000 0.0000 0.0000
# 4 0.0000 0.0000 0.0000 19.7826 0.0000 0.0000
# 5 0.0000 0.0000 0.0000 0.0000 2.7528 0.0000
# 6 0.0000 0.0000 0.0000 0.0000 0.0000 41.4245
#
#
#
# Elastic Compliance Matrix: (Units=1/GPa)
#
#
# Indices 1 2 3 4 5 6 
#
# 1 0.010831 -0.002624 -0.005194 0.000000 0.000000 0.000000
# 2 -0.002624 0.009934 -0.000032 0.000000 0.000000 0.000000
# 3 -0.005194 -0.000032 0.015327 0.000000 0.000000 0.000000
# 4 0.000000 0.000000 0.000000 0.050549 0.000000 0.000000
# 5 0.000000 0.000000 0.000000 0.000000 0.363260 0.000000
# 6 0.000000 0.000000 0.000000 0.000000 0.000000 0.024140
#
#
# Mechanical properties :
#
#
# Convention : Reuss Voigt Hill
#
# Bulk Modulus (GPa) = 49.03962 52.65650 50.84806
# Shear Modulus (GPa) = 10.06970 27.74739 18.90854
#
# Velocity S-wave (km/s) = 2.28333 3.79028 3.12888
# Velocity P-wave (km/s) = 5.68698 6.81307 6.27534
#
# Compressibility (1/GPa) = 0.02039167
#
# Stress axis : x y z
#
# Youngs Moduli (GPa) = 92.32669 100.66034 65.24639
#
# Poissons Ratio (x) = 0.26416 0.33891
# Poissons Ratio (y) = 0.24229 0.00206
# Poissons Ratio (z) = 0.47957 0.00319
#
# Static dielectric constant tensor:
#      x y z
#    x 4.167800 0.000000 0.000000 
#    y 0.000000 3.743250 0.000000 
#    z 0.000000 0.000000 3.054480 
# 
# 
# High freq. dielectric constant tensor:
#      x y z
#    x 1.768840 0.000000 0.000000 
#    y 0.000000 1.780870 0.000000 
#    z 0.000000 0.000000 1.687250 
# 
# From -- ./inp_files/15186.got.cif
#   From: 2010.06.25/outbox.cif.g09.slc.cpg/sg52_8_cif.got.tgz:15186.got - 2010.06.26 19:32:48.
