data_PCOD8216283
_publ_section_title
;
Structure prediction by ZEFSAII (Michael W. Deem and Ramdas Pophale) SiO2 
 PCOD8216283
Probable space group: P N N A
;
_chemical_formula_sum "Si O2"
_cell_formula_units_Z 48
_cell_length_a 11.613772
_cell_length_b 9.051443
_cell_length_c 22.574709
_cell_angle_alpha 90.000000
_cell_angle_beta 90.000000
_cell_angle_gamma 90.000000
_cell_volume 2373.084908
_symmetry_space_group_name_H-M "P N N A"
_symmetry_group_IT_number 52
_symmetry_cell_setting 'orthorhombic'
loop_
_space_group_symop_operation_xyz
x,y,z
1/2-x,-y,z
x,1/2-y,1/2-z
1/2-x,1/2+y,1/2-z
-x,-y,-z
1/2+x,y,-z
-x,1/2+y,1/2+z
1/2+x,1/2-y,1/2+z
loop_
_atom_site_type_symbol
_atom_site_label
_atom_site_fract_x
_atom_site_fract_y
_atom_site_fract_z
Si Si1 0.045626 0.659026 0.517585
Si Si2 0.278644 0.333523 0.618996
Si Si3 0.387088 0.332757 0.093869
Si Si4 0.129888 0.336177 0.095147
Si Si5 0.960009 0.336714 0.192348
Si Si6 0.580233 0.169521 0.313945
O O1 0.171268 0.667846 0.550984
O O2 0.048317 0.743757 0.456350
O O3 0.000000 0.500000 0.500000
O O4 0.945183 0.726031 0.557006
O O5 0.250000 0.500000 0.637147
O O6 0.381425 0.277853 0.658317
O O7 0.169419 0.230024 0.635804
O O8 0.257983 0.271590 0.101714
O O9 0.378126 0.499143 0.068595
O O10 0.454736 0.312039 0.156113
O O11 0.081837 0.355084 0.161034
O O12 0.992454 0.250000 0.250000
O O13 0.896686 0.495686 0.198948
O O14 0.589354 0.250000 0.250000
#
# Coordination Sequence:
#
# PCOD8216283 Si02
#       6
#     8   8   8   8   8   8
#     4  11  24  39  62  90 126 163 206 263 316 370
#     4  11  23  39  60  91 125 164 204 257 315 374
#     4  10  22  41  64  86 124 163 212 252 311 377
#     4   9  22  42  60  89 118 165 212 253 304 381
#     4  10  21  40  63  88 124 164 207 258 311 371
#     4  11  23  40  64  94 126 163 210 259 317 377
#
# _framework density 20.226837
#
# number of rings (size 3 to 8) (size 9 to 14) (size 15 to 20)
#    0.000    1.667    0.000    3.500    4.667    2.000 
#    6.000    0.000    0.000    0.000    0.000    0.000 
#    0.000    0.000    0.000    0.000    0.000    0.000 
#
# Total GULP energy -594730.063656 kJ/mol
# GULP energy per Si atom -12390.209660 kJ/mol
# Density = 2.018080 g / cm^3
# Si number density = 20.226837 Si / 1000 Ang^3
#
#
#
# Elastic Constant Matrix: (Units=GPa)
#
#
# Indices 1 2 3 4 5 6 
#
# 1 112.2718 31.8621 39.8112 0.0000 0.0000 0.0000
# 2 31.8621 119.1776 53.0531 0.0000 0.0000 0.0000
# 3 39.8112 53.0531 105.7514 0.0000 0.0000 0.0000
# 4 0.0000 0.0000 0.0000 31.0876 0.0000 0.0000
# 5 0.0000 0.0000 0.0000 0.0000 26.8740 0.0000
# 6 0.0000 0.0000 0.0000 0.0000 0.0000 19.8113
#
#
#
# Elastic Compliance Matrix: (Units=1/GPa)
#
#
# Indices 1 2 3 4 5 6 
#
# 1 0.010443 -0.001341 -0.003258 0.000000 0.000000 0.000000
# 2 -0.001341 0.010976 -0.005001 0.000000 0.000000 0.000000
# 3 -0.003258 -0.005001 0.013192 0.000000 0.000000 0.000000
# 4 0.000000 0.000000 0.000000 0.032167 0.000000 0.000000
# 5 0.000000 0.000000 0.000000 0.000000 0.037211 0.000000
# 6 0.000000 0.000000 0.000000 0.000000 0.000000 0.050476
#
#
# Mechanical properties :
#
#
# Convention : Reuss Voigt Hill
#
# Bulk Modulus (GPa) = 64.89972 65.18373 65.04173
# Shear Modulus (GPa) = 27.96367 29.71954 28.84160
#
# Velocity S-wave (km/s) = 3.72224 3.83732 3.78022
# Velocity P-wave (km/s) = 7.11541 7.20623 7.16096
#
# Compressibility (1/GPa) = 0.01540839
#
# Stress axis : x y z
#
# Youngs Moduli (GPa) = 95.75719 91.10889 75.80413
#
# Poissons Ratio (x) = 0.12222 0.24700
# Poissons Ratio (y) = 0.12845 0.37912
# Poissons Ratio (z) = 0.31202 0.45567
#
# Static dielectric constant tensor:
#      x y z
#    x 3.923750 0.000000 0.000000 
#    y 0.000000 3.780620 0.000000 
#    z 0.000000 0.000000 3.856020 
# 
# 
# High freq. dielectric constant tensor:
#      x y z
#    x 1.796410 0.000000 0.000000 
#    y 0.000000 1.800980 0.000000 
#    z 0.000000 0.000000 1.786700 
# 
# From -- ./inp_files/40145.got.cif
#   From: 2010.06.25/outbox.cif.g09.slc.cpg/sg52_21_cif.got.tgz:40145.got - 2010.06.26 19:32:48.
