data_PCOD8216391
_publ_section_title
;
Structure prediction by ZEFSAII (Michael W. Deem and Ramdas Pophale) SiO2 
 PCOD8216391
Probable space group: P N N A
;
_chemical_formula_sum "Si O2"
_cell_formula_units_Z 44
_cell_length_a 17.642673
_cell_length_b 14.565568
_cell_length_c 7.474328
_cell_angle_alpha 90.000000
_cell_angle_beta 90.000000
_cell_angle_gamma 90.000000
_cell_volume 1920.719573
_symmetry_space_group_name_H-M "P N N A"
_symmetry_group_IT_number 52
_symmetry_cell_setting 'orthorhombic'
loop_
_space_group_symop_operation_xyz
x,y,z
1/2-x,-y,z
x,1/2-y,1/2-z
1/2-x,1/2+y,1/2-z
-x,-y,-z
1/2+x,y,-z
-x,1/2+y,1/2+z
1/2+x,1/2-y,1/2+z
loop_
_atom_site_type_symbol
_atom_site_label
_atom_site_fract_x
_atom_site_fract_y
_atom_site_fract_z
Si Si1 0.255399 0.750000 0.250000
Si Si2 0.356100 0.144044 0.480592
Si Si3 0.486220 0.225223 0.045426
Si Si4 0.137734 0.139961 0.027386
Si Si5 0.619163 0.565754 0.600058
Si Si6 0.277213 0.148242 0.812993
O O1 0.202269 0.775750 0.417520
O O2 0.307667 0.665058 0.308059
O O3 0.434612 0.194703 0.546036
O O4 0.369913 0.075729 0.314692
O O5 0.314865 0.090365 0.646284
O O6 0.488358 0.250000 0.250000
O O7 0.571364 0.217020 0.971425
O O8 0.450940 0.123959 0.025418
O O9 0.185865 0.143391 0.839331
O O10 0.103381 0.039706 0.056427
O O11 0.692771 0.604905 0.498525
O O12 0.304011 0.250000 0.750000
#
# Coordination Sequence:
#
# PCOD8216391 Si02
#       6
#     4   8   8   8   8   8
#     4  12  22  42  66  92 134 174 222 270 334 396
#     4  11  21  44  69  92 129 190 219 256 344 420
#     4  10  21  42  70  94 134 185 218 268 342 406
#     4  12  25  40  65 108 133 166 230 293 323 381
#     4  11  23  45  66  97 136 178 221 271 338 402
#     4  12  21  39  70  94 129 174 228 272 331 397
#
# _framework density 22.908080999999999
#
# number of rings (size 3 to 8) (size 9 to 14) (size 15 to 20)
#    0.000    0.727    8.182    1.636    0.000    1.455 
#    6.545    0.000    0.000    5.455    0.000    0.000 
#    0.000    0.000    0.000    0.000    0.000    0.000 
#
# Total GULP energy -545136.040301 kJ/mol
# GULP energy per Si atom -12389.455461 kJ/mol
# Density = 2.285594 g / cm^3
# Si number density = 22.908081 Si / 1000 Ang^3
#
#
#
# Elastic Constant Matrix: (Units=GPa)
#
#
# Indices 1 2 3 4 5 6 
#
# 1 140.7811 17.1449 43.8528 0.0000 0.0000 0.0000
# 2 17.1449 59.7601 6.8863 0.0000 0.0000 0.0000
# 3 43.8528 6.8863 88.9479 0.0000 0.0000 0.0000
# 4 0.0000 0.0000 0.0000 14.2946 0.0000 0.0000
# 5 0.0000 0.0000 0.0000 0.0000 23.6152 0.0000
# 6 0.0000 0.0000 0.0000 0.0000 0.0000 24.0238
#
#
#
# Elastic Compliance Matrix: (Units=1/GPa)
#
#
# Indices 1 2 3 4 5 6 
#
# 1 0.008623 -0.002002 -0.004096 0.000000 0.000000 0.000000
# 2 -0.002002 0.017349 -0.000356 0.000000 0.000000 0.000000
# 3 -0.004096 -0.000356 0.013290 0.000000 0.000000 0.000000
# 4 0.000000 0.000000 0.000000 0.069957 0.000000 0.000000
# 5 0.000000 0.000000 0.000000 0.000000 0.042346 0.000000
# 6 0.000000 0.000000 0.000000 0.000000 0.000000 0.041625
#
#
# Mechanical properties :
#
#
# Convention : Reuss Voigt Hill
#
# Bulk Modulus (GPa) = 37.94652 47.25079 42.59865
# Shear Modulus (GPa) = 23.26854 27.16037 25.21445
#
# Velocity S-wave (km/s) = 3.19052 3.44702 3.32125
# Velocity P-wave (km/s) = 5.49301 6.04265 5.77438
#
# Compressibility (1/GPa) = 0.02635288
#
# Stress axis : x y z
#
# Youngs Moduli (GPa) = 115.96885 57.64042 75.24650
#
# Poissons Ratio (x) = 0.11539 0.30823
# Poissons Ratio (y) = 0.23216 0.02680
# Poissons Ratio (z) = 0.47504 0.02053
#
# Static dielectric constant tensor:
#      x y z
#    x 4.565360 0.000000 0.000000 
#    y 0.000000 3.752830 0.000000 
#    z 0.000000 0.000000 4.378330 
# 
# 
# High freq. dielectric constant tensor:
#      x y z
#    x 1.906860 0.000000 0.000000 
#    y 0.000000 1.874070 0.000000 
#    z 0.000000 0.000000 1.904200 
# 
# From -- ./inp_files/11937.got.cif
#   From: 2010.06.25/outbox.cif.g09.slc.cpg/sg52_6_cif.got.tgz:11937.got - 2010.06.26 19:32:48.
