data_PCOD8216746
_publ_section_title
;
Structure prediction by ZEFSAII (Michael W. Deem and Ramdas Pophale) SiO2 
 PCOD8216746
Probable space group: P N N A
;
_chemical_formula_sum "Si O2"
_cell_formula_units_Z 56
_cell_length_a 13.392480
_cell_length_b 15.409988
_cell_length_c 11.562727
_cell_angle_alpha 90.000000
_cell_angle_beta 90.000000
_cell_angle_gamma 90.000000
_cell_volume 2386.291965
_symmetry_space_group_name_H-M "P N N A"
_symmetry_group_IT_number 52
_symmetry_cell_setting 'orthorhombic'
loop_
_space_group_symop_operation_xyz
x,y,z
1/2-x,-y,z
x,1/2-y,1/2-z
1/2-x,1/2+y,1/2-z
-x,-y,-z
1/2+x,y,-z
-x,1/2+y,1/2+z
1/2+x,1/2-y,1/2+z
loop_
_atom_site_type_symbol
_atom_site_label
_atom_site_fract_x
_atom_site_fract_y
_atom_site_fract_z
Si Si1 0.334100 0.438129 0.114348
Si Si2 0.915249 0.705099 0.136557
Si Si3 0.757671 0.320575 0.433313
Si Si4 0.573355 0.696397 0.054090
Si Si5 0.790957 0.656309 0.695748
Si Si6 0.481667 0.564510 0.229725
Si Si7 0.841393 0.952700 0.239871
O O1 0.250000 0.500000 0.060141
O O2 0.353997 0.364332 0.020697
O O3 0.292199 0.394138 0.230952
O O4 0.433213 0.493792 0.142309
O O5 0.963756 0.750000 0.250000
O O6 0.806966 0.740270 0.108607
O O7 0.898444 0.604770 0.165508
O O8 0.982366 0.725010 0.026823
O O9 0.869955 0.285169 0.405544
O O10 0.752646 0.338279 0.568467
O O11 0.715669 0.404416 0.365691
O O12 0.530447 0.644684 0.161988
O O13 0.812599 0.750000 0.750000
O O14 0.894948 0.602864 0.688829
O O15 0.571576 0.519308 0.303583
O O16 0.750000 0.000000 0.305510
#
# Coordination Sequence:
#
# PCOD8216746 Si02
#       7
#     8   8   8   8   8   8   8
#     4  10  23  40  68 103 136 169 227 291 353 400
#     4  10  24  44  66 100 134 177 234 290 351 417
#     4  11  26  43  70 100 137 187 231 282 352 426
#     4  12  23  41  74 102 133 183 229 289 359 412
#     4  11  23  44  69 102 141 182 236 294 342 418
#     4  11  25  43  67 103 141 178 233 293 350 412
#     4  11  25  45  65  95 141 188 233 284 350 420
#
# _framework density 23.467369999999999
#
# number of rings (size 3 to 8) (size 9 to 14) (size 15 to 20)
#    0.000    1.143    2.857    2.143    4.000    5.143 
#    0.000    0.000    0.000    0.000    0.000    0.000 
#    0.000    0.000    0.000    0.000    0.000    0.000 
#
# Total GULP energy -694147.707025 kJ/mol
# GULP energy per Si atom -12395.494768 kJ/mol
# Density = 2.341396 g / cm^3
# Si number density = 23.467370 Si / 1000 Ang^3
#
#
#
# Elastic Constant Matrix: (Units=GPa)
#
#
# Indices 1 2 3 4 5 6 
#
# 1 118.2923 45.6947 14.6522 0.0000 0.0000 0.0000
# 2 45.6947 94.1749 18.8897 0.0000 0.0000 0.0000
# 3 14.6522 18.8897 64.7745 0.0000 0.0000 0.0000
# 4 0.0000 0.0000 0.0000 10.4396 0.0000 0.0000
# 5 0.0000 0.0000 0.0000 0.0000 5.4022 0.0000
# 6 0.0000 0.0000 0.0000 0.0000 0.0000 23.4474
#
#
#
# Elastic Compliance Matrix: (Units=1/GPa)
#
#
# Indices 1 2 3 4 5 6 
#
# 1 0.010457 -0.004885 -0.000941 0.000000 0.000000 0.000000
# 2 -0.004885 0.013560 -0.002849 0.000000 0.000000 0.000000
# 3 -0.000941 -0.002849 0.016482 0.000000 0.000000 0.000000
# 4 0.000000 0.000000 0.000000 0.095789 0.000000 0.000000
# 5 0.000000 0.000000 0.000000 0.000000 0.185110 0.000000
# 6 0.000000 0.000000 0.000000 0.000000 0.000000 0.042649
#
#
# Mechanical properties :
#
#
# Convention : Reuss Voigt Hill
#
# Bulk Modulus (GPa) = 43.19917 48.41276 45.80597
# Shear Modulus (GPa) = 12.84968 21.05818 16.95393
#
# Velocity S-wave (km/s) = 2.34253 2.99881 2.69075
# Velocity P-wave (km/s) = 5.07590 5.71534 5.40508
#
# Compressibility (1/GPa) = 0.02314859
#
# Stress axis : x y z
#
# Youngs Moduli (GPa) = 95.62705 73.74369 60.67245
#
# Poissons Ratio (x) = 0.36026 0.05708
# Poissons Ratio (y) = 0.46717 0.17288
# Poissons Ratio (z) = 0.08997 0.21013
#
# Static dielectric constant tensor:
#      x y z
#    x 4.456650 0.000000 0.000000 
#    y 0.000000 4.556860 0.000000 
#    z 0.000000 0.000000 4.131410 
# 
# 
# High freq. dielectric constant tensor:
#      x y z
#    x 1.946800 0.000000 0.000000 
#    y 0.000000 1.943290 0.000000 
#    z 0.000000 0.000000 1.905260 
# 
# From -- ./inp_files/19632.got.cif
#   From: 2010.06.25/outbox.cif.g09.slc.cpg/sg52_10_cif.got.tgz:19632.got - 2010.06.26 19:32:48.
