data_PCOD8216319
_publ_section_title
;
Structure prediction by ZEFSAII (Michael W. Deem and Ramdas Pophale) SiO2 
 PCOD8216319
Probable space group: P N N A
;
_chemical_formula_sum "Si O2"
_cell_formula_units_Z 40
_cell_length_a 5.536397
_cell_length_b 11.193440
_cell_length_c 26.534676
_cell_angle_alpha 90.000000
_cell_angle_beta 90.000000
_cell_angle_gamma 90.000000
_cell_volume 1644.389100
_symmetry_space_group_name_H-M "P N N A"
_symmetry_group_IT_number 52
_symmetry_cell_setting 'orthorhombic'
loop_
_space_group_symop_operation_xyz
x,y,z
1/2-x,-y,z
x,1/2-y,1/2-z
1/2-x,1/2+y,1/2-z
-x,-y,-z
1/2+x,y,-z
-x,1/2+y,1/2+z
1/2+x,1/2-y,1/2+z
loop_
_atom_site_type_symbol
_atom_site_label
_atom_site_fract_x
_atom_site_fract_y
_atom_site_fract_z
Si Si1 0.750000 0.500000 0.159847
Si Si2 0.909777 0.318829 0.891055
Si Si3 0.961305 0.792795 0.694815
Si Si4 0.015255 0.136520 0.018581
Si Si5 0.785936 0.363673 0.380919
Si Si6 0.750000 0.000000 0.531540
O O1 0.613865 0.415342 0.121004
O O2 0.571699 0.573974 0.196391
O O3 0.773495 0.291321 0.839416
O O4 0.742210 0.378706 0.934227
O O5 0.046208 0.195224 0.907148
O O6 0.886841 0.750000 0.750000
O O7 0.157922 0.702890 0.671103
O O8 0.008453 0.145997 0.079465
O O9 0.766857 0.199431 0.998038
O O10 0.000000 0.000000 0.000000
O O11 0.750000 0.500000 0.367041
O O12 0.500000 0.000000 0.500000
#
# Coordination Sequence:
#
# PCOD8216319 Si02
#       6
#     4   8   8   8   8   4
#     4  10  21  50  76  98 152 190 256 319 404 448
#     4  11  25  48  77 107 155 199 255 345 384 474
#     4  11  26  46  79 107 143 202 254 328 402 461
#     4  10  21  40  68  96 150 201 238 292 374 452
#     4  11  26  45  71 111 155 196 252 313 395 487
#     4  12  27  48  82 120 154 214 280 323 402 478
#
# _framework density 24.325140999999999
#
# number of rings (size 3 to 8) (size 9 to 14) (size 15 to 20)
#    0.000    1.200    4.000    0.600    7.000    5.600 
#    3.600    0.000    0.000    0.000    0.000    0.000 
#    0.000    0.000    0.000    0.000    0.000    0.000 
#
# Total GULP energy -495932.889941 kJ/mol
# GULP energy per Si atom -12398.322249 kJ/mol
# Density = 2.426978 g / cm^3
# Si number density = 24.325141 Si / 1000 Ang^3
#
#
#
# Elastic Constant Matrix: (Units=GPa)
#
#
# Indices 1 2 3 4 5 6 
#
# 1 150.8393 33.0369 41.5485 0.0000 0.0000 0.0000
# 2 33.0369 129.4842 30.2456 0.0000 0.0000 0.0000
# 3 41.5485 30.2456 134.4640 0.0000 0.0000 0.0000
# 4 0.0000 0.0000 0.0000 36.9806 0.0000 0.0000
# 5 0.0000 0.0000 0.0000 0.0000 39.2018 0.0000
# 6 0.0000 0.0000 0.0000 0.0000 0.0000 30.9159
#
#
#
# Elastic Compliance Matrix: (Units=1/GPa)
#
#
# Indices 1 2 3 4 5 6 
#
# 1 0.007495 -0.001447 -0.001990 0.000000 0.000000 0.000000
# 2 -0.001447 0.008431 -0.001449 0.000000 0.000000 0.000000
# 3 -0.001990 -0.001449 0.008378 0.000000 0.000000 0.000000
# 4 0.000000 0.000000 0.000000 0.027041 0.000000 0.000000
# 5 0.000000 0.000000 0.000000 0.000000 0.025509 0.000000
# 6 0.000000 0.000000 0.000000 0.000000 0.000000 0.032346
#
#
# Mechanical properties :
#
#
# Convention : Reuss Voigt Hill
#
# Bulk Modulus (GPa) = 68.82377 69.38328 69.10353
# Shear Modulus (GPa) = 40.38241 42.08343 41.23292
#
# Velocity S-wave (km/s) = 4.07887 4.16389 4.12159
# Velocity P-wave (km/s) = 7.10898 7.19044 7.14983
#
# Compressibility (1/GPa) = 0.01452986
#
# Stress axis : x y z
#
# Youngs Moduli (GPa) = 133.42599 118.61379 119.36181
#
# Poissons Ratio (x) = 0.17167 0.23756
# Poissons Ratio (y) = 0.19311 0.17297
# Poissons Ratio (z) = 0.26556 0.17189
#
# Static dielectric constant tensor:
#      x y z
#    x 5.086850 0.000000 0.000000 
#    y 0.000000 4.605430 0.000000 
#    z 0.000000 0.000000 4.113100 
# 
# 
# High freq. dielectric constant tensor:
#      x y z
#    x 1.979520 0.000000 0.000000 
#    y 0.000000 1.973450 0.000000 
#    z 0.000000 0.000000 1.950630 
# 
# From -- ./inp_files/41528.got.cif
#   From: 2010.06.25/outbox.cif.g09.slc.cpg/sg52_21_cif.got.tgz:41528.got - 2010.06.26 19:32:48.
