data_PCOD8216747
_publ_section_title
;
Structure prediction by ZEFSAII (Michael W. Deem and Ramdas Pophale) SiO2 
 PCOD8216747
Probable space group: P N N A
;
_chemical_formula_sum "Si O2"
_cell_formula_units_Z 32
_cell_length_a 8.872436
_cell_length_b 5.416162
_cell_length_c 28.829063
_cell_angle_alpha 90.000000
_cell_angle_beta 90.000000
_cell_angle_gamma 90.000000
_cell_volume 1385.367670
_symmetry_space_group_name_H-M "P N N A"
_symmetry_group_IT_number 52
_symmetry_cell_setting 'orthorhombic'
loop_
_space_group_symop_operation_xyz
x,y,z
1/2-x,-y,z
x,1/2-y,1/2-z
1/2-x,1/2+y,1/2-z
-x,-y,-z
1/2+x,y,-z
-x,1/2+y,1/2+z
1/2+x,1/2-y,1/2+z
loop_
_atom_site_type_symbol
_atom_site_label
_atom_site_fract_x
_atom_site_fract_y
_atom_site_fract_z
Si Si1 0.996347 0.320358 0.374633
Si Si2 0.250000 0.000000 0.580529
Si Si3 0.250000 0.500000 0.082157
Si Si4 0.072224 0.003546 0.223585
Si Si5 0.003115 0.817347 0.043314
O O1 0.991797 0.462163 0.325761
O O2 0.003029 0.540960 0.409447
O O3 0.143105 0.149100 0.382284
O O4 0.843851 0.170273 0.384213
O O5 0.143068 0.143216 0.544179
O O6 0.343850 0.339214 0.045114
O O7 0.020109 0.750000 0.250000
O O8 0.250000 0.000000 0.216049
O O9 0.021725 0.250000 0.250000
O O10 0.000000 0.000000 0.000000
#
# Coordination Sequence:
#
# PCOD8216747 Si02
#       5
#     8   4   4   8   8
#     4  11  24  43  72 104 143 184 238 300 366 433
#     4  10  26  45  72  98 150 186 236 298 371 436
#     4  10  24  41  72 104 142 184 246 292 363 434
#     4  10  23  40  72 109 144 185 244 306 366 428
#     4  11  25  45  70 101 141 188 238 294 363 438
#
# _framework density 23.098561
#
# number of rings (size 3 to 8) (size 9 to 14) (size 15 to 20)
#    0.000    1.500    0.000    3.000   12.250   10.000 
#    0.000    3.750    5.500    0.000    0.000    0.000 
#    0.000    0.000    0.000    0.000    0.000    0.000 
#
# Total GULP energy -396677.591177 kJ/mol
# GULP energy per Si atom -12396.174724 kJ/mol
# Density = 2.304599 g / cm^3
# Si number density = 23.098561 Si / 1000 Ang^3
#
#
#
# Elastic Constant Matrix: (Units=GPa)
#
#
# Indices 1 2 3 4 5 6 
#
# 1 118.8014 52.1331 43.9078 0.0000 0.0000 0.0000
# 2 52.1331 163.6774 80.6924 0.0000 0.0000 0.0000
# 3 43.9078 80.6924 180.9110 0.0000 0.0000 0.0000
# 4 0.0000 0.0000 0.0000 58.4569 0.0000 0.0000
# 5 0.0000 0.0000 0.0000 0.0000 22.9089 0.0000
# 6 0.0000 0.0000 0.0000 0.0000 0.0000 -40.9866
#
#
#
# Elastic Compliance Matrix: (Units=1/GPa)
#
#
# Indices 1 2 3 4 5 6 
#
# 1 0.010015 -0.002553 -0.001292 0.000000 0.000000 0.000000
# 2 -0.002553 0.008483 -0.003164 0.000000 0.000000 0.000000
# 3 -0.001292 -0.003164 0.007252 0.000000 0.000000 0.000000
# 4 0.000000 0.000000 0.000000 0.017107 0.000000 0.000000
# 5 0.000000 0.000000 0.000000 0.000000 0.043651 0.000000
# 6 0.000000 0.000000 0.000000 0.000000 0.000000 -0.024398
#
#
# Mechanical properties :
#
#
# Convention : Reuss Voigt Hill
#
# Bulk Modulus (GPa) = 85.23451 90.76184 87.99817
# Shear Modulus (GPa) = 62.47019 27.18627 44.82823
#
# Velocity S-wave (km/s) = 5.20613 3.43442 4.41016
# Velocity P-wave (km/s) = 8.55095 7.42331 8.00701
#
# Compressibility (1/GPa) = 0.01173234
#
# Stress axis : x y z
#
# Youngs Moduli (GPa) = 99.84774 117.88953 137.88648
#
# Poissons Ratio (x) = 0.30097 0.17815
# Poissons Ratio (y) = 0.25491 0.43625
# Poissons Ratio (z) = 0.12900 0.37299
#
# Static dielectric constant tensor:
#      x y z
#    x 3.864930 0.000000 0.000000 
#    y 0.000000 4.650970 0.000000 
#    z 0.000000 0.000000 3.762680 
# 
# 
# High freq. dielectric constant tensor:
#      x y z
#    x 1.909850 0.000000 0.000000 
#    y 0.000000 1.937980 0.000000 
#    z 0.000000 0.000000 1.910610 
# 
# From -- ./inp_files/44041.got.cif
#   From: 2010.06.25/outbox.cif.g09.slc.cpg/sg52_23_cif.got.tgz:44041.got - 2010.06.26 19:32:48.
