data_PCOD8216739
_publ_section_title
;
Structure prediction by ZEFSAII (Michael W. Deem and Ramdas Pophale) SiO2 
 PCOD8216739
Probable space group: P N N A
;
_chemical_formula_sum "Si O2"
_cell_formula_units_Z 40
_cell_length_a 12.852408
_cell_length_b 26.267876
_cell_length_c 5.013380
_cell_angle_alpha 90.000000
_cell_angle_beta 90.000000
_cell_angle_gamma 90.000000
_cell_volume 1692.544459
_symmetry_space_group_name_H-M "P N N A"
_symmetry_group_IT_number 52
_symmetry_cell_setting 'orthorhombic'
loop_
_space_group_symop_operation_xyz
x,y,z
1/2-x,-y,z
x,1/2-y,1/2-z
1/2-x,1/2+y,1/2-z
-x,-y,-z
1/2+x,y,-z
-x,1/2+y,1/2+z
1/2+x,1/2-y,1/2+z
loop_
_atom_site_type_symbol
_atom_site_label
_atom_site_fract_x
_atom_site_fract_y
_atom_site_fract_z
Si Si1 0.660240 0.469300 0.011672
Si Si2 0.569296 0.750000 0.250000
Si Si3 0.972679 0.043650 0.795547
Si Si4 0.778777 0.395046 0.640354
Si Si5 0.246349 0.829633 0.647171
Si Si6 0.923688 0.750000 0.250000
O O1 0.750000 0.500000 0.177591
O O2 0.583805 0.433339 0.187538
O O3 0.591072 0.518051 0.940477
O O4 0.705582 0.440585 0.751004
O O5 0.642297 0.798865 0.285608
O O6 0.496990 0.737578 0.501205
O O7 0.899885 0.089240 0.901035
O O8 0.000000 0.000000 0.000000
O O9 0.742722 0.378084 0.345360
O O10 0.766847 0.348040 0.843673
O O11 0.351058 0.797365 0.673707
#
# Coordination Sequence:
#
# PCOD8216739 Si02
#       6
#     8   4   8   8   8   4
#     4   9  22  40  60  90 127 179 221 273 322 386
#     4  11  24  47  74  98 140 177 214 277 352 414
#     4  10  23  40  64  90 132 183 226 267 339 386
#     4  11  25  42  67  98 138 170 224 284 323 395
#     4  11  26  45  67 106 135 169 228 281 332 412
#     4  11  24  47  74  96 134 181 212 267 358 408
#
# _framework density 23.633057000000001
#
# number of rings (size 3 to 8) (size 9 to 14) (size 15 to 20)
#    0.000    1.600    0.000    2.400   11.200    8.800 
#    0.000    0.000    0.000    0.000    0.000    0.000 
#    0.000    0.000    0.000    0.000    0.000    0.000 
#
# Total GULP energy -495663.180391 kJ/mol
# GULP energy per Si atom -12391.579510 kJ/mol
# Density = 2.357927 g / cm^3
# Si number density = 23.633057 Si / 1000 Ang^3
#
#
#
# Elastic Constant Matrix: (Units=GPa)
#
#
# Indices 1 2 3 4 5 6 
#
# 1 136.9232 23.3729 15.8460 0.0000 0.0000 0.0000
# 2 23.3729 56.6263 -17.7064 0.0000 0.0000 0.0000
# 3 15.8460 -17.7064 62.8870 0.0000 0.0000 0.0000
# 4 0.0000 0.0000 0.0000 44.7508 0.0000 0.0000
# 5 0.0000 0.0000 0.0000 0.0000 22.7396 0.0000
# 6 0.0000 0.0000 0.0000 0.0000 0.0000 9.8018
#
#
#
# Elastic Compliance Matrix: (Units=1/GPa)
#
#
# Indices 1 2 3 4 5 6 
#
# 1 0.008480 -0.004571 -0.003424 0.000000 0.000000 0.000000
# 2 -0.004571 0.021828 0.007298 0.000000 0.000000 0.000000
# 3 -0.003424 0.007298 0.018819 0.000000 0.000000 0.000000
# 4 0.000000 0.000000 0.000000 0.022346 0.000000 0.000000
# 5 0.000000 0.000000 0.000000 0.000000 0.043976 0.000000
# 6 0.000000 0.000000 0.000000 0.000000 0.000000 0.102023
#
#
# Mechanical properties :
#
#
# Convention : Reuss Voigt Hill
#
# Bulk Modulus (GPa) = 20.94966 33.27351 27.11159
# Shear Modulus (GPa) = 21.29691 31.12003 26.20847
#
# Velocity S-wave (km/s) = 3.00517 3.63271 3.33374
# Velocity P-wave (km/s) = 4.57441 5.63074 5.12984
#
# Compressibility (1/GPa) = 0.04773347
#
# Stress axis : x y z
#
# Youngs Moduli (GPa) = 117.92757 45.81255 53.13809
#
# Poissons Ratio (x) = 0.20939 0.18192
# Poissons Ratio (y) = 0.53900 -0.38778
# Poissons Ratio (z) = 0.40374 -0.33432
#
# Static dielectric constant tensor:
#      x y z
#    x -3.193900 0.000000 0.000000 
#    y 0.000000 4.677110 0.000000 
#    z 0.000000 0.000000 4.159490 
# 
# 
# High freq. dielectric constant tensor:
#      x y z
#    x 1.969950 0.000000 0.000000 
#    y 0.000000 1.923030 0.000000 
#    z 0.000000 0.000000 1.930470 
# 
# From -- ./inp_files/1432.got.cif
#   From: 2010.06.25/outbox.cif.g09.slc.cpg/sg52_1_cif.got.tgz:1432.got - 2010.06.26 19:32:48.
