data_PCOD8216270
_publ_section_title
;
Structure prediction by ZEFSAII (Michael W. Deem and Ramdas Pophale) SiO2 
 PCOD8216270
Probable space group: P N N A
;
_chemical_formula_sum "Si O2"
_cell_formula_units_Z 40
_cell_length_a 20.711357
_cell_length_b 18.263389
_cell_length_c 4.908133
_cell_angle_alpha 90.000000
_cell_angle_beta 90.000000
_cell_angle_gamma 90.000000
_cell_volume 1856.548276
_symmetry_space_group_name_H-M "P N N A"
_symmetry_group_IT_number 52
_symmetry_cell_setting 'orthorhombic'
loop_
_space_group_symop_operation_xyz
x,y,z
1/2-x,-y,z
x,1/2-y,1/2-z
1/2-x,1/2+y,1/2-z
-x,-y,-z
1/2+x,y,-z
-x,1/2+y,1/2+z
1/2+x,1/2-y,1/2+z
loop_
_atom_site_type_symbol
_atom_site_label
_atom_site_fract_x
_atom_site_fract_y
_atom_site_fract_z
Si Si1 0.267250 0.663659 0.773859
Si Si2 0.494646 0.592724 0.256921
Si Si3 0.071011 0.557775 0.254548
Si Si4 0.897277 0.797458 0.502722
Si Si5 0.218964 0.579116 0.261420
O O1 0.252126 0.750000 0.750000
O O2 0.258982 0.623539 0.486697
O O3 0.340631 0.651139 0.881169
O O4 0.219205 0.625456 0.984122
O O5 0.444113 0.527384 0.303839
O O6 0.526639 0.609112 0.550301
O O7 0.456907 0.661008 0.136203
O O8 0.554277 0.574150 0.058026
O O9 0.144416 0.571359 0.337930
O O10 0.866340 0.750000 0.750000
O O11 0.924217 0.750000 0.250000
O O12 0.250000 0.500000 0.214031
#
# Coordination Sequence:
#
# PCOD8216270 Si02
#       5
#     8   8   8   8   8
#     4  11  24  42  63  91 129 166 202 255 316 366
#     4  10  21  40  61  87 121 155 199 256 309 356
#     4  10  22  38  61  88 120 158 198 252 311 358
#     4  11  22  39  64  89 117 159 209 251 298 364
#     4  12  24  41  66  95 124 163 215 256 301 372
#
# _framework density 21.545359000000001
#
# number of rings (size 3 to 8) (size 9 to 14) (size 15 to 20)
#    0.000    1.200    0.000    7.200    0.000    4.800 
#    0.000   10.000    0.000    0.000    0.000    0.000 
#    0.000    0.000    0.000    0.000    0.000    0.000 
#
# Total GULP energy -496019.099076 kJ/mol
# GULP energy per Si atom -12400.477477 kJ/mol
# Density = 2.149632 g / cm^3
# Si number density = 21.545359 Si / 1000 Ang^3
#
#
#
# Elastic Constant Matrix: (Units=GPa)
#
#
# Indices 1 2 3 4 5 6 
#
# 1 103.4835 45.4250 11.1225 0.0000 0.0000 0.0000
# 2 45.4250 101.0294 47.7519 0.0000 0.0000 0.0000
# 3 11.1225 47.7519 107.0218 0.0000 0.0000 0.0000
# 4 0.0000 0.0000 0.0000 37.3169 0.0000 0.0000
# 5 0.0000 0.0000 0.0000 0.0000 26.6833 0.0000
# 6 0.0000 0.0000 0.0000 0.0000 0.0000 15.1104
#
#
#
# Elastic Compliance Matrix: (Units=1/GPa)
#
#
# Indices 1 2 3 4 5 6 
#
# 1 0.012226 -0.006205 0.001498 0.000000 0.000000 0.000000
# 2 -0.006205 0.015693 -0.006357 0.000000 0.000000 0.000000
# 3 0.001498 -0.006357 0.012025 0.000000 0.000000 0.000000
# 4 0.000000 0.000000 0.000000 0.026798 0.000000 0.000000
# 5 0.000000 0.000000 0.000000 0.000000 0.037477 0.000000
# 6 0.000000 0.000000 0.000000 0.000000 0.000000 0.066180
#
#
# Mechanical properties :
#
#
# Convention : Reuss Voigt Hill
#
# Bulk Modulus (GPa) = 56.13180 57.79259 56.96219
# Shear Modulus (GPa) = 25.19347 29.63780 27.41563
#
# Velocity S-wave (km/s) = 3.42325 3.71293 3.57103
# Velocity P-wave (km/s) = 6.46020 6.72778 6.59535
#
# Compressibility (1/GPa) = 0.01781521
#
# Stress axis : x y z
#
# Youngs Moduli (GPa) = 81.79153 63.72356 83.16264
#
# Poissons Ratio (x) = 0.39542 -0.12458
# Poissons Ratio (y) = 0.50753 0.52867
# Poissons Ratio (z) = -0.12253 0.40509
#
# Static dielectric constant tensor:
#      x y z
#    x 3.671780 0.000000 0.000000 
#    y 0.000000 3.808450 0.000000 
#    z 0.000000 0.000000 4.261040 
# 
# 
# High freq. dielectric constant tensor:
#      x y z
#    x 1.838480 0.000000 0.000000 
#    y 0.000000 1.833730 0.000000 
#    z 0.000000 0.000000 1.872730 
# 
# From -- ./inp_files/3169.got.cif
#   From: 2010.06.25/outbox.cif.g09.slc.cpg/sg52_2_cif.got.tgz:3169.got - 2010.06.26 19:32:48.
