data_PCOD8216812
_publ_section_title
;
Structure prediction by ZEFSAII (Michael W. Deem and Ramdas Pophale) SiO2 
 PCOD8216812
Probable space group: P N N A
;
_chemical_formula_sum "Si O2"
_cell_formula_units_Z 56
_cell_length_a 13.257007
_cell_length_b 20.463250
_cell_length_c 9.264834
_cell_angle_alpha 90.000000
_cell_angle_beta 90.000000
_cell_angle_gamma 90.000000
_cell_volume 2513.377588
_symmetry_space_group_name_H-M "P N N A"
_symmetry_group_IT_number 52
_symmetry_cell_setting 'orthorhombic'
loop_
_space_group_symop_operation_xyz
x,y,z
1/2-x,-y,z
x,1/2-y,1/2-z
1/2-x,1/2+y,1/2-z
-x,-y,-z
1/2+x,y,-z
-x,1/2+y,1/2+z
1/2+x,1/2-y,1/2+z
loop_
_atom_site_type_symbol
_atom_site_label
_atom_site_fract_x
_atom_site_fract_y
_atom_site_fract_z
Si Si1 0.534793 0.930869 0.551814
Si Si2 0.372984 0.869162 0.181870
Si Si3 0.522882 0.729501 0.439160
Si Si4 0.838915 0.343601 0.157086
Si Si5 0.867613 0.667574 0.004812
Si Si6 0.177044 0.868668 0.992195
Si Si7 0.638158 0.984888 0.819806
O O1 0.611935 0.901862 0.434593
O O2 0.434790 0.888717 0.575692
O O3 0.586998 0.937099 0.705759
O O4 0.500000 0.000000 0.500000
O O5 0.335543 0.853392 0.342993
O O6 0.413490 0.944009 0.161435
O O7 0.471053 0.824275 0.164433
O O8 0.284103 0.853602 0.068387
O O9 0.587148 0.781549 0.346691
O O10 0.432438 0.765829 0.521219
O O11 0.597844 0.687965 0.543910
O O12 0.816355 0.366220 0.319530
O O13 0.733337 0.320821 0.092131
O O14 0.140902 0.942137 0.033441
O O15 0.750000 0.000000 0.762491
#
# Coordination Sequence:
#
# PCOD8216812 Si02
#       7
#     8   8   8   8   8   8   8
#     4  11  23  43  70  99 127 173 225 268 320 392
#     4  11  22  44  67  94 132 177 217 269 336 395
#     4  11  24  43  69  95 130 178 225 276 330 390
#     4  11  24  44  66  99 133 170 223 275 331 390
#     4  11  23  44  72  97 127 171 230 273 320 390
#     4  11  24  42  64 100 139 174 211 274 345 396
#     4  10  23  44  66  99 136 174 218 266 335 399
#
# _framework density 22.280775999999999
#
# number of rings (size 3 to 8) (size 9 to 14) (size 15 to 20)
#    0.000    1.143    1.429    6.000    0.000    1.714 
#    7.714   10.000    0.000    0.000    0.000    0.000 
#    0.000    0.000    0.000    0.000    0.000    0.000 
#
# Total GULP energy -694186.860676 kJ/mol
# GULP energy per Si atom -12396.193941 kJ/mol
# Density = 2.223006 g / cm^3
# Si number density = 22.280776 Si / 1000 Ang^3
#
#
#
# Elastic Constant Matrix: (Units=GPa)
#
#
# Indices 1 2 3 4 5 6 
#
# 1 143.7333 73.4841 77.9926 0.0000 0.0000 0.0000
# 2 73.4841 163.1084 65.4145 0.0000 0.0000 0.0000
# 3 77.9926 65.4145 127.0952 0.0000 0.0000 0.0000
# 4 0.0000 0.0000 0.0000 30.3783 0.0000 0.0000
# 5 0.0000 0.0000 0.0000 0.0000 23.1302 0.0000
# 6 0.0000 0.0000 0.0000 0.0000 0.0000 37.8685
#
#
#
# Elastic Compliance Matrix: (Units=1/GPa)
#
#
# Indices 1 2 3 4 5 6 
#
# 1 0.011457 -0.002951 -0.005512 0.000000 0.000000 0.000000
# 2 -0.002951 0.008486 -0.002557 0.000000 0.000000 0.000000
# 3 -0.005512 -0.002557 0.012566 0.000000 0.000000 0.000000
# 4 0.000000 0.000000 0.000000 0.032918 0.000000 0.000000
# 5 0.000000 0.000000 0.000000 0.000000 0.043234 0.000000
# 6 0.000000 0.000000 0.000000 0.000000 0.000000 0.026407
#
#
# Mechanical properties :
#
#
# Convention : Reuss Voigt Hill
#
# Bulk Modulus (GPa) = 95.50959 96.41326 95.96142
# Shear Modulus (GPa) = 31.13394 32.74510 31.93952
#
# Velocity S-wave (km/s) = 3.74216 3.83777 3.79027
# Velocity P-wave (km/s) = 7.85055 7.93750 7.89414
#
# Compressibility (1/GPa) = 0.01047015
#
# Stress axis : x y z
#
# Youngs Moduli (GPa) = 87.28428 117.84462 79.57871
#
# Poissons Ratio (x) = 0.34778 0.43861
# Poissons Ratio (y) = 0.25759 0.20345
# Poissons Ratio (z) = 0.48108 0.30128
#
# Static dielectric constant tensor:
#      x y z
#    x 4.065570 0.000000 0.000000 
#    y 0.000000 4.507960 0.000000 
#    z 0.000000 0.000000 3.848180 
# 
# 
# High freq. dielectric constant tensor:
#      x y z
#    x 1.891580 0.000000 0.000000 
#    y 0.000000 1.898210 0.000000 
#    z 0.000000 0.000000 1.860890 
# 
# From -- ./inp_files/10801.got.cif
#   From: 2010.06.25/outbox.cif.g09.slc.cpg/sg52_6_cif.got.tgz:10801.got - 2010.06.26 19:32:48.
