data_PCOD8216300
_publ_section_title
;
Structure prediction by ZEFSAII (Michael W. Deem and Ramdas Pophale) SiO2 
 PCOD8216300
Probable space group: P N N A
;
_chemical_formula_sum "Si O2"
_cell_formula_units_Z 48
_cell_length_a 9.177845
_cell_length_b 14.687114
_cell_length_c 17.243272
_cell_angle_alpha 90.000000
_cell_angle_beta 90.000000
_cell_angle_gamma 90.000000
_cell_volume 2324.325055
_symmetry_space_group_name_H-M "P N N A"
_symmetry_group_IT_number 52
_symmetry_cell_setting 'orthorhombic'
loop_
_space_group_symop_operation_xyz
x,y,z
1/2-x,-y,z
x,1/2-y,1/2-z
1/2-x,1/2+y,1/2-z
-x,-y,-z
1/2+x,y,-z
-x,1/2+y,1/2+z
1/2+x,1/2-y,1/2+z
loop_
_atom_site_type_symbol
_atom_site_label
_atom_site_fract_x
_atom_site_fract_y
_atom_site_fract_z
Si Si1 0.706836 0.286176 0.087738
Si Si2 0.501297 0.677018 0.687467
Si Si3 0.886903 0.952483 0.307812
Si Si4 0.054116 0.260310 0.074560
Si Si5 0.713915 0.399434 0.644711
Si Si6 0.362443 0.575701 0.176028
O O1 0.645200 0.205618 0.142498
O O2 0.665158 0.381332 0.127467
O O3 0.879483 0.273823 0.076828
O O4 0.616536 0.282674 0.009190
O O5 0.551640 0.750000 0.750000
O O6 0.476136 0.585496 0.735503
O O7 0.637797 0.658708 0.631659
O O8 0.750000 0.000000 0.268821
O O9 0.982282 0.032187 0.345436
O O10 0.089807 0.155107 0.097031
O O11 0.140814 0.327589 0.132658
O O12 0.750000 0.500000 0.610785
O O13 0.664455 0.404813 0.733728
O O14 0.250000 0.500000 0.143687
#
# Coordination Sequence:
#
# PCOD8216300 Si02
#       6
#     8   8   8   8   8   8
#     4  11  27  42  64  93 133 181 210 270 329 388
#     4  10  21  40  65  91 129 166 208 262 322 377
#     4  11  22  41  66 102 132 160 218 270 326 391
#     4  12  26  44  63  94 136 173 223 265 327 395
#     4  11  23  42  68  98 124 171 219 269 320 382
#     4  11  23  40  70 102 129 170 212 270 330 389
#
# _framework density 20.651156
#
# number of rings (size 3 to 8) (size 9 to 14) (size 15 to 20)
#    0.000    1.000    5.000    2.500    7.000    2.667 
#    0.000    4.167    0.000    0.000    0.000    0.000 
#    0.000    0.000    0.000    0.000    0.000    0.000 
#
# Total GULP energy -594966.272334 kJ/mol
# GULP energy per Si atom -12395.130674 kJ/mol
# Density = 2.060415 g / cm^3
# Si number density = 20.651156 Si / 1000 Ang^3
#
#
#
# Elastic Constant Matrix: (Units=GPa)
#
#
# Indices 1 2 3 4 5 6 
#
# 1 127.4475 30.1192 15.2655 0.0000 0.0000 0.0000
# 2 30.1192 91.6738 17.1353 0.0000 0.0000 0.0000
# 3 15.2655 17.1353 52.9850 0.0000 0.0000 0.0000
# 4 0.0000 0.0000 0.0000 51.2039 0.0000 0.0000
# 5 0.0000 0.0000 0.0000 0.0000 34.9204 0.0000
# 6 0.0000 0.0000 0.0000 0.0000 0.0000 10.4279
#
#
#
# Elastic Compliance Matrix: (Units=1/GPa)
#
#
# Indices 1 2 3 4 5 6 
#
# 1 0.008644 -0.002527 -0.001673 0.000000 0.000000 0.000000
# 2 -0.002527 0.012349 -0.003266 0.000000 0.000000 0.000000
# 3 -0.001673 -0.003266 0.020411 0.000000 0.000000 0.000000
# 4 0.000000 0.000000 0.000000 0.019530 0.000000 0.000000
# 5 0.000000 0.000000 0.000000 0.000000 0.028637 0.000000
# 6 0.000000 0.000000 0.000000 0.000000 0.000000 0.095896
#
#
# Mechanical properties :
#
#
# Convention : Reuss Voigt Hill
#
# Bulk Modulus (GPa) = 37.77491 44.12736 40.95113
# Shear Modulus (GPa) = 23.89798 33.28287 28.59042
#
# Velocity S-wave (km/s) = 3.40549 4.01892 3.72485
# Velocity P-wave (km/s) = 5.81332 6.55362 6.19454
#
# Compressibility (1/GPa) = 0.02647260
#
# Stress axis : x y z
#
# Youngs Moduli (GPa) = 115.68680 80.97868 48.99229
#
# Poissons Ratio (x) = 0.20465 0.08197
# Poissons Ratio (y) = 0.29237 0.15998
# Poissons Ratio (z) = 0.19356 0.26444
#
# Static dielectric constant tensor:
#      x y z
#    x 3.853240 0.000000 0.000000 
#    y 0.000000 3.660990 0.000000 
#    z 0.000000 0.000000 3.490610 
# 
# 
# High freq. dielectric constant tensor:
#      x y z
#    x 1.826430 0.000000 0.000000 
#    y 0.000000 1.822570 0.000000 
#    z 0.000000 0.000000 1.780750 
# 
# From -- ./inp_files/31219.got.cif
#   From: 2010.06.25/outbox.cif.g09.slc.cpg/sg52_16_cif.got.tgz:31219.got - 2010.06.26 19:32:48.
