data_PCOD8216882
_publ_section_title
;
Structure prediction by ZEFSAII (Michael W. Deem and Ramdas Pophale) SiO2 
 PCOD8216882
Probable space group: P N N A
;
_chemical_formula_sum "Si O2"
_cell_formula_units_Z 48
_cell_length_a 29.475924
_cell_length_b 9.077170
_cell_length_c 8.402121
_cell_angle_alpha 90.000000
_cell_angle_beta 90.000000
_cell_angle_gamma 90.000000
_cell_volume 2248.054464
_symmetry_space_group_name_H-M "P N N A"
_symmetry_group_IT_number 52
_symmetry_cell_setting 'orthorhombic'
loop_
_space_group_symop_operation_xyz
x,y,z
1/2-x,-y,z
x,1/2-y,1/2-z
1/2-x,1/2+y,1/2-z
-x,-y,-z
1/2+x,y,-z
-x,1/2+y,1/2+z
1/2+x,1/2-y,1/2+z
loop_
_atom_site_type_symbol
_atom_site_label
_atom_site_fract_x
_atom_site_fract_y
_atom_site_fract_z
Si Si1 0.324416 0.919477 0.222482
Si Si2 0.696176 0.501125 0.064407
Si Si3 0.144655 0.750000 0.750000
Si Si4 0.076847 0.509336 0.250709
Si Si5 0.718914 0.250000 0.250000
Si Si6 0.750000 0.000000 0.026165
Si Si7 0.993580 0.750000 0.750000
Si Si8 0.429351 0.256658 0.000005
O O1 0.309190 0.750000 0.250000
O O2 0.317824 0.016766 0.381890
O O3 0.377545 0.930456 0.184750
O O4 0.294956 0.996631 0.084245
O O5 0.750000 0.500000 0.077975
O O6 0.675803 0.621245 0.181919
O O7 0.683863 0.341740 0.139076
O O8 0.112033 0.696720 0.607589
O O9 0.036953 0.393492 0.256527
O O10 0.082844 0.582085 0.074634
O O11 0.061888 0.639088 0.364934
O O12 0.750742 0.353505 0.363771
O O13 0.024060 0.768316 0.594769
#
# Coordination Sequence:
#
# PCOD8216882 Si02
#       8
#     8   8   4   8   4   4   4   8
#     4  12  25  46  73 105 142 190 241 292 353 418
#     4  12  25  43  67  98 137 188 238 288 350 407
#     4  11  25  44  68 100 142 182 234 298 347 411
#     4  11  23  44  69 104 140 175 231 287 347 429
#     4  12  27  44  67  98 138 188 244 297 342 407
#     4  12  28  48  70 100 144 194 242 290 352 410
#     4  11  22  44  75  96 138 178 224 285 355 418
#     4  10  24  43  68 104 135 178 227 285 356 424
#
# _framework density 21.351796
#
# number of rings (size 3 to 8) (size 9 to 14) (size 15 to 20)
#    0.000    0.667    5.833    1.500    2.333    0.000 
#    3.000    0.000    0.000    0.000    0.000    0.000 
#    0.000    0.000    0.000    0.000    0.000    0.000 
#
# Total GULP energy -595047.283327 kJ/mol
# GULP energy per Si atom -12396.818403 kJ/mol
# Density = 2.130320 g / cm^3
# Si number density = 21.351796 Si / 1000 Ang^3
#
#
#
# Elastic Constant Matrix: (Units=GPa)
#
#
# Indices 1 2 3 4 5 6 
#
# 1 141.3638 47.5528 49.1858 0.0000 0.0000 0.0000
# 2 47.5528 127.8368 50.6947 0.0000 0.0000 0.0000
# 3 49.1858 50.6947 118.5472 0.0000 0.0000 0.0000
# 4 0.0000 0.0000 0.0000 34.5908 0.0000 0.0000
# 5 0.0000 0.0000 0.0000 0.0000 -22.0674 0.0000
# 6 0.0000 0.0000 0.0000 0.0000 0.0000 30.6749
#
#
#
# Elastic Compliance Matrix: (Units=1/GPa)
#
#
# Indices 1 2 3 4 5 6 
#
# 1 0.008746 -0.002185 -0.002695 0.000000 0.000000 0.000000
# 2 -0.002185 0.009966 -0.003355 0.000000 0.000000 0.000000
# 3 -0.002695 -0.003355 0.010988 0.000000 0.000000 0.000000
# 4 0.000000 0.000000 0.000000 0.028909 0.000000 0.000000
# 5 0.000000 0.000000 0.000000 0.000000 -0.045316 0.000000
# 6 0.000000 0.000000 0.000000 0.000000 0.000000 0.032600
#
#
# Mechanical properties :
#
#
# Convention : Reuss Voigt Hill
#
# Bulk Modulus (GPa) = 75.57963 75.84604 75.71283
# Shear Modulus (GPa) = 74.87973 24.66064 49.77019
#
# Velocity S-wave (km/s) = 5.92838 3.40217 4.83324
# Velocity P-wave (km/s) = 9.07387 7.14368 8.16600
#
# Compressibility (1/GPa) = 0.01323108
#
# Stress axis : x y z
#
# Youngs Moduli (GPa) = 114.33161 100.34379 91.00647
#
# Poissons Ratio (x) = 0.21925 0.24523
# Poissons Ratio (y) = 0.24981 0.30534
# Poissons Ratio (z) = 0.30808 0.33667
#
# Static dielectric constant tensor:
#      x y z
#    x 3.766550 0.000000 0.000000 
#    y 0.000000 1.423330 0.000000 
#    z 0.000000 0.000000 4.241240 
# 
# 
# High freq. dielectric constant tensor:
#      x y z
#    x 1.833790 0.000000 0.000000 
#    y 0.000000 1.840790 0.000000 
#    z 0.000000 0.000000 1.856660 
# 
# From -- ./inp_files/15625.got.cif
#   From: 2010.06.25/outbox.cif.g09.slc.cpg/sg52_8_cif.got.tgz:15625.got - 2010.06.26 19:32:48.
