data_PCOD8216281
_publ_section_title
;
Structure prediction by ZEFSAII (Michael W. Deem and Ramdas Pophale) SiO2 
 PCOD8216281
Probable space group: P N N A
;
_chemical_formula_sum "Si O2"
_cell_formula_units_Z 56
_cell_length_a 14.032211
_cell_length_b 8.468879
_cell_length_c 21.615739
_cell_angle_alpha 90.000000
_cell_angle_beta 90.000000
_cell_angle_gamma 90.000000
_cell_volume 2568.751674
_symmetry_space_group_name_H-M "P N N A"
_symmetry_group_IT_number 52
_symmetry_cell_setting 'orthorhombic'
loop_
_space_group_symop_operation_xyz
x,y,z
1/2-x,-y,z
x,1/2-y,1/2-z
1/2-x,1/2+y,1/2-z
-x,-y,-z
1/2+x,y,-z
-x,1/2+y,1/2+z
1/2+x,1/2-y,1/2+z
loop_
_atom_site_type_symbol
_atom_site_label
_atom_site_fract_x
_atom_site_fract_y
_atom_site_fract_z
Si Si1 0.649756 0.564103 0.244183
Si Si2 0.018955 0.748677 0.954421
Si Si3 0.861724 0.500863 0.383402
Si Si4 0.532001 0.801207 0.907445
Si Si5 0.010030 0.484828 0.148786
Si Si6 0.804366 0.665788 0.813677
Si Si7 0.339331 0.915183 0.084877
O O1 0.750000 0.500000 0.221261
O O2 0.651679 0.750000 0.250000
O O3 0.621860 0.492289 0.310046
O O4 0.581162 0.502068 0.191220
O O5 0.091076 0.845797 0.911820
O O6 0.012986 0.579525 0.920577
O O7 0.912115 0.824043 0.960033
O O8 0.060923 0.744123 0.023355
O O9 0.750000 0.500000 0.400751
O O10 0.919471 0.652972 0.408528
O O11 0.552853 0.659369 0.860277
O O12 0.596203 0.947360 0.883437
O O13 0.083434 0.372697 0.185009
O O14 0.750000 0.500000 0.825183
O O15 0.774710 0.750000 0.750000
O O16 0.788278 0.796211 0.866961
O O17 0.250000 0.000000 0.049428
#
# Coordination Sequence:
#
# PCOD8216281 Si02
#       7
#     8   8   8   8   8   8   8
#     4  11  24  42  65  94 130 167 212 268 323 392
#     4  10  22  41  62  90 127 167 215 265 311 379
#     4  10  22  40  64  92 127 164 215 264 325 387
#     4  11  24  39  62  96 124 168 219 258 314 388
#     4  11  24  40  65  90 131 169 206 264 328 373
#     4  11  24  42  63  92 124 161 205 258 317 383
#     4  10  21  40  63  88 121 162 207 260 310 371
#
# _framework density 21.800473
#
# number of rings (size 3 to 8) (size 9 to 14) (size 15 to 20)
#    0.000    1.429    1.429    3.857    8.000    2.286 
#    0.000    0.000    0.000    5.143    0.000    0.000 
#    0.000    0.000    0.000    0.000    0.000    0.000 
#
# Total GULP energy -694128.997353 kJ/mol
# GULP energy per Si atom -12395.160667 kJ/mol
# Density = 2.175085 g / cm^3
# Si number density = 21.800473 Si / 1000 Ang^3
#
#
#
# Elastic Constant Matrix: (Units=GPa)
#
#
# Indices 1 2 3 4 5 6 
#
# 1 93.9681 14.4787 29.6319 0.0000 0.0000 0.0000
# 2 14.4787 103.7548 30.6776 0.0000 0.0000 0.0000
# 3 29.6319 30.6776 84.7388 0.0000 0.0000 0.0000
# 4 0.0000 0.0000 0.0000 16.9825 0.0000 0.0000
# 5 0.0000 0.0000 0.0000 0.0000 20.9980 0.0000
# 6 0.0000 0.0000 0.0000 0.0000 0.0000 26.2751
#
#
#
# Elastic Compliance Matrix: (Units=1/GPa)
#
#
# Indices 1 2 3 4 5 6 
#
# 1 0.011983 -0.000485 -0.004015 0.000000 0.000000 0.000000
# 2 -0.000485 0.010813 -0.003745 0.000000 0.000000 0.000000
# 3 -0.004015 -0.003745 0.014561 0.000000 0.000000 0.000000
# 4 0.000000 0.000000 0.000000 0.058884 0.000000 0.000000
# 5 0.000000 0.000000 0.000000 0.000000 0.047624 0.000000
# 6 0.000000 0.000000 0.000000 0.000000 0.000000 0.038059
#
#
# Mechanical properties :
#
#
# Convention : Reuss Voigt Hill
#
# Bulk Modulus (GPa) = 47.92252 48.00422 47.96337
# Shear Modulus (GPa) = 24.34656 26.69601 25.52129
#
# Velocity S-wave (km/s) = 3.34547 3.50317 3.42523
# Velocity P-wave (km/s) = 6.07889 6.19924 6.13936
#
# Compressibility (1/GPa) = 0.02086702
#
# Stress axis : x y z
#
# Youngs Moduli (GPa) = 83.45434 92.48037 68.67866
#
# Poissons Ratio (x) = 0.04487 0.27571
# Poissons Ratio (y) = 0.04049 0.25720
# Poissons Ratio (z) = 0.33503 0.34634
#
# Static dielectric constant tensor:
#      x y z
#    x 3.989410 0.000000 0.000000 
#    y 0.000000 4.048570 0.000000 
#    z 0.000000 0.000000 3.783020 
# 
# 
# High freq. dielectric constant tensor:
#      x y z
#    x 1.861770 0.000000 0.000000 
#    y 0.000000 1.862260 0.000000 
#    z 0.000000 0.000000 1.843270 
# 
# From -- ./inp_files/37322.got.cif
#   From: 2010.06.25/outbox.cif.g09.slc.cpg/sg52_19_cif.got.tgz:37322.got - 2010.06.26 19:32:48.
