data_PCOD8216111
_publ_section_title
;
Structure prediction by ZEFSAII (Michael W. Deem and Ramdas Pophale) SiO2 
 PCOD8216111
Probable space group: P N N A
;
_chemical_formula_sum "Si O2"
_cell_formula_units_Z 52
_cell_length_a 5.261268
_cell_length_b 19.260076
_cell_length_c 25.365282
_cell_angle_alpha 90.000000
_cell_angle_beta 90.000000
_cell_angle_gamma 90.000000
_cell_volume 2570.325448
_symmetry_space_group_name_H-M "P N N A"
_symmetry_group_IT_number 52
_symmetry_cell_setting 'orthorhombic'
loop_
_space_group_symop_operation_xyz
x,y,z
1/2-x,-y,z
x,1/2-y,1/2-z
1/2-x,1/2+y,1/2-z
-x,-y,-z
1/2+x,y,-z
-x,1/2+y,1/2+z
1/2+x,1/2-y,1/2+z
loop_
_atom_site_type_symbol
_atom_site_label
_atom_site_fract_x
_atom_site_fract_y
_atom_site_fract_z
Si Si1 0.581651 0.881545 0.365723
Si Si2 0.838002 0.295216 0.474873
Si Si3 0.739010 0.134525 0.474476
Si Si4 0.003545 0.229387 0.139616
Si Si5 0.250000 0.000000 0.342878
Si Si6 0.997220 0.301328 0.702465
Si Si7 0.626617 0.428955 0.231374
O O1 0.795835 0.878128 0.411524
O O2 0.421292 0.810205 0.369758
O O3 0.680458 0.887132 0.306084
O O4 0.425540 0.951610 0.379206
O O5 0.561927 0.329041 0.488466
O O6 0.779299 0.215213 0.488322
O O7 0.925982 0.307778 0.414792
O O8 0.499886 0.099938 0.503922
O O9 0.255512 0.194094 0.163381
O O10 0.755486 0.226359 0.176498
O O11 0.390792 0.054187 0.305365
O O12 0.923036 0.250000 0.750000
O O13 0.042287 0.380319 0.720833
O O14 0.750000 0.500000 0.254106
#
# Coordination Sequence:
#
# PCOD8216111 Si02
#       7
#     8   8   8   8   4   8   8
#     4  10  21  37  56  79 108 152 198 236 287 344
#     4   9  17  33  53  79 113 150 182 225 291 347
#     4   9  19  32  52  76 104 141 188 244 291 327
#     4  11  23  35  60  88 120 147 192 243 290 344
#     4  10  22  38  58  72 104 156 204 230 276 346
#     4  12  23  37  57  89 120 151 192 243 294 335
#     4  10  23  39  58  79 111 160 197 233 281 352
#
# _framework density 20.230900999999999
#
# number of rings (size 3 to 8) (size 9 to 14) (size 15 to 20)
#    0.000    1.846    1.538    2.308    6.462    2.462 
#    0.000    0.769    0.000    0.000    0.000    0.000 
#    0.000   12.308    0.000    0.000    0.000    0.000 
#
# Total GULP energy -644422.517023 kJ/mol
# GULP energy per Si atom -12392.740712 kJ/mol
# Density = 2.018485 g / cm^3
# Si number density = 20.230901 Si / 1000 Ang^3
#
#
#
# Elastic Constant Matrix: (Units=GPa)
#
#
# Indices 1 2 3 4 5 6 
#
# 1 85.9821 -8.2989 4.4940 0.0000 0.0000 0.0000
# 2 -8.2989 44.7057 12.5474 0.0000 0.0000 0.0000
# 3 4.4940 12.5474 63.8153 0.0000 0.0000 0.0000
# 4 0.0000 0.0000 0.0000 22.6877 0.0000 0.0000
# 5 0.0000 0.0000 0.0000 0.0000 31.1271 0.0000
# 6 0.0000 0.0000 0.0000 0.0000 0.0000 15.1261
#
#
#
# Elastic Compliance Matrix: (Units=1/GPa)
#
#
# Indices 1 2 3 4 5 6 
#
# 1 0.011952 0.002598 -0.001353 0.000000 0.000000 0.000000
# 2 0.002598 0.024240 -0.004949 0.000000 0.000000 0.000000
# 3 -0.001353 -0.004949 0.016739 0.000000 0.000000 0.000000
# 4 0.000000 0.000000 0.000000 0.044077 0.000000 0.000000
# 5 0.000000 0.000000 0.000000 0.000000 0.032126 0.000000
# 6 0.000000 0.000000 0.000000 0.000000 0.000000 0.066111
#
#
# Mechanical properties :
#
#
# Convention : Reuss Voigt Hill
#
# Bulk Modulus (GPa) = 21.96661 23.55423 22.76042
# Shear Modulus (GPa) = 22.95415 26.17220 24.56318
#
# Velocity S-wave (km/s) = 3.37205 3.60067 3.48823
# Velocity P-wave (km/s) = 5.10318 5.38093 5.24390
#
# Compressibility (1/GPa) = 0.04552364
#
# Stress axis : x y z
#
# Youngs Moduli (GPa) = 83.66935 41.25429 59.74231
#
# Poissons Ratio (x) = -0.10719 0.08080
# Poissons Ratio (y) = -0.21740 0.29567
# Poissons Ratio (z) = 0.11317 0.20417
#
# Static dielectric constant tensor:
#      x y z
#    x 4.022140 0.000000 0.000000 
#    y 0.000000 3.410280 0.000000 
#    z 0.000000 0.000000 3.569660 
# 
# 
# High freq. dielectric constant tensor:
#      x y z
#    x 1.804950 0.000000 0.000000 
#    y 0.000000 1.737520 0.000000 
#    z 0.000000 0.000000 1.781580 
# 
# From -- ./inp_files/35180.got.cif
#   From: 2010.06.25/outbox.cif.g09.slc.cpg/sg52_18_cif.got.tgz:35180.got - 2010.06.26 19:32:48.
