data_PCOD8216316
_publ_section_title
;
Structure prediction by ZEFSAII (Michael W. Deem and Ramdas Pophale) SiO2 
 PCOD8216316
Probable space group: P N N A
;
_chemical_formula_sum "Si O2"
_cell_formula_units_Z 40
_cell_length_a 13.030205
_cell_length_b 14.050528
_cell_length_c 10.592405
_cell_angle_alpha 90.000000
_cell_angle_beta 90.000000
_cell_angle_gamma 90.000000
_cell_volume 1939.270856
_symmetry_space_group_name_H-M "P N N A"
_symmetry_group_IT_number 52
_symmetry_cell_setting 'orthorhombic'
loop_
_space_group_symop_operation_xyz
x,y,z
1/2-x,-y,z
x,1/2-y,1/2-z
1/2-x,1/2+y,1/2-z
-x,-y,-z
1/2+x,y,-z
-x,1/2+y,1/2+z
1/2+x,1/2-y,1/2+z
loop_
_atom_site_type_symbol
_atom_site_label
_atom_site_fract_x
_atom_site_fract_y
_atom_site_fract_z
Si Si1 0.141121 0.739466 0.887877
Si Si2 0.477124 0.904930 0.423911
Si Si3 0.650287 0.562268 0.521092
Si Si4 0.477417 0.975149 0.799287
Si Si5 0.316055 0.903549 0.608228
O O1 0.089464 0.750000 0.750000
O O2 0.173036 0.833618 0.964266
O O3 0.244649 0.683169 0.856589
O O4 0.058036 0.676932 0.965288
O O5 0.362154 0.878370 0.468963
O O6 0.500000 0.000000 0.500000
O O7 0.485823 0.929599 0.275353
O O8 0.750000 0.500000 0.557745
O O9 0.579539 0.575747 0.645908
O O10 0.593130 0.502172 0.415611
O O11 0.409690 0.907513 0.708744
O O12 0.250000 0.000000 0.608634
#
# Coordination Sequence:
#
# PCOD8216316 Si02
#       5
#     8   8   8   8   8
#     4  12  22  40  68  98 129 175 233 265 333 414
#     4  10  21  40  67  94 127 170 222 279 322 389
#     4  11  24  41  63  96 140 172 219 273 334 396
#     4  10  21  42  65  91 131 175 216 271 332 390
#     4  11  21  40  71  95 126 172 226 274 331 395
#
# _framework density 20.62631
#
# number of rings (size 3 to 8) (size 9 to 14) (size 15 to 20)
#    0.000    1.200    6.000    1.800    0.000    5.600 
#    0.000    3.000    0.000    0.000    0.000    0.000 
#    0.000    0.000    0.000    0.000    0.000    0.000 
#
# Total GULP energy -495640.205029 kJ/mol
# GULP energy per Si atom -12391.005126 kJ/mol
# Density = 2.057936 g / cm^3
# Si number density = 20.626310 Si / 1000 Ang^3
#
#
#
# Elastic Constant Matrix: (Units=GPa)
#
#
# Indices 1 2 3 4 5 6 
#
# 1 128.2161 60.7451 63.8876 0.0000 0.0000 0.0000
# 2 60.7451 126.1072 19.3152 0.0000 0.0000 0.0000
# 3 63.8876 19.3152 61.3110 0.0000 0.0000 0.0000
# 4 0.0000 0.0000 0.0000 26.8702 0.0000 0.0000
# 5 0.0000 0.0000 0.0000 0.0000 40.2824 0.0000
# 6 0.0000 0.0000 0.0000 0.0000 0.0000 35.3149
#
#
#
# Elastic Compliance Matrix: (Units=1/GPa)
#
#
# Indices 1 2 3 4 5 6 
#
# 1 0.020878 -0.007066 -0.019529 0.000000 0.000000 0.000000
# 2 -0.007066 0.010723 0.003984 0.000000 0.000000 0.000000
# 3 -0.019529 0.003984 0.035405 0.000000 0.000000 0.000000
# 4 0.000000 0.000000 0.000000 0.037216 0.000000 0.000000
# 5 0.000000 0.000000 0.000000 0.000000 0.024825 0.000000
# 6 0.000000 0.000000 0.000000 0.000000 0.000000 0.028317
#
#
# Mechanical properties :
#
#
# Convention : Reuss Voigt Hill
#
# Bulk Modulus (GPa) = 45.90350 67.05891 56.48120
# Shear Modulus (GPa) = 23.82702 31.93928 27.88315
#
# Velocity S-wave (km/s) = 3.40248 3.93933 3.68071
# Velocity P-wave (km/s) = 6.14320 7.29884 6.74581
#
# Compressibility (1/GPa) = 0.02178483
#
# Stress axis : x y z
#
# Youngs Moduli (GPa) = 47.89762 93.25818 28.24452
#
# Poissons Ratio (x) = 0.65892 0.55160
# Poissons Ratio (y) = 0.33842 -0.11254
# Poissons Ratio (z) = 0.93541 -0.37157
#
# Static dielectric constant tensor:
#      x y z
#    x 4.496300 0.000000 0.000000 
#    y 0.000000 3.729800 0.000000 
#    z 0.000000 0.000000 5.081230 
# 
# 
# High freq. dielectric constant tensor:
#      x y z
#    x 1.811240 0.000000 0.000000 
#    y 0.000000 1.795190 0.000000 
#    z 0.000000 0.000000 1.802050 
# 
# From -- ./inp_files/18008.got.cif
#   From: 2010.06.25/outbox.cif.g09.slc.cpg/sg52_10_cif.got.tgz:18008.got - 2010.06.26 19:32:48.
