data_PCOD8216506
_publ_section_title
;
Structure prediction by ZEFSAII (Michael W. Deem and Ramdas Pophale) SiO2 
 PCOD8216506
Probable space group: P N N A
;
_chemical_formula_sum "Si O2"
_cell_formula_units_Z 40
_cell_length_a 8.642011
_cell_length_b 12.266109
_cell_length_c 17.766745
_cell_angle_alpha 90.000000
_cell_angle_beta 90.000000
_cell_angle_gamma 90.000000
_cell_volume 1883.343353
_symmetry_space_group_name_H-M "P N N A"
_symmetry_group_IT_number 52
_symmetry_cell_setting 'orthorhombic'
loop_
_space_group_symop_operation_xyz
x,y,z
1/2-x,-y,z
x,1/2-y,1/2-z
1/2-x,1/2+y,1/2-z
-x,-y,-z
1/2+x,y,-z
-x,1/2+y,1/2+z
1/2+x,1/2-y,1/2+z
loop_
_atom_site_type_symbol
_atom_site_label
_atom_site_fract_x
_atom_site_fract_y
_atom_site_fract_z
Si Si1 0.115080 0.136923 0.068836
Si Si2 0.750000 0.500000 0.801712
Si Si3 0.750000 0.500000 0.038390
Si Si4 0.108959 0.063091 0.905417
Si Si5 0.453001 0.621528 0.081282
Si Si6 0.119961 0.654106 0.307677
O O1 0.016736 0.248574 0.076620
O O2 0.259177 0.150984 0.123878
O O3 0.168078 0.120601 0.982147
O O4 0.025609 0.026619 0.087168
O O5 0.655350 0.410235 0.848597
O O6 0.877107 0.449654 0.746546
O O7 0.623535 0.566785 0.087452
O O8 0.646459 0.415781 0.990794
O O9 0.047574 0.156440 0.848339
O O10 0.250000 0.000000 0.867056
O O11 0.149225 0.750000 0.250000
#
# Coordination Sequence:
#
# PCOD8216506 Si02
#       6
#     8   4   4   8   8   8
#     4  11  22  41  71  98 133 178 225 276 339 404
#     4  11  22  44  62  94 133 182 226 276 339 418
#     4   9  22  40  60  98 135 172 230 278 333 416
#     4  11  25  42  65 102 135 168 223 286 334 405
#     4  10  22  39  66  95 136 178 224 282 342 402
#     4  12  24  45  72  97 134 184 226 274 350 418
#
# _framework density 21.238824000000001
#
# number of rings (size 3 to 8) (size 9 to 14) (size 15 to 20)
#    0.000    1.200    4.000    2.400    5.600    1.600 
#    1.800    1.000    0.000    0.000    0.000    0.000 
#    0.000    0.000    0.000    0.000    0.000    0.000 
#
# Total GULP energy -495568.509538 kJ/mol
# GULP energy per Si atom -12389.212738 kJ/mol
# Density = 2.119048 g / cm^3
# Si number density = 21.238824 Si / 1000 Ang^3
#
#
#
# Elastic Constant Matrix: (Units=GPa)
#
#
# Indices 1 2 3 4 5 6 
#
# 1 110.3855 18.3351 54.6216 0.0000 0.0000 0.0000
# 2 18.3351 95.8976 41.2681 0.0000 0.0000 0.0000
# 3 54.6216 41.2681 126.4585 0.0000 0.0000 0.0000
# 4 0.0000 0.0000 0.0000 31.2992 0.0000 0.0000
# 5 0.0000 0.0000 0.0000 0.0000 9.4085 0.0000
# 6 0.0000 0.0000 0.0000 0.0000 0.0000 32.9107
#
#
#
# Elastic Compliance Matrix: (Units=1/GPa)
#
#
# Indices 1 2 3 4 5 6 
#
# 1 0.011522 -0.000071 -0.004954 0.000000 0.000000 0.000000
# 2 -0.000071 0.012132 -0.003928 0.000000 0.000000 0.000000
# 3 -0.004954 -0.003928 0.011329 0.000000 0.000000 0.000000
# 4 0.000000 0.000000 0.000000 0.031950 0.000000 0.000000
# 5 0.000000 0.000000 0.000000 0.000000 0.106287 0.000000
# 6 0.000000 0.000000 0.000000 0.000000 0.000000 0.030385
#
#
# Mechanical properties :
#
#
# Convention : Reuss Voigt Hill
#
# Bulk Modulus (GPa) = 58.55800 62.35457 60.45629
# Shear Modulus (GPa) = 22.00664 29.29148 25.64906
#
# Velocity S-wave (km/s) = 3.22242 3.71772 3.47890
# Velocity P-wave (km/s) = 6.44022 6.91745 6.68309
#
# Compressibility (1/GPa) = 0.01707708
#
# Stress axis : x y z
#
# Youngs Moduli (GPa) = 86.78950 82.42728 88.26697
#
# Poissons Ratio (x) = 0.00588 0.43723
# Poissons Ratio (y) = 0.00619 0.34674
# Poissons Ratio (z) = 0.42991 0.32380
#
# Static dielectric constant tensor:
#      x y z
#    x 3.855860 0.000000 0.000000 
#    y 0.000000 4.016000 0.000000 
#    z 0.000000 0.000000 3.955170 
# 
# 
# High freq. dielectric constant tensor:
#      x y z
#    x 1.822270 0.000000 0.000000 
#    y 0.000000 1.840640 0.000000 
#    z 0.000000 0.000000 1.827330 
# 
# From -- ./inp_files/30934.got.cif
#   From: 2010.06.25/outbox.cif.g09.slc.cpg/sg52_16_cif.got.tgz:30934.got - 2010.06.26 19:32:48.
