data_PCOD8216815
_publ_section_title
;
Structure prediction by ZEFSAII (Michael W. Deem and Ramdas Pophale) SiO2 
 PCOD8216815
Probable space group: P N N A
;
_chemical_formula_sum "Si O2"
_cell_formula_units_Z 36
_cell_length_a 21.266579
_cell_length_b 9.795461
_cell_length_c 7.553128
_cell_angle_alpha 90.000000
_cell_angle_beta 90.000000
_cell_angle_gamma 90.000000
_cell_volume 1573.436999
_symmetry_space_group_name_H-M "P N N A"
_symmetry_group_IT_number 52
_symmetry_cell_setting 'orthorhombic'
loop_
_space_group_symop_operation_xyz
x,y,z
1/2-x,-y,z
x,1/2-y,1/2-z
1/2-x,1/2+y,1/2-z
-x,-y,-z
1/2+x,y,-z
-x,1/2+y,1/2+z
1/2+x,1/2-y,1/2+z
loop_
_atom_site_type_symbol
_atom_site_label
_atom_site_fract_x
_atom_site_fract_y
_atom_site_fract_z
Si Si1 0.001898 0.250000 0.250000
Si Si2 0.588295 0.759518 0.945012
Si Si3 0.197007 0.107456 0.814299
Si Si4 0.890945 0.935567 0.883823
Si Si5 0.675965 0.983416 0.539470
O O1 0.041900 0.131444 0.155814
O O2 0.957941 0.194020 0.408610
O O3 0.556839 0.750000 0.750000
O O4 0.653552 0.674288 0.948850
O O5 0.602514 0.917935 0.979442
O O6 0.228788 0.250000 0.750000
O O7 0.250000 0.000000 0.877765
O O8 0.157079 0.043673 0.651751
O O9 0.150885 0.147969 0.975687
O O10 0.857061 0.933080 0.695003
O O11 0.750000 0.000000 0.564384
#
# Coordination Sequence:
#
# PCOD8216815 Si02
#       5
#     4   8   8   8   8
#     4  12  24  42  68 102 148 188 248 284 354 424
#     4  10  24  43  69 103 134 191 233 297 354 418
#     4  11  25  41  66 101 140 186 232 292 357 423
#     4  11  24  43  69 101 141 189 235 296 352 428
#     4  10  23  44  69 101 138 179 241 294 362 420
#
# _framework density 22.879850000000001
#
# number of rings (size 3 to 8) (size 9 to 14) (size 15 to 20)
#    0.000    1.333    0.000    4.000    6.222    6.222 
#   14.000    0.000    0.000    0.000    0.000    0.000 
#    0.000    0.000    0.000    0.000    0.000    0.000 
#
# Total GULP energy -446316.269635 kJ/mol
# GULP energy per Si atom -12397.674157 kJ/mol
# Density = 2.282777 g / cm^3
# Si number density = 22.879850 Si / 1000 Ang^3
#
#
#
# Elastic Constant Matrix: (Units=GPa)
#
#
# Indices 1 2 3 4 5 6 
#
# 1 134.5100 43.7521 63.2115 0.0000 0.0000 0.0000
# 2 43.7521 106.3965 16.4788 0.0000 0.0000 0.0000
# 3 63.2115 16.4788 143.8282 0.0000 0.0000 0.0000
# 4 0.0000 0.0000 0.0000 30.7254 0.0000 0.0000
# 5 0.0000 0.0000 0.0000 0.0000 37.7202 0.0000
# 6 0.0000 0.0000 0.0000 0.0000 0.0000 29.5772
#
#
#
# Elastic Compliance Matrix: (Units=1/GPa)
#
#
# Indices 1 2 3 4 5 6 
#
# 1 0.010641 -0.003717 -0.004251 0.000000 0.000000 0.000000
# 2 -0.003717 0.010867 0.000389 0.000000 0.000000 0.000000
# 3 -0.004251 0.000389 0.008776 0.000000 0.000000 0.000000
# 4 0.000000 0.000000 0.000000 0.032546 0.000000 0.000000
# 5 0.000000 0.000000 0.000000 0.000000 0.026511 0.000000
# 6 0.000000 0.000000 0.000000 0.000000 0.000000 0.033810
#
#
# Mechanical properties :
#
#
# Convention : Reuss Voigt Hill
#
# Bulk Modulus (GPa) = 66.11247 70.17995 68.14621
# Shear Modulus (GPa) = 34.87888 37.02404 35.95146
#
# Velocity S-wave (km/s) = 3.90864 4.02704 3.96828
# Velocity P-wave (km/s) = 7.02340 7.23620 7.13060
#
# Compressibility (1/GPa) = 0.01512574
#
# Stress axis : x y z
#
# Youngs Moduli (GPa) = 93.97442 92.01927 113.94186
#
# Poissons Ratio (x) = 0.34208 0.48435
# Poissons Ratio (y) = 0.34935 -0.04429
# Poissons Ratio (z) = 0.39947 -0.03577
#
# Static dielectric constant tensor:
#      x y z
#    x 3.838390 0.000000 0.000000 
#    y 0.000000 4.119600 0.000000 
#    z 0.000000 0.000000 4.546410 
# 
# 
# High freq. dielectric constant tensor:
#      x y z
#    x 1.882740 0.000000 0.000000 
#    y 0.000000 1.903780 0.000000 
#    z 0.000000 0.000000 1.927600 
# 
# From -- ./inp_files/13076.got.cif
#   From: 2010.06.25/outbox.cif.g09.slc.cpg/sg52_7_cif.got.tgz:13076.got - 2010.06.26 19:32:48.
