data_PCOD8216070
_publ_section_title
;
Structure prediction by ZEFSAII (Michael W. Deem and Ramdas Pophale) SiO2 
 PCOD8216070
Probable space group: P N N A
;
_chemical_formula_sum "Si O2"
_cell_formula_units_Z 40
_cell_length_a 20.444692
_cell_length_b 8.946674
_cell_length_c 11.118165
_cell_angle_alpha 90.000000
_cell_angle_beta 90.000000
_cell_angle_gamma 90.000000
_cell_volume 2033.645734
_symmetry_space_group_name_H-M "P N N A"
_symmetry_group_IT_number 52
_symmetry_cell_setting 'orthorhombic'
loop_
_space_group_symop_operation_xyz
x,y,z
1/2-x,-y,z
x,1/2-y,1/2-z
1/2-x,1/2+y,1/2-z
-x,-y,-z
1/2+x,y,-z
-x,1/2+y,1/2+z
1/2+x,1/2-y,1/2+z
loop_
_atom_site_type_symbol
_atom_site_label
_atom_site_fract_x
_atom_site_fract_y
_atom_site_fract_z
Si Si1 0.953443 0.003710 0.890441
Si Si2 0.435274 0.499424 0.920600
Si Si3 0.816711 0.577022 0.906509
Si Si4 0.521405 0.750000 0.250000
Si Si5 0.684178 0.077445 0.874987
Si Si6 0.481068 0.750000 0.750000
O O1 0.966943 0.158273 0.826182
O O2 0.878876 0.996915 0.937723
O O3 0.969681 0.860817 0.809946
O O4 0.000000 0.000000 0.000000
O O5 0.433072 0.344469 0.843069
O O6 0.435008 0.642286 0.830647
O O7 0.500000 0.500000 0.000000
O O8 0.374012 0.509824 0.010414
O O9 0.750000 0.500000 0.950674
O O10 0.810399 0.753844 0.919128
O O11 0.828538 0.544669 0.766042
O O12 0.750000 0.000000 0.920577
#
# Coordination Sequence:
#
# PCOD8216070 Si02
#       6
#     8   8   8   4   8   4
#     4  11  21  36  57  84 115 149 187 232 286 338
#     4  11  21  38  60  84 117 153 192 239 289 342
#     4  10  21  38  58  81 114 153 188 234 294 343
#     4  10  22  36  56  86 114 146 196 238 276 340
#     4  10  21  35  55  86 117 144 187 239 287 348
#     4  10  22  34  56  86 112 148 196 236 278 340
#
# _framework density 19.669111000000001
#
# number of rings (size 3 to 8) (size 9 to 14) (size 15 to 20)
#    0.000    1.600    0.000    7.200    0.000    6.400 
#    0.000    1.000    0.000    4.800    0.000    0.000 
#    0.000    0.000    0.000    0.000    0.000    0.000 
#
# Total GULP energy -495867.320722 kJ/mol
# GULP energy per Si atom -12396.683018 kJ/mol
# Density = 1.962434 g / cm^3
# Si number density = 19.669111 Si / 1000 Ang^3
#
#
#
# Elastic Constant Matrix: (Units=GPa)
#
#
# Indices 1 2 3 4 5 6 
#
# 1 186.1483 55.9204 57.1505 0.0000 0.0000 0.0000
# 2 55.9204 108.4421 40.4503 0.0000 0.0000 0.0000
# 3 57.1505 40.4503 77.6392 0.0000 0.0000 0.0000
# 4 0.0000 0.0000 0.0000 -0.7351 0.0000 0.0000
# 5 0.0000 0.0000 0.0000 0.0000 33.9872 0.0000
# 6 0.0000 0.0000 0.0000 0.0000 0.0000 28.3117
#
#
#
# Elastic Compliance Matrix: (Units=1/GPa)
#
#
# Indices 1 2 3 4 5 6 
#
# 1 0.007339 -0.002196 -0.004258 0.000000 0.000000 0.000000
# 2 -0.002196 0.012103 -0.004689 0.000000 0.000000 0.000000
# 3 -0.004258 -0.004689 0.018458 0.000000 0.000000 0.000000
# 4 0.000000 0.000000 0.000000 -1.360430 0.000000 0.000000
# 5 0.000000 0.000000 0.000000 0.000000 0.029423 0.000000
# 6 0.000000 0.000000 0.000000 0.000000 0.000000 0.035321
#
#
# Mechanical properties :
#
#
# Convention : Reuss Voigt Hill
#
# Bulk Modulus (GPa) = 64.04966 75.47466 69.76216
# Shear Modulus (GPa) = -4.06407 26.89333 11.41463
#
# Velocity S-wave (km/s) = -1.43899 3.70170 2.41162
# Velocity P-wave (km/s) = 5.46565 7.53164 6.58023
#
# Compressibility (1/GPa) = 0.01561289
#
# Stress axis : x y z
#
# Youngs Moduli (GPa) = 136.25577 82.62310 54.17837
#
# Poissons Ratio (x) = 0.18146 0.23070
# Poissons Ratio (y) = 0.29925 0.25405
# Poissons Ratio (z) = 0.58019 0.38743
#
# Static dielectric constant tensor:
#      x y z
#    x 2.862300 0.000000 0.000000 
#    y 0.000000 3.884670 0.000000 
#    z 0.000000 0.000000 3.568190 
# 
# 
# High freq. dielectric constant tensor:
#      x y z
#    x 1.758920 0.000000 0.000000 
#    y 0.000000 1.785870 0.000000 
#    z 0.000000 0.000000 1.752910 
# 
# From -- ./inp_files/20374.got.cif
#   From: 2010.06.25/outbox.cif.g09.slc.cpg/sg52_11_cif.got.tgz:20374.got - 2010.06.26 19:32:48.
