data_PCOD8216215
_publ_section_title
;
Structure prediction by ZEFSAII (Michael W. Deem and Ramdas Pophale) SiO2 
 PCOD8216215
Probable space group: P N N A
;
_chemical_formula_sum "Si O2"
_cell_formula_units_Z 36
_cell_length_a 5.090304
_cell_length_b 13.780283
_cell_length_c 25.707380
_cell_angle_alpha 90.000000
_cell_angle_beta 90.000000
_cell_angle_gamma 90.000000
_cell_volume 1803.265499
_symmetry_space_group_name_H-M "P N N A"
_symmetry_group_IT_number 52
_symmetry_cell_setting 'orthorhombic'
loop_
_space_group_symop_operation_xyz
x,y,z
1/2-x,-y,z
x,1/2-y,1/2-z
1/2-x,1/2+y,1/2-z
-x,-y,-z
1/2+x,y,-z
-x,1/2+y,1/2+z
1/2+x,1/2-y,1/2+z
loop_
_atom_site_type_symbol
_atom_site_label
_atom_site_fract_x
_atom_site_fract_y
_atom_site_fract_z
Si Si1 0.726860 0.291846 0.693485
Si Si2 0.250000 0.500000 0.535431
Si Si3 0.255194 0.789476 0.963943
Si Si4 0.750000 0.000000 0.768148
Si Si5 0.750000 0.000000 0.304923
Si Si6 0.277506 0.795556 0.643363
O O1 0.791339 0.250000 0.750000
O O2 0.761230 0.407640 0.693989
O O3 0.433330 0.264627 0.676711
O O4 0.933476 0.246977 0.653381
O O5 0.500000 0.500000 0.500000
O O6 0.246737 0.603665 0.565366
O O7 0.223232 0.711318 0.918223
O O8 0.526809 0.775019 0.994160
O O9 0.500283 0.008664 0.731460
O O10 0.767608 0.907844 0.342186
#
# Coordination Sequence:
#
# PCOD8216215 Si02
#       6
#     8   4   8   4   4   8
#     4  12  23  41  60  93 121 161 201 256 297 367
#     4   8  16  32  56  78 108 150 184 234 310 352
#     4  10  21  39  60  87 119 156 199 254 300 354
#     4  12  24  38  65  87 128 159 204 247 310 360
#     4  12  22  40  61  89 118 173 202 241 310 370
#     4  12  24  40  65  89 125 163 210 246 309 362
#
# _framework density 19.963782999999999
#
# number of rings (size 3 to 8) (size 9 to 14) (size 15 to 20)
#    0.000    0.889    4.444    3.333    0.000    1.778 
#    0.000    3.333    0.000    0.000    0.000    0.000 
#    0.000    0.000    0.000    0.000    0.000    0.000 
#
# Total GULP energy -446381.683751 kJ/mol
# GULP energy per Si atom -12399.491215 kJ/mol
# Density = 1.991834 g / cm^3
# Si number density = 19.963783 Si / 1000 Ang^3
#
#
#
# Elastic Constant Matrix: (Units=GPa)
#
#
# Indices 1 2 3 4 5 6 
#
# 1 104.9373 24.5864 10.7950 0.0000 0.0000 0.0000
# 2 24.5864 152.6582 44.4592 0.0000 0.0000 0.0000
# 3 10.7950 44.4592 76.3183 0.0000 0.0000 0.0000
# 4 0.0000 0.0000 0.0000 24.8032 0.0000 0.0000
# 5 0.0000 0.0000 0.0000 0.0000 27.6778 0.0000
# 6 0.0000 0.0000 0.0000 0.0000 0.0000 26.9828
#
#
#
# Elastic Compliance Matrix: (Units=1/GPa)
#
#
# Indices 1 2 3 4 5 6 
#
# 1 0.009924 -0.001432 -0.000569 0.000000 0.000000 0.000000
# 2 -0.001432 0.008096 -0.004514 0.000000 0.000000 0.000000
# 3 -0.000569 -0.004514 0.015813 0.000000 0.000000 0.000000
# 4 0.000000 0.000000 0.000000 0.040317 0.000000 0.000000
# 5 0.000000 0.000000 0.000000 0.000000 0.036130 0.000000
# 6 0.000000 0.000000 0.000000 0.000000 0.000000 0.037061
#
#
# Mechanical properties :
#
#
# Convention : Reuss Voigt Hill
#
# Bulk Modulus (GPa) = 48.07258 54.84391 51.45824
# Shear Modulus (GPa) = 29.88555 32.83097 31.35826
#
# Velocity S-wave (km/s) = 3.87329 4.05968 3.96758
# Velocity P-wave (km/s) = 6.64344 7.03605 6.84256
#
# Compressibility (1/GPa) = 0.02080188
#
# Stress axis : x y z
#
# Youngs Moduli (GPa) = 100.76908 123.52084 63.23941
#
# Poissons Ratio (x) = 0.17694 0.03599
# Poissons Ratio (y) = 0.14435 0.28544
# Poissons Ratio (z) = 0.05736 0.55752
#
# Static dielectric constant tensor:
#      x y z
#    x 3.876990 0.000000 0.000000 
#    y 0.000000 4.107140 0.000000 
#    z 0.000000 0.000000 3.453190 
# 
# 
# High freq. dielectric constant tensor:
#      x y z
#    x 1.805700 0.000000 0.000000 
#    y 0.000000 1.784870 0.000000 
#    z 0.000000 0.000000 1.754600 
# 
# From -- ./inp_files/38586.got.cif
#   From: 2010.06.25/outbox.cif.g09.slc.cpg/sg52_20_cif.got.tgz:38586.got - 2010.06.26 19:32:48.
