data_PCOD8216106
_publ_section_title
;
Structure prediction by ZEFSAII (Michael W. Deem and Ramdas Pophale) SiO2 
 PCOD8216106
Probable space group: P N N A
;
_chemical_formula_sum "Si O2"
_cell_formula_units_Z 60
_cell_length_a 11.276284
_cell_length_b 14.617840
_cell_length_c 18.381983
_cell_angle_alpha 90.000000
_cell_angle_beta 90.000000
_cell_angle_gamma 90.000000
_cell_volume 3029.992611
_symmetry_space_group_name_H-M "P N N A"
_symmetry_group_IT_number 52
_symmetry_cell_setting 'orthorhombic'
loop_
_space_group_symop_operation_xyz
x,y,z
1/2-x,-y,z
x,1/2-y,1/2-z
1/2-x,1/2+y,1/2-z
-x,-y,-z
1/2+x,y,-z
-x,1/2+y,1/2+z
1/2+x,1/2-y,1/2+z
loop_
_atom_site_type_symbol
_atom_site_label
_atom_site_fract_x
_atom_site_fract_y
_atom_site_fract_z
Si Si1 0.125809 0.553398 0.483697
Si Si2 0.072978 0.750000 0.250000
Si Si3 0.901430 0.743165 0.669258
Si Si4 0.083129 0.757461 0.958007
Si Si5 0.788001 0.401894 0.671870
Si Si6 0.251790 0.401049 0.117379
Si Si7 0.220587 0.101089 0.542843
Si Si8 0.499926 0.685243 0.898065
O O1 0.250000 0.500000 0.498467
O O2 0.137252 0.640605 0.537609
O O3 0.127771 0.585663 0.398968
O O4 0.000000 0.500000 0.500000
O O5 0.150312 0.657739 0.264133
O O6 0.993372 0.738899 0.178296
O O7 0.956172 0.750000 0.750000
O O8 0.832507 0.650256 0.648497
O O9 0.805555 0.825005 0.668222
O O10 0.006070 0.754966 0.613390
O O11 0.178998 0.677880 0.950801
O O12 0.004200 0.750941 0.031439
O O13 0.750000 0.500000 0.704112
O O14 0.250000 0.500000 0.155903
O O15 0.386650 0.379182 0.098980
O O16 0.178538 0.404398 0.041265
O O17 0.116260 0.125258 0.597562
O O18 0.250000 0.000000 0.570595
#
# Coordination Sequence:
#
# PCOD8216106 Si02
#       8
#     8   4   8   8   8   8   8   8
#     4  11  24  41  72 103 134 180 232 283 343 406
#     4  12  22  40  62  98 126 172 216 264 336 384
#     4  12  23  41  63  97 133 169 222 275 341 388
#     4  11  23  41  67  90 130 173 217 276 323 401
#     4  11  22  41  65  99 135 163 216 282 337 399
#     4  10  21  36  65  96 124 160 207 267 326 387
#     4  10  23  40  63  93 126 169 216 257 324 399
#     4  11  22  38  65  89 127 168 213 265 323 390
#
# _framework density 19.802026999999999
#
# number of rings (size 3 to 8) (size 9 to 14) (size 15 to 20)
#    0.000    1.067    4.667    2.400    3.733    3.733 
#    1.200    0.000    0.000    0.000    0.000    0.000 
#    0.000    0.000    0.000    0.000    0.000    0.000 
#
# Total GULP energy -743630.371589 kJ/mol
# GULP energy per Si atom -12393.839526 kJ/mol
# Density = 1.975696 g / cm^3
# Si number density = 19.802027 Si / 1000 Ang^3
#
#
#
# Elastic Constant Matrix: (Units=GPa)
#
#
# Indices 1 2 3 4 5 6 
#
# 1 94.9887 53.0779 58.3400 0.0000 0.0000 0.0000
# 2 53.0779 165.4177 45.6344 0.0000 0.0000 0.0000
# 3 58.3400 45.6344 134.9672 0.0000 0.0000 0.0000
# 4 0.0000 0.0000 0.0000 2.1612 0.0000 0.0000
# 5 0.0000 0.0000 0.0000 0.0000 31.7634 0.0000
# 6 0.0000 0.0000 0.0000 0.0000 0.0000 22.5343
#
#
#
# Elastic Compliance Matrix: (Units=1/GPa)
#
#
# Indices 1 2 3 4 5 6 
#
# 1 0.016037 -0.003566 -0.005726 0.000000 0.000000 0.000000
# 2 -0.003566 0.007460 -0.000981 0.000000 0.000000 0.000000
# 3 -0.005726 -0.000981 0.010216 0.000000 0.000000 0.000000
# 4 0.000000 0.000000 0.000000 0.462706 0.000000 0.000000
# 5 0.000000 0.000000 0.000000 0.000000 0.031483 0.000000
# 6 0.000000 0.000000 0.000000 0.000000 0.000000 0.044377
#
#
# Mechanical properties :
#
#
# Convention : Reuss Voigt Hill
#
# Bulk Modulus (GPa) = 75.94938 78.83091 77.39015
# Shear Modulus (GPa) = 8.37219 27.17987 17.77603
#
# Velocity S-wave (km/s) = 2.05843 3.70885 2.99939
# Velocity P-wave (km/s) = 6.63981 7.63130 7.15276
#
# Compressibility (1/GPa) = 0.01316666
#
# Stress axis : x y z
#
# Youngs Moduli (GPa) = 62.35459 134.04481 97.88442
#
# Poissons Ratio (x) = 0.47802 0.56053
# Poissons Ratio (y) = 0.22237 0.09602
# Poissons Ratio (z) = 0.35707 0.13149
#
# Static dielectric constant tensor:
#      x y z
#    x 3.314270 0.000000 0.000000 
#    y 0.000000 3.947800 0.000000 
#    z 0.000000 0.000000 3.634080 
# 
# 
# High freq. dielectric constant tensor:
#      x y z
#    x 1.748200 0.000000 0.000000 
#    y 0.000000 1.789160 0.000000 
#    z 0.000000 0.000000 1.775220 
# 
# From -- ./inp_files/32380.got.cif
#   From: 2010.06.25/outbox.cif.g09.slc.cpg/sg52_17_cif.got.tgz:32380.got - 2010.06.26 19:32:48.
