data_PCOD8216184
_publ_section_title
;
Structure prediction by ZEFSAII (Michael W. Deem and Ramdas Pophale) SiO2 
 PCOD8216184
Probable space group: P N N A
;
_chemical_formula_sum "Si O2"
_cell_formula_units_Z 40
_cell_length_a 9.705598
_cell_length_b 26.850352
_cell_length_c 7.568985
_cell_angle_alpha 90.000000
_cell_angle_beta 90.000000
_cell_angle_gamma 90.000000
_cell_volume 1972.467823
_symmetry_space_group_name_H-M "P N N A"
_symmetry_group_IT_number 52
_symmetry_cell_setting 'orthorhombic'
loop_
_space_group_symop_operation_xyz
x,y,z
1/2-x,-y,z
x,1/2-y,1/2-z
1/2-x,1/2+y,1/2-z
-x,-y,-z
1/2+x,y,-z
-x,1/2+y,1/2+z
1/2+x,1/2-y,1/2+z
loop_
_atom_site_type_symbol
_atom_site_label
_atom_site_fract_x
_atom_site_fract_y
_atom_site_fract_z
Si Si1 0.288121 0.094382 0.176652
Si Si2 0.286642 0.301123 0.160814
Si Si3 0.127997 0.535079 0.974523
Si Si4 0.472557 0.402270 0.653083
Si Si5 0.527526 0.801253 0.330676
O O1 0.301851 0.153572 0.202874
O O2 0.333630 0.063419 0.346354
O O3 0.130554 0.080102 0.130333
O O4 0.387778 0.079418 0.016383
O O5 0.339746 0.250000 0.250000
O O6 0.128576 0.295290 0.099139
O O7 0.377291 0.315734 0.993553
O O8 0.250000 0.500000 0.907981
O O9 0.096318 0.575416 0.826800
O O10 0.000000 0.500000 0.000000
O O11 0.464354 0.342730 0.677677
O O12 0.583148 0.750000 0.250000
#
# Coordination Sequence:
#
# PCOD8216184 Si02
#       5
#     8   8   8   8   8
#     4  11  25  43  67  99 132 172 220 268 328 389
#     4  10  21  38  62  94 132 170 213 261 320 388
#     4  12  26  46  68  95 129 174 224 273 327 382
#     4  11  25  43  67  98 133 172 217 272 325 391
#     4  10  21  38  62  94 131 170 213 261 321 385
#
# _framework density 20.279164999999999
#
# number of rings (size 3 to 8) (size 9 to 14) (size 15 to 20)
#    0.000    1.200    4.000    1.200    2.800    4.000 
#    0.000    0.000    0.000    0.000    0.000    0.000 
#    0.000    0.000    0.000    0.000    0.000    0.000 
#
# Total GULP energy -496168.409168 kJ/mol
# GULP energy per Si atom -12404.210229 kJ/mol
# Density = 2.023301 g / cm^3
# Si number density = 20.279165 Si / 1000 Ang^3
#
#
#
# Elastic Constant Matrix: (Units=GPa)
#
#
# Indices 1 2 3 4 5 6 
#
# 1 137.6772 38.3142 70.8463 0.0000 0.0000 0.0000
# 2 38.3142 95.0817 27.2326 0.0000 0.0000 0.0000
# 3 70.8463 27.2326 122.4639 0.0000 0.0000 0.0000
# 4 0.0000 0.0000 0.0000 27.2197 0.0000 0.0000
# 5 0.0000 0.0000 0.0000 0.0000 40.8154 0.0000
# 6 0.0000 0.0000 0.0000 0.0000 0.0000 33.0375
#
#
#
# Elastic Compliance Matrix: (Units=1/GPa)
#
#
# Indices 1 2 3 4 5 6 
#
# 1 0.010992 -0.002785 -0.005740 0.000000 0.000000 0.000000
# 2 -0.002785 0.011939 -0.001043 0.000000 0.000000 0.000000
# 3 -0.005740 -0.001043 0.011718 0.000000 0.000000 0.000000
# 4 0.000000 0.000000 0.000000 0.036738 0.000000 0.000000
# 5 0.000000 0.000000 0.000000 0.000000 0.024501 0.000000
# 6 0.000000 0.000000 0.000000 0.000000 0.000000 0.030269
#
#
# Mechanical properties :
#
#
# Convention : Reuss Voigt Hill
#
# Bulk Modulus (GPa) = 64.46703 69.77878 67.12290
# Shear Modulus (GPa) = 33.23068 34.80316 34.01692
#
# Velocity S-wave (km/s) = 4.05243 4.14720 4.10009
# Velocity P-wave (km/s) = 7.33178 7.57735 7.45558
#
# Compressibility (1/GPa) = 0.01551181
#
# Stress axis : x y z
#
# Youngs Moduli (GPa) = 90.97521 83.76230 85.33835
#
# Poissons Ratio (x) = 0.23332 0.48980
# Poissons Ratio (y) = 0.25341 0.08904
# Poissons Ratio (z) = 0.52216 0.08740
#
# Static dielectric constant tensor:
#      x y z
#    x 3.875480 0.000000 0.000000 
#    y 0.000000 3.835670 0.000000 
#    z 0.000000 0.000000 3.539740 
# 
# 
# High freq. dielectric constant tensor:
#      x y z
#    x 1.802640 0.000000 0.000000 
#    y 0.000000 1.808280 0.000000 
#    z 0.000000 0.000000 1.782030 
# 
# From -- ./inp_files/1342.got.cif
#   From: 2010.06.25/outbox.cif.g09.slc.cpg/sg52_1_cif.got.tgz:1342.got - 2010.06.26 19:32:48.
