data_PCOD8216685
_publ_section_title
;
Structure prediction by ZEFSAII (Michael W. Deem and Ramdas Pophale) SiO2 
 PCOD8216685
Probable space group: P N N A
;
_chemical_formula_sum "Si O2"
_cell_formula_units_Z 28
_cell_length_a 16.774026
_cell_length_b 15.134629
_cell_length_c 4.952552
_cell_angle_alpha 90.000000
_cell_angle_beta 90.000000
_cell_angle_gamma 90.000000
_cell_volume 1257.297742
_symmetry_space_group_name_H-M "P N N A"
_symmetry_group_IT_number 52
_symmetry_cell_setting 'orthorhombic'
loop_
_space_group_symop_operation_xyz
x,y,z
1/2-x,-y,z
x,1/2-y,1/2-z
1/2-x,1/2+y,1/2-z
-x,-y,-z
1/2+x,y,-z
-x,1/2+y,1/2+z
1/2+x,1/2-y,1/2+z
loop_
_atom_site_type_symbol
_atom_site_label
_atom_site_fract_x
_atom_site_fract_y
_atom_site_fract_z
Si Si1 0.302422 0.155999 0.148511
Si Si2 0.688648 0.250000 0.250000
Si Si3 0.660333 0.092386 0.549217
Si Si4 0.906326 0.000611 0.037167
O O1 0.337128 0.250000 0.250000
O O2 0.256450 0.100044 0.386885
O O3 0.241040 0.177228 0.908458
O O4 0.375053 0.097193 0.044865
O O5 0.634328 0.190882 0.449845
O O6 0.629477 0.019846 0.333880
O O7 0.621334 0.075745 0.836581
O O8 0.000000 0.000000 0.000000
#
# Coordination Sequence:
#
# PCOD8216685 Si02
#       4
#     8   4   8   8
#     4  10  24  43  72 102 136 184 245 291 339 409
#     4  10  22  44  68 108 126 182 248 292 332 392
#     4  11  24  44  72  98 135 184 243 281 338 414
#     4  12  27  45  68 108 147 184 223 288 364 420
#
# _framework density 22.269981999999999
#
# number of rings (size 3 to 8) (size 9 to 14) (size 15 to 20)
#    0.000    1.143    2.857    1.714   12.000    0.000 
#    2.571    0.000    0.000    0.000    0.000    0.000 
#    0.000    0.000    0.000    0.000    0.000    0.000 
#
# Total GULP energy -346880.612658 kJ/mol
# GULP energy per Si atom -12388.593309 kJ/mol
# Density = 2.221929 g / cm^3
# Si number density = 22.269982 Si / 1000 Ang^3
#
#
#
# Elastic Constant Matrix: (Units=GPa)
#
#
# Indices 1 2 3 4 5 6 
#
# 1 114.7397 73.4292 30.1116 0.0000 0.0000 0.0000
# 2 73.4292 107.6417 24.5805 0.0000 0.0000 0.0000
# 3 30.1116 24.5805 95.5982 0.0000 0.0000 0.0000
# 4 0.0000 0.0000 0.0000 57.2648 0.0000 0.0000
# 5 0.0000 0.0000 0.0000 0.0000 18.3483 0.0000
# 6 0.0000 0.0000 0.0000 0.0000 0.0000 21.0099
#
#
#
# Elastic Compliance Matrix: (Units=1/GPa)
#
#
# Indices 1 2 3 4 5 6 
#
# 1 0.015957 -0.010345 -0.002366 0.000000 0.000000 0.000000
# 2 -0.010345 0.016576 -0.001004 0.000000 0.000000 0.000000
# 3 -0.002366 -0.001004 0.011464 0.000000 0.000000 0.000000
# 4 0.000000 0.000000 0.000000 0.017463 0.000000 0.000000
# 5 0.000000 0.000000 0.000000 0.000000 0.054501 0.000000
# 6 0.000000 0.000000 0.000000 0.000000 0.000000 0.047597
#
#
# Mechanical properties :
#
#
# Convention : Reuss Voigt Hill
#
# Bulk Modulus (GPa) = 60.35966 63.80244 62.08105
# Shear Modulus (GPa) = 25.44425 31.98183 28.71304
#
# Velocity S-wave (km/s) = 3.38381 3.79370 3.59460
# Velocity P-wave (km/s) = 6.51378 6.92107 6.72051
#
# Compressibility (1/GPa) = 0.01656736
#
# Stress axis : x y z
#
# Youngs Moduli (GPa) = 62.67027 60.32815 87.23097
#
# Poissons Ratio (x) = 0.62407 0.20640
# Poissons Ratio (y) = 0.64830 0.08755
# Poissons Ratio (z) = 0.14829 0.06055
#
# Static dielectric constant tensor:
#      x y z
#    x 3.590510 0.000000 0.000000 
#    y 0.000000 4.506850 0.000000 
#    z 0.000000 0.000000 4.470530 
# 
# 
# High freq. dielectric constant tensor:
#      x y z
#    x 1.819050 0.000000 0.000000 
#    y 0.000000 1.895000 0.000000 
#    z 0.000000 0.000000 1.905530 
# 
# From -- ./inp_files/1860.got.cif
#   From: 2010.06.25/outbox.cif.g09.slc.cpg/sg52_1_cif.got.tgz:1860.got - 2010.06.26 19:32:48.
