data_PCOD8216564
_publ_section_title
;
Structure prediction by ZEFSAII (Michael W. Deem and Ramdas Pophale) SiO2 
 PCOD8216564
Probable space group: P N N A
;
_chemical_formula_sum "Si O2"
_cell_formula_units_Z 48
_cell_length_a 8.865036
_cell_length_b 21.618976
_cell_length_c 10.854530
_cell_angle_alpha 90.000000
_cell_angle_beta 90.000000
_cell_angle_gamma 90.000000
_cell_volume 2080.303244
_symmetry_space_group_name_H-M "P N N A"
_symmetry_group_IT_number 52
_symmetry_cell_setting 'orthorhombic'
loop_
_space_group_symop_operation_xyz
x,y,z
1/2-x,-y,z
x,1/2-y,1/2-z
1/2-x,1/2+y,1/2-z
-x,-y,-z
1/2+x,y,-z
-x,1/2+y,1/2+z
1/2+x,1/2-y,1/2+z
loop_
_atom_site_type_symbol
_atom_site_label
_atom_site_fract_x
_atom_site_fract_y
_atom_site_fract_z
Si Si1 0.026762 0.542296 0.841066
Si Si2 0.870270 0.250000 0.750000
Si Si3 0.661092 0.830320 0.339885
Si Si4 0.850578 0.784105 0.551347
Si Si5 0.750000 0.500000 0.956575
Si Si6 0.625402 0.323270 0.377087
Si Si7 0.905547 0.531085 0.393310
O O1 0.095404 0.605050 0.788610
O O2 0.125460 0.534902 0.964292
O O3 0.040625 0.485957 0.744906
O O4 0.848324 0.547980 0.873421
O O5 0.766541 0.208701 0.661531
O O6 0.968670 0.299743 0.677825
O O7 0.797713 0.831387 0.441663
O O8 0.520472 0.794169 0.399811
O O9 0.736429 0.804624 0.214577
O O10 0.841885 0.713517 0.502647
O O11 0.606028 0.395351 0.405773
O O12 0.750000 0.500000 0.417611
O O13 0.000000 0.500000 0.500000
#
# Coordination Sequence:
#
# PCOD8216564 Si02
#       7
#     8   4   8   8   4   8   8
#     4  11  23  45  72 108 145 195 247 311 381 452
#     4  12  28  44  72 110 144 198 248 306 386 444
#     4  12  23  46  77 104 153 189 253 312 388 449
#     4  12  27  44  74 114 146 201 246 316 383 447
#     4  10  22  40  70 104 144 190 244 306 376 440
#     4  12  26  52  74 106 154 192 255 319 364 469
#     4  12  29  50  75 109 149 203 252 306 382 456
#
# _framework density 23.073560000000001
#
# number of rings (size 3 to 8) (size 9 to 14) (size 15 to 20)
#    0.000    0.333    5.833    1.000    5.833    6.667 
#    0.000    0.000    0.000    0.000    0.000    0.000 
#    0.000    0.000    0.000    0.000    0.000    0.000 
#
# Total GULP energy -594848.000831 kJ/mol
# GULP energy per Si atom -12392.666684 kJ/mol
# Density = 2.302104 g / cm^3
# Si number density = 23.073560 Si / 1000 Ang^3
#
#
#
# Elastic Constant Matrix: (Units=GPa)
#
#
# Indices 1 2 3 4 5 6 
#
# 1 153.8963 23.2431 43.2983 0.0000 0.0000 0.0000
# 2 23.2431 108.0750 13.7255 0.0000 0.0000 0.0000
# 3 43.2983 13.7255 61.9405 0.0000 0.0000 0.0000
# 4 0.0000 0.0000 0.0000 33.1821 0.0000 0.0000
# 5 0.0000 0.0000 0.0000 0.0000 368.7523 0.0000
# 6 0.0000 0.0000 0.0000 0.0000 0.0000 36.0739
#
#
#
# Elastic Compliance Matrix: (Units=1/GPa)
#
#
# Indices 1 2 3 4 5 6 
#
# 1 0.008206 -0.001066 -0.005500 0.000000 0.000000 0.000000
# 2 -0.001066 0.009659 -0.001395 0.000000 0.000000 0.000000
# 3 -0.005500 -0.001395 0.020298 0.000000 0.000000 0.000000
# 4 0.000000 0.000000 0.000000 0.030137 0.000000 0.000000
# 5 0.000000 0.000000 0.000000 0.000000 0.002712 0.000000
# 6 0.000000 0.000000 0.000000 0.000000 0.000000 0.027721
#
#
# Mechanical properties :
#
#
# Convention : Reuss Voigt Hill
#
# Bulk Modulus (GPa) = 44.96200 53.82729 49.39464
# Shear Modulus (GPa) = 40.95991 103.84465 72.40228
#
# Velocity S-wave (km/s) = 4.21787 6.71592 5.60776
# Velocity P-wave (km/s) = 6.57641 9.13878 7.96136
#
# Compressibility (1/GPa) = 0.02224101
#
# Stress axis : x y z
#
# Youngs Moduli (GPa) = 121.85591 103.52679 49.26473
#
# Poissons Ratio (x) = 0.11040 0.27097
# Poissons Ratio (y) = 0.12994 0.06872
# Poissons Ratio (z) = 0.67024 0.14442
#
# Static dielectric constant tensor:
#      x y z
#    x 4.498710 0.000000 0.000000 
#    y 0.000000 4.176510 0.000000 
#    z 0.000000 0.000000 4.186590 
# 
# 
# High freq. dielectric constant tensor:
#      x y z
#    x 1.933620 0.000000 0.000000 
#    y 0.000000 1.903440 0.000000 
#    z 0.000000 0.000000 1.913870 
# 
# From -- ./inp_files/16996.got.cif
#   From: 2010.06.25/outbox.cif.g09.slc.cpg/sg52_9_cif.got.tgz:16996.got - 2010.06.26 19:32:48.
