data_PCOD8216543
_publ_section_title
;
Structure prediction by ZEFSAII (Michael W. Deem and Ramdas Pophale) SiO2 
 PCOD8216543
Probable space group: P N N A
;
_chemical_formula_sum "Si O2"
_cell_formula_units_Z 36
_cell_length_a 10.799801
_cell_length_b 15.622106
_cell_length_c 11.038736
_cell_angle_alpha 90.000000
_cell_angle_beta 90.000000
_cell_angle_gamma 90.000000
_cell_volume 1862.407365
_symmetry_space_group_name_H-M "P N N A"
_symmetry_group_IT_number 52
_symmetry_cell_setting 'orthorhombic'
loop_
_space_group_symop_operation_xyz
x,y,z
1/2-x,-y,z
x,1/2-y,1/2-z
1/2-x,1/2+y,1/2-z
-x,-y,-z
1/2+x,y,-z
-x,1/2+y,1/2+z
1/2+x,1/2-y,1/2+z
loop_
_atom_site_type_symbol
_atom_site_label
_atom_site_fract_x
_atom_site_fract_y
_atom_site_fract_z
Si Si1 0.639411 0.154809 0.773884
Si Si2 0.072693 0.415074 0.530852
Si Si3 0.250000 0.500000 0.714228
Si Si4 0.013119 0.988840 0.642832
Si Si5 0.572866 0.843301 0.773849
O O1 0.584199 0.250000 0.750000
O O2 0.581403 0.083854 0.686249
O O3 0.783307 0.154197 0.744533
O O4 0.624071 0.130813 0.913214
O O5 0.186065 0.430158 0.625129
O O6 0.000000 0.500000 0.500000
O O7 0.964249 0.357010 0.586768
O O8 0.352720 0.458927 0.804956
O O9 0.989317 0.082832 0.694709
O O10 0.000000 0.000000 0.500000
O O11 0.516563 0.750000 0.750000
#
# Coordination Sequence:
#
# PCOD8216543 Si02
#       5
#     8   8   4   8   8
#     4  11  24  41  64  96 123 168 209 262 318 373
#     4  11  20  40  68  89 126 160 218 255 307 377
#     4  10  22  40  64  96 118 172 216 252 320 368
#     4  11  25  42  63  92 130 165 209 259 320 379
#     4  10  23  41  63  90 121 166 205 255 315 364
#
# _framework density 19.329820000000002
#
# number of rings (size 3 to 8) (size 9 to 14) (size 15 to 20)
#    0.000    1.333    4.444    2.000    6.222    0.000 
#    0.000    4.444    0.000    0.000    0.000    0.000 
#    0.000    0.000    0.000    0.000    0.000    0.000 
#
# Total GULP energy -446110.473163 kJ/mol
# GULP energy per Si atom -12391.957588 kJ/mol
# Density = 1.928582 g / cm^3
# Si number density = 19.329820 Si / 1000 Ang^3
#
#
#
# Elastic Constant Matrix: (Units=GPa)
#
#
# Indices 1 2 3 4 5 6 
#
# 1 85.0027 42.8411 41.8140 0.0000 0.0000 0.0000
# 2 42.8411 154.4613 57.1351 0.0000 0.0000 0.0000
# 3 41.8140 57.1351 152.4066 0.0000 0.0000 0.0000
# 4 0.0000 0.0000 0.0000 23.5285 0.0000 0.0000
# 5 0.0000 0.0000 0.0000 0.0000 25.7540 0.0000
# 6 0.0000 0.0000 0.0000 0.0000 0.0000 16.3954
#
#
#
# Elastic Compliance Matrix: (Units=1/GPa)
#
#
# Indices 1 2 3 4 5 6 
#
# 1 0.014709 -0.003003 -0.002910 0.000000 0.000000 0.000000
# 2 -0.003003 0.008130 -0.002224 0.000000 0.000000 0.000000
# 3 -0.002910 -0.002224 0.008193 0.000000 0.000000 0.000000
# 4 0.000000 0.000000 0.000000 0.042502 0.000000 0.000000
# 5 0.000000 0.000000 0.000000 0.000000 0.038829 0.000000
# 6 0.000000 0.000000 0.000000 0.000000 0.000000 0.060993
#
#
# Mechanical properties :
#
#
# Convention : Reuss Voigt Hill
#
# Bulk Modulus (GPa) = 67.75655 75.05011 71.40333
# Shear Modulus (GPa) = 25.70046 29.80759 27.75403
#
# Velocity S-wave (km/s) = 3.65029 3.93116 3.79332
# Velocity P-wave (km/s) = 7.27290 7.71464 7.49703
#
# Compressibility (1/GPa) = 0.01475872
#
# Stress axis : x y z
#
# Youngs Moduli (GPa) = 67.98377 123.00590 122.05078
#
# Poissons Ratio (x) = 0.36945 0.35513
# Poissons Ratio (y) = 0.20419 0.27140
# Poissons Ratio (z) = 0.19781 0.27353
#
# Static dielectric constant tensor:
#      x y z
#    x 3.831700 0.000000 0.000000 
#    y 0.000000 4.299010 0.000000 
#    z 0.000000 0.000000 3.804120 
# 
# 
# High freq. dielectric constant tensor:
#      x y z
#    x 1.760560 0.000000 0.000000 
#    y 0.000000 1.749100 0.000000 
#    z 0.000000 0.000000 1.761310 
# 
# From -- ./inp_files/17932.got.cif
#   From: 2010.06.25/outbox.cif.g09.slc.cpg/sg52_9_cif.got.tgz:17932.got - 2010.06.26 19:32:48.
