data_PCOD8216049
_publ_section_title
;
Structure prediction by ZEFSAII (Michael W. Deem and Ramdas Pophale) SiO2 
 PCOD8216049
Probable space group: P N N A
;
_chemical_formula_sum "Si O2"
_cell_formula_units_Z 36
_cell_length_a 10.287550
_cell_length_b 24.258401
_cell_length_c 6.085632
_cell_angle_alpha 90.000000
_cell_angle_beta 90.000000
_cell_angle_gamma 90.000000
_cell_volume 1518.727359
_symmetry_space_group_name_H-M "P N N A"
_symmetry_group_IT_number 52
_symmetry_cell_setting 'orthorhombic'
loop_
_space_group_symop_operation_xyz
x,y,z
1/2-x,-y,z
x,1/2-y,1/2-z
1/2-x,1/2+y,1/2-z
-x,-y,-z
1/2+x,y,-z
-x,1/2+y,1/2+z
1/2+x,1/2-y,1/2+z
loop_
_atom_site_type_symbol
_atom_site_label
_atom_site_fract_x
_atom_site_fract_y
_atom_site_fract_z
Si Si1 0.099169 0.803641 0.370049
Si Si2 0.267524 0.438135 0.816126
Si Si3 0.693935 0.348345 0.534092
Si Si4 0.756865 0.750000 0.250000
Si Si5 0.958038 0.606480 0.905917
O O1 0.042837 0.750000 0.250000
O O2 0.198564 0.835974 0.217126
O O3 0.168007 0.789199 0.599567
O O4 0.976460 0.842511 0.424288
O O5 0.250000 0.500000 0.727401
O O6 0.245534 0.396901 0.617237
O O7 0.413006 0.430689 0.908147
O O8 0.165253 0.428565 0.013525
O O9 0.659478 0.291713 0.403375
O O10 0.565486 0.369401 0.660758
#
# Coordination Sequence:
#
# PCOD8216049 Si02
#       5
#     8   8   8   4   8
#     4  10  23  47  72 107 152 200 239 297 372 453
#     4  12  29  51  78 107 147 202 259 317 375 441
#     4  11  24  46  74 108 155 192 249 302 377 447
#     4  10  20  48  68 108 150 200 238 294 370 456
#     4  12  25  51  75 112 152 195 254 312 377 449
#
# _framework density 23.704055
#
# number of rings (size 3 to 8) (size 9 to 14) (size 15 to 20)
#    0.000    0.889    4.444    0.667    3.111    1.778 
#   26.000    0.000    0.000    0.000    0.000    0.000 
#    0.000    0.000    0.000    0.000    0.000    0.000 
#
# Total GULP energy -446548.543335 kJ/mol
# GULP energy per Si atom -12404.126204 kJ/mol
# Density = 2.365010 g / cm^3
# Si number density = 23.704055 Si / 1000 Ang^3
#
#
#
# Elastic Constant Matrix: (Units=GPa)
#
#
# Indices 1 2 3 4 5 6 
#
# 1 126.5876 43.8053 42.2377 0.0000 0.0000 0.0000
# 2 43.8053 143.0123 49.3186 0.0000 0.0000 0.0000
# 3 42.2377 49.3186 114.9683 0.0000 0.0000 0.0000
# 4 0.0000 0.0000 0.0000 33.3072 0.0000 0.0000
# 5 0.0000 0.0000 0.0000 0.0000 33.2392 0.0000
# 6 0.0000 0.0000 0.0000 0.0000 0.0000 19.9690
#
#
#
# Elastic Compliance Matrix: (Units=1/GPa)
#
#
# Indices 1 2 3 4 5 6 
#
# 1 0.009465 -0.001995 -0.002621 0.000000 0.000000 0.000000
# 2 -0.001995 0.008627 -0.002968 0.000000 0.000000 0.000000
# 3 -0.002621 -0.002968 0.010934 0.000000 0.000000 0.000000
# 4 0.000000 0.000000 0.000000 0.030024 0.000000 0.000000
# 5 0.000000 0.000000 0.000000 0.000000 0.030085 0.000000
# 6 0.000000 0.000000 0.000000 0.000000 0.000000 0.050078
#
#
# Mechanical properties :
#
#
# Convention : Reuss Voigt Hill
#
# Bulk Modulus (GPa) = 72.16352 72.81014 72.48683
# Shear Modulus (GPa) = 31.44659 33.91685 32.68172
#
# Velocity S-wave (km/s) = 3.64625 3.78676 3.71717
# Velocity P-wave (km/s) = 6.94525 7.06416 7.00496
#
# Compressibility (1/GPa) = 0.01385742
#
# Stress axis : x y z
#
# Youngs Moduli (GPa) = 105.65566 115.91548 91.45611
#
# Poissons Ratio (x) = 0.23126 0.23974
# Poissons Ratio (y) = 0.21079 0.27142
# Poissons Ratio (z) = 0.27696 0.34401
#
# Static dielectric constant tensor:
#      x y z
#    x 4.136520 0.000000 0.000000 
#    y 0.000000 4.311220 0.000000 
#    z 0.000000 0.000000 4.461870 
# 
# 
# High freq. dielectric constant tensor:
#      x y z
#    x 1.944170 0.000000 0.000000 
#    y 0.000000 1.939400 0.000000 
#    z 0.000000 0.000000 1.950750 
# 
# From -- ./inp_files/1235.got.cif
#   From: 2010.06.25/outbox.cif.g09.slc.cpg/sg52_1_cif.got.tgz:1235.got - 2010.06.26 19:32:48.
