data_PCOD8216948
_publ_section_title
;
Structure prediction by ZEFSAII (Michael W. Deem and Ramdas Pophale) SiO2 
 PCOD8216948
Probable space group: P N N A
;
_chemical_formula_sum "Si O2"
_cell_formula_units_Z 60
_cell_length_a 11.733949
_cell_length_b 25.030272
_cell_length_c 8.810056
_cell_angle_alpha 90.000000
_cell_angle_beta 90.000000
_cell_angle_gamma 90.000000
_cell_volume 2587.548116
_symmetry_space_group_name_H-M "P N N A"
_symmetry_group_IT_number 52
_symmetry_cell_setting 'orthorhombic'
loop_
_space_group_symop_operation_xyz
x,y,z
1/2-x,-y,z
x,1/2-y,1/2-z
1/2-x,1/2+y,1/2-z
-x,-y,-z
1/2+x,y,-z
-x,1/2+y,1/2+z
1/2+x,1/2-y,1/2+z
loop_
_atom_site_type_symbol
_atom_site_label
_atom_site_fract_x
_atom_site_fract_y
_atom_site_fract_z
Si Si1 0.215358 0.390102 0.594819
Si Si2 0.353645 0.750000 0.250000
Si Si3 0.629043 0.056393 0.794968
Si Si4 0.463227 0.303825 0.920562
Si Si5 0.642188 0.940958 0.662031
Si Si6 0.113582 0.585755 0.831565
Si Si7 0.006665 0.342661 0.759769
Si Si8 0.835986 0.292995 0.541375
O O1 0.157924 0.428720 0.469659
O O2 0.281097 0.427046 0.718717
O O3 0.123682 0.351439 0.671919
O O4 0.312780 0.350632 0.531619
O O5 0.434724 0.700955 0.200492
O O6 0.280682 0.729971 0.391188
O O7 0.729032 0.081291 0.688646
O O8 0.506960 0.078882 0.750475
O O9 0.626298 0.992959 0.766693
O O10 0.378015 0.352246 0.881772
O O11 0.527282 0.315709 0.078367
O O12 0.388536 0.249331 0.922658
O O13 0.624728 0.951674 0.481500
O O14 0.550388 0.900253 0.723683
O O15 0.927235 0.301016 0.673292
#
# Coordination Sequence:
#
# PCOD8216948 Si02
#       8
#     8   4   8   8   8   8   8   8
#     4  12  26  43  76 105 151 183 249 298 370 426
#     4  12  24  40  68  96 136 198 236 292 352 422
#     4  11  24  50  73 108 147 186 237 309 363 446
#     4  11  25  42  68  98 145 187 251 287 361 422
#     4  10  25  47  77 101 145 189 241 300 377 435
#     4  11  26  46  74 108 140 192 242 301 363 446
#     4  11  24  45  67 104 144 190 235 308 359 433
#     4  12  23  44  64 101 140 196 237 298 354 425
#
# _framework density 23.187975000000002
#
# number of rings (size 3 to 8) (size 9 to 14) (size 15 to 20)
#    0.000    0.800    2.667    3.600    5.600    0.533 
#    2.400    0.000    0.000    0.000    0.000    0.000 
#    0.000    0.000    0.000    0.000    0.000    0.000 
#
# Total GULP energy -744113.429433 kJ/mol
# GULP energy per Si atom -12401.890491 kJ/mol
# Density = 2.313520 g / cm^3
# Si number density = 23.187975 Si / 1000 Ang^3
#
#
#
# Elastic Constant Matrix: (Units=GPa)
#
#
# Indices 1 2 3 4 5 6 
#
# 1 107.0490 16.2359 52.7485 0.0000 0.0000 0.0000
# 2 16.2359 80.0378 25.8916 0.0000 0.0000 0.0000
# 3 52.7485 25.8916 110.0025 0.0000 0.0000 0.0000
# 4 0.0000 0.0000 0.0000 28.3098 0.0000 0.0000
# 5 0.0000 0.0000 0.0000 0.0000 44.1837 0.0000
# 6 0.0000 0.0000 0.0000 0.0000 0.0000 28.3350
#
#
#
# Elastic Compliance Matrix: (Units=1/GPa)
#
#
# Indices 1 2 3 4 5 6 
#
# 1 0.012261 -0.000633 -0.005730 0.000000 0.000000 0.000000
# 2 -0.000633 0.013557 -0.002887 0.000000 0.000000 0.000000
# 3 -0.005730 -0.002887 0.012518 0.000000 0.000000 0.000000
# 4 0.000000 0.000000 0.000000 0.035323 0.000000 0.000000
# 5 0.000000 0.000000 0.000000 0.000000 0.022633 0.000000
# 6 0.000000 0.000000 0.000000 0.000000 0.000000 0.035292
#
#
# Mechanical properties :
#
#
# Convention : Reuss Voigt Hill
#
# Bulk Modulus (GPa) = 50.41863 54.09347 52.25605
# Shear Modulus (GPa) = 31.90861 33.64658 32.77760
#
# Velocity S-wave (km/s) = 3.71359 3.81338 3.76381
# Velocity P-wave (km/s) = 6.33863 6.53973 6.43996
#
# Compressibility (1/GPa) = 0.01983394
#
# Stress axis : x y z
#
# Youngs Moduli (GPa) = 81.55761 73.76513 79.88432
#
# Poissons Ratio (x) = 0.04673 0.45777
# Poissons Ratio (y) = 0.05167 0.23063
# Poissons Ratio (z) = 0.46736 0.21297
#
# Static dielectric constant tensor:
#      x y z
#    x 4.228850 0.000000 0.000000 
#    y 0.000000 4.019870 0.000000 
#    z 0.000000 0.000000 4.364570 
# 
# 
# High freq. dielectric constant tensor:
#      x y z
#    x 1.922600 0.000000 0.000000 
#    y 0.000000 1.909640 0.000000 
#    z 0.000000 0.000000 1.925090 
# 
# From -- ./inp_files/9058.got.cif
#   From: 2010.06.25/outbox.cif.g09.slc.cpg/sg52_5_cif.got.tgz:9058.got - 2010.06.26 19:32:48.
