data_PCOD8216327
_publ_section_title
;
Structure prediction by ZEFSAII (Michael W. Deem and Ramdas Pophale) SiO2 
 PCOD8216327
Probable space group: P N N A
;
_chemical_formula_sum "Si O2"
_cell_formula_units_Z 28
_cell_length_a 10.931857
_cell_length_b 5.276480
_cell_length_c 22.742982
_cell_angle_alpha 90.000000
_cell_angle_beta 90.000000
_cell_angle_gamma 90.000000
_cell_volume 1311.854429
_symmetry_space_group_name_H-M "P N N A"
_symmetry_group_IT_number 52
_symmetry_cell_setting 'orthorhombic'
loop_
_space_group_symop_operation_xyz
x,y,z
1/2-x,-y,z
x,1/2-y,1/2-z
1/2-x,1/2+y,1/2-z
-x,-y,-z
1/2+x,y,-z
-x,1/2+y,1/2+z
1/2+x,1/2-y,1/2+z
loop_
_atom_site_type_symbol
_atom_site_label
_atom_site_fract_x
_atom_site_fract_y
_atom_site_fract_z
Si Si1 0.883604 0.158752 0.936231
Si Si2 0.172323 0.250000 0.250000
Si Si3 0.085611 0.162948 0.375897
Si Si4 0.125901 0.597825 0.565904
O O1 0.855020 0.392962 0.892746
O O2 0.835337 0.885662 0.909412
O O3 0.833919 0.207898 0.001888
O O4 0.032041 0.137603 0.941463
O O5 0.250000 0.500000 0.263323
O O6 0.087364 0.197251 0.306095
O O7 0.942872 0.185281 0.395682
O O8 0.250000 0.500000 0.597616
#
# Coordination Sequence:
#
# PCOD8216327 Si02
#       4
#     8   4   8   8
#     4   9  20  37  58  88 123 151 192 246 290 360
#     4  12  26  42  66  86 114 164 204 254 306 346
#     4  10  21  41  56  85 121 150 203 248 285 361
#     4   9  20  36  61  89 121 157 190 241 306 359
#
# _framework density 21.343831000000002
#
# number of rings (size 3 to 8) (size 9 to 14) (size 15 to 20)
#    1.714    0.571    0.000    2.571    0.000    4.571 
#    0.000    0.000    6.286    0.000    0.000    0.000 
#    0.000    0.000    0.000    0.000    0.000    0.000 
#
# Total GULP energy -347037.058344 kJ/mol
# GULP energy per Si atom -12394.180655 kJ/mol
# Density = 2.129525 g / cm^3
# Si number density = 21.343831 Si / 1000 Ang^3
#
#
#
# Elastic Constant Matrix: (Units=GPa)
#
#
# Indices 1 2 3 4 5 6 
#
# 1 49.7353 45.1538 13.4152 0.0000 0.0000 0.0000
# 2 45.1538 158.3128 61.4158 0.0000 0.0000 0.0000
# 3 13.4152 61.4158 166.4427 0.0000 0.0000 0.0000
# 4 0.0000 0.0000 0.0000 32.9540 0.0000 0.0000
# 5 0.0000 0.0000 0.0000 0.0000 25.7027 0.0000
# 6 0.0000 0.0000 0.0000 0.0000 0.0000 25.5685
#
#
#
# Elastic Compliance Matrix: (Units=1/GPa)
#
#
# Indices 1 2 3 4 5 6 
#
# 1 0.027219 -0.008067 0.000783 0.000000 0.000000 0.000000
# 2 -0.008067 0.009763 -0.002952 0.000000 0.000000 0.000000
# 3 0.000783 -0.002952 0.007034 0.000000 0.000000 0.000000
# 4 0.000000 0.000000 0.000000 0.030345 0.000000 0.000000
# 5 0.000000 0.000000 0.000000 0.000000 0.038906 0.000000
# 6 0.000000 0.000000 0.000000 0.000000 0.000000 0.039111
#
#
# Mechanical properties :
#
#
# Convention : Reuss Voigt Hill
#
# Bulk Modulus (GPa) = 42.47469 68.27337 55.37403
# Shear Modulus (GPa) = 27.67025 33.81211 30.74118
#
# Velocity S-wave (km/s) = 3.60447 3.98447 3.79922
# Velocity P-wave (km/s) = 6.10462 7.29554 6.72649
#
# Compressibility (1/GPa) = 0.02354343
#
# Stress axis : x y z
#
# Youngs Moduli (GPa) = 36.73863 102.42988 142.16057
#
# Poissons Ratio (x) = 0.82632 -0.11129
# Poissons Ratio (y) = 0.29638 0.41968
# Poissons Ratio (z) = -0.02876 0.30239
#
# Static dielectric constant tensor:
#      x y z
#    x 3.875830 0.000000 0.000000 
#    y 0.000000 3.728430 0.000000 
#    z 0.000000 0.000000 3.567240 
# 
# 
# High freq. dielectric constant tensor:
#      x y z
#    x 1.843870 0.000000 0.000000 
#    y 0.000000 1.835500 0.000000 
#    z 0.000000 0.000000 1.809250 
# 
# From -- ./inp_files/32532.got.cif
#   From: 2010.06.25/outbox.cif.g09.slc.cpg/sg52_17_cif.got.tgz:32532.got - 2010.06.26 19:32:48.
