data_PCOD8216527
_publ_section_title
;
Structure prediction by ZEFSAII (Michael W. Deem and Ramdas Pophale) SiO2 
 PCOD8216527
Probable space group: P N N A
;
_chemical_formula_sum "Si O2"
_cell_formula_units_Z 60
_cell_length_a 27.724256
_cell_length_b 8.840892
_cell_length_c 11.760834
_cell_angle_alpha 90.000000
_cell_angle_beta 90.000000
_cell_angle_gamma 90.000000
_cell_volume 2882.664540
_symmetry_space_group_name_H-M "P N N A"
_symmetry_group_IT_number 52
_symmetry_cell_setting 'orthorhombic'
loop_
_space_group_symop_operation_xyz
x,y,z
1/2-x,-y,z
x,1/2-y,1/2-z
1/2-x,1/2+y,1/2-z
-x,-y,-z
1/2+x,y,-z
-x,1/2+y,1/2+z
1/2+x,1/2-y,1/2+z
loop_
_atom_site_type_symbol
_atom_site_label
_atom_site_fract_x
_atom_site_fract_y
_atom_site_fract_z
Si Si1 0.104120 0.379225 0.016988
Si Si2 0.429261 0.919321 0.725866
Si Si3 0.490435 0.857378 0.350318
Si Si4 0.301202 0.080788 0.107216
Si Si5 0.433156 0.250000 0.250000
Si Si6 0.842221 0.097444 0.655073
Si Si7 0.120204 0.038039 0.959002
Si Si8 0.966037 0.361521 0.529135
O O1 0.152532 0.459274 0.066016
O O2 0.056369 0.426657 0.088140
O O3 0.100947 0.437007 0.888716
O O4 0.108734 0.198528 0.016974
O O5 0.446494 0.750000 0.750000
O O6 0.392032 0.969060 0.825149
O O7 0.477535 0.018262 0.714743
O O8 0.471739 0.750000 0.250000
O O9 0.522103 0.778379 0.447936
O O10 0.323221 0.026363 0.227175
O O11 0.306805 0.266461 0.109566
O O12 0.250000 0.000000 0.100517
O O13 0.326247 0.012491 0.993882
O O14 0.397590 0.146771 0.325182
O O15 0.470986 0.325783 0.337555
O O16 0.089071 0.907621 0.016625
O O17 0.000000 0.500000 0.500000
#
# Coordination Sequence:
#
# PCOD8216527 Si02
#       8
#     8   8   8   8   4   8   8   8
#     4  11  25  39  59  94 134 179 226 268 334 393
#     4  10  24  44  58  88 131 184 227 277 325 386
#     4  12  25  37  60  92 131 183 237 275 317 391
#     4  10  23  45  71 100 124 160 211 275 347 413
#     4  10  22  40  62  84 136 176 220 280 324 392
#     4  10  22  41  68  96 132 168 207 272 350 407
#     4  11  22  43  64  90 132 174 218 287 332 394
#     4  12  23  40  61  93 135 180 237 277 332 393
#
# _framework density 20.814074999999999
#
# number of rings (size 3 to 8) (size 9 to 14) (size 15 to 20)
#    0.000    1.333    5.333    1.200    3.733    3.200 
#    3.600    0.000    0.000    5.600    0.000    0.000 
#    0.000    0.000    0.000    0.000    0.000    0.000 
#
# Total GULP energy -743393.840217 kJ/mol
# GULP energy per Si atom -12389.897337 kJ/mol
# Density = 2.076670 g / cm^3
# Si number density = 20.814075 Si / 1000 Ang^3
#
#
#
# Elastic Constant Matrix: (Units=GPa)
#
#
# Indices 1 2 3 4 5 6 
#
# 1 95.9517 55.7838 65.0419 0.0000 0.0000 0.0000
# 2 55.7838 86.4904 54.8495 0.0000 0.0000 0.0000
# 3 65.0419 54.8495 139.9815 0.0000 0.0000 0.0000
# 4 0.0000 0.0000 0.0000 26.9174 0.0000 0.0000
# 5 0.0000 0.0000 0.0000 0.0000 23.0952 0.0000
# 6 0.0000 0.0000 0.0000 0.0000 0.0000 35.9663
#
#
#
# Elastic Compliance Matrix: (Units=1/GPa)
#
#
# Indices 1 2 3 4 5 6 
#
# 1 0.019377 -0.009032 -0.005464 0.000000 0.000000 0.000000
# 2 -0.009032 0.019595 -0.003481 0.000000 0.000000 0.000000
# 3 -0.005464 -0.003481 0.011047 0.000000 0.000000 0.000000
# 4 0.000000 0.000000 0.000000 0.037151 0.000000 0.000000
# 5 0.000000 0.000000 0.000000 0.000000 0.043299 0.000000
# 6 0.000000 0.000000 0.000000 0.000000 0.000000 0.027804
#
#
# Mechanical properties :
#
#
# Convention : Reuss Voigt Hill
#
# Bulk Modulus (GPa) = 71.10663 74.86378 72.98520
# Shear Modulus (GPa) = 25.13617 26.97901 26.05759
#
# Velocity S-wave (km/s) = 3.47890 3.60417 3.54209
# Velocity P-wave (km/s) = 7.09746 7.30520 7.20208
#
# Compressibility (1/GPa) = 0.01406339
#
# Stress axis : x y z
#
# Youngs Moduli (GPa) = 51.60708 51.03263 90.52362
#
# Poissons Ratio (x) = 0.46095 0.49465
# Poissons Ratio (y) = 0.46614 0.31513
# Poissons Ratio (z) = 0.28200 0.17766
#
# Static dielectric constant tensor:
#      x y z
#    x 3.594290 0.000000 0.000000 
#    y 0.000000 3.918720 0.000000 
#    z 0.000000 0.000000 3.972620 
# 
# 
# High freq. dielectric constant tensor:
#      x y z
#    x 1.774960 0.000000 0.000000 
#    y 0.000000 1.824450 0.000000 
#    z 0.000000 0.000000 1.828930 
# 
# From -- ./inp_files/22907.got.cif
#   From: 2010.06.25/outbox.cif.g09.slc.cpg/sg52_12_cif.got.tgz:22907.got - 2010.06.26 19:32:48.
