data_PCOD8216051
_publ_section_title
;
Structure prediction by ZEFSAII (Michael W. Deem and Ramdas Pophale) SiO2 
 PCOD8216051
Probable space group: P N N A
;
_chemical_formula_sum "Si O2"
_cell_formula_units_Z 36
_cell_length_a 24.834595
_cell_length_b 5.127473
_cell_length_c 16.370887
_cell_angle_alpha 90.000000
_cell_angle_beta 90.000000
_cell_angle_gamma 90.000000
_cell_volume 2084.647719
_symmetry_space_group_name_H-M "P N N A"
_symmetry_group_IT_number 52
_symmetry_cell_setting 'orthorhombic'
loop_
_space_group_symop_operation_xyz
x,y,z
1/2-x,-y,z
x,1/2-y,1/2-z
1/2-x,1/2+y,1/2-z
-x,-y,-z
1/2+x,y,-z
-x,1/2+y,1/2+z
1/2+x,1/2-y,1/2+z
loop_
_atom_site_type_symbol
_atom_site_label
_atom_site_fract_x
_atom_site_fract_y
_atom_site_fract_z
Si Si1 0.550862 0.242102 0.424519
Si Si2 0.570844 0.742928 0.515616
Si Si3 0.750000 0.500000 0.804836
Si Si4 0.985596 0.750000 0.250000
Si Si5 0.634489 0.901910 0.664007
Si Si6 0.558700 0.250000 0.750000
O O1 0.580678 0.502363 0.454697
O O2 0.488963 0.250205 0.449890
O O3 0.553179 0.202586 0.326959
O O4 0.582643 0.003189 0.464595
O O5 0.611658 0.723375 0.591646
O O6 0.760388 0.750000 0.750000
O O7 0.696126 0.529380 0.859367
O O8 0.022002 0.498245 0.273078
O O9 0.632822 0.750000 0.750000
O O10 0.597000 0.161973 0.673915
#
# Coordination Sequence:
#
# PCOD8216051 Si02
#       6
#     8   8   4   4   8   4
#     4  10  21  33  47  71  95 130 165 210 237 293
#     4  10  21  32  48  70  99 126 170 203 243 283
#     4  10  22  34  50  72  98 130 176 208 236 284
#     4  12  22  34  51  72 100 134 175 200 252 296
#     4  11  22  35  52  72 101 138 171 205 245 296
#     4  12  20  30  51  72  92 142 167 202 234 300
#
# _framework density 17.269103999999999
#
# number of rings (size 3 to 8) (size 9 to 14) (size 15 to 20)
#    0.000    1.333    4.444    1.333    9.333    0.000 
#    0.000    0.000    0.000    0.000    0.000    0.000 
#    0.000    3.556    0.000    0.000    0.000    0.000 
#
# Total GULP energy -446308.840841 kJ/mol
# GULP energy per Si atom -12397.467801 kJ/mol
# Density = 1.722980 g / cm^3
# Si number density = 17.269104 Si / 1000 Ang^3
#
#
#
# Elastic Constant Matrix: (Units=GPa)
#
#
# Indices 1 2 3 4 5 6 
#
# 1 70.5135 30.3432 35.8637 0.0000 0.0000 0.0000
# 2 30.3432 121.5134 41.9788 0.0000 0.0000 0.0000
# 3 35.8637 41.9788 110.9905 0.0000 0.0000 0.0000
# 4 0.0000 0.0000 0.0000 25.3824 0.0000 0.0000
# 5 0.0000 0.0000 0.0000 0.0000 13.7613 0.0000
# 6 0.0000 0.0000 0.0000 0.0000 0.0000 14.3499
#
#
#
# Elastic Compliance Matrix: (Units=1/GPa)
#
#
# Indices 1 2 3 4 5 6 
#
# 1 0.017775 -0.002823 -0.004676 0.000000 0.000000 0.000000
# 2 -0.002823 0.009915 -0.002838 0.000000 0.000000 0.000000
# 3 -0.004676 -0.002838 0.011594 0.000000 0.000000 0.000000
# 4 0.000000 0.000000 0.000000 0.039397 0.000000 0.000000
# 5 0.000000 0.000000 0.000000 0.000000 0.072667 0.000000
# 6 0.000000 0.000000 0.000000 0.000000 0.000000 0.069687
#
#
# Mechanical properties :
#
#
# Convention : Reuss Voigt Hill
#
# Bulk Modulus (GPa) = 53.73399 57.70985 55.72192
# Shear Modulus (GPa) = 20.16847 23.68750 21.92799
#
# Velocity S-wave (km/s) = 3.42115 3.70762 3.56727
# Velocity P-wave (km/s) = 6.84024 7.19855 7.02168
#
# Compressibility (1/GPa) = 0.01861019
#
# Stress axis : x y z
#
# Youngs Moduli (GPa) = 56.26003 100.85840 86.25248
#
# Poissons Ratio (x) = 0.28475 0.40328
# Poissons Ratio (y) = 0.15884 0.24476
# Poissons Ratio (z) = 0.26305 0.28621
#
# Static dielectric constant tensor:
#      x y z
#    x 3.047350 0.000000 0.000000 
#    y 0.000000 3.576100 0.000000 
#    z 0.000000 0.000000 3.143120 
# 
# 
# High freq. dielectric constant tensor:
#      x y z
#    x 1.614240 0.000000 0.000000 
#    y 0.000000 1.691350 0.000000 
#    z 0.000000 0.000000 1.644870 
# 
# From -- ./inp_files/28518.got.cif
#   From: 2010.06.25/outbox.cif.g09.slc.cpg/sg52_15_cif.got.tgz:28518.got - 2010.06.26 19:32:48.
