data_PCOD8216733
_publ_section_title
;
Structure prediction by ZEFSAII (Michael W. Deem and Ramdas Pophale) SiO2 
 PCOD8216733
Probable space group: P N N A
;
_chemical_formula_sum "Si O2"
_cell_formula_units_Z 56
_cell_length_a 19.074410
_cell_length_b 8.526187
_cell_length_c 15.536017
_cell_angle_alpha 90.000000
_cell_angle_beta 90.000000
_cell_angle_gamma 90.000000
_cell_volume 2526.653308
_symmetry_space_group_name_H-M "P N N A"
_symmetry_group_IT_number 52
_symmetry_cell_setting 'orthorhombic'
loop_
_space_group_symop_operation_xyz
x,y,z
1/2-x,-y,z
x,1/2-y,1/2-z
1/2-x,1/2+y,1/2-z
-x,-y,-z
1/2+x,y,-z
-x,1/2+y,1/2+z
1/2+x,1/2-y,1/2+z
loop_
_atom_site_type_symbol
_atom_site_label
_atom_site_fract_x
_atom_site_fract_y
_atom_site_fract_z
Si Si1 0.187661 0.878063 0.178441
Si Si2 0.311944 0.377336 0.673776
Si Si3 0.848417 0.222846 0.499676
Si Si4 0.068330 0.433612 0.231217
Si Si5 0.560972 0.098065 0.204521
Si Si6 0.496738 0.826878 0.969584
Si Si7 0.076125 0.056654 0.465912
O O1 0.205837 0.750000 0.250000
O O2 0.184848 0.793062 0.085905
O O3 0.250000 0.000000 0.174914
O O4 0.116243 0.969440 0.201838
O O5 0.250000 0.500000 0.687812
O O6 0.313385 0.250000 0.750000
O O7 0.306401 0.287709 0.582499
O O8 0.381374 0.481122 0.668296
O O9 0.931403 0.251960 0.499531
O O10 0.854726 0.031073 0.493708
O O11 0.072862 0.250000 0.250000
O O12 0.090540 0.470103 0.134578
O O13 0.988360 0.492473 0.235650
O O14 0.595946 0.250000 0.250000
O O15 0.511783 0.175540 0.132362
O O16 0.427661 0.741835 0.011490
O O17 0.500000 0.000000 0.000000
O O18 0.000000 0.000000 0.500000
#
# Coordination Sequence:
#
# PCOD8216733 Si02
#       7
#     8   8   8   8   8   8   8
#     4  12  25  47  69 101 146 185 234 290 359 438
#     4  12  29  50  72 100 140 191 251 306 361 432
#     4  11  23  46  72 101 142 190 233 292 362 429
#     4  12  24  41  69 108 141 185 233 292 358 429
#     4  12  24  41  72 103 140 183 231 300 367 416
#     4  11  21  39  66 109 144 171 232 285 354 430
#     4  10  23  38  66 106 147 178 231 294 350 421
#
# _framework density 22.163706000000001
#
# number of rings (size 3 to 8) (size 9 to 14) (size 15 to 20)
#    0.000    0.571    4.286    4.714    8.000    0.000 
#    0.000    0.714    0.000    0.000    0.000    0.000 
#    0.000    0.000    0.000    0.000    0.000    0.000 
#
# Total GULP energy -693933.571833 kJ/mol
# GULP energy per Si atom -12391.670926 kJ/mol
# Density = 2.211326 g / cm^3
# Si number density = 22.163706 Si / 1000 Ang^3
#
#
#
# Elastic Constant Matrix: (Units=GPa)
#
#
# Indices 1 2 3 4 5 6 
#
# 1 67.2143 39.0936 14.0707 0.0000 0.0000 0.0000
# 2 39.0936 134.1391 47.7294 0.0000 0.0000 0.0000
# 3 14.0707 47.7294 137.9287 0.0000 0.0000 0.0000
# 4 0.0000 0.0000 0.0000 33.1125 0.0000 0.0000
# 5 0.0000 0.0000 0.0000 0.0000 21.4571 0.0000
# 6 0.0000 0.0000 0.0000 0.0000 0.0000 31.0527
#
#
#
# Elastic Compliance Matrix: (Units=1/GPa)
#
#
# Indices 1 2 3 4 5 6 
#
# 1 0.017915 -0.005213 -0.000024 0.000000 0.000000 0.000000
# 2 -0.005213 0.010018 -0.002935 0.000000 0.000000 0.000000
# 3 -0.000024 -0.002935 0.008268 0.000000 0.000000 0.000000
# 4 0.000000 0.000000 0.000000 0.030200 0.000000 0.000000
# 5 0.000000 0.000000 0.000000 0.000000 0.046605 0.000000
# 6 0.000000 0.000000 0.000000 0.000000 0.000000 0.032203
#
#
# Mechanical properties :
#
#
# Convention : Reuss Voigt Hill
#
# Bulk Modulus (GPa) = 50.35650 60.11881 55.23765
# Shear Modulus (GPa) = 29.73157 33.01703 31.37430
#
# Velocity S-wave (km/s) = 3.66656 3.86384 3.76649
# Velocity P-wave (km/s) = 6.37922 6.86217 6.62510
#
# Compressibility (1/GPa) = 0.01985841
#
# Stress axis : x y z
#
# Youngs Moduli (GPa) = 55.82061 99.81574 120.94511
#
# Poissons Ratio (x) = 0.52030 0.00287
# Poissons Ratio (y) = 0.29097 0.35498
# Poissons Ratio (z) = 0.00133 0.29297
#
# Static dielectric constant tensor:
#      x y z
#    x 3.920050 0.000000 0.000000 
#    y 0.000000 4.755130 0.000000 
#    z 0.000000 0.000000 3.948770 
# 
# 
# High freq. dielectric constant tensor:
#      x y z
#    x 1.845590 0.000000 0.000000 
#    y 0.000000 1.903350 0.000000 
#    z 0.000000 0.000000 1.879220 
# 
# From -- ./inp_files/28790.got.cif
#   From: 2010.06.25/outbox.cif.g09.slc.cpg/sg52_15_cif.got.tgz:28790.got - 2010.06.26 19:32:48.
