data_PCOD8216879
_publ_section_title
;
Structure prediction by ZEFSAII (Michael W. Deem and Ramdas Pophale) SiO2 
 PCOD8216879
Probable space group: P N N A
;
_chemical_formula_sum "Si O2"
_cell_formula_units_Z 40
_cell_length_a 8.710120
_cell_length_b 10.045408
_cell_length_c 22.363290
_cell_angle_alpha 90.000000
_cell_angle_beta 90.000000
_cell_angle_gamma 90.000000
_cell_volume 1956.714280
_symmetry_space_group_name_H-M "P N N A"
_symmetry_group_IT_number 52
_symmetry_cell_setting 'orthorhombic'
loop_
_space_group_symop_operation_xyz
x,y,z
1/2-x,-y,z
x,1/2-y,1/2-z
1/2-x,1/2+y,1/2-z
-x,-y,-z
1/2+x,y,-z
-x,1/2+y,1/2+z
1/2+x,1/2-y,1/2+z
loop_
_atom_site_type_symbol
_atom_site_label
_atom_site_fract_x
_atom_site_fract_y
_atom_site_fract_z
Si Si1 0.928876 0.484919 0.884583
Si Si2 0.046344 0.758229 0.924568
Si Si3 0.093347 0.250695 0.948222
Si Si4 0.070931 0.479269 0.639660
Si Si5 0.110726 0.902688 0.253200
O O1 0.750000 0.500000 0.901198
O O2 0.957610 0.428317 0.818606
O O3 0.004258 0.628973 0.886909
O O4 0.014970 0.390451 0.931432
O O5 0.224236 0.748419 0.941508
O O6 0.999711 0.881535 0.882143
O O7 0.943340 0.776203 0.983083
O O8 0.022249 0.134043 0.907614
O O9 0.250000 0.500000 0.643125
O O10 0.018960 0.434218 0.704996
O O11 0.166156 0.750000 0.250000
O O12 0.250000 0.000000 0.239070
#
# Coordination Sequence:
#
# PCOD8216879 Si02
#       5
#     8   8   8   8   8
#     4  11  24  41  63  93 127 167 210 257 318 371
#     4  11  24  39  66  94 126 168 209 260 314 378
#     4  11  22  43  63  94 130 164 212 259 315 374
#     4  10  24  43  65  94 127 167 210 258 316 375
#     4  11  25  44  68  95 128 164 212 263 315 374
#
# _framework density 20.442433000000001
#
# number of rings (size 3 to 8) (size 9 to 14) (size 15 to 20)
#    0.000    1.200    2.000    3.000    5.600    3.200 
#    0.000    0.000    0.000    0.000    0.000    0.000 
#    0.000    0.000    0.000    0.000    0.000    0.000 
#
# Total GULP energy -496185.498178 kJ/mol
# GULP energy per Si atom -12404.637454 kJ/mol
# Density = 2.039590 g / cm^3
# Si number density = 20.442433 Si / 1000 Ang^3
#
#
#
# Elastic Constant Matrix: (Units=GPa)
#
#
# Indices 1 2 3 4 5 6 
#
# 1 59.7654 38.7966 23.6228 0.0000 0.0000 0.0000
# 2 38.7966 154.6893 25.0898 0.0000 0.0000 0.0000
# 3 23.6228 25.0898 75.4749 0.0000 0.0000 0.0000
# 4 0.0000 0.0000 0.0000 14.3613 0.0000 0.0000
# 5 0.0000 0.0000 0.0000 0.0000 -7.2412 0.0000
# 6 0.0000 0.0000 0.0000 0.0000 0.0000 32.0869
#
#
#
# Elastic Compliance Matrix: (Units=1/GPa)
#
#
# Indices 1 2 3 4 5 6 
#
# 1 0.021820 -0.004614 -0.005296 0.000000 0.000000 0.000000
# 2 -0.004614 0.007808 -0.001152 0.000000 0.000000 0.000000
# 3 -0.005296 -0.001152 0.015290 0.000000 0.000000 0.000000
# 4 0.000000 0.000000 0.000000 0.069632 0.000000 0.000000
# 5 0.000000 0.000000 0.000000 0.000000 -0.138098 0.000000
# 6 0.000000 0.000000 0.000000 0.000000 0.000000 0.031165
#
#
# Mechanical properties :
#
#
# Convention : Reuss Voigt Hill
#
# Bulk Modulus (GPa) = 43.86690 51.66089 47.76390
# Shear Modulus (GPa) = 133.91071 21.33609 77.62340
#
# Velocity S-wave (km/s) = 8.10237 3.23416 6.16880
# Velocity P-wave (km/s) = 10.44206 6.26679 8.61131
#
# Compressibility (1/GPa) = 0.02279623
#
# Stress axis : x y z
#
# Youngs Moduli (GPa) = 45.82904 128.06575 65.40298
#
# Poissons Ratio (x) = 0.59085 0.34636
# Poissons Ratio (y) = 0.21144 0.07533
# Poissons Ratio (z) = 0.24270 0.14750
#
# Static dielectric constant tensor:
#      x y z
#    x 3.598210 0.000000 0.000000 
#    y 0.000000 4.085650 0.000000 
#    z 0.000000 0.000000 3.781540 
# 
# 
# High freq. dielectric constant tensor:
#      x y z
#    x 1.795470 0.000000 0.000000 
#    y 0.000000 1.822550 0.000000 
#    z 0.000000 0.000000 1.808850 
# 
# From -- ./inp_files/39169.got.cif
#   From: 2010.06.25/outbox.cif.g09.slc.cpg/sg52_20_cif.got.tgz:39169.got - 2010.06.26 19:32:48.
