data_PCOD8216839
_publ_section_title
;
Structure prediction by ZEFSAII (Michael W. Deem and Ramdas Pophale) SiO2 
 PCOD8216839
Probable space group: P N N A
;
_chemical_formula_sum "Si O2"
_cell_formula_units_Z 32
_cell_length_a 21.197279
_cell_length_b 9.863222
_cell_length_c 6.177700
_cell_angle_alpha 90.000000
_cell_angle_beta 90.000000
_cell_angle_gamma 90.000000
_cell_volume 1291.593167
_symmetry_space_group_name_H-M "P N N A"
_symmetry_group_IT_number 52
_symmetry_cell_setting 'orthorhombic'
loop_
_space_group_symop_operation_xyz
x,y,z
1/2-x,-y,z
x,1/2-y,1/2-z
1/2-x,1/2+y,1/2-z
-x,-y,-z
1/2+x,y,-z
-x,1/2+y,1/2+z
1/2+x,1/2-y,1/2+z
loop_
_atom_site_type_symbol
_atom_site_label
_atom_site_fract_x
_atom_site_fract_y
_atom_site_fract_z
Si Si1 0.864141 0.117339 0.120309
Si Si2 0.966655 0.077132 0.809266
Si Si3 0.169502 0.250000 0.250000
Si Si4 0.583981 0.106259 0.446820
Si Si5 0.250000 0.500000 0.379560
O O1 0.851083 0.250000 0.250000
O O2 0.885426 0.991993 0.269725
O O3 0.913626 0.165575 0.932309
O O4 0.797133 0.083224 0.024979
O O5 0.016610 0.157787 0.653956
O O6 0.928050 0.969654 0.669806
O O7 0.000000 0.000000 0.000000
O O8 0.126793 0.235127 0.473470
O O9 0.211250 0.387190 0.243232
#
# Coordination Sequence:
#
# PCOD8216839 Si02
#       5
#     8   8   4   8   4
#     4  11  26  47  74 115 155 207 259 325 394 470
#     4   9  20  49  73 115 147 200 257 325 391 463
#     4  12  28  52  80 116 154 218 260 332 394 478
#     4  10  23  48  78 110 153 199 267 324 393 465
#     4  12  30  48  80 110 160 212 276 314 392 480
#
# _framework density 24.775606
#
# number of rings (size 3 to 8) (size 9 to 14) (size 15 to 20)
#    0.000    1.500    2.500    0.000    7.000    1.000 
#   24.750    0.000    0.000    0.000    0.000    0.000 
#    0.000    0.000    0.000    0.000    0.000    0.000 
#
# Total GULP energy -396417.698110 kJ/mol
# GULP energy per Si atom -12388.053066 kJ/mol
# Density = 2.471922 g / cm^3
# Si number density = 24.775606 Si / 1000 Ang^3
#
#
#
# Elastic Constant Matrix: (Units=GPa)
#
#
# Indices 1 2 3 4 5 6 
#
# 1 173.8499 50.4563 60.4039 0.0000 0.0000 0.0000
# 2 50.4563 119.0728 38.8180 0.0000 0.0000 0.0000
# 3 60.4039 38.8180 111.2929 0.0000 0.0000 0.0000
# 4 0.0000 0.0000 0.0000 47.1631 0.0000 0.0000
# 5 0.0000 0.0000 0.0000 0.0000-1319.1445 0.0000
# 6 0.0000 0.0000 0.0000 0.0000 0.0000 23.3344
#
#
#
# Elastic Compliance Matrix: (Units=1/GPa)
#
#
# Indices 1 2 3 4 5 6 
#
# 1 0.007525 -0.002096 -0.003353 0.000000 0.000000 0.000000
# 2 -0.002096 0.010059 -0.002371 0.000000 0.000000 0.000000
# 3 -0.003353 -0.002371 0.011632 0.000000 0.000000 0.000000
# 4 0.000000 0.000000 0.000000 0.021203 0.000000 0.000000
# 5 0.000000 0.000000 0.000000 0.000000 -0.000758 0.000000
# 6 0.000000 0.000000 0.000000 0.000000 0.000000 0.042855
#
#
# Mechanical properties :
#
#
# Convention : Reuss Voigt Hill
#
# Bulk Modulus (GPa) = 73.65632 78.17464 75.91548
# Shear Modulus (GPa) = 44.37212 -232.76024 -94.19406
#
# Velocity S-wave (km/s) = 4.23656 -9.70316 -6.17263
# Velocity P-wave (km/s) = 7.32975 9.69090 4.48265
#
# Compressibility (1/GPa) = 0.01357657
#
# Stress axis : x y z
#
# Youngs Moduli (GPa) = 132.88215 99.41108 85.96645
#
# Poissons Ratio (x) = 0.20833 0.28829
# Poissons Ratio (y) = 0.27847 0.20384
# Poissons Ratio (z) = 0.44562 0.23572
#
# Static dielectric constant tensor:
#      x y z
#    x 5.048580 0.000000 0.000000 
#    y 0.000000 4.291500 0.000000 
#    z 0.000000 0.000000 4.858560 
# 
# 
# High freq. dielectric constant tensor:
#      x y z
#    x 2.003390 0.000000 0.000000 
#    y 0.000000 1.986590 0.000000 
#    z 0.000000 0.000000 2.001370 
# 
# From -- ./inp_files/3963.got.cif
#   From: 2010.06.25/outbox.cif.g09.slc.cpg/sg52_2_cif.got.tgz:3963.got - 2010.06.26 19:32:48.
