data_PCOD8216068
_publ_section_title
;
Structure prediction by ZEFSAII (Michael W. Deem and Ramdas Pophale) SiO2 
 PCOD8216068
Probable space group: P N N A
;
_chemical_formula_sum "Si O2"
_cell_formula_units_Z 60
_cell_length_a 29.496592
_cell_length_b 20.322658
_cell_length_c 4.981837
_cell_angle_alpha 90.000000
_cell_angle_beta 90.000000
_cell_angle_gamma 90.000000
_cell_volume 2986.357962
_symmetry_space_group_name_H-M "P N N A"
_symmetry_group_IT_number 52
_symmetry_cell_setting 'orthorhombic'
loop_
_space_group_symop_operation_xyz
x,y,z
1/2-x,-y,z
x,1/2-y,1/2-z
1/2-x,1/2+y,1/2-z
-x,-y,-z
1/2+x,y,-z
-x,1/2+y,1/2+z
1/2+x,1/2-y,1/2+z
loop_
_atom_site_type_symbol
_atom_site_label
_atom_site_fract_x
_atom_site_fract_y
_atom_site_fract_z
Si Si1 0.447379 0.486293 0.015849
Si Si2 0.167038 0.677568 0.624832
Si Si3 0.596796 0.922150 0.009788
Si Si4 0.250000 0.500000 0.340058
Si Si5 0.374294 0.587318 0.097071
Si Si6 0.183715 0.204565 0.495380
Si Si7 0.221584 0.866803 0.384986
Si Si8 0.163364 0.469839 0.597350
O O1 0.432979 0.433661 0.243610
O O2 0.425256 0.559417 0.055612
O O3 0.500000 0.500000 0.000000
O O4 0.433838 0.451014 0.743466
O O5 0.163504 0.750000 0.750000
O O6 0.115446 0.652359 0.554127
O O7 0.198770 0.674642 0.359458
O O8 0.189491 0.633240 0.855287
O O9 0.644260 0.961058 0.989309
O O10 0.225639 0.555578 0.165906
O O11 0.216004 0.462839 0.539541
O O12 0.361621 0.585551 0.412092
O O13 0.361668 0.659034 0.978259
O O14 0.343836 0.538041 0.914589
O O15 0.190852 0.250000 0.750000
O O16 0.228989 0.162342 0.449781
O O17 0.172925 0.250000 0.250000
#
# Coordination Sequence:
#
# PCOD8216068 Si02
#       8
#     8   8   8   4   8   8   8   8
#     4  10  21  40  67  95 119 142 183 255 325 377
#     4  12  25  42  58  83 125 170 210 244 281 348
#     4  10  21  37  62  89 119 151 197 237 307 365
#     4  12  24  36  60  84 122 154 202 260 310 324
#     4  10  22  38  57  85 113 149 193 238 299 357
#     4  12  24  39  57  79 120 166 208 242 281 343
#     4  12  26  38  57  84 119 163 214 253 293 333
#     4  10  21  35  54  82 117 150 189 248 292 343
#
# _framework density 20.091360999999999
#
# number of rings (size 3 to 8) (size 9 to 14) (size 15 to 20)
#    0.000    1.067    2.667    4.400    5.600    1.067 
#    0.000    0.000    0.000    2.400    0.000    0.000 
#    0.000    0.000    0.000    0.000    0.000    0.000 
#
# Total GULP energy -743553.137766 kJ/mol
# GULP energy per Si atom -12392.552296 kJ/mol
# Density = 2.004563 g / cm^3
# Si number density = 20.091361 Si / 1000 Ang^3
#
#
#
# Elastic Constant Matrix: (Units=GPa)
#
#
# Indices 1 2 3 4 5 6 
#
# 1 127.3288 48.8139 37.4442 0.0000 0.0000 0.0000
# 2 48.8139 87.6886 19.6306 0.0000 0.0000 0.0000
# 3 37.4442 19.6306 107.2870 0.0000 0.0000 0.0000
# 4 0.0000 0.0000 0.0000 28.8479 0.0000 0.0000
# 5 0.0000 0.0000 0.0000 0.0000 23.8176 0.0000
# 6 0.0000 0.0000 0.0000 0.0000 0.0000 19.5239
#
#
#
# Elastic Compliance Matrix: (Units=1/GPa)
#
#
# Indices 1 2 3 4 5 6 
#
# 1 0.010716 -0.005347 -0.002762 0.000000 0.000000 0.000000
# 2 -0.005347 0.014559 -0.000798 0.000000 0.000000 0.000000
# 3 -0.002762 -0.000798 0.010431 0.000000 0.000000 0.000000
# 4 0.000000 0.000000 0.000000 0.034665 0.000000 0.000000
# 5 0.000000 0.000000 0.000000 0.000000 0.041986 0.000000
# 6 0.000000 0.000000 0.000000 0.000000 0.000000 0.051219
#
#
# Mechanical properties :
#
#
# Convention : Reuss Voigt Hill
#
# Bulk Modulus (GPa) = 55.88829 59.34243 57.61536
# Shear Modulus (GPa) = 26.68780 28.86560 27.77670
#
# Velocity S-wave (km/s) = 3.64857 3.79452 3.72226
# Velocity P-wave (km/s) = 6.75477 6.98557 6.87114
#
# Compressibility (1/GPa) = 0.01789284
#
# Stress axis : x y z
#
# Youngs Moduli (GPa) = 93.32185 68.68581 95.87210
#
# Poissons Ratio (x) = 0.36725 0.26475
# Poissons Ratio (y) = 0.49898 0.07649
# Poissons Ratio (z) = 0.25771 0.05480
#
# Static dielectric constant tensor:
#      x y z
#    x 3.450780 0.000000 0.000000 
#    y 0.000000 3.729650 0.000000 
#    z 0.000000 0.000000 3.933200 
# 
# 
# High freq. dielectric constant tensor:
#      x y z
#    x 1.752770 0.000000 0.000000 
#    y 0.000000 1.771810 0.000000 
#    z 0.000000 0.000000 1.810750 
# 
# From -- ./inp_files/6509.got.cif
#   From: 2010.06.25/outbox.cif.g09.slc.cpg/sg52_4_cif.got.tgz:6509.got - 2010.06.26 19:32:48.
