data_PCOD8216087
_publ_section_title
;
Structure prediction by ZEFSAII (Michael W. Deem and Ramdas Pophale) SiO2 
 PCOD8216087
Probable space group: P N N A
;
_chemical_formula_sum "Si O2"
_cell_formula_units_Z 64
_cell_length_a 9.593109
_cell_length_b 13.858327
_cell_length_c 24.003379
_cell_angle_alpha 90.000000
_cell_angle_beta 90.000000
_cell_angle_gamma 90.000000
_cell_volume 3191.115815
_symmetry_space_group_name_H-M "P N N A"
_symmetry_group_IT_number 52
_symmetry_cell_setting 'orthorhombic'
loop_
_space_group_symop_operation_xyz
x,y,z
1/2-x,-y,z
x,1/2-y,1/2-z
1/2-x,1/2+y,1/2-z
-x,-y,-z
1/2+x,y,-z
-x,1/2+y,1/2+z
1/2+x,1/2-y,1/2+z
loop_
_atom_site_type_symbol
_atom_site_label
_atom_site_fract_x
_atom_site_fract_y
_atom_site_fract_z
Si Si1 0.393602 0.678257 0.302518
Si Si2 0.254858 0.800124 0.618464
Si Si3 0.686187 0.600874 0.327314
Si Si4 0.617091 0.353767 0.230999
Si Si5 0.750370 0.315084 0.877334
Si Si6 0.498981 0.084991 0.575090
Si Si7 0.003833 0.363062 0.948733
Si Si8 0.172840 0.589885 0.230275
O O1 0.433486 0.750000 0.250000
O O2 0.520222 0.605269 0.316760
O O3 0.353011 0.726087 0.362459
O O4 0.258934 0.616163 0.285507
O O5 0.226808 0.687906 0.631245
O O6 0.340916 0.852861 0.666910
O O7 0.113094 0.860645 0.613289
O O8 0.351794 0.806802 0.563571
O O9 0.750000 0.500000 0.351797
O O10 0.750463 0.615278 0.266407
O O11 0.560069 0.250000 0.250000
O O12 0.490278 0.428556 0.242954
O O13 0.653434 0.400106 0.900966
O O14 0.875152 0.302451 0.921918
O O15 0.822338 0.329493 0.817340
O O16 0.481948 0.131764 0.514331
O O17 0.478099 0.970490 0.576071
O O18 0.250000 0.500000 0.202239
#
# Coordination Sequence:
#
# PCOD8216087 Si02
#       8
#     8   8   8   8   8   8   8   8
#     4  10  21  37  58  83 120 159 194 242 292 354
#     4  11  22  39  61  86 120 158 194 243 300 352
#     4  11  23  39  59  87 119 156 202 245 287 349
#     4  10  21  36  56  83 117 154 195 237 288 344
#     4  11  21  37  58  82 120 156 190 230 296 352
#     4  11  23  39  60  88 121 150 198 239 294 358
#     4  11  23  39  60  90 117 154 193 245 291 358
#     4  11  21  34  55  86 119 156 194 233 284 348
#
# _framework density 20.055679999999999
#
# number of rings (size 3 to 8) (size 9 to 14) (size 15 to 20)
#    0.000    1.250    2.500    5.250    3.500    3.000 
#    0.000    0.000    0.000    0.750    0.000    0.000 
#    0.000    0.000    0.000    0.000    0.000    0.000 
#
# Total GULP energy -793205.586460 kJ/mol
# GULP energy per Si atom -12393.837288 kJ/mol
# Density = 2.001003 g / cm^3
# Si number density = 20.055680 Si / 1000 Ang^3
#
#
#
# Elastic Constant Matrix: (Units=GPa)
#
#
# Indices 1 2 3 4 5 6 
#
# 1 116.6614 26.4096 29.0842 0.0000 0.0000 0.0000
# 2 26.4096 71.8699 24.0097 0.0000 0.0000 0.0000
# 3 29.0842 24.0097 67.9870 0.0000 0.0000 0.0000
# 4 0.0000 0.0000 0.0000 23.1194 0.0000 0.0000
# 5 0.0000 0.0000 0.0000 0.0000 23.3576 0.0000
# 6 0.0000 0.0000 0.0000 0.0000 0.0000 30.9125
#
#
#
# Elastic Compliance Matrix: (Units=1/GPa)
#
#
# Indices 1 2 3 4 5 6 
#
# 1 0.009989 -0.002543 -0.003375 0.000000 0.000000 0.000000
# 2 -0.002543 0.016423 -0.004712 0.000000 0.000000 0.000000
# 3 -0.003375 -0.004712 0.017816 0.000000 0.000000 0.000000
# 4 0.000000 0.000000 0.000000 0.043254 0.000000 0.000000
# 5 0.000000 0.000000 0.000000 0.000000 0.042813 0.000000
# 6 0.000000 0.000000 0.000000 0.000000 0.000000 0.032349
#
#
# Mechanical properties :
#
#
# Convention : Reuss Voigt Hill
#
# Bulk Modulus (GPa) = 43.53847 46.16947 44.85397
# Shear Modulus (GPa) = 26.10153 27.27887 26.69020
#
# Velocity S-wave (km/s) = 3.61148 3.69203 3.65198
# Velocity P-wave (km/s) = 6.25670 6.42226 6.34002
#
# Compressibility (1/GPa) = 0.02296819
#
# Stress axis : x y z
#
# Youngs Moduli (GPa) = 100.11081 60.89180 56.12779
#
# Poissons Ratio (x) = 0.15485 0.18944
# Poissons Ratio (y) = 0.25459 0.26446
# Poissons Ratio (z) = 0.33788 0.28691
#
# Static dielectric constant tensor:
#      x y z
#    x 3.810860 0.000000 0.000000 
#    y 0.000000 3.646570 0.000000 
#    z 0.000000 0.000000 3.449530 
# 
# 
# High freq. dielectric constant tensor:
#      x y z
#    x 1.808310 0.000000 0.000000 
#    y 0.000000 1.756530 0.000000 
#    z 0.000000 0.000000 1.760220 
# 
# From -- ./inp_files/39656.got.cif
#   From: 2010.06.25/outbox.cif.g09.slc.cpg/sg52_20_cif.got.tgz:39656.got - 2010.06.26 19:32:48.
