data_PCOD8216309
_publ_section_title
;
Structure prediction by ZEFSAII (Michael W. Deem and Ramdas Pophale) SiO2 
 PCOD8216309
Probable space group: P N N A
;
_chemical_formula_sum "Si O2"
_cell_formula_units_Z 44
_cell_length_a 30.005874
_cell_length_b 9.111796
_cell_length_c 7.931670
_cell_angle_alpha 90.000000
_cell_angle_beta 90.000000
_cell_angle_gamma 90.000000
_cell_volume 2168.577294
_symmetry_space_group_name_H-M "P N N A"
_symmetry_group_IT_number 52
_symmetry_cell_setting 'orthorhombic'
loop_
_space_group_symop_operation_xyz
x,y,z
1/2-x,-y,z
x,1/2-y,1/2-z
1/2-x,1/2+y,1/2-z
-x,-y,-z
1/2+x,y,-z
-x,1/2+y,1/2+z
1/2+x,1/2-y,1/2+z
loop_
_atom_site_type_symbol
_atom_site_label
_atom_site_fract_x
_atom_site_fract_y
_atom_site_fract_z
Si Si1 0.096994 0.250000 0.250000
Si Si2 0.789449 0.250000 0.250000
Si Si3 0.537629 0.175355 0.421800
Si Si4 0.049973 0.845001 0.585216
Si Si5 0.353352 0.185934 0.481867
Si Si6 0.250000 0.000000 0.972336
Si Si7 0.337973 0.013596 0.161855
O O1 0.067960 0.202889 0.412587
O O2 0.127354 0.382704 0.314844
O O3 0.822403 0.147250 0.359564
O O4 0.758732 0.143906 0.139357
O O5 0.555749 0.250000 0.250000
O O6 0.487687 0.232292 0.468242
O O7 0.533077 0.006274 0.368260
O O8 0.058745 0.750000 0.750000
O O9 0.096248 0.869551 0.489283
O O10 0.328642 0.099513 0.334100
O O11 0.356694 0.362944 0.465551
O O12 0.208597 0.046266 0.089914
#
# Coordination Sequence:
#
# PCOD8216309 Si02
#       7
#     4   4   8   8   8   4   8
#     4  12  24  45  62 102 136 170 214 285 332 388
#     4  10  22  41  66  96 128 154 226 263 326 392
#     4  11  27  42  64 101 137 172 219 277 328 384
#     4  11  23  43  66  94 131 176 220 265 320 387
#     4  10  21  40  66  94 122 174 218 260 308 408
#     4  10  24  44  62  98 122 174 204 278 332 392
#     4  10  24  41  66  89 132 168 216 261 338 386
#
# _framework density 20.289802000000002
#
# number of rings (size 3 to 8) (size 9 to 14) (size 15 to 20)
#    0.000    1.455    3.636    0.000    5.091    5.818 
#    1.636    0.000    0.000    0.000    0.000    0.000 
#    0.000    0.000    0.000    0.000    0.000    0.000 
#
# Total GULP energy -545391.864572 kJ/mol
# GULP energy per Si atom -12395.269649 kJ/mol
# Density = 2.024362 g / cm^3
# Si number density = 20.289802 Si / 1000 Ang^3
#
#
#
# Elastic Constant Matrix: (Units=GPa)
#
#
# Indices 1 2 3 4 5 6 
#
# 1 145.6828 38.9909 63.7341 0.0000 0.0000 0.0000
# 2 38.9909 82.6439 39.0690 0.0000 0.0000 0.0000
# 3 63.7341 39.0690 132.7189 0.0000 0.0000 0.0000
# 4 0.0000 0.0000 0.0000 32.2830 0.0000 0.0000
# 5 0.0000 0.0000 0.0000 0.0000 25.8387 0.0000
# 6 0.0000 0.0000 0.0000 0.0000 0.0000 26.2342
#
#
#
# Elastic Compliance Matrix: (Units=1/GPa)
#
#
# Indices 1 2 3 4 5 6 
#
# 1 0.009147 -0.002601 -0.003627 0.000000 0.000000 0.000000
# 2 -0.002601 0.014796 -0.003106 0.000000 0.000000 0.000000
# 3 -0.003627 -0.003106 0.010191 0.000000 0.000000 0.000000
# 4 0.000000 0.000000 0.000000 0.030976 0.000000 0.000000
# 5 0.000000 0.000000 0.000000 0.000000 0.038702 0.000000
# 6 0.000000 0.000000 0.000000 0.000000 0.000000 0.038118
#
#
# Mechanical properties :
#
#
# Convention : Reuss Voigt Hill
#
# Bulk Modulus (GPa) = 64.66196 71.62596 68.14396
# Shear Modulus (GPa) = 30.16530 31.48795 30.82663
#
# Velocity S-wave (km/s) = 3.85999 3.94370 3.90207
# Velocity P-wave (km/s) = 7.19753 7.49100 7.34573
#
# Compressibility (1/GPa) = 0.01546504
#
# Stress axis : x y z
#
# Youngs Moduli (GPa) = 109.32436 67.58689 98.12664
#
# Poissons Ratio (x) = 0.17579 0.35590
# Poissons Ratio (y) = 0.28435 0.30483
# Poissons Ratio (z) = 0.39651 0.20996
#
# Static dielectric constant tensor:
#      x y z
#    x 3.768590 0.000000 0.000000 
#    y 0.000000 3.653320 0.000000 
#    z 0.000000 0.000000 3.803740 
# 
# 
# High freq. dielectric constant tensor:
#      x y z
#    x 1.798980 0.000000 0.000000 
#    y 0.000000 1.787120 0.000000 
#    z 0.000000 0.000000 1.803160 
# 
# From -- ./inp_files/15441.got.cif
#   From: 2010.06.25/outbox.cif.g09.slc.cpg/sg52_8_cif.got.tgz:15441.got - 2010.06.26 19:32:48.
