data_PCOD8216417
_publ_section_title
;
Structure prediction by ZEFSAII (Michael W. Deem and Ramdas Pophale) SiO2 
 PCOD8216417
Probable space group: P N N A
;
_chemical_formula_sum "Si O2"
_cell_formula_units_Z 60
_cell_length_a 27.819957
_cell_length_b 8.405927
_cell_length_c 11.318107
_cell_angle_alpha 90.000000
_cell_angle_beta 90.000000
_cell_angle_gamma 90.000000
_cell_volume 2646.767931
_symmetry_space_group_name_H-M "P N N A"
_symmetry_group_IT_number 52
_symmetry_cell_setting 'orthorhombic'
loop_
_space_group_symop_operation_xyz
x,y,z
1/2-x,-y,z
x,1/2-y,1/2-z
1/2-x,1/2+y,1/2-z
-x,-y,-z
1/2+x,y,-z
-x,1/2+y,1/2+z
1/2+x,1/2-y,1/2+z
loop_
_atom_site_type_symbol
_atom_site_label
_atom_site_fract_x
_atom_site_fract_y
_atom_site_fract_z
Si Si1 0.472598 0.541153 0.349329
Si Si2 0.856278 0.053087 0.041983
Si Si3 0.078844 0.236567 0.969938
Si Si4 0.364320 0.250000 0.750000
Si Si5 0.440505 0.238617 0.446675
Si Si6 0.197878 0.572391 0.299892
Si Si7 0.946740 0.039041 0.340459
Si Si8 0.108347 0.459669 0.174620
O O1 0.467231 0.641061 0.472227
O O2 0.475976 0.352180 0.372750
O O3 0.519602 0.579324 0.271821
O O4 0.424856 0.600460 0.281603
O O5 0.832942 0.148949 0.154231
O O6 0.904681 0.144367 0.011982
O O7 0.817896 0.058393 0.936836
O O8 0.878010 0.879100 0.076007
O O9 0.106209 0.349333 0.061699
O O10 0.058106 0.349529 0.865072
O O11 0.395148 0.114042 0.684625
O O12 0.468351 0.126054 0.541864
O O13 0.410784 0.134978 0.354187
O O14 0.250000 0.500000 0.286055
O O15 0.197254 0.750000 0.250000
O O16 0.162767 0.465256 0.220225
#
# Coordination Sequence:
#
# PCOD8216417 Si02
#       8
#     8   8   8   4   8   8   8   8
#     4  11  21  39  62  87 130 173 236 282 338 397
#     4  10  21  45  69  95 134 183 227 272 351 403
#     4  10  23  39  67  94 131 180 234 289 339 410
#     4  10  24  48  68  86 132 194 236 282 336 410
#     4   9  19  41  63  83 127 191 220 273 341 412
#     4  12  25  41  74 113 145 170 218 280 352 432
#     4  10  24  43  59  95 132 176 251 293 331 391
#     4  11  20  40  63  93 137 182 213 262 364 414
#
# _framework density 22.669156999999998
#
# number of rings (size 3 to 8) (size 9 to 14) (size 15 to 20)
#    0.000    1.600    4.000    0.800    3.733    2.667 
#    9.600    6.000    0.000    2.400    0.000    0.000 
#    0.000    0.000    0.000    0.000    0.000    0.000 
#
# Total GULP energy -743568.988879 kJ/mol
# GULP energy per Si atom -12392.816481 kJ/mol
# Density = 2.261756 g / cm^3
# Si number density = 22.669157 Si / 1000 Ang^3
#
#
#
# Elastic Constant Matrix: (Units=GPa)
#
#
# Indices 1 2 3 4 5 6 
#
# 1 69.9933 6.7845 21.1433 0.0000 0.0000 0.0000
# 2 6.7845 94.1809 15.9558 0.0000 0.0000 0.0000
# 3 21.1433 15.9558 73.3225 0.0000 0.0000 0.0000
# 4 0.0000 0.0000 0.0000 51.6635 0.0000 0.0000
# 5 0.0000 0.0000 0.0000 0.0000 22.0570 0.0000
# 6 0.0000 0.0000 0.0000 0.0000 0.0000 10.0966
#
#
#
# Elastic Compliance Matrix: (Units=1/GPa)
#
#
# Indices 1 2 3 4 5 6 
#
# 1 0.015663 -0.000377 -0.004435 0.000000 0.000000 0.000000
# 2 -0.000377 0.011033 -0.002292 0.000000 0.000000 0.000000
# 3 -0.004435 -0.002292 0.015416 0.000000 0.000000 0.000000
# 4 0.000000 0.000000 0.000000 0.019356 0.000000 0.000000
# 5 0.000000 0.000000 0.000000 0.000000 0.045337 0.000000
# 6 0.000000 0.000000 0.000000 0.000000 0.000000 0.099043
#
#
# Mechanical properties :
#
#
# Convention : Reuss Voigt Hill
#
# Bulk Modulus (GPa) = 35.83619 36.14043 35.98831
# Shear Modulus (GPa) = 21.79995 29.67097 25.73546
#
# Velocity S-wave (km/s) = 3.10442 3.62175 3.37302
# Velocity P-wave (km/s) = 5.35655 5.78504 5.57491
#
# Compressibility (1/GPa) = 0.02790475
#
# Stress axis : x y z
#
# Youngs Moduli (GPa) = 63.84392 90.63415 64.86788
#
# Poissons Ratio (x) = 0.03417 0.28766
# Poissons Ratio (y) = 0.02407 0.14869
# Poissons Ratio (z) = 0.28312 0.20776
#
# Static dielectric constant tensor:
#      x y z
#    x 3.534660 0.000000 0.000000 
#    y 0.000000 4.771570 0.000000 
#    z 0.000000 0.000000 5.165160 
# 
# 
# High freq. dielectric constant tensor:
#      x y z
#    x 1.827800 0.000000 0.000000 
#    y 0.000000 1.926090 0.000000 
#    z 0.000000 0.000000 1.909390 
# 
# From -- ./inp_files/22882.got.cif
#   From: 2010.06.25/outbox.cif.g09.slc.cpg/sg52_12_cif.got.tgz:22882.got - 2010.06.26 19:32:48.
