data_PCOD8216271
_publ_section_title
;
Structure prediction by ZEFSAII (Michael W. Deem and Ramdas Pophale) SiO2 
 PCOD8216271
Probable space group: P N N A
;
_chemical_formula_sum "Si O2"
_cell_formula_units_Z 52
_cell_length_a 13.966054
_cell_length_b 8.241725
_cell_length_c 23.018690
_cell_angle_alpha 90.000000
_cell_angle_beta 90.000000
_cell_angle_gamma 90.000000
_cell_volume 2649.551958
_symmetry_space_group_name_H-M "P N N A"
_symmetry_group_IT_number 52
_symmetry_cell_setting 'orthorhombic'
loop_
_space_group_symop_operation_xyz
x,y,z
1/2-x,-y,z
x,1/2-y,1/2-z
1/2-x,1/2+y,1/2-z
-x,-y,-z
1/2+x,y,-z
-x,1/2+y,1/2+z
1/2+x,1/2-y,1/2+z
loop_
_atom_site_type_symbol
_atom_site_label
_atom_site_fract_x
_atom_site_fract_y
_atom_site_fract_z
Si Si1 0.036772 0.846131 0.427126
Si Si2 0.250000 0.500000 0.553531
Si Si3 0.766081 0.310857 0.188629
Si Si4 0.554144 0.196878 0.185669
Si Si5 0.412456 0.396251 0.625644
Si Si6 0.758607 0.182477 0.523277
Si Si7 0.451979 0.707370 0.047039
O O1 0.150675 0.817675 0.433855
O O2 0.008613 0.784602 0.363515
O O3 0.979228 0.757852 0.479548
O O4 0.008136 0.034421 0.432029
O O5 0.345631 0.524720 0.591136
O O6 0.229315 0.669081 0.520727
O O7 0.750000 0.500000 0.186970
O O8 0.805821 0.250000 0.250000
O O9 0.665309 0.230421 0.175379
O O10 0.847427 0.257790 0.143101
O O11 0.519435 0.250000 0.250000
O O12 0.543834 0.001020 0.179238
O O13 0.501005 0.344255 0.586385
O O14 0.661463 0.217816 0.558426
O O15 0.750000 0.000000 0.493901
#
# Coordination Sequence:
#
# PCOD8216271 Si02
#       7
#     8   4   8   8   8   8   8
#     4  10  21  40  61  88 123 160 204 253 318 374
#     4  12  22  36  60  92 128 162 202 252 320 378
#     4  11  22  38  59  82 120 160 203 255 306 370
#     4  11  23  39  59  84 120 164 206 253 309 368
#     4  12  23  38  57  96 124 160 212 252 314 384
#     4  10  23  40  60  89 130 160 203 255 319 376
#     4  10  22  37  62  92 121 162 201 258 317 375
#
# _framework density 19.625959999999999
#
# number of rings (size 3 to 8) (size 9 to 14) (size 15 to 20)
#    0.000    1.231    3.077    3.692    2.154    1.846 
#    0.000    0.000    0.000    6.462    0.000    0.000 
#    0.000    0.000    0.000    0.000    0.000    0.000 
#
# Total GULP energy -644467.223678 kJ/mol
# GULP energy per Si atom -12393.600455 kJ/mol
# Density = 1.958129 g / cm^3
# Si number density = 19.625960 Si / 1000 Ang^3
#
#
#
# Elastic Constant Matrix: (Units=GPa)
#
#
# Indices 1 2 3 4 5 6 
#
# 1 100.5401 15.0698 49.3230 0.0000 0.0000 0.0000
# 2 15.0698 106.2784 64.8934 0.0000 0.0000 0.0000
# 3 49.3230 64.8934 125.4715 0.0000 0.0000 0.0000
# 4 0.0000 0.0000 0.0000 16.4604 0.0000 0.0000
# 5 0.0000 0.0000 0.0000 0.0000 18.9806 0.0000
# 6 0.0000 0.0000 0.0000 0.0000 0.0000 33.7374
#
#
#
# Elastic Compliance Matrix: (Units=1/GPa)
#
#
# Indices 1 2 3 4 5 6 
#
# 1 0.012555 0.001802 -0.005867 0.000000 0.000000 0.000000
# 2 0.001802 0.014011 -0.007955 0.000000 0.000000 0.000000
# 3 -0.005867 -0.007955 0.014391 0.000000 0.000000 0.000000
# 4 0.000000 0.000000 0.000000 0.060752 0.000000 0.000000
# 5 0.000000 0.000000 0.000000 0.000000 0.052685 0.000000
# 6 0.000000 0.000000 0.000000 0.000000 0.000000 0.029641
#
#
# Mechanical properties :
#
#
# Convention : Reuss Voigt Hill
#
# Bulk Modulus (GPa) = 59.11442 65.65137 62.38290
# Shear Modulus (GPa) = 23.39589 27.36928 25.38259
#
# Velocity S-wave (km/s) = 3.45641 3.73841 3.60017
# Velocity P-wave (km/s) = 6.79080 7.22206 7.00975
#
# Compressibility (1/GPa) = 0.01691635
#
# Stress axis : x y z
#
# Youngs Moduli (GPa) = 79.65235 71.37276 69.48929
#
# Poissons Ratio (x) = -0.12865 0.40772
# Poissons Ratio (y) = -0.14357 0.55278
# Poissons Ratio (z) = 0.46736 0.56777
#
# Static dielectric constant tensor:
#      x y z
#    x 3.603110 0.000000 0.000000 
#    y 0.000000 3.690630 0.000000 
#    z 0.000000 0.000000 3.449050 
# 
# 
# High freq. dielectric constant tensor:
#      x y z
#    x 1.757400 0.000000 0.000000 
#    y 0.000000 1.782170 0.000000 
#    z 0.000000 0.000000 1.741740 
# 
# From -- ./inp_files/37276.got.cif
#   From: 2010.06.25/outbox.cif.g09.slc.cpg/sg52_19_cif.got.tgz:37276.got - 2010.06.26 19:32:48.
