data_PCOD8216610
_publ_section_title
;
Structure prediction by ZEFSAII (Michael W. Deem and Ramdas Pophale) SiO2 
 PCOD8216610
Probable space group: P N N A
;
_chemical_formula_sum "Si O2"
_cell_formula_units_Z 36
_cell_length_a 13.223398
_cell_length_b 6.466286
_cell_length_c 20.957065
_cell_angle_alpha 90.000000
_cell_angle_beta 90.000000
_cell_angle_gamma 90.000000
_cell_volume 1791.960529
_symmetry_space_group_name_H-M "P N N A"
_symmetry_group_IT_number 52
_symmetry_cell_setting 'orthorhombic'
loop_
_space_group_symop_operation_xyz
x,y,z
1/2-x,-y,z
x,1/2-y,1/2-z
1/2-x,1/2+y,1/2-z
-x,-y,-z
1/2+x,y,-z
-x,1/2+y,1/2+z
1/2+x,1/2-y,1/2+z
loop_
_atom_site_type_symbol
_atom_site_label
_atom_site_fract_x
_atom_site_fract_y
_atom_site_fract_z
Si Si1 0.361094 0.521401 0.854088
Si Si2 0.992388 0.365936 0.685184
Si Si3 0.426716 0.250000 0.750000
Si Si4 0.972810 0.199228 0.461863
Si Si5 0.631735 0.539226 0.564894
O O1 0.250000 0.500000 0.884792
O O2 0.406977 0.753132 0.845009
O O3 0.355132 0.413554 0.785187
O O4 0.431656 0.372831 0.894535
O O5 0.956167 0.250000 0.750000
O O6 0.907089 0.352230 0.630264
O O7 0.007537 0.608342 0.701400
O O8 0.889015 0.322199 0.502532
O O9 0.074039 0.325859 0.447721
O O10 0.000000 0.000000 0.500000
O O11 0.750000 0.500000 0.571656
#
# Coordination Sequence:
#
# PCOD8216610 Si02
#       5
#     8   8   4   8   8
#     4  11  24  38  67  93 127 170 212 260 328 380
#     4  10  22  44  62  93 130 166 214 267 314 381
#     4  10  22  42  62  90 136 164 206 270 312 386
#     4  11  24  44  64  93 130 166 214 270 315 386
#     4  11  25  44  67  93 129 171 217 266 324 381
#
# _framework density 20.089727
#
# number of rings (size 3 to 8) (size 9 to 14) (size 15 to 20)
#    0.000    1.333    4.444    0.000    7.778    0.000 
#    2.000    0.000    0.000    0.000    0.000    0.000 
#    0.000    0.000    0.000    0.000    0.000    0.000 
#
# Total GULP energy -446130.600104 kJ/mol
# GULP energy per Si atom -12392.516670 kJ/mol
# Density = 2.004400 g / cm^3
# Si number density = 20.089727 Si / 1000 Ang^3
#
#
#
# Elastic Constant Matrix: (Units=GPa)
#
#
# Indices 1 2 3 4 5 6 
#
# 1 141.1807 54.7214 40.8950 0.0000 0.0000 0.0000
# 2 54.7214 118.9915 39.7457 0.0000 0.0000 0.0000
# 3 40.8950 39.7457 87.3949 0.0000 0.0000 0.0000
# 4 0.0000 0.0000 0.0000 45.9123 0.0000 0.0000
# 5 0.0000 0.0000 0.0000 0.0000 21.1521 0.0000
# 6 0.0000 0.0000 0.0000 0.0000 0.0000 20.8696
#
#
#
# Elastic Compliance Matrix: (Units=1/GPa)
#
#
# Indices 1 2 3 4 5 6 
#
# 1 0.009165 -0.003281 -0.002797 0.000000 0.000000 0.000000
# 2 -0.003281 0.011084 -0.003506 0.000000 0.000000 0.000000
# 3 -0.002797 -0.003506 0.014345 0.000000 0.000000 0.000000
# 4 0.000000 0.000000 0.000000 0.021781 0.000000 0.000000
# 5 0.000000 0.000000 0.000000 0.000000 0.047277 0.000000
# 6 0.000000 0.000000 0.000000 0.000000 0.000000 0.047917
#
#
# Mechanical properties :
#
#
# Convention : Reuss Voigt Hill
#
# Bulk Modulus (GPa) = 64.81640 68.69903 66.75772
# Shear Modulus (GPa) = 28.42926 31.73381 30.08154
#
# Velocity S-wave (km/s) = 3.76588 3.97873 3.87377
# Velocity P-wave (km/s) = 7.15840 7.44160 7.30137
#
# Compressibility (1/GPa) = 0.01542819
#
# Stress axis : x y z
#
# Youngs Moduli (GPa) = 109.11420 90.22409 69.70991
#
# Poissons Ratio (x) = 0.29598 0.19495
# Poissons Ratio (y) = 0.35795 0.24437
# Poissons Ratio (z) = 0.30514 0.31628
#
# Static dielectric constant tensor:
#      x y z
#    x 3.248620 0.000000 0.000000 
#    y 0.000000 3.824300 0.000000 
#    z 0.000000 0.000000 3.917390 
# 
# 
# High freq. dielectric constant tensor:
#      x y z
#    x 1.749470 0.000000 0.000000 
#    y 0.000000 1.799150 0.000000 
#    z 0.000000 0.000000 1.808550 
# 
# From -- ./inp_files/37046.got.cif
#   From: 2010.06.25/outbox.cif.g09.slc.cpg/sg52_19_cif.got.tgz:37046.got - 2010.06.26 19:32:48.
