data_PCOD8216976
_publ_section_title
;
Structure prediction by ZEFSAII (Michael W. Deem and Ramdas Pophale) SiO2 
 PCOD8216976
Probable space group: P N N A
;
_chemical_formula_sum "Si O2"
_cell_formula_units_Z 24
_cell_length_a 16.862974
_cell_length_b 9.982312
_cell_length_c 5.870848
_cell_angle_alpha 90.000000
_cell_angle_beta 90.000000
_cell_angle_gamma 90.000000
_cell_volume 988.248461
_symmetry_space_group_name_H-M "P N N A"
_symmetry_group_IT_number 52
_symmetry_cell_setting 'orthorhombic'
loop_
_space_group_symop_operation_xyz
x,y,z
1/2-x,-y,z
x,1/2-y,1/2-z
1/2-x,1/2+y,1/2-z
-x,-y,-z
1/2+x,y,-z
-x,1/2+y,1/2+z
1/2+x,1/2-y,1/2+z
loop_
_atom_site_type_symbol
_atom_site_label
_atom_site_fract_x
_atom_site_fract_y
_atom_site_fract_z
Si Si1 0.485191 0.250000 0.750000
Si Si2 0.250000 0.500000 0.780321
Si Si3 0.864003 0.886134 0.652571
Si Si4 0.150236 0.644034 0.443347
O O1 0.541659 0.142212 0.618351
O O2 0.432990 0.315193 0.552729
O O3 0.216806 0.627254 0.638848
O O4 0.177559 0.438959 0.925410
O O5 0.822782 0.750000 0.750000
O O6 0.855598 0.996625 0.844586
O O7 0.176251 0.750000 0.250000
#
# Coordination Sequence:
#
# PCOD8216976 Si02
#       4
#     4   4   8   8
#     4  10  26  52  80 110 156 200 262 312 388 456
#     4  12  28  50  78 116 160 206 258 320 388 452
#     4  10  27  50  76 111 152 202 257 317 380 459
#     4  12  27  47  78 112 156 202 259 318 380 459
#
# _framework density 24.285388000000001
#
# number of rings (size 3 to 8) (size 9 to 14) (size 15 to 20)
#    1.000    0.000    0.000    4.000    0.000   22.667 
#    0.000    0.000    0.000    0.000    0.000    0.000 
#    0.000    0.000    0.000    0.000    0.000    0.000 
#
# Total GULP energy -297457.011965 kJ/mol
# GULP energy per Si atom -12394.042165 kJ/mol
# Density = 2.423011 g / cm^3
# Si number density = 24.285388 Si / 1000 Ang^3
#
#
#
# Elastic Constant Matrix: (Units=GPa)
#
#
# Indices 1 2 3 4 5 6 
#
# 1 135.1090 28.5509 83.9256 0.0000 0.0000 0.0000
# 2 28.5509 158.2326 75.4338 0.0000 0.0000 0.0000
# 3 83.9256 75.4338 168.0704 0.0000 0.0000 0.0000
# 4 0.0000 0.0000 0.0000 46.6219 0.0000 0.0000
# 5 0.0000 0.0000 0.0000 0.0000 3.9673 0.0000
# 6 0.0000 0.0000 0.0000 0.0000 0.0000 103.2059
#
#
#
# Elastic Compliance Matrix: (Units=1/GPa)
#
#
# Indices 1 2 3 4 5 6 
#
# 1 0.010807 0.000792 -0.005752 0.000000 0.000000 0.000000
# 2 0.000792 0.008098 -0.004030 0.000000 0.000000 0.000000
# 3 -0.005752 -0.004030 0.010631 0.000000 0.000000 0.000000
# 4 0.000000 0.000000 0.000000 0.021449 0.000000 0.000000
# 5 0.000000 0.000000 0.000000 0.000000 0.252059 0.000000
# 6 0.000000 0.000000 0.000000 0.000000 0.000000 0.009689
#
#
# Mechanical properties :
#
#
# Convention : Reuss Voigt Hill
#
# Bulk Modulus (GPa) = 86.53458 93.02585 89.78022
# Shear Modulus (GPa) = 14.94476 48.99247 31.96862
#
# Velocity S-wave (km/s) = 2.48338 4.49638 3.63212
# Velocity P-wave (km/s) = 6.62817 8.08363 7.39181
#
# Compressibility (1/GPa) = 0.01155607
#
# Stress axis : x y z
#
# Youngs Moduli (GPa) = 92.53272 123.48438 94.06473
#
# Poissons Ratio (x) = -0.09782 0.54106
# Poissons Ratio (y) = -0.07330 0.37910
# Poissons Ratio (z) = 0.53225 0.49767
#
# Static dielectric constant tensor:
#      x y z
#    x 4.562230 0.000000 0.000000 
#    y 0.000000 4.503520 0.000000 
#    z 0.000000 0.000000 4.308390 
# 
# 
# High freq. dielectric constant tensor:
#      x y z
#    x 1.978000 0.000000 0.000000 
#    y 0.000000 1.978590 0.000000 
#    z 0.000000 0.000000 1.964730 
# 
# From -- ./inp_files/1678.got.cif
#   From: 2010.06.25/outbox.cif.g09.slc.cpg/sg52_1_cif.got.tgz:1678.got - 2010.06.26 19:32:48.
