data_PCOD8216536
_publ_section_title
;
Structure prediction by ZEFSAII (Michael W. Deem and Ramdas Pophale) SiO2 
 PCOD8216536
Probable space group: P N N A
;
_chemical_formula_sum "Si O2"
_cell_formula_units_Z 60
_cell_length_a 11.924246
_cell_length_b 23.284949
_cell_length_c 8.939840
_cell_angle_alpha 90.000000
_cell_angle_beta 90.000000
_cell_angle_gamma 90.000000
_cell_volume 2482.195387
_symmetry_space_group_name_H-M "P N N A"
_symmetry_group_IT_number 52
_symmetry_cell_setting 'orthorhombic'
loop_
_space_group_symop_operation_xyz
x,y,z
1/2-x,-y,z
x,1/2-y,1/2-z
1/2-x,1/2+y,1/2-z
-x,-y,-z
1/2+x,y,-z
-x,1/2+y,1/2+z
1/2+x,1/2-y,1/2+z
loop_
_atom_site_type_symbol
_atom_site_label
_atom_site_fract_x
_atom_site_fract_y
_atom_site_fract_z
Si Si1 0.948425 0.250000 0.250000
Si Si2 0.486906 0.931297 0.131427
Si Si3 0.846368 0.732886 0.952707
Si Si4 0.336910 0.646735 0.549584
Si Si5 0.836582 0.131006 0.290201
Si Si6 0.017360 0.190360 0.704977
Si Si7 0.352731 0.038240 0.130525
Si Si8 0.695822 0.632198 0.880686
O O1 0.032041 0.247453 0.108698
O O2 0.863291 0.198186 0.277396
O O3 0.544492 0.901603 0.273521
O O4 0.448227 0.993881 0.190076
O O5 0.375031 0.896238 0.082040
O O6 0.583577 0.929841 0.003613
O O7 0.778634 0.687480 0.846689
O O8 0.783195 0.793776 0.982727
O O9 0.868445 0.700963 0.110489
O O10 0.247727 0.614552 0.655400
O O11 0.449305 0.658293 0.643655
O O12 0.781722 0.111462 0.449094
O O13 0.958675 0.250000 0.750000
O O14 0.931403 0.153456 0.610307
O O15 0.301472 0.081840 0.256365
O O16 0.250000 0.000000 0.068838
#
# Coordination Sequence:
#
# PCOD8216536 Si02
#       8
#     4   8   8   8   8   8   8   8
#     4  12  24  38  64 110 146 180 232 290 352 450
#     4  11  25  49  75  99 136 193 247 312 346 422
#     4  11  24  39  65 105 148 189 230 290 364 445
#     4  11  22  44  71 103 145 193 237 293 363 439
#     4  12  25  42  70 105 142 187 236 291 369 434
#     4  10  22  40  62  99 145 185 230 279 356 439
#     4  11  27  49  73 102 136 184 252 304 355 420
#     4  12  25  44  70 102 146 189 230 295 367 430
#
# _framework density 24.172152000000001
#
# number of rings (size 3 to 8) (size 9 to 14) (size 15 to 20)
#    0.000    0.800    5.333    1.600    3.733    1.600 
#    0.000    3.333    0.000    0.000    0.000    0.000 
#    0.000    0.000    0.000    0.000    0.000    0.000 
#
# Total GULP energy -743391.246293 kJ/mol
# GULP energy per Si atom -12389.854105 kJ/mol
# Density = 2.411713 g / cm^3
# Si number density = 24.172152 Si / 1000 Ang^3
#
#
#
# Elastic Constant Matrix: (Units=GPa)
#
#
# Indices 1 2 3 4 5 6 
#
# 1 69.5169 30.9421 26.5314 0.0000 0.0000 0.0000
# 2 30.9421 107.0514 32.3053 0.0000 0.0000 0.0000
# 3 26.5314 32.3053 66.6293 0.0000 0.0000 0.0000
# 4 0.0000 0.0000 0.0000 34.3663 0.0000 0.0000
# 5 0.0000 0.0000 0.0000 0.0000 32.2874 0.0000
# 6 0.0000 0.0000 0.0000 0.0000 0.0000 32.5794
#
#
#
# Elastic Compliance Matrix: (Units=1/GPa)
#
#
# Indices 1 2 3 4 5 6 
#
# 1 0.018058 -0.003572 -0.005459 0.000000 0.000000 0.000000
# 2 -0.003572 0.011649 -0.004226 0.000000 0.000000 0.000000
# 3 -0.005459 -0.004226 0.019231 0.000000 0.000000 0.000000
# 4 0.000000 0.000000 0.000000 0.029098 0.000000 0.000000
# 5 0.000000 0.000000 0.000000 0.000000 0.030972 0.000000
# 6 0.000000 0.000000 0.000000 0.000000 0.000000 0.030694
#
#
# Mechanical properties :
#
#
# Convention : Reuss Voigt Hill
#
# Bulk Modulus (GPa) = 44.59297 46.97278 45.78288
# Shear Modulus (GPa) = 28.78681 30.07453 29.43067
#
# Velocity S-wave (km/s) = 3.45470 3.53112 3.49312
# Velocity P-wave (km/s) = 5.86527 6.00832 5.93722
#
# Compressibility (1/GPa) = 0.02242506
#
# Stress axis : x y z
#
# Youngs Moduli (GPa) = 55.37604 85.84419 51.99989
#
# Poissons Ratio (x) = 0.30666 0.28385
# Poissons Ratio (y) = 0.19782 0.21973
# Poissons Ratio (z) = 0.30228 0.36274
#
# Static dielectric constant tensor:
#      x y z
#    x 4.228620 0.000000 0.000000 
#    y 0.000000 4.369260 0.000000 
#    z 0.000000 0.000000 4.262470 
# 
# 
# High freq. dielectric constant tensor:
#      x y z
#    x 1.966610 0.000000 0.000000 
#    y 0.000000 1.947790 0.000000 
#    z 0.000000 0.000000 1.950150 
# 
# From -- ./inp_files/9037.got.cif
#   From: 2010.06.25/outbox.cif.g09.slc.cpg/sg52_5_cif.got.tgz:9037.got - 2010.06.26 19:32:48.
