data_PCOD8216757
_publ_section_title
;
Structure prediction by ZEFSAII (Michael W. Deem and Ramdas Pophale) SiO2 
 PCOD8216757
Probable space group: P N N A
;
_chemical_formula_sum "Si O2"
_cell_formula_units_Z 60
_cell_length_a 18.903298
_cell_length_b 13.151523
_cell_length_c 11.455209
_cell_angle_alpha 90.000000
_cell_angle_beta 90.000000
_cell_angle_gamma 90.000000
_cell_volume 2847.846959
_symmetry_space_group_name_H-M "P N N A"
_symmetry_group_IT_number 52
_symmetry_cell_setting 'orthorhombic'
loop_
_space_group_symop_operation_xyz
x,y,z
1/2-x,-y,z
x,1/2-y,1/2-z
1/2-x,1/2+y,1/2-z
-x,-y,-z
1/2+x,y,-z
-x,1/2+y,1/2+z
1/2+x,1/2-y,1/2+z
loop_
_atom_site_type_symbol
_atom_site_label
_atom_site_fract_x
_atom_site_fract_y
_atom_site_fract_z
Si Si1 0.728338 0.613073 0.580650
Si Si2 0.071285 0.169673 0.645238
Si Si3 0.364018 0.053628 0.867939
Si Si4 0.070378 0.655600 0.037572
Si Si5 0.829665 0.483620 0.123226
Si Si6 0.505110 0.684352 0.362097
Si Si7 0.653545 0.750000 0.750000
Si Si8 0.624909 0.153153 0.000786
O O1 0.750000 0.500000 0.611096
O O2 0.673716 0.616195 0.471801
O O3 0.698823 0.657475 0.699907
O O4 0.798156 0.675885 0.550316
O O5 0.056333 0.250000 0.750000
O O6 0.100585 0.237519 0.542029
O O7 0.000361 0.110178 0.600143
O O8 0.131450 0.086241 0.666875
O O9 0.319815 0.073378 0.748154
O O10 0.441954 0.092244 0.836356
O O11 0.370935 0.934963 0.902103
O O12 0.110986 0.706825 0.142671
O O13 0.121020 0.574783 0.971188
O O14 0.045275 0.744082 0.952799
O O15 0.750000 0.500000 0.071471
O O16 0.485265 0.750000 0.250000
O O17 0.434177 0.625977 0.404018
#
# Coordination Sequence:
#
# PCOD8216757 Si02
#       8
#     8   8   8   8   8   8   4   8
#     4  10  24  44  66  98 130 174 222 275 331 404
#     4  11  23  44  68  98 134 182 221 272 339 405
#     4  11  21  43  67  99 133 172 222 273 337 400
#     4  11  25  46  67  96 135 179 230 277 336 406
#     4  12  26  43  69 105 139 175 226 286 343 400
#     4  11  22  41  67  99 128 172 221 278 332 392
#     4  12  24  44  70  90 132 186 226 274 342 406
#     4  10  23  41  66  97 131 169 225 270 332 399
#
# _framework density 21.068546999999999
#
# number of rings (size 3 to 8) (size 9 to 14) (size 15 to 20)
#    0.000    1.067    4.667    2.000    2.800    0.533 
#    4.800    0.000    0.000    0.000    0.000    0.000 
#    0.000    0.000    0.000    0.000    0.000    0.000 
#
# Total GULP energy -743468.072368 kJ/mol
# GULP energy per Si atom -12391.134539 kJ/mol
# Density = 2.102059 g / cm^3
# Si number density = 21.068547 Si / 1000 Ang^3
#
#
#
# Elastic Constant Matrix: (Units=GPa)
#
#
# Indices 1 2 3 4 5 6 
#
# 1 129.2357 32.7720 53.2484 0.0000 0.0000 0.0000
# 2 32.7720 44.8932 38.1791 0.0000 0.0000 0.0000
# 3 53.2484 38.1791 121.6025 0.0000 0.0000 0.0000
# 4 0.0000 0.0000 0.0000 33.3329 0.0000 0.0000
# 5 0.0000 0.0000 0.0000 0.0000 33.2999 0.0000
# 6 0.0000 0.0000 0.0000 0.0000 0.0000 36.4685
#
#
#
# Elastic Compliance Matrix: (Units=1/GPa)
#
#
# Indices 1 2 3 4 5 6 
#
# 1 0.010195 -0.004974 -0.002903 0.000000 0.000000 0.000000
# 2 -0.004974 0.032816 -0.008125 0.000000 0.000000 0.000000
# 3 -0.002903 -0.008125 0.012046 0.000000 0.000000 0.000000
# 4 0.000000 0.000000 0.000000 0.030000 0.000000 0.000000
# 5 0.000000 0.000000 0.000000 0.000000 0.030030 0.000000
# 6 0.000000 0.000000 0.000000 0.000000 0.000000 0.027421
#
#
# Mechanical properties :
#
#
# Convention : Reuss Voigt Hill
#
# Bulk Modulus (GPa) = 43.37770 60.45896 51.91833
# Shear Modulus (GPa) = 27.44299 32.05570 29.74934
#
# Velocity S-wave (km/s) = 3.61301 3.90487 3.76177
# Velocity P-wave (km/s) = 6.16755 7.00637 6.60030
#
# Compressibility (1/GPa) = 0.02305332
#
# Stress axis : x y z
#
# Youngs Moduli (GPa) = 98.08669 30.47296 83.01790
#
# Poissons Ratio (x) = 0.15157 0.24098
# Poissons Ratio (y) = 0.48787 0.67453
# Poissons Ratio (z) = 0.28472 0.24760
#
# Static dielectric constant tensor:
#      x y z
#    x 4.480660 0.000000 0.000000 
#    y 0.000000 3.580430 0.000000 
#    z 0.000000 0.000000 4.221010 
# 
# 
# High freq. dielectric constant tensor:
#      x y z
#    x 1.841130 0.000000 0.000000 
#    y 0.000000 1.812250 0.000000 
#    z 0.000000 0.000000 1.830530 
# 
# From -- ./inp_files/21780.got.cif
#   From: 2010.06.25/outbox.cif.g09.slc.cpg/sg52_11_cif.got.tgz:21780.got - 2010.06.26 19:32:48.
