data_PCOD8216399
_publ_section_title
;
Structure prediction by ZEFSAII (Michael W. Deem and Ramdas Pophale) SiO2 
 PCOD8216399
Probable space group: P N N A
;
_chemical_formula_sum "Si O2"
_cell_formula_units_Z 40
_cell_length_a 9.148071
_cell_length_b 17.354986
_cell_length_c 12.899696
_cell_angle_alpha 90.000000
_cell_angle_beta 90.000000
_cell_angle_gamma 90.000000
_cell_volume 2048.015645
_symmetry_space_group_name_H-M "P N N A"
_symmetry_group_IT_number 52
_symmetry_cell_setting 'orthorhombic'
loop_
_space_group_symop_operation_xyz
x,y,z
1/2-x,-y,z
x,1/2-y,1/2-z
1/2-x,1/2+y,1/2-z
-x,-y,-z
1/2+x,y,-z
-x,1/2+y,1/2+z
1/2+x,1/2-y,1/2+z
loop_
_atom_site_type_symbol
_atom_site_label
_atom_site_fract_x
_atom_site_fract_y
_atom_site_fract_z
Si Si1 0.038592 0.750000 0.750000
Si Si2 0.526520 0.022671 0.117787
Si Si3 0.722936 0.611401 0.299359
Si Si4 0.609710 0.373134 0.887539
Si Si5 0.250000 0.500000 0.257931
Si Si6 0.708017 0.914722 0.433816
O O1 0.144863 0.693684 0.683108
O O2 0.933581 0.705495 0.829367
O O3 0.633896 0.097667 0.128397
O O4 0.601854 0.953136 0.179099
O O5 0.371564 0.040381 0.169740
O O6 0.500000 0.000000 0.000000
O O7 0.771751 0.605088 0.179390
O O8 0.681641 0.432090 0.808208
O O9 0.465627 0.409541 0.937743
O O10 0.721559 0.356214 0.981776
O O11 0.750000 0.000000 0.469826
#
# Coordination Sequence:
#
# PCOD8216399 Si02
#       6
#     4   8   8   8   4   8
#     4  10  22  48  58  94 142 172 204 284 342 392
#     4  11  22  40  67  97 123 182 235 274 320 397
#     4  10  21  43  66  88 139 170 214 281 329 391
#     4  11  24  36  67  92 136 166 210 270 334 400
#     4  12  20  38  64 100 126 166 218 282 316 384
#     4  11  19  37  64  99 122 165 215 268 331 390
#
# _framework density 19.531101
#
# number of rings (size 3 to 8) (size 9 to 14) (size 15 to 20)
#    0.000    1.200    7.000    1.800    2.800    0.000 
#    7.200    1.000    0.000    0.000    0.000    0.000 
#    0.000    0.000    0.000    0.000    0.000    0.000 
#
# Total GULP energy -495915.994507 kJ/mol
# GULP energy per Si atom -12397.899863 kJ/mol
# Density = 1.948665 g / cm^3
# Si number density = 19.531101 Si / 1000 Ang^3
#
#
#
# Elastic Constant Matrix: (Units=GPa)
#
#
# Indices 1 2 3 4 5 6 
#
# 1 154.9908 50.7176 74.9933 0.0000 0.0000 0.0000
# 2 50.7176 108.1818 45.5472 0.0000 0.0000 0.0000
# 3 74.9933 45.5472 147.1067 0.0000 0.0000 0.0000
# 4 0.0000 0.0000 0.0000 17.4905 0.0000 0.0000
# 5 0.0000 0.0000 0.0000 0.0000 39.1704 0.0000
# 6 0.0000 0.0000 0.0000 0.0000 0.0000 35.2192
#
#
#
# Elastic Compliance Matrix: (Units=1/GPa)
#
#
# Indices 1 2 3 4 5 6 
#
# 1 0.009198 -0.002688 -0.003857 0.000000 0.000000 0.000000
# 2 -0.002688 0.011415 -0.002164 0.000000 0.000000 0.000000
# 3 -0.003857 -0.002164 0.009434 0.000000 0.000000 0.000000
# 4 0.000000 0.000000 0.000000 0.057174 0.000000 0.000000
# 5 0.000000 0.000000 0.000000 0.000000 0.025529 0.000000
# 6 0.000000 0.000000 0.000000 0.000000 0.000000 0.028394
#
#
# Mechanical properties :
#
#
# Convention : Reuss Voigt Hill
#
# Bulk Modulus (GPa) = 79.18213 83.64394 81.41304
# Shear Modulus (GPa) = 30.71804 34.31075 32.51440
#
# Velocity S-wave (km/s) = 3.97013 4.19588 4.08456
# Velocity P-wave (km/s) = 7.85146 8.14818 8.00120
#
# Compressibility (1/GPa) = 0.01262911
#
# Stress axis : x y z
#
# Youngs Moduli (GPa) = 108.72270 87.60336 106.00228
#
# Poissons Ratio (x) = 0.23551 0.40880
# Poissons Ratio (y) = 0.29229 0.22937
# Poissons Ratio (z) = 0.41929 0.18956
#
# Static dielectric constant tensor:
#      x y z
#    x 3.949740 0.000000 0.000000 
#    y 0.000000 3.511500 0.000000 
#    z 0.000000 0.000000 3.641610 
# 
# 
# High freq. dielectric constant tensor:
#      x y z
#    x 1.773880 0.000000 0.000000 
#    y 0.000000 1.731370 0.000000 
#    z 0.000000 0.000000 1.766680 
# 
# From -- ./inp_files/16719.got.cif
#   From: 2010.06.25/outbox.cif.g09.slc.cpg/sg52_9_cif.got.tgz:16719.got - 2010.06.26 19:32:48.
