data_PCOD8216634
_publ_section_title
;
Structure prediction by ZEFSAII (Michael W. Deem and Ramdas Pophale) SiO2 
 PCOD8216634
Probable space group: P N N A
;
_chemical_formula_sum "Si O2"
_cell_formula_units_Z 56
_cell_length_a 14.985510
_cell_length_b 12.394087
_cell_length_c 13.678127
_cell_angle_alpha 90.000000
_cell_angle_beta 90.000000
_cell_angle_gamma 90.000000
_cell_volume 2540.461981
_symmetry_space_group_name_H-M "P N N A"
_symmetry_group_IT_number 52
_symmetry_cell_setting 'orthorhombic'
loop_
_space_group_symop_operation_xyz
x,y,z
1/2-x,-y,z
x,1/2-y,1/2-z
1/2-x,1/2+y,1/2-z
-x,-y,-z
1/2+x,y,-z
-x,1/2+y,1/2+z
1/2+x,1/2-y,1/2+z
loop_
_atom_site_type_symbol
_atom_site_label
_atom_site_fract_x
_atom_site_fract_y
_atom_site_fract_z
Si Si1 0.858462 0.741556 0.488864
Si Si2 0.430965 0.918084 0.831777
Si Si3 0.590610 0.633426 0.248556
Si Si4 0.703335 0.342214 0.681198
Si Si5 0.118881 0.949898 0.242852
Si Si6 0.538257 0.433694 0.912903
Si Si7 0.221621 0.116844 0.675998
O O1 0.910645 0.644458 0.432816
O O2 0.789714 0.692913 0.568203
O O3 0.926477 0.819234 0.547081
O O4 0.797187 0.808064 0.415671
O O5 0.530911 0.888801 0.796494
O O6 0.362754 0.880410 0.747814
O O7 0.422999 0.050358 0.840760
O O8 0.541609 0.750000 0.250000
O O9 0.547561 0.574808 0.156307
O O10 0.694865 0.658961 0.237555
O O11 0.660541 0.250000 0.750000
O O12 0.798912 0.369015 0.729563
O O13 0.636081 0.442895 0.679025
O O14 0.111640 0.993339 0.355076
O O15 0.500000 0.500000 0.000000
O O16 0.250000 0.000000 0.635438
#
# Coordination Sequence:
#
# PCOD8216634 Si02
#       7
#     8   8   8   8   8   8   8
#     4  12  24  40  70 101 138 180 241 286 350 424
#     4  10  23  42  71  98 137 178 231 301 352 415
#     4  10  22  42  68  93 137 179 218 280 366 408
#     4  11  25  45  67  95 138 194 225 285 356 431
#     4  10  24  47  65  94 142 180 231 287 359 413
#     4  11  24  42  71 103 132 179 238 288 348 428
#     4  10  22  44  66 100 136 176 223 295 358 403
#
# _framework density 22.043234000000002
#
# number of rings (size 3 to 8) (size 9 to 14) (size 15 to 20)
#    0.000    1.429    1.429    3.857    4.000    6.286 
#   12.857    0.000    0.000    0.000    0.000    0.000 
#    0.000    0.000    0.000    0.000    0.000    0.000 
#
# Total GULP energy -693944.671195 kJ/mol
# GULP energy per Si atom -12391.869128 kJ/mol
# Density = 2.199306 g / cm^3
# Si number density = 22.043234 Si / 1000 Ang^3
#
#
#
# Elastic Constant Matrix: (Units=GPa)
#
#
# Indices 1 2 3 4 5 6 
#
# 1 120.2449 23.8405 45.3656 0.0000 0.0000 0.0000
# 2 23.8405 128.8578 65.3322 0.0000 0.0000 0.0000
# 3 45.3656 65.3322 127.4463 0.0000 0.0000 0.0000
# 4 0.0000 0.0000 0.0000 36.7320 0.0000 0.0000
# 5 0.0000 0.0000 0.0000 0.0000 21.1266 0.0000
# 6 0.0000 0.0000 0.0000 0.0000 0.0000 14.5693
#
#
#
# Elastic Compliance Matrix: (Units=1/GPa)
#
#
# Indices 1 2 3 4 5 6 
#
# 1 0.009607 -0.000059 -0.003389 0.000000 0.000000 0.000000
# 2 -0.000059 0.010486 -0.005355 0.000000 0.000000 0.000000
# 3 -0.003389 -0.005355 0.011798 0.000000 0.000000 0.000000
# 4 0.000000 0.000000 0.000000 0.027224 0.000000 0.000000
# 5 0.000000 0.000000 0.000000 0.000000 0.047334 0.000000
# 6 0.000000 0.000000 0.000000 0.000000 0.000000 0.068638
#
#
# Mechanical properties :
#
#
# Convention : Reuss Voigt Hill
#
# Bulk Modulus (GPa) = 70.00314 71.73617 70.86965
# Shear Modulus (GPa) = 25.32241 30.61963 27.97102
#
# Velocity S-wave (km/s) = 3.39301 3.73107 3.56605
# Velocity P-wave (km/s) = 6.86849 7.15368 7.01254
#
# Compressibility (1/GPa) = 0.01428507
#
# Stress axis : x y z
#
# Youngs Moduli (GPa) = 104.09302 95.36357 84.76173
#
# Poissons Ratio (x) = 0.00562 0.28729
# Poissons Ratio (y) = 0.00613 0.45386
# Poissons Ratio (z) = 0.35281 0.51062
#
# Static dielectric constant tensor:
#      x y z
#    x 4.182350 0.000000 0.000000 
#    y 0.000000 4.423040 0.000000 
#    z 0.000000 0.000000 3.912370 
# 
# 
# High freq. dielectric constant tensor:
#      x y z
#    x 1.870690 0.000000 0.000000 
#    y 0.000000 1.888480 0.000000 
#    z 0.000000 0.000000 1.848650 
# 
# From -- ./inp_files/27278.got.cif
#   From: 2010.06.25/outbox.cif.g09.slc.cpg/sg52_14_cif.got.tgz:27278.got - 2010.06.26 19:32:48.
