data_PCOD8216482
_publ_section_title
;
Structure prediction by ZEFSAII (Michael W. Deem and Ramdas Pophale) SiO2 
 PCOD8216482
Probable space group: P N N A
;
_chemical_formula_sum "Si O2"
_cell_formula_units_Z 60
_cell_length_a 30.401384
_cell_length_b 17.435368
_cell_length_c 5.093457
_cell_angle_alpha 90.000000
_cell_angle_beta 90.000000
_cell_angle_gamma 90.000000
_cell_volume 2699.834342
_symmetry_space_group_name_H-M "P N N A"
_symmetry_group_IT_number 52
_symmetry_cell_setting 'orthorhombic'
loop_
_space_group_symop_operation_xyz
x,y,z
1/2-x,-y,z
x,1/2-y,1/2-z
1/2-x,1/2+y,1/2-z
-x,-y,-z
1/2+x,y,-z
-x,1/2+y,1/2+z
1/2+x,1/2-y,1/2+z
loop_
_atom_site_type_symbol
_atom_site_label
_atom_site_fract_x
_atom_site_fract_y
_atom_site_fract_z
Si Si1 0.901722 0.750000 0.750000
Si Si2 0.553500 0.836728 0.828772
Si Si3 0.455056 0.834787 0.862740
Si Si4 0.157597 0.380304 0.172615
Si Si5 0.603601 0.881803 0.319852
Si Si6 0.754688 0.408904 0.756683
Si Si7 0.381904 0.946222 0.801686
Si Si8 0.702100 0.661197 0.254113
O O1 0.933298 0.682201 0.644409
O O2 0.866461 0.699219 0.917316
O O3 0.548703 0.750000 0.750000
O O4 0.503989 0.869928 0.860004
O O5 0.581843 0.882119 0.610289
O O6 0.574453 0.834600 0.115474
O O7 0.450949 0.750000 0.750000
O O8 0.424669 0.896570 0.714828
O O9 0.207566 0.367141 0.263976
O O10 0.133920 0.423670 0.411101
O O11 0.156375 0.434399 0.915159
O O12 0.651038 0.842820 0.322697
O O13 0.604540 0.966063 0.199661
O O14 0.750000 0.500000 0.719376
O O15 0.787823 0.374518 0.539523
O O16 0.772536 0.389855 0.043678
O O17 0.716967 0.750000 0.250000
#
# Coordination Sequence:
#
# PCOD8216482 Si02
#       8
#     4   8   8   8   8   8   8   8
#     4  10  22  38  66  90 136 164 218 272 326 394
#     4  11  25  40  68  92 129 168 228 273 327 399
#     4  10  22  40  63  96 130 174 216 275 335 390
#     4  11  23  40  66  98 129 173 221 262 332 399
#     4  12  25  45  66  97 130 178 220 276 331 393
#     4  12  25  45  70 101 138 180 225 282 341 404
#     4  11  23  42  67  95 138 172 216 270 336 397
#     4  12  26  44  69  96 140 178 230 282 334 395
#
# _framework density 22.223583999999999
#
# number of rings (size 3 to 8) (size 9 to 14) (size 15 to 20)
#    0.000    0.800    1.333    6.000    5.600    1.067 
#    0.000    0.000    0.000    0.000    0.000    0.000 
#    0.000    0.000    0.000    0.000    0.000    0.000 
#
# Total GULP energy -743615.466445 kJ/mol
# GULP energy per Si atom -12393.591107 kJ/mol
# Density = 2.217300 g / cm^3
# Si number density = 22.223584 Si / 1000 Ang^3
#
#
#
# Elastic Constant Matrix: (Units=GPa)
#
#
# Indices 1 2 3 4 5 6 
#
# 1 123.2060 20.8548 16.9168 0.0000 0.0000 0.0000
# 2 20.8548 78.1322 17.1869 0.0000 0.0000 0.0000
# 3 16.9168 17.1869 91.0015 0.0000 0.0000 0.0000
# 4 0.0000 0.0000 0.0000 35.2396 0.0000 0.0000
# 5 0.0000 0.0000 0.0000 0.0000 31.7032 0.0000
# 6 0.0000 0.0000 0.0000 0.0000 0.0000 26.1883
#
#
#
# Elastic Compliance Matrix: (Units=1/GPa)
#
#
# Indices 1 2 3 4 5 6 
#
# 1 0.008628 -0.002035 -0.001220 0.000000 0.000000 0.000000
# 2 -0.002035 0.013833 -0.002234 0.000000 0.000000 0.000000
# 3 -0.001220 -0.002234 0.011638 0.000000 0.000000 0.000000
# 4 0.000000 0.000000 0.000000 0.028377 0.000000 0.000000
# 5 0.000000 0.000000 0.000000 0.000000 0.031543 0.000000
# 6 0.000000 0.000000 0.000000 0.000000 0.000000 0.038185
#
#
# Mechanical properties :
#
#
# Convention : Reuss Voigt Hill
#
# Bulk Modulus (GPa) = 43.24940 44.69519 43.97230
# Shear Modulus (GPa) = 33.13692 34.45162 33.79427
#
# Velocity S-wave (km/s) = 3.86563 3.94156 3.90378
# Velocity P-wave (km/s) = 6.27912 6.39295 6.33629
#
# Compressibility (1/GPa) = 0.02312171
#
# Stress axis : x y z
#
# Youngs Moduli (GPa) = 115.89670 72.28864 85.92868
#
# Poissons Ratio (x) = 0.14709 0.10481
# Poissons Ratio (y) = 0.23582 0.19200
# Poissons Ratio (z) = 0.14136 0.16152
#
# Static dielectric constant tensor:
#      x y z
#    x 4.364900 0.000000 0.000000 
#    y 0.000000 4.027120 0.000000 
#    z 0.000000 0.000000 3.692540 
# 
# 
# High freq. dielectric constant tensor:
#      x y z
#    x 1.886290 0.000000 0.000000 
#    y 0.000000 1.877230 0.000000 
#    z 0.000000 0.000000 1.876630 
# 
# From -- ./inp_files/5961.got.cif
#   From: 2010.06.25/outbox.cif.g09.slc.cpg/sg52_3_cif.got.tgz:5961.got - 2010.06.26 19:32:48.
