data_PCOD8216795
_publ_section_title
;
Structure prediction by ZEFSAII (Michael W. Deem and Ramdas Pophale) SiO2 
 PCOD8216795
Probable space group: P N N A
;
_chemical_formula_sum "Si O2"
_cell_formula_units_Z 40
_cell_length_a 7.584468
_cell_length_b 15.692517
_cell_length_c 15.434904
_cell_angle_alpha 90.000000
_cell_angle_beta 90.000000
_cell_angle_gamma 90.000000
_cell_volume 1837.052905
_symmetry_space_group_name_H-M "P N N A"
_symmetry_group_IT_number 52
_symmetry_cell_setting 'orthorhombic'
loop_
_space_group_symop_operation_xyz
x,y,z
1/2-x,-y,z
x,1/2-y,1/2-z
1/2-x,1/2+y,1/2-z
-x,-y,-z
1/2+x,y,-z
-x,1/2+y,1/2+z
1/2+x,1/2-y,1/2+z
loop_
_atom_site_type_symbol
_atom_site_label
_atom_site_fract_x
_atom_site_fract_y
_atom_site_fract_z
Si Si1 0.250000 0.000000 0.959763
Si Si2 0.750000 0.500000 0.754143
Si Si3 0.561996 0.221438 0.654324
Si Si4 0.223545 0.904158 0.580924
Si Si5 0.431384 0.596082 0.395474
Si Si6 0.391577 0.120149 0.388648
O O1 0.398399 0.035922 0.896817
O O2 0.187869 0.076900 0.021123
O O3 0.664610 0.425800 0.695127
O O4 0.608614 0.544852 0.817155
O O5 0.514394 0.250000 0.750000
O O6 0.438196 0.142564 0.628235
O O7 0.522956 0.304358 0.595760
O O8 0.768282 0.197328 0.644454
O O9 0.185077 0.912580 0.479388
O O10 0.404738 0.851265 0.598391
O O11 0.250000 0.000000 0.617028
#
# Coordination Sequence:
#
# PCOD8216795 Si02
#       6
#     4   4   8   8   8   8
#     4   9  22  44  70  97 132 190 242 273 356 420
#     4  11  22  44  68  93 138 176 228 291 346 408
#     4  12  27  46  67 106 144 179 238 298 347 418
#     4  12  26  44  74 104 140 189 233 280 359 433
#     4  10  23  43  68  98 135 185 232 294 342 416
#     4  12  24  44  71 102 138 185 227 292 350 424
#
# _framework density 21.774004999999999
#
# number of rings (size 3 to 8) (size 9 to 14) (size 15 to 20)
#    0.000    0.800    5.000    1.800    2.800    2.400 
#    7.200    0.000    0.000    0.000    0.000    0.000 
#    0.000    0.000    0.000    0.000    0.000    0.000 
#
# Total GULP energy -495999.745774 kJ/mol
# GULP energy per Si atom -12399.993644 kJ/mol
# Density = 2.172445 g / cm^3
# Si number density = 21.774005 Si / 1000 Ang^3
#
#
#
# Elastic Constant Matrix: (Units=GPa)
#
#
# Indices 1 2 3 4 5 6 
#
# 1 119.8273 26.2840 41.7225 0.0000 0.0000 0.0000
# 2 26.2840 125.9520 45.3462 0.0000 0.0000 0.0000
# 3 41.7225 45.3462 77.7860 0.0000 0.0000 0.0000
# 4 0.0000 0.0000 0.0000 15.9148 0.0000 0.0000
# 5 0.0000 0.0000 0.0000 0.0000 11.5191 0.0000
# 6 0.0000 0.0000 0.0000 0.0000 0.0000 27.2630
#
#
#
# Elastic Compliance Matrix: (Units=1/GPa)
#
#
# Indices 1 2 3 4 5 6 
#
# 1 0.010266 -0.000202 -0.005388 0.000000 0.000000 0.000000
# 2 -0.000202 0.010053 -0.005752 0.000000 0.000000 0.000000
# 3 -0.005388 -0.005752 0.019099 0.000000 0.000000 0.000000
# 4 0.000000 0.000000 0.000000 0.062835 0.000000 0.000000
# 5 0.000000 0.000000 0.000000 0.000000 0.086812 0.000000
# 6 0.000000 0.000000 0.000000 0.000000 0.000000 0.036680
#
#
# Mechanical properties :
#
#
# Convention : Reuss Voigt Hill
#
# Bulk Modulus (GPa) = 59.76384 61.14119 60.45251
# Shear Modulus (GPa) = 19.68453 24.95355 22.31904
#
# Velocity S-wave (km/s) = 3.00998 3.38897 3.20508
# Velocity P-wave (km/s) = 6.29181 6.59199 6.44365
#
# Compressibility (1/GPa) = 0.01673253
#
# Stress axis : x y z
#
# Youngs Moduli (GPa) = 97.40976 99.47748 52.35873
#
# Poissons Ratio (x) = 0.02013 0.28213
# Poissons Ratio (y) = 0.01971 0.30115
# Poissons Ratio (z) = 0.52489 0.57216
#
# Static dielectric constant tensor:
#      x y z
#    x 3.988950 0.000000 0.000000 
#    y 0.000000 3.932060 0.000000 
#    z 0.000000 0.000000 3.896510 
# 
# 
# High freq. dielectric constant tensor:
#      x y z
#    x 1.855930 0.000000 0.000000 
#    y 0.000000 1.850840 0.000000 
#    z 0.000000 0.000000 1.861660 
# 
# From -- ./inp_files/24472.got.cif
#   From: 2010.06.25/outbox.cif.g09.slc.cpg/sg52_13_cif.got.tgz:24472.got - 2010.06.26 19:32:48.
