data_PCOD8216547
_publ_section_title
;
Structure prediction by ZEFSAII (Michael W. Deem and Ramdas Pophale) SiO2 
 PCOD8216547
Probable space group: P N N A
;
_chemical_formula_sum "Si O2"
_cell_formula_units_Z 64
_cell_length_a 10.772929
_cell_length_b 24.321549
_cell_length_c 11.885231
_cell_angle_alpha 90.000000
_cell_angle_beta 90.000000
_cell_angle_gamma 90.000000
_cell_volume 3114.100725
_symmetry_space_group_name_H-M "P N N A"
_symmetry_group_IT_number 52
_symmetry_cell_setting 'orthorhombic'
loop_
_space_group_symop_operation_xyz
x,y,z
1/2-x,-y,z
x,1/2-y,1/2-z
1/2-x,1/2+y,1/2-z
-x,-y,-z
1/2+x,y,-z
-x,1/2+y,1/2+z
1/2+x,1/2-y,1/2+z
loop_
_atom_site_type_symbol
_atom_site_label
_atom_site_fract_x
_atom_site_fract_y
_atom_site_fract_z
Si Si1 0.377503 0.970702 0.151420
Si Si2 0.370928 0.533563 0.612555
Si Si3 0.412978 0.858902 0.283999
Si Si4 0.038540 0.353577 0.634705
Si Si5 0.536271 0.192401 0.496268
Si Si6 0.855692 0.310565 0.796203
Si Si7 0.959731 0.305289 0.417476
Si Si8 0.283624 0.743282 0.630306
O O1 0.392469 0.919595 0.235794
O O2 0.250000 0.000000 0.191151
O O3 0.502515 0.007028 0.159849
O O4 0.364492 0.956543 0.020627
O O5 0.250000 0.500000 0.654961
O O6 0.369777 0.595538 0.661345
O O7 0.462127 0.857873 0.413789
O O8 0.287938 0.824082 0.292205
O O9 0.513912 0.828073 0.206635
O O10 0.993486 0.354214 0.504493
O O11 0.100792 0.295422 0.658311
O O12 0.920896 0.356161 0.717114
O O13 0.413373 0.184335 0.421358
O O14 0.539232 0.250254 0.563765
O O15 0.663039 0.199092 0.421088
O O16 0.878886 0.250000 0.750000
O O17 0.816900 0.288591 0.445232
O O18 0.214212 0.750000 0.750000
#
# Coordination Sequence:
#
# PCOD8216547 Si02
#       8
#     8   8   8   8   8   8   8   8
#     4  10  22  42  62  92 127 161 215 271 332 387
#     4  10  22  40  65  93 128 164 212 279 331 385
#     4  12  25  38  66  93 126 172 214 265 325 388
#     4  11  22  37  63  91 124 169 208 256 325 387
#     4  11  22  41  55  93 126 175 211 258 309 387
#     4  12  22  42  62  90 133 179 218 256 321 400
#     4  11  23  35  57  94 129 163 204 255 317 387
#     4  11  21  38  58  89 131 163 207 253 310 388
#
# _framework density 20.551680000000001
#
# number of rings (size 3 to 8) (size 9 to 14) (size 15 to 20)
#    0.000    1.000    5.000    3.375    5.250    1.000 
#    0.000    0.000    0.000    3.750    0.000    0.000 
#    0.000    0.000    0.000    0.000    0.000    0.000 
#
# Total GULP energy -793063.952223 kJ/mol
# GULP energy per Si atom -12391.624253 kJ/mol
# Density = 2.050490 g / cm^3
# Si number density = 20.551680 Si / 1000 Ang^3
#
#
#
# Elastic Constant Matrix: (Units=GPa)
#
#
# Indices 1 2 3 4 5 6 
#
# 1 99.2149 16.6135 24.1495 0.0000 0.0000 0.0000
# 2 16.6135 76.6156 36.5786 0.0000 0.0000 0.0000
# 3 24.1495 36.5786 102.6650 0.0000 0.0000 0.0000
# 4 0.0000 0.0000 0.0000 26.0409 0.0000 0.0000
# 5 0.0000 0.0000 0.0000 0.0000 19.9861 0.0000
# 6 0.0000 0.0000 0.0000 0.0000 0.0000 27.3786
#
#
#
# Elastic Compliance Matrix: (Units=1/GPa)
#
#
# Indices 1 2 3 4 5 6 
#
# 1 0.010808 -0.001361 -0.002057 0.000000 0.000000 0.000000
# 2 -0.001361 0.015899 -0.005344 0.000000 0.000000 0.000000
# 3 -0.002057 -0.005344 0.012128 0.000000 0.000000 0.000000
# 4 0.000000 0.000000 0.000000 0.038401 0.000000 0.000000
# 5 0.000000 0.000000 0.000000 0.000000 0.050035 0.000000
# 6 0.000000 0.000000 0.000000 0.000000 0.000000 0.036525
#
#
# Mechanical properties :
#
#
# Convention : Reuss Voigt Hill
#
# Bulk Modulus (GPa) = 46.92810 48.13096 47.52953
# Shear Modulus (GPa) = 26.53573 28.09139 27.31356
#
# Velocity S-wave (km/s) = 3.59718 3.70113 3.64953
# Velocity P-wave (km/s) = 6.33536 6.46024 6.39811
#
# Compressibility (1/GPa) = 0.02130920
#
# Stress axis : x y z
#
# Youngs Moduli (GPa) = 92.52544 62.89721 82.45050
#
# Poissons Ratio (x) = 0.08563 0.16962
# Poissons Ratio (y) = 0.12597 0.44065
# Poissons Ratio (z) = 0.19035 0.33615
#
# Static dielectric constant tensor:
#      x y z
#    x 3.792640 0.000000 0.000000 
#    y 0.000000 3.464080 0.000000 
#    z 0.000000 0.000000 3.899790 
# 
# 
# High freq. dielectric constant tensor:
#      x y z
#    x 1.816890 0.000000 0.000000 
#    y 0.000000 1.772900 0.000000 
#    z 0.000000 0.000000 1.792930 
# 
# From -- ./inp_files/18495.got.cif
#   From: 2010.06.25/outbox.cif.g09.slc.cpg/sg52_10_cif.got.tgz:18495.got - 2010.06.26 19:32:48.
