data_PCOD8216275
_publ_section_title
;
Structure prediction by ZEFSAII (Michael W. Deem and Ramdas Pophale) SiO2 
 PCOD8216275
Probable space group: P N N A
;
_chemical_formula_sum "Si O2"
_cell_formula_units_Z 64
_cell_length_a 8.909441
_cell_length_b 12.159994
_cell_length_c 29.256742
_cell_angle_alpha 90.000000
_cell_angle_beta 90.000000
_cell_angle_gamma 90.000000
_cell_volume 3169.638831
_symmetry_space_group_name_H-M "P N N A"
_symmetry_group_IT_number 52
_symmetry_cell_setting 'orthorhombic'
loop_
_space_group_symop_operation_xyz
x,y,z
1/2-x,-y,z
x,1/2-y,1/2-z
1/2-x,1/2+y,1/2-z
-x,-y,-z
1/2+x,y,-z
-x,1/2+y,1/2+z
1/2+x,1/2-y,1/2+z
loop_
_atom_site_type_symbol
_atom_site_label
_atom_site_fract_x
_atom_site_fract_y
_atom_site_fract_z
Si Si1 0.352198 0.633224 0.848555
Si Si2 0.477118 0.237811 0.996566
Si Si3 0.334637 0.776514 0.156479
Si Si4 0.722436 0.123323 0.453800
Si Si5 0.580906 0.462350 0.717315
Si Si6 0.973869 0.299846 0.701560
Si Si7 0.233085 0.128938 0.059131
Si Si8 0.464986 0.084783 0.684949
O O1 0.305942 0.619916 0.900374
O O2 0.425212 0.750938 0.839137
O O3 0.474006 0.538989 0.835158
O O4 0.205836 0.624559 0.817117
O O5 0.577331 0.329421 0.021069
O O6 0.381211 0.169930 0.033211
O O7 0.367404 0.300770 0.961882
O O8 0.581767 0.151941 0.969439
O O9 0.437360 0.875504 0.176074
O O10 0.197624 0.766981 0.191817
O O11 0.275207 0.804786 0.106328
O O12 0.426921 0.663057 0.154928
O O13 0.750000 0.000000 0.472333
O O14 0.750000 0.500000 0.727488
O O15 0.491215 0.570658 0.701668
O O16 0.513329 0.409011 0.762599
O O17 0.021648 0.250000 0.750000
O O18 0.250000 0.000000 0.068930
#
# Coordination Sequence:
#
# PCOD8216275 Si02
#       8
#     8   8   8   8   8   8   8   8
#     4  11  24  39  61  87 126 166 198 251 310 374
#     4  10  24  40  66  93 120 167 204 262 333 385
#     4  11  23  38  64  89 119 158 211 257 301 362
#     4  11  21  42  63  90 128 159 210 260 322 383
#     4  10  21  40  62  87 120 162 209 257 302 352
#     4  11  21  38  60  87 120 160 205 253 300 362
#     4  11  22  42  65  93 125 159 209 263 324 384
#     4  11  22  40  57  87 125 165 202 249 307 368
#
# _framework density 20.191573999999999
#
# number of rings (size 3 to 8) (size 9 to 14) (size 15 to 20)
#    0.000    1.250    2.500    5.250    0.000    1.000 
#    0.000    0.000    0.000    3.000    0.000    0.000 
#    0.000    0.000    0.000    0.000    0.000    0.000 
#
# Total GULP energy -793815.644857 kJ/mol
# GULP energy per Si atom -12403.369451 kJ/mol
# Density = 2.014562 g / cm^3
# Si number density = 20.191574 Si / 1000 Ang^3
#
#
#
# Elastic Constant Matrix: (Units=GPa)
#
#
# Indices 1 2 3 4 5 6 
#
# 1 64.9126 31.2951 29.5163 0.0000 0.0000 0.0000
# 2 31.2951 98.6236 29.3826 0.0000 0.0000 0.0000
# 3 29.5163 29.3826 95.7232 0.0000 0.0000 0.0000
# 4 0.0000 0.0000 0.0000 31.4089 0.0000 0.0000
# 5 0.0000 0.0000 0.0000 0.0000 22.0472 0.0000
# 6 0.0000 0.0000 0.0000 0.0000 0.0000 26.0569
#
#
#
# Elastic Compliance Matrix: (Units=1/GPa)
#
#
# Indices 1 2 3 4 5 6 
#
# 1 0.019883 -0.004934 -0.004616 0.000000 0.000000 0.000000
# 2 -0.004934 0.012384 -0.002280 0.000000 0.000000 0.000000
# 3 -0.004616 -0.002280 0.012570 0.000000 0.000000 0.000000
# 4 0.000000 0.000000 0.000000 0.031838 0.000000 0.000000
# 5 0.000000 0.000000 0.000000 0.000000 0.045357 0.000000
# 6 0.000000 0.000000 0.000000 0.000000 0.000000 0.038378
#
#
# Mechanical properties :
#
#
# Convention : Reuss Voigt Hill
#
# Bulk Modulus (GPa) = 47.22145 48.84970 48.03557
# Shear Modulus (GPa) = 26.16010 27.17362 26.66686
#
# Velocity S-wave (km/s) = 3.60334 3.67248 3.63808
# Velocity P-wave (km/s) = 6.38354 6.49834 6.44120
#
# Compressibility (1/GPa) = 0.02117682
#
# Stress axis : x y z
#
# Youngs Moduli (GPa) = 50.29373 80.74616 79.55343
#
# Poissons Ratio (x) = 0.39840 0.36726
# Poissons Ratio (y) = 0.24815 0.18139
# Poissons Ratio (z) = 0.23218 0.18411
#
# Static dielectric constant tensor:
#      x y z
#    x 3.682990 0.000000 0.000000 
#    y 0.000000 4.125760 0.000000 
#    z 0.000000 0.000000 3.580570 
# 
# 
# High freq. dielectric constant tensor:
#      x y z
#    x 1.785770 0.000000 0.000000 
#    y 0.000000 1.800220 0.000000 
#    z 0.000000 0.000000 1.789100 
# 
# From -- ./inp_files/44596.got.cif
#   From: 2010.06.25/outbox.cif.g09.slc.cpg/sg52_23_cif.got.tgz:44596.got - 2010.06.26 19:32:48.
