data_PCOD8216550
_publ_section_title
;
Structure prediction by ZEFSAII (Michael W. Deem and Ramdas Pophale) SiO2 
 PCOD8216550
Probable space group: P N N A
;
_chemical_formula_sum "Si O2"
_cell_formula_units_Z 52
_cell_length_a 8.918457
_cell_length_b 23.911398
_cell_length_c 10.189363
_cell_angle_alpha 90.000000
_cell_angle_beta 90.000000
_cell_angle_gamma 90.000000
_cell_volume 2172.909934
_symmetry_space_group_name_H-M "P N N A"
_symmetry_group_IT_number 52
_symmetry_cell_setting 'orthorhombic'
loop_
_space_group_symop_operation_xyz
x,y,z
1/2-x,-y,z
x,1/2-y,1/2-z
1/2-x,1/2+y,1/2-z
-x,-y,-z
1/2+x,y,-z
-x,1/2+y,1/2+z
1/2+x,1/2-y,1/2+z
loop_
_atom_site_type_symbol
_atom_site_label
_atom_site_fract_x
_atom_site_fract_y
_atom_site_fract_z
Si Si1 0.712110 0.812857 0.246055
Si Si2 0.367986 0.687484 0.239158
Si Si3 0.275999 0.373235 0.471979
Si Si4 0.750000 0.500000 0.653658
Si Si5 0.223618 0.911921 0.385024
Si Si6 0.114716 0.087885 0.633836
Si Si7 0.042086 0.445638 0.590287
O O1 0.778787 0.750000 0.250000
O O2 0.542538 0.812196 0.297451
O O3 0.812267 0.851886 0.338037
O O4 0.710798 0.836946 0.100703
O O5 0.302907 0.750000 0.250000
O O6 0.331015 0.660845 0.378244
O O7 0.289188 0.650715 0.126980
O O8 0.190718 0.433982 0.497610
O O9 0.441918 0.388022 0.416236
O O10 0.745333 0.445852 0.749571
O O11 0.586070 0.504488 0.570853
O O12 0.297775 0.941574 0.512614
O O13 0.051667 0.904342 0.417840
O O14 0.112552 0.048536 0.763524
#
# Coordination Sequence:
#
# PCOD8216550 Si02
#       7
#     8   8   8   4   8   8   8
#     4  10  23  40  64  94 129 172 220 262 322 390
#     4  11  23  40  62  93 127 171 212 263 329 386
#     4  11  20  42  61  91 132 166 209 270 314 388
#     4  10  22  42  66  98 124 170 218 274 324 390
#     4  11  23  42  65  91 134 166 221 271 323 392
#     4  10  22  41  60  92 125 168 210 268 322 382
#     4  10  22  40  66  89 127 164 212 266 325 376
#
# _framework density 23.931042999999999
#
# number of rings (size 3 to 8) (size 9 to 14) (size 15 to 20)
#    0.000    1.538    4.615    0.923    2.154    3.692 
#    0.000    0.000    0.000    9.231    0.000    0.000 
#    0.000    0.000    0.000    0.000    0.000    0.000 
#
# Total GULP energy -644573.075333 kJ/mol
# GULP energy per Si atom -12395.636064 kJ/mol
# Density = 2.387658 g / cm^3
# Si number density = 23.931043 Si / 1000 Ang^3
#
#
#
# Elastic Constant Matrix: (Units=GPa)
#
#
# Indices 1 2 3 4 5 6 
#
# 1 129.3080 4.2422 43.1044 0.0000 0.0000 0.0000
# 2 4.2422 61.3672 -19.1345 0.0000 0.0000 0.0000
# 3 43.1044 -19.1345 107.2650 0.0000 0.0000 0.0000
# 4 0.0000 0.0000 0.0000 7.7915 0.0000 0.0000
# 5 0.0000 0.0000 0.0000 0.0000 16.7327 0.0000
# 6 0.0000 0.0000 0.0000 0.0000 0.0000 27.6454
#
#
#
# Elastic Compliance Matrix: (Units=1/GPa)
#
#
# Indices 1 2 3 4 5 6 
#
# 1 0.009130 -0.001880 -0.004004 0.000000 0.000000 0.000000
# 2 -0.001880 0.017642 0.003902 0.000000 0.000000 0.000000
# 3 -0.004004 0.003902 0.011628 0.000000 0.000000 0.000000
# 4 0.000000 0.000000 0.000000 0.128346 0.000000 0.000000
# 5 0.000000 0.000000 0.000000 0.000000 0.059763 0.000000
# 6 0.000000 0.000000 0.000000 0.000000 0.000000 0.036172
#
#
# Mechanical properties :
#
#
# Convention : Reuss Voigt Hill
#
# Bulk Modulus (GPa) = 29.03841 39.37383 34.20612
# Shear Modulus (GPa) = 17.97766 28.41578 23.19672
#
# Velocity S-wave (km/s) = 2.74383 3.44961 3.11676
# Velocity P-wave (km/s) = 4.71154 5.68816 5.22273
#
# Compressibility (1/GPa) = 0.03443715
#
# Stress axis : x y z
#
# Youngs Moduli (GPa) = 109.53013 56.68268 86.00000
#
# Poissons Ratio (x) = 0.10654 0.34436
# Poissons Ratio (y) = 0.20588 -0.33561
# Poissons Ratio (z) = 0.43858 -0.22120
#
# Static dielectric constant tensor:
#      x y z
#    x 4.456720 0.000000 0.000000 
#    y 0.000000 4.407140 0.000000 
#    z 0.000000 0.000000 4.458600 
# 
# 
# High freq. dielectric constant tensor:
#      x y z
#    x 1.967320 0.000000 0.000000 
#    y 0.000000 1.950390 0.000000 
#    z 0.000000 0.000000 1.964950 
# 
# From -- ./inp_files/17100.got.cif
#   From: 2010.06.25/outbox.cif.g09.slc.cpg/sg52_9_cif.got.tgz:17100.got - 2010.06.26 19:32:48.
