data_PCOD8216494
_publ_section_title
;
Structure prediction by ZEFSAII (Michael W. Deem and Ramdas Pophale) SiO2 
 PCOD8216494
Probable space group: P N N A
;
_chemical_formula_sum "Si O2"
_cell_formula_units_Z 64
_cell_length_a 14.146289
_cell_length_b 24.527597
_cell_length_c 9.259931
_cell_angle_alpha 90.000000
_cell_angle_beta 90.000000
_cell_angle_gamma 90.000000
_cell_volume 3212.959703
_symmetry_space_group_name_H-M "P N N A"
_symmetry_group_IT_number 52
_symmetry_cell_setting 'orthorhombic'
loop_
_space_group_symop_operation_xyz
x,y,z
1/2-x,-y,z
x,1/2-y,1/2-z
1/2-x,1/2+y,1/2-z
-x,-y,-z
1/2+x,y,-z
-x,1/2+y,1/2+z
1/2+x,1/2-y,1/2+z
loop_
_atom_site_type_symbol
_atom_site_label
_atom_site_fract_x
_atom_site_fract_y
_atom_site_fract_z
Si Si1 0.256651 0.918321 0.627261
Si Si2 0.800425 0.684327 0.958906
Si Si3 0.836614 0.232836 0.083241
Si Si4 0.145395 0.126839 0.160363
Si Si5 0.550129 0.266156 0.583995
Si Si6 0.022775 0.953835 0.886615
Si Si7 0.406756 0.492980 0.906834
Si Si8 0.295247 0.391161 0.561229
O O1 0.276022 0.856704 0.585840
O O2 0.158138 0.939931 0.555028
O O3 0.250046 0.920999 0.800256
O O4 0.343622 0.953706 0.570517
O O5 0.812221 0.651141 0.809374
O O6 0.895081 0.717882 0.000047
O O7 0.715629 0.728550 0.965724
O O8 0.828220 0.250000 0.250000
O O9 0.793458 0.173347 0.077438
O O10 0.944037 0.231807 0.026743
O O11 0.101503 0.175678 0.064090
O O12 0.064329 0.081148 0.179286
O O13 0.230412 0.096021 0.077567
O O14 0.552720 0.250000 0.750000
O O15 0.065561 0.988694 0.758249
O O16 0.098322 0.912867 0.959676
O O17 0.000000 0.000000 0.000000
O O18 0.500000 0.500000 0.000000
#
# Coordination Sequence:
#
# PCOD8216494 Si02
#       8
#     8   8   8   8   8   8   8   8
#     4  10  22  39  61  92 119 162 212 255 316 382
#     4  11  22  37  64  95 124 161 205 257 317 373
#     4  11  20  37  64  91 124 165 206 247 314 387
#     4  11  22  39  62  92 126 160 210 263 313 368
#     4   9  20  35  58  88 123 161 200 246 308 381
#     4  11  24  42  65  91 121 172 217 257 323 381
#     4  10  22  41  64  87 123 159 210 270 315 370
#     4  11  22  39  64  87 126 164 208 260 307 384
#
# _framework density 19.919329999999999
#
# number of rings (size 3 to 8) (size 9 to 14) (size 15 to 20)
#    0.000    1.500    3.750    1.500    0.000    3.500 
#    0.000    1.250    5.500    0.000    0.000    0.000 
#    0.000    0.000    0.000    0.000    0.000    0.000 
#
# Total GULP energy -793247.252841 kJ/mol
# GULP energy per Si atom -12394.488326 kJ/mol
# Density = 1.987399 g / cm^3
# Si number density = 19.919330 Si / 1000 Ang^3
#
#
#
# Elastic Constant Matrix: (Units=GPa)
#
#
# Indices 1 2 3 4 5 6 
#
# 1 132.2257 33.4571 48.9208 0.0000 0.0000 0.0000
# 2 33.4571 90.4782 24.0452 0.0000 0.0000 0.0000
# 3 48.9208 24.0452 53.9286 0.0000 0.0000 0.0000
# 4 0.0000 0.0000 0.0000 36.2556 0.0000 0.0000
# 5 0.0000 0.0000 0.0000 0.0000 34.8316 0.0000
# 6 0.0000 0.0000 0.0000 0.0000 0.0000 26.5959
#
#
#
# Elastic Compliance Matrix: (Units=1/GPa)
#
#
# Indices 1 2 3 4 5 6 
#
# 1 0.011608 -0.001695 -0.009774 0.000000 0.000000 0.000000
# 2 -0.001695 0.012786 -0.004163 0.000000 0.000000 0.000000
# 3 -0.009774 -0.004163 0.029266 0.000000 0.000000 0.000000
# 4 0.000000 0.000000 0.000000 0.027582 0.000000 0.000000
# 5 0.000000 0.000000 0.000000 0.000000 0.028710 0.000000
# 6 0.000000 0.000000 0.000000 0.000000 0.000000 0.037600
#
#
# Mechanical properties :
#
#
# Convention : Reuss Voigt Hill
#
# Bulk Modulus (GPa) = 44.65355 54.38651 49.52003
# Shear Modulus (GPa) = 26.84119 30.88390 28.86255
#
# Velocity S-wave (km/s) = 3.67481 3.94185 3.81067
# Velocity P-wave (km/s) = 6.36172 6.93399 6.65401
#
# Compressibility (1/GPa) = 0.02239464
#
# Stress axis : x y z
#
# Youngs Moduli (GPa) = 86.14749 78.21354 34.16921
#
# Poissons Ratio (x) = 0.13256 0.33398
# Poissons Ratio (y) = 0.14600 0.14226
# Poissons Ratio (z) = 0.84204 0.32562
#
# Static dielectric constant tensor:
#      x y z
#    x 3.929360 0.000000 0.000000 
#    y 0.000000 3.419080 0.000000 
#    z 0.000000 0.000000 3.360410 
# 
# 
# High freq. dielectric constant tensor:
#      x y z
#    x 1.790820 0.000000 0.000000 
#    y 0.000000 1.791040 0.000000 
#    z 0.000000 0.000000 1.748010 
# 
# From -- ./inp_files/11001.got.cif
#   From: 2010.06.25/outbox.cif.g09.slc.cpg/sg52_6_cif.got.tgz:11001.got - 2010.06.26 19:32:48.
