data_PCOD8216423
_publ_section_title
;
Structure prediction by ZEFSAII (Michael W. Deem and Ramdas Pophale) SiO2 
 PCOD8216423
Probable space group: P N N A
;
_chemical_formula_sum "Si O2"
_cell_formula_units_Z 44
_cell_length_a 20.516077
_cell_length_b 5.285815
_cell_length_c 18.866839
_cell_angle_alpha 90.000000
_cell_angle_beta 90.000000
_cell_angle_gamma 90.000000
_cell_volume 2045.999027
_symmetry_space_group_name_H-M "P N N A"
_symmetry_group_IT_number 52
_symmetry_cell_setting 'orthorhombic'
loop_
_space_group_symop_operation_xyz
x,y,z
1/2-x,-y,z
x,1/2-y,1/2-z
1/2-x,1/2+y,1/2-z
-x,-y,-z
1/2+x,y,-z
-x,1/2+y,1/2+z
1/2+x,1/2-y,1/2+z
loop_
_atom_site_type_symbol
_atom_site_label
_atom_site_fract_x
_atom_site_fract_y
_atom_site_fract_z
Si Si1 0.119286 0.372191 0.859853
Si Si2 0.007795 0.873837 0.177397
Si Si3 0.709662 0.250000 0.250000
Si Si4 0.250000 0.500000 0.294740
Si Si5 0.362666 0.025432 0.095829
Si Si6 0.917006 0.250000 0.250000
Si Si7 0.827379 0.982530 0.513730
O O1 0.164963 0.165522 0.819758
O O2 0.129281 0.591561 0.801299
O O3 0.042045 0.310891 0.864909
O O4 0.146628 0.445081 0.935378
O O5 0.035722 0.750000 0.250000
O O6 0.065074 0.962860 0.126494
O O7 0.964762 0.110952 0.196079
O O8 0.750000 0.500000 0.230366
O O9 0.267402 0.750000 0.250000
O O10 0.311841 0.427552 0.341631
O O11 0.356024 0.251148 0.039666
O O12 0.351262 0.751363 0.061434
O O13 0.750000 0.000000 0.515240
#
# Coordination Sequence:
#
# PCOD8216423 Si02
#       7
#     8   8   4   4   8   4   8
#     4  11  25  44  71 102 143 188 236 300 356 414
#     4  10  24  44  73 104 139 183 237 308 355 420
#     4  12  25  42  70 106 137 180 252 290 350 419
#     4  12  24  44  76 102 136 178 244 294 346 414
#     4  12  27  47  70 106 145 185 239 290 364 427
#     4  10  21  46  70 106 143 172 246 300 348 421
#     4  12  27  48  68 100 151 193 232 291 356 439
#
# _framework density 21.505385
#
# number of rings (size 3 to 8) (size 9 to 14) (size 15 to 20)
#    0.000    0.727    4.545    2.727    8.909    2.909 
#    0.000    0.000    0.000    0.000    0.000    0.000 
#    0.000    0.000    0.000    0.000    0.000    0.000 
#
# Total GULP energy -545389.333902 kJ/mol
# GULP energy per Si atom -12395.212134 kJ/mol
# Density = 2.145644 g / cm^3
# Si number density = 21.505385 Si / 1000 Ang^3
#
#
#
# Elastic Constant Matrix: (Units=GPa)
#
#
# Indices 1 2 3 4 5 6 
#
# 1 143.7921 26.1703 60.4173 0.0000 0.0000 0.0000
# 2 26.1703 86.1824 28.2075 0.0000 0.0000 0.0000
# 3 60.4173 28.2075 126.6544 0.0000 0.0000 0.0000
# 4 0.0000 0.0000 0.0000 28.5374 0.0000 0.0000
# 5 0.0000 0.0000 0.0000 0.0000 294.9074 0.0000
# 6 0.0000 0.0000 0.0000 0.0000 0.0000 8.3315
#
#
#
# Elastic Compliance Matrix: (Units=1/GPa)
#
#
# Indices 1 2 3 4 5 6 
#
# 1 0.008854 -0.001409 -0.003910 0.000000 0.000000 0.000000
# 2 -0.001409 0.012740 -0.002165 0.000000 0.000000 0.000000
# 3 -0.003910 -0.002165 0.010243 0.000000 0.000000 0.000000
# 4 0.000000 0.000000 0.000000 0.035042 0.000000 0.000000
# 5 0.000000 0.000000 0.000000 0.000000 0.003391 0.000000
# 6 0.000000 0.000000 0.000000 0.000000 0.000000 0.120026
#
#
# Mechanical properties :
#
#
# Convention : Reuss Voigt Hill
#
# Bulk Modulus (GPa) = 59.28157 65.13543 62.20850
# Shear Modulus (GPa) = 23.70955 82.47752 53.09353
#
# Velocity S-wave (km/s) = 3.32398 6.19962 4.97414
# Velocity P-wave (km/s) = 6.50827 9.03331 7.87269
#
# Compressibility (1/GPa) = 0.01686865
#
# Stress axis : x y z
#
# Youngs Moduli (GPa) = 112.94825 78.49418 97.63047
#
# Poissons Ratio (x) = 0.11059 0.38170
# Poissons Ratio (y) = 0.15913 0.21139
# Poissons Ratio (z) = 0.44158 0.16996
#
# Static dielectric constant tensor:
#      x y z
#    x 4.010010 0.000000 0.000000 
#    y 0.000000 3.813670 0.000000 
#    z 0.000000 0.000000 4.396830 
# 
# 
# High freq. dielectric constant tensor:
#      x y z
#    x 1.861340 0.000000 0.000000 
#    y 0.000000 1.855840 0.000000 
#    z 0.000000 0.000000 1.841720 
# 
# From -- ./inp_files/34214.got.cif
#   From: 2010.06.25/outbox.cif.g09.slc.cpg/sg52_18_cif.got.tgz:34214.got - 2010.06.26 19:32:48.
