data_PCOD8216410
_publ_section_title
;
Structure prediction by ZEFSAII (Michael W. Deem and Ramdas Pophale) SiO2 
 PCOD8216410
Probable space group: P N N A
;
_chemical_formula_sum "Si O2"
_cell_formula_units_Z 48
_cell_length_a 9.562337
_cell_length_b 16.844158
_cell_length_c 14.152137
_cell_angle_alpha 90.000000
_cell_angle_beta 90.000000
_cell_angle_gamma 90.000000
_cell_volume 2279.477847
_symmetry_space_group_name_H-M "P N N A"
_symmetry_group_IT_number 52
_symmetry_cell_setting 'orthorhombic'
loop_
_space_group_symop_operation_xyz
x,y,z
1/2-x,-y,z
x,1/2-y,1/2-z
1/2-x,1/2+y,1/2-z
-x,-y,-z
1/2+x,y,-z
-x,1/2+y,1/2+z
1/2+x,1/2-y,1/2+z
loop_
_atom_site_type_symbol
_atom_site_label
_atom_site_fract_x
_atom_site_fract_y
_atom_site_fract_z
Si Si1 0.101625 0.906441 0.119951
Si Si2 0.962153 0.326147 0.980569
Si Si3 0.115860 0.284172 0.654949
Si Si4 0.105975 0.833537 0.922370
Si Si5 0.894059 0.919108 0.805604
Si Si6 0.808849 0.584591 0.912912
O O1 0.264011 0.886630 0.134269
O O2 0.011439 0.843340 0.179191
O O3 0.064893 0.992908 0.159555
O O4 0.069669 0.893430 0.008524
O O5 0.814547 0.352934 0.935457
O O6 0.061605 0.292634 0.899697
O O7 0.935652 0.256934 0.056493
O O8 0.048850 0.396851 0.030039
O O9 0.184334 0.250000 0.750000
O O10 0.229317 0.335452 0.597903
O O11 0.023782 0.861989 0.828776
O O12 0.851507 0.917283 0.696632
O O13 0.750000 0.500000 0.945462
#
# Coordination Sequence:
#
# PCOD8216410 Si02
#       6
#     8   8   8   8   8   8
#     4  10  21  44  64  97 137 175 223 282 344 410
#     4  11  25  46  69 100 138 183 228 290 346 416
#     4  11  24  41  65  98 136 178 228 279 343 406
#     4  11  24  42  67 102 133 181 223 285 346 408
#     4  11  24  41  71 104 134 178 234 279 346 416
#     4  12  25  47  71 100 138 182 237 287 352 421
#
# _framework density 21.057452999999999
#
# number of rings (size 3 to 8) (size 9 to 14) (size 15 to 20)
#    0.000    1.000    3.333    4.000    4.667    2.000 
#    0.000    0.000    0.000    0.000    0.000    0.000 
#    0.000    0.000    0.000    0.000    0.000    0.000 
#
# Total GULP energy -595213.051196 kJ/mol
# GULP energy per Si atom -12400.271900 kJ/mol
# Density = 2.100953 g / cm^3
# Si number density = 21.057453 Si / 1000 Ang^3
#
#
#
# Elastic Constant Matrix: (Units=GPa)
#
#
# Indices 1 2 3 4 5 6 
#
# 1 73.7563 40.6152 45.1013 0.0000 0.0000 0.0000
# 2 40.6152 115.8419 57.7400 0.0000 0.0000 0.0000
# 3 45.1013 57.7400 92.1525 0.0000 0.0000 0.0000
# 4 0.0000 0.0000 0.0000 27.1781 0.0000 0.0000
# 5 0.0000 0.0000 0.0000 0.0000 39.1195 0.0000
# 6 0.0000 0.0000 0.0000 0.0000 0.0000 44.5264
#
#
#
# Elastic Compliance Matrix: (Units=1/GPa)
#
#
# Indices 1 2 3 4 5 6 
#
# 1 0.020094 -0.003117 -0.007882 0.000000 0.000000 0.000000
# 2 -0.003117 0.013036 -0.006643 0.000000 0.000000 0.000000
# 3 -0.007882 -0.006643 0.018871 0.000000 0.000000 0.000000
# 4 0.000000 0.000000 0.000000 0.036794 0.000000 0.000000
# 5 0.000000 0.000000 0.000000 0.000000 0.025563 0.000000
# 6 0.000000 0.000000 0.000000 0.000000 0.000000 0.022459
#
#
# Mechanical properties :
#
#
# Convention : Reuss Voigt Hill
#
# Bulk Modulus (GPa) = 59.81107 63.18484 61.49796
# Shear Modulus (GPa) = 28.14178 31.38441 29.76310
#
# Velocity S-wave (km/s) = 3.65969 3.86478 3.76363
# Velocity P-wave (km/s) = 6.80611 7.07011 6.93937
#
# Compressibility (1/GPa) = 0.01671931
#
# Stress axis : x y z
#
# Youngs Moduli (GPa) = 49.76635 76.70975 52.99100
#
# Poissons Ratio (x) = 0.23907 0.41765
# Poissons Ratio (y) = 0.15510 0.35200
# Poissons Ratio (z) = 0.39224 0.50956
#
# Static dielectric constant tensor:
#      x y z
#    x 3.866320 0.000000 0.000000 
#    y 0.000000 3.771980 0.000000 
#    z 0.000000 0.000000 3.728550 
# 
# 
# High freq. dielectric constant tensor:
#      x y z
#    x 1.835650 0.000000 0.000000 
#    y 0.000000 1.825140 0.000000 
#    z 0.000000 0.000000 1.822490 
# 
# From -- ./inp_files/24748.got.cif
#   From: 2010.06.25/outbox.cif.g09.slc.cpg/sg52_13_cif.got.tgz:24748.got - 2010.06.26 19:32:48.
