data_PCOD8216246
_publ_section_title
;
Structure prediction by ZEFSAII (Michael W. Deem and Ramdas Pophale) SiO2 
 PCOD8216246
Probable space group: P N N A
;
_chemical_formula_sum "Si O2"
_cell_formula_units_Z 64
_cell_length_a 13.837996
_cell_length_b 9.281609
_cell_length_c 23.882656
_cell_angle_alpha 90.000000
_cell_angle_beta 90.000000
_cell_angle_gamma 90.000000
_cell_volume 3067.461307
_symmetry_space_group_name_H-M "P N N A"
_symmetry_group_IT_number 52
_symmetry_cell_setting 'orthorhombic'
loop_
_space_group_symop_operation_xyz
x,y,z
1/2-x,-y,z
x,1/2-y,1/2-z
1/2-x,1/2+y,1/2-z
-x,-y,-z
1/2+x,y,-z
-x,1/2+y,1/2+z
1/2+x,1/2-y,1/2+z
loop_
_atom_site_type_symbol
_atom_site_label
_atom_site_fract_x
_atom_site_fract_y
_atom_site_fract_z
Si Si1 0.820728 0.628400 0.290680
Si Si2 0.348858 0.587239 0.985341
Si Si3 0.941161 0.670379 0.803883
Si Si4 0.987882 0.377846 0.074229
Si Si5 0.175985 0.375365 0.583986
Si Si6 0.648235 0.069895 0.856336
Si Si7 0.511222 0.930519 0.058719
Si Si8 0.957400 0.092098 0.766038
O O1 0.750000 0.500000 0.279487
O O2 0.782526 0.750000 0.250000
O O3 0.805419 0.687016 0.354120
O O4 0.927791 0.580510 0.272436
O O5 0.250000 0.500000 0.996403
O O6 0.414087 0.506439 0.938916
O O7 0.327269 0.747460 0.961675
O O8 0.408200 0.593989 0.043906
O O9 0.993728 0.750000 0.750000
O O10 0.006601 0.643039 0.858540
O O11 0.851884 0.777492 0.821755
O O12 0.912437 0.512319 0.782131
O O13 0.941277 0.228337 0.051592
O O14 0.250000 0.500000 0.563783
O O15 0.075381 0.459471 0.594066
O O16 0.594093 0.096326 0.914679
O O17 0.750000 0.000000 0.869597
O O18 0.589015 0.947371 0.824711
O O19 0.500000 0.000000 0.000000
O O20 0.922683 0.250000 0.750000
#
# Coordination Sequence:
#
# PCOD8216246 Si02
#       8
#     8   8   8   8   8   8   8   8
#     4  10  23  40  61  97 133 170 223 268 323 397
#     4  11  24  44  64  96 137 175 219 270 335 404
#     4   9  21  42  65  91 129 167 218 274 331 395
#     4  10  23  43  66  95 131 175 222 269 337 397
#     4  11  23  42  68  96 128 169 220 270 327 396
#     4  10  22  41  62  94 126 165 216 267 319 393
#     4  11  21  42  65  92 128 167 214 269 322 382
#     4  10  21  39  65  93 127 170 213 266 334 389
#
# _framework density 20.864158
#
# number of rings (size 3 to 8) (size 9 to 14) (size 15 to 20)
#    0.000    1.750    2.500    0.750    3.500    4.000 
#    6.750    2.500    0.000    0.000    0.000    0.000 
#    0.000    0.000    0.000    0.000    0.000    0.000 
#
# Total GULP energy -792939.715209 kJ/mol
# GULP energy per Si atom -12389.683050 kJ/mol
# Density = 2.081667 g / cm^3
# Si number density = 20.864158 Si / 1000 Ang^3
#
#
#
# Elastic Constant Matrix: (Units=GPa)
#
#
# Indices 1 2 3 4 5 6 
#
# 1 75.3191 37.0089 29.9571 0.0000 0.0000 0.0000
# 2 37.0089 141.9791 51.1571 0.0000 0.0000 0.0000
# 3 29.9571 51.1571 121.4022 0.0000 0.0000 0.0000
# 4 0.0000 0.0000 0.0000 35.7634 0.0000 0.0000
# 5 0.0000 0.0000 0.0000 0.0000 16.2507 0.0000
# 6 0.0000 0.0000 0.0000 0.0000 0.0000 34.6752
#
#
#
# Elastic Compliance Matrix: (Units=1/GPa)
#
#
# Indices 1 2 3 4 5 6 
#
# 1 0.015876 -0.003215 -0.002563 0.000000 0.000000 0.000000
# 2 -0.003215 0.008955 -0.002980 0.000000 0.000000 0.000000
# 3 -0.002563 -0.002980 0.010125 0.000000 0.000000 0.000000
# 4 0.000000 0.000000 0.000000 0.027962 0.000000 0.000000
# 5 0.000000 0.000000 0.000000 0.000000 0.061536 0.000000
# 6 0.000000 0.000000 0.000000 0.000000 0.000000 0.028839
#
#
# Mechanical properties :
#
#
# Convention : Reuss Voigt Hill
#
# Bulk Modulus (GPa) = 57.33809 63.88297 60.61053
# Shear Modulus (GPa) = 28.30906 32.04301 30.17604
#
# Velocity S-wave (km/s) = 3.68751 3.92317 3.80716
# Velocity P-wave (km/s) = 6.75808 7.15588 6.95982
#
# Compressibility (1/GPa) = 0.01744041
#
# Stress axis : x y z
#
# Youngs Moduli (GPa) = 62.98886 111.66798 98.76227
#
# Poissons Ratio (x) = 0.35900 0.25311
# Poissons Ratio (y) = 0.20250 0.29434
# Poissons Ratio (z) = 0.16143 0.33280
#
# Static dielectric constant tensor:
#      x y z
#    x 3.656020 0.000000 0.000000 
#    y 0.000000 3.982830 0.000000 
#    z 0.000000 0.000000 3.816880 
# 
# 
# High freq. dielectric constant tensor:
#      x y z
#    x 1.789890 0.000000 0.000000 
#    y 0.000000 1.834590 0.000000 
#    z 0.000000 0.000000 1.824020 
# 
# From -- ./inp_files/40688.got.cif
#   From: 2010.06.25/outbox.cif.g09.slc.cpg/sg52_21_cif.got.tgz:40688.got - 2010.06.26 19:32:48.
