data_PCOD8216267
_publ_section_title
;
Structure prediction by ZEFSAII (Michael W. Deem and Ramdas Pophale) SiO2 
 PCOD8216267
Probable space group: P N N A
;
_chemical_formula_sum "Si O2"
_cell_formula_units_Z 48
_cell_length_a 9.206683
_cell_length_b 8.508042
_cell_length_c 25.630323
_cell_angle_alpha 90.000000
_cell_angle_beta 90.000000
_cell_angle_gamma 90.000000
_cell_volume 2007.644875
_symmetry_space_group_name_H-M "P N N A"
_symmetry_group_IT_number 52
_symmetry_cell_setting 'orthorhombic'
loop_
_space_group_symop_operation_xyz
x,y,z
1/2-x,-y,z
x,1/2-y,1/2-z
1/2-x,1/2+y,1/2-z
-x,-y,-z
1/2+x,y,-z
-x,1/2+y,1/2+z
1/2+x,1/2-y,1/2+z
loop_
_atom_site_type_symbol
_atom_site_label
_atom_site_fract_x
_atom_site_fract_y
_atom_site_fract_z
Si Si1 0.884868 0.585711 0.888442
Si Si2 0.961037 0.714448 0.118521
Si Si3 0.652771 0.767146 0.078100
Si Si4 0.905632 0.486524 0.328200
Si Si5 0.120503 0.896387 0.028164
Si Si6 0.822052 0.832339 0.802060
O O1 0.750000 0.500000 0.918804
O O2 0.808287 0.709244 0.849317
O O3 0.973609 0.447243 0.858719
O O4 0.004140 0.664573 0.925733
O O5 0.791901 0.683371 0.104134
O O6 0.053844 0.775498 0.069188
O O7 0.975569 0.840418 0.165412
O O8 0.614320 0.921801 0.112333
O O9 0.698423 0.803503 0.019082
O O10 0.750000 0.500000 0.299639
O O11 0.006626 0.371816 0.294508
O O12 0.250000 0.000000 0.054926
O O13 0.000000 0.000000 0.000000
O O14 0.761174 0.750000 0.750000
O O15 0.750000 0.000000 0.815113
#
# Coordination Sequence:
#
# PCOD8216267 Si02
#       6
#     8   8   8   8   8   8
#     4  11  25  40  63  95 124 165 218 266 321 387
#     4  11  22  39  63  91 132 173 216 272 320 377
#     4  10  21  40  59  90 131 177 218 267 325 370
#     4   9  19  39  65  92 126 171 214 255 315 385
#     4  12  22  37  62  94 129 181 230 271 323 379
#     4  11  24  45  69  96 131 162 201 262 335 406
#
# _framework density 23.908608999999998
#
# number of rings (size 3 to 8) (size 9 to 14) (size 15 to 20)
#    0.000    1.333    3.333    2.500    2.333    1.333 
#    0.000    5.833    0.000    0.000    0.000    0.000 
#    0.000    0.000    0.000    0.000    0.000    0.000 
#
# Total GULP energy -594765.253228 kJ/mol
# GULP energy per Si atom -12390.942776 kJ/mol
# Density = 2.385419 g / cm^3
# Si number density = 23.908609 Si / 1000 Ang^3
#
#
#
# Elastic Constant Matrix: (Units=GPa)
#
#
# Indices 1 2 3 4 5 6 
#
# 1 101.2459 40.3531 6.1835 0.0000 0.0000 0.0000
# 2 40.3531 131.5347 18.6983 0.0000 0.0000 0.0000
# 3 6.1835 18.6983 43.8452 0.0000 0.0000 0.0000
# 4 0.0000 0.0000 0.0000 21.3762 0.0000 0.0000
# 5 0.0000 0.0000 0.0000 0.0000 20.8552 0.0000
# 6 0.0000 0.0000 0.0000 0.0000 0.0000 62.6015
#
#
#
# Elastic Compliance Matrix: (Units=1/GPa)
#
#
# Indices 1 2 3 4 5 6 
#
# 1 0.011253 -0.003435 -0.000122 0.000000 0.000000 0.000000
# 2 -0.003435 0.009142 -0.003414 0.000000 0.000000 0.000000
# 3 -0.000122 -0.003414 0.024281 0.000000 0.000000 0.000000
# 4 0.000000 0.000000 0.000000 0.046781 0.000000 0.000000
# 5 0.000000 0.000000 0.000000 0.000000 0.047950 0.000000
# 6 0.000000 0.000000 0.000000 0.000000 0.000000 0.015974
#
#
# Mechanical properties :
#
#
# Convention : Reuss Voigt Hill
#
# Bulk Modulus (GPa) = 32.53808 45.23284 38.88546
# Shear Modulus (GPa) = 27.84464 35.05931 31.45198
#
# Velocity S-wave (km/s) = 3.41637 3.83350 3.63093
# Velocity P-wave (km/s) = 5.40379 6.20922 5.82046
#
# Compressibility (1/GPa) = 0.03073322
#
# Stress axis : x y z
#
# Youngs Moduli (GPa) = 88.86131 109.38861 41.18495
#
# Poissons Ratio (x) = 0.37576 0.00503
# Poissons Ratio (y) = 0.30524 0.14061
# Poissons Ratio (z) = 0.01085 0.37347
#
# Static dielectric constant tensor:
#      x y z
#    x 4.800530 0.000000 0.000000 
#    y 0.000000 4.572600 0.000000 
#    z 0.000000 0.000000 3.632960 
# 
# 
# High freq. dielectric constant tensor:
#      x y z
#    x 1.981370 0.000000 0.000000 
#    y 0.000000 1.957130 0.000000 
#    z 0.000000 0.000000 1.882220 
# 
# From -- ./inp_files/44368.got.cif
#   From: 2010.06.25/outbox.cif.g09.slc.cpg/sg52_23_cif.got.tgz:44368.got - 2010.06.26 19:32:48.
