data_PCOD8216183
_publ_section_title
;
Structure prediction by ZEFSAII (Michael W. Deem and Ramdas Pophale) SiO2 
 PCOD8216183
Probable space group: P N N A
;
_chemical_formula_sum "Si O2"
_cell_formula_units_Z 64
_cell_length_a 22.612185
_cell_length_b 11.604312
_cell_length_c 11.648702
_cell_angle_alpha 90.000000
_cell_angle_beta 90.000000
_cell_angle_gamma 90.000000
_cell_volume 3056.606006
_symmetry_space_group_name_H-M "P N N A"
_symmetry_group_IT_number 52
_symmetry_cell_setting 'orthorhombic'
loop_
_space_group_symop_operation_xyz
x,y,z
1/2-x,-y,z
x,1/2-y,1/2-z
1/2-x,1/2+y,1/2-z
-x,-y,-z
1/2+x,y,-z
-x,1/2+y,1/2+z
1/2+x,1/2-y,1/2+z
loop_
_atom_site_type_symbol
_atom_site_label
_atom_site_fract_x
_atom_site_fract_y
_atom_site_fract_z
Si Si1 0.202533 0.601035 0.998019
Si Si2 0.155595 0.479033 0.625807
Si Si3 0.003144 0.121189 0.266677
Si Si4 0.885313 0.831780 0.580300
Si Si5 0.404660 0.567541 0.404644
Si Si6 0.261055 0.185751 0.868763
Si Si7 0.184239 0.499626 0.221491
Si Si8 0.894868 0.517409 0.137031
O O1 0.250000 0.500000 0.975836
O O2 0.231450 0.722918 0.970041
O O3 0.146477 0.582287 0.914809
O O4 0.180347 0.605530 0.130527
O O5 0.102188 0.485023 0.532294
O O6 0.206531 0.391293 0.588169
O O7 0.180587 0.607600 0.644179
O O8 0.130827 0.432220 0.745492
O O9 0.976132 0.250000 0.250000
O O10 0.060279 0.124968 0.345135
O O11 0.027688 0.070066 0.143590
O O12 0.957898 0.037836 0.330578
O O13 0.878260 0.695927 0.588308
O O14 0.826981 0.887713 0.638423
O O15 0.897785 0.874946 0.450534
O O16 0.362962 0.489500 0.322793
O O17 0.247660 0.250000 0.750000
O O18 0.250000 0.500000 0.275494
#
# Coordination Sequence:
#
# PCOD8216183 Si02
#       8
#     8   8   8   8   8   8   8   8
#     4  10  21  38  62  94 122 156 208 264 304 374
#     4  11  26  36  60  90 126 176 195 255 324 376
#     4   9  20  39  64  88 116 162 210 269 316 369
#     4   9  20  39  61  90 123 157 209 267 303 378
#     4  10  22  41  57  89 132 159 210 254 314 384
#     4  11  23  41  56  88 134 162 210 253 314 386
#     4   9  19  34  59  89 116 160 202 245 311 358
#     4  11  21  36  62  93 114 163 213 254 322 368
#
# _framework density 20.938255999999999
#
# number of rings (size 3 to 8) (size 9 to 14) (size 15 to 20)
#    0.000    2.000    1.250    2.250   10.500    0.500 
#    0.000    0.625    0.000    0.000    0.000    0.000 
#    0.000    0.000    0.000    0.000    0.000    0.000 
#
# Total GULP energy -793266.530038 kJ/mol
# GULP energy per Si atom -12394.789532 kJ/mol
# Density = 2.089060 g / cm^3
# Si number density = 20.938256 Si / 1000 Ang^3
#
#
#
# Elastic Constant Matrix: (Units=GPa)
#
#
# Indices 1 2 3 4 5 6 
#
# 1 74.2288 21.9462 11.7340 0.0000 0.0000 0.0000
# 2 21.9462 74.8088 18.1820 0.0000 0.0000 0.0000
# 3 11.7340 18.1820 104.1249 0.0000 0.0000 0.0000
# 4 0.0000 0.0000 0.0000 30.6681 0.0000 0.0000
# 5 0.0000 0.0000 0.0000 0.0000 9.9376 0.0000
# 6 0.0000 0.0000 0.0000 0.0000 0.0000 18.8630
#
#
#
# Elastic Compliance Matrix: (Units=1/GPa)
#
#
# Indices 1 2 3 4 5 6 
#
# 1 0.014841 -0.004122 -0.000953 0.000000 0.000000 0.000000
# 2 -0.004122 0.015105 -0.002173 0.000000 0.000000 0.000000
# 3 -0.000953 -0.002173 0.010091 0.000000 0.000000 0.000000
# 4 0.000000 0.000000 0.000000 0.032607 0.000000 0.000000
# 5 0.000000 0.000000 0.000000 0.000000 0.100628 0.000000
# 6 0.000000 0.000000 0.000000 0.000000 0.000000 0.053014
#
#
# Mechanical properties :
#
#
# Convention : Reuss Voigt Hill
#
# Bulk Modulus (GPa) = 39.15310 39.65410 39.40360
# Shear Modulus (GPa) = 20.05648 25.31374 22.68511
#
# Velocity S-wave (km/s) = 3.09833 3.48080 3.29512
# Velocity P-wave (km/s) = 5.61600 5.92742 5.77381
#
# Compressibility (1/GPa) = 0.02554076
#
# Stress axis : x y z
#
# Youngs Moduli (GPa) = 67.37975 66.20362 99.10157
#
# Poissons Ratio (x) = 0.27292 0.09441
# Poissons Ratio (y) = 0.27776 0.21535
# Poissons Ratio (z) = 0.06419 0.14386
#
# Static dielectric constant tensor:
#      x y z
#    x 3.783780 0.000000 0.000000 
#    y 0.000000 3.672940 0.000000 
#    z 0.000000 0.000000 3.978230 
# 
# 
# High freq. dielectric constant tensor:
#      x y z
#    x 1.811860 0.000000 0.000000 
#    y 0.000000 1.796380 0.000000 
#    z 0.000000 0.000000 1.832340 
# 
# From -- ./inp_files/22517.got.cif
#   From: 2010.06.25/outbox.cif.g09.slc.cpg/sg52_12_cif.got.tgz:22517.got - 2010.06.26 19:32:48.
