data_PCOD8216131
_publ_section_title
;
Structure prediction by ZEFSAII (Michael W. Deem and Ramdas Pophale) SiO2 
 PCOD8216131
Probable space group: P N N A
;
_chemical_formula_sum "Si O2"
_cell_formula_units_Z 24
_cell_length_a 27.286171
_cell_length_b 7.927909
_cell_length_c 5.018425
_cell_angle_alpha 90.000000
_cell_angle_beta 90.000000
_cell_angle_gamma 90.000000
_cell_volume 1085.597141
_symmetry_space_group_name_H-M "P N N A"
_symmetry_group_IT_number 52
_symmetry_cell_setting 'orthorhombic'
loop_
_space_group_symop_operation_xyz
x,y,z
1/2-x,-y,z
x,1/2-y,1/2-z
1/2-x,1/2+y,1/2-z
-x,-y,-z
1/2+x,y,-z
-x,1/2+y,1/2+z
1/2+x,1/2-y,1/2+z
loop_
_atom_site_type_symbol
_atom_site_label
_atom_site_fract_x
_atom_site_fract_y
_atom_site_fract_z
Si Si1 0.458177 0.136465 0.515711
Si Si2 0.862261 0.950689 0.270347
Si Si3 0.304396 0.552435 0.265385
O O1 0.478706 0.250000 0.750000
O O2 0.500000 0.000000 0.500000
O O3 0.409614 0.045630 0.623148
O O4 0.449903 0.250000 0.250000
O O5 0.872282 0.750000 0.250000
O O6 0.819319 0.008854 0.472543
O O7 0.843684 0.016603 0.982768
O O8 0.250000 0.500000 0.345932
O O9 0.307550 0.750000 0.250000
#
# Coordination Sequence:
#
# PCOD8216131 Si02
#       3
#     8   8   8
#     4  12  26  44  68  98 128 167 212 264 322 384
#     4  10  22  41  62  89 127 168 211 260 315 373
#     4  10  21  37  60  89 124 167 210 258 312 369
#
# _framework density 22.107647
#
# number of rings (size 3 to 8) (size 9 to 14) (size 15 to 20)
#    0.000    1.333    0.000    5.000    0.000    8.000 
#    0.000    0.000    0.000    0.000    0.000    0.000 
#    0.000    0.000    0.000    0.000    0.000    0.000 
#
# Total GULP energy -297361.765225 kJ/mol
# GULP energy per Si atom -12390.073551 kJ/mol
# Density = 2.205733 g / cm^3
# Si number density = 22.107647 Si / 1000 Ang^3
#
#
#
# Elastic Constant Matrix: (Units=GPa)
#
#
# Indices 1 2 3 4 5 6 
#
# 1 153.3956 64.2251 59.1473 0.0000 0.0000 0.0000
# 2 64.2251 80.9868 69.8902 0.0000 0.0000 0.0000
# 3 59.1473 69.8902 176.0264 0.0000 0.0000 0.0000
# 4 0.0000 0.0000 0.0000 39.2712 0.0000 0.0000
# 5 0.0000 0.0000 0.0000 0.0000 61.6007 0.0000
# 6 0.0000 0.0000 0.0000 0.0000 0.0000 -468.4205
#
#
#
# Elastic Compliance Matrix: (Units=1/GPa)
#
#
# Indices 1 2 3 4 5 6 
#
# 1 0.009771 -0.007477 -0.000314 0.000000 0.000000 0.000000
# 2 -0.007477 0.024506 -0.007217 0.000000 0.000000 0.000000
# 3 -0.000314 -0.007217 0.008652 0.000000 0.000000 0.000000
# 4 0.000000 0.000000 0.000000 0.025464 0.000000 0.000000
# 5 0.000000 0.000000 0.000000 0.000000 0.016234 0.000000
# 6 0.000000 0.000000 0.000000 0.000000 0.000000 -0.002135
#
#
# Mechanical properties :
#
#
# Convention : Reuss Voigt Hill
#
# Bulk Modulus (GPa) = 77.45426 88.54822 83.00124
# Shear Modulus (GPa) = 42.80300 -59.03331 -8.11515
#
# Velocity S-wave (km/s) = 4.40491 -5.17307 -1.91800
# Velocity P-wave (km/s) = 7.80910 2.11171 5.72020
#
# Compressibility (1/GPa) = 0.01291085
#
# Stress axis : x y z
#
# Youngs Moduli (GPa) = 102.34330 40.80614 115.57715
#
# Poissons Ratio (x) = 0.30513 0.03633
# Poissons Ratio (y) = 0.76527 0.83417
# Poissons Ratio (z) = 0.03217 0.29452
#
# Static dielectric constant tensor:
#      x y z
#    x 3.676290 0.000000 0.000000 
#    y 0.000000 4.079460 0.000000 
#    z 0.000000 0.000000 5.836570 
# 
# 
# High freq. dielectric constant tensor:
#      x y z
#    x 1.875250 0.000000 0.000000 
#    y 0.000000 1.870810 0.000000 
#    z 0.000000 0.000000 1.894570 
# 
# From -- ./inp_files/5443.got.cif
#   From: 2010.06.25/outbox.cif.g09.slc.cpg/sg52_3_cif.got.tgz:5443.got - 2010.06.26 19:32:48.
