data_PCOD8216515
_publ_section_title
;
Structure prediction by ZEFSAII (Michael W. Deem and Ramdas Pophale) SiO2 
 PCOD8216515
Probable space group: P N N A
;
_chemical_formula_sum "Si O2"
_cell_formula_units_Z 40
_cell_length_a 12.269731
_cell_length_b 8.252491
_cell_length_c 14.668061
_cell_angle_alpha 90.000000
_cell_angle_beta 90.000000
_cell_angle_gamma 90.000000
_cell_volume 1485.226906
_symmetry_space_group_name_H-M "P N N A"
_symmetry_group_IT_number 52
_symmetry_cell_setting 'orthorhombic'
loop_
_space_group_symop_operation_xyz
x,y,z
1/2-x,-y,z
x,1/2-y,1/2-z
1/2-x,1/2+y,1/2-z
-x,-y,-z
1/2+x,y,-z
-x,1/2+y,1/2+z
1/2+x,1/2-y,1/2+z
loop_
_atom_site_type_symbol
_atom_site_label
_atom_site_fract_x
_atom_site_fract_y
_atom_site_fract_z
Si Si1 0.785529 0.250000 0.250000
Si Si2 0.473212 0.043228 0.700658
Si Si3 0.833172 0.864664 0.425115
Si Si4 0.385023 0.250000 0.250000
Si Si5 0.852948 0.392938 0.568760
Si Si6 0.523589 0.197660 0.934151
O O1 0.862514 0.087803 0.243269
O O2 0.713220 0.241974 0.340908
O O3 0.525492 0.211701 0.663798
O O4 0.443202 0.951000 0.607292
O O5 0.549592 0.918815 0.752986
O O6 0.869909 0.751867 0.508090
O O7 0.750000 0.000000 0.461630
O O8 0.319091 0.275058 0.345179
O O9 0.750000 0.500000 0.538310
O O10 0.954731 0.511471 0.593430
O O11 0.904451 0.285545 0.485197
#
# Coordination Sequence:
#
# PCOD8216515 Si02
#       6
#     4   8   8   4   8   8
#     4  10  23  42  71 114 150 190 253 302 385 452
#     4  11  23  44  72 104 148 198 235 311 370 458
#     4  10  22  39  72 111 145 195 240 310 373 460
#     4  12  25  46  75 106 148 194 259 300 379 446
#     4  11  28  47  73 105 142 197 252 310 360 456
#     4  11  25  48  73 107 154 192 248 311 382 444
#
# _framework density 26.931909000000001
#
# number of rings (size 3 to 8) (size 9 to 14) (size 15 to 20)
#    0.000    1.200    2.000    2.400    5.600    1.600 
#   10.800    0.000    0.000    0.000    0.000    0.000 
#    0.000    0.000    0.000    0.000    0.000    0.000 
#
# Total GULP energy -495573.331463 kJ/mol
# GULP energy per Si atom -12389.333287 kJ/mol
# Density = 2.687061 g / cm^3
# Si number density = 26.931909 Si / 1000 Ang^3
#
#
#
# Elastic Constant Matrix: (Units=GPa)
#
#
# Indices 1 2 3 4 5 6 
#
# 1 80.8690 11.6860 45.4080 0.0000 0.0000 0.0000
# 2 11.6860 49.4814 26.4162 0.0000 0.0000 0.0000
# 3 45.4080 26.4162 127.1335 0.0000 0.0000 0.0000
# 4 0.0000 0.0000 0.0000 51.3891 0.0000 0.0000
# 5 0.0000 0.0000 0.0000 0.0000 4.9451 0.0000
# 6 0.0000 0.0000 0.0000 0.0000 0.0000 37.5642
#
#
#
# Elastic Compliance Matrix: (Units=1/GPa)
#
#
# Indices 1 2 3 4 5 6 
#
# 1 0.015495 -0.000793 -0.005370 0.000000 0.000000 0.000000
# 2 -0.000793 0.022772 -0.004448 0.000000 0.000000 0.000000
# 3 -0.005370 -0.004448 0.010708 0.000000 0.000000 0.000000
# 4 0.000000 0.000000 0.000000 0.019459 0.000000 0.000000
# 5 0.000000 0.000000 0.000000 0.000000 0.202222 0.000000
# 6 0.000000 0.000000 0.000000 0.000000 0.000000 0.026621
#
#
# Mechanical properties :
#
#
# Convention : Reuss Voigt Hill
#
# Bulk Modulus (GPa) = 36.03206 47.16716 41.59961
# Shear Modulus (GPa) = 15.25552 30.37792 22.81672
#
# Velocity S-wave (km/s) = 2.38260 3.36214 2.91383
# Velocity P-wave (km/s) = 4.58007 5.71170 5.17690
#
# Compressibility (1/GPa) = 0.02775306
#
# Stress axis : x y z
#
# Youngs Moduli (GPa) = 64.53550 43.91419 93.38865
#
# Poissons Ratio (x) = 0.03482 0.50147
# Poissons Ratio (y) = 0.05117 0.41543
# Poissons Ratio (z) = 0.34654 0.19535
#
# Static dielectric constant tensor:
#      x y z
#    x 4.582790 0.000000 0.000000 
#    y 0.000000 5.431530 0.000000 
#    z 0.000000 0.000000 4.779380 
# 
# 
# High freq. dielectric constant tensor:
#      x y z
#    x 2.059430 0.000000 0.000000 
#    y 0.000000 2.094110 0.000000 
#    z 0.000000 0.000000 2.086810 
# 
# From -- ./inp_files/26980.got.cif
#   From: 2010.06.25/outbox.cif.g09.slc.cpg/sg52_14_cif.got.tgz:26980.got - 2010.06.26 19:32:48.
