data_PCOD8216876
_publ_section_title
;
Structure prediction by ZEFSAII (Michael W. Deem and Ramdas Pophale) SiO2 
 PCOD8216876
Probable space group: P N N A
;
_chemical_formula_sum "Si O2"
_cell_formula_units_Z 36
_cell_length_a 9.223172
_cell_length_b 8.742280
_cell_length_c 20.063387
_cell_angle_alpha 90.000000
_cell_angle_beta 90.000000
_cell_angle_gamma 90.000000
_cell_volume 1617.742034
_symmetry_space_group_name_H-M "P N N A"
_symmetry_group_IT_number 52
_symmetry_cell_setting 'orthorhombic'
loop_
_space_group_symop_operation_xyz
x,y,z
1/2-x,-y,z
x,1/2-y,1/2-z
1/2-x,1/2+y,1/2-z
-x,-y,-z
1/2+x,y,-z
-x,1/2+y,1/2+z
1/2+x,1/2-y,1/2+z
loop_
_atom_site_type_symbol
_atom_site_label
_atom_site_fract_x
_atom_site_fract_y
_atom_site_fract_z
Si Si1 0.004300 0.345031 0.917400
Si Si2 0.588158 0.489858 0.433337
Si Si3 0.107564 0.602185 0.703847
Si Si4 0.750000 0.000000 0.504687
Si Si5 0.607612 0.913908 0.719018
O O1 0.034062 0.168215 0.901604
O O2 0.848471 0.381314 0.952408
O O3 0.001772 0.414855 0.843610
O O4 0.139918 0.405047 0.959313
O O5 0.750000 0.500000 0.459782
O O6 0.500000 0.500000 0.500000
O O7 0.576348 0.624928 0.376185
O O8 0.250000 0.500000 0.711373
O O9 0.129764 0.750000 0.750000
O O10 0.964858 0.514176 0.724604
O O11 0.646893 0.750000 0.750000
O O12 0.750000 0.000000 0.694203
#
# Coordination Sequence:
#
# PCOD8216876 Si02
#       5
#     8   8   8   4   8
#     4  11  23  45  68 105 138 189 230 295 358 435
#     4  11  25  45  71 103 143 186 241 295 363 430
#     4  11  26  45  73 105 141 192 242 298 367 438
#     4  10  24  42  74 104 146 180 238 292 370 438
#     4  12  25  46  70 102 141 183 237 296 357 434
#
# _framework density 22.253240000000002
#
# number of rings (size 3 to 8) (size 9 to 14) (size 15 to 20)
#    0.000    0.889    3.333    2.667    4.667    4.444 
#    8.000    0.000    0.000    0.000    0.000    0.000 
#    0.000    0.000    0.000    0.000    0.000    0.000 
#
# Total GULP energy -445982.394892 kJ/mol
# GULP energy per Si atom -12388.399858 kJ/mol
# Density = 2.220259 g / cm^3
# Si number density = 22.253240 Si / 1000 Ang^3
#
#
#
# Elastic Constant Matrix: (Units=GPa)
#
#
# Indices 1 2 3 4 5 6 
#
# 1 125.7601 32.8185 60.6769 0.0000 0.0000 0.0000
# 2 32.8185 97.0873 50.4940 0.0000 0.0000 0.0000
# 3 60.6769 50.4940 176.0741 0.0000 0.0000 0.0000
# 4 0.0000 0.0000 0.0000 14.2253 0.0000 0.0000
# 5 0.0000 0.0000 0.0000 0.0000 19.6365 0.0000
# 6 0.0000 0.0000 0.0000 0.0000 0.0000 36.2689
#
#
#
# Elastic Compliance Matrix: (Units=1/GPa)
#
#
# Indices 1 2 3 4 5 6 
#
# 1 0.009807 -0.001830 -0.002855 0.000000 0.000000 0.000000
# 2 -0.001830 0.012447 -0.002939 0.000000 0.000000 0.000000
# 3 -0.002855 -0.002939 0.007506 0.000000 0.000000 0.000000
# 4 0.000000 0.000000 0.000000 0.070297 0.000000 0.000000
# 5 0.000000 0.000000 0.000000 0.000000 0.050926 0.000000
# 6 0.000000 0.000000 0.000000 0.000000 0.000000 0.027572
#
#
# Mechanical properties :
#
#
# Convention : Reuss Voigt Hill
#
# Bulk Modulus (GPa) = 68.90710 76.32225 72.61467
# Shear Modulus (GPa) = 25.17128 31.02161 28.09644
#
# Velocity S-wave (km/s) = 3.36687 3.73772 3.55713
# Velocity P-wave (km/s) = 6.79313 7.28004 7.04080
#
# Compressibility (1/GPa) = 0.01451229
#
# Stress axis : x y z
#
# Youngs Moduli (GPa) = 101.97263 80.33972 133.22821
#
# Poissons Ratio (x) = 0.14705 0.38031
# Poissons Ratio (y) = 0.18664 0.39153
# Poissons Ratio (z) = 0.29109 0.23610
#
# Static dielectric constant tensor:
#      x y z
#    x 5.547650 0.000000 0.000000 
#    y 0.000000 3.663800 0.000000 
#    z 0.000000 0.000000 2.955020 
# 
# 
# High freq. dielectric constant tensor:
#      x y z
#    x 1.888660 0.000000 0.000000 
#    y 0.000000 1.863770 0.000000 
#    z 0.000000 0.000000 1.899740 
# 
# From -- ./inp_files/35551.got.cif
#   From: 2010.06.25/outbox.cif.g09.slc.cpg/sg52_18_cif.got.tgz:35551.got - 2010.06.26 19:32:48.
