data_PCOD8216692
_publ_section_title
;
Structure prediction by ZEFSAII (Michael W. Deem and Ramdas Pophale) SiO2 
 PCOD8216692
Probable space group: P N N A
;
_chemical_formula_sum "Si O2"
_cell_formula_units_Z 48
_cell_length_a 29.204121
_cell_length_b 9.291022
_cell_length_c 8.396182
_cell_angle_alpha 90.000000
_cell_angle_beta 90.000000
_cell_angle_gamma 90.000000
_cell_volume 2278.187537
_symmetry_space_group_name_H-M "P N N A"
_symmetry_group_IT_number 52
_symmetry_cell_setting 'orthorhombic'
loop_
_space_group_symop_operation_xyz
x,y,z
1/2-x,-y,z
x,1/2-y,1/2-z
1/2-x,1/2+y,1/2-z
-x,-y,-z
1/2+x,y,-z
-x,1/2+y,1/2+z
1/2+x,1/2-y,1/2+z
loop_
_atom_site_type_symbol
_atom_site_label
_atom_site_fract_x
_atom_site_fract_y
_atom_site_fract_z
Si Si1 0.210654 0.250000 0.250000
Si Si2 0.303651 0.494322 0.076801
Si Si3 0.014825 0.250000 0.750000
Si Si4 0.174262 0.580823 0.724150
Si Si5 0.750000 0.000000 0.968650
Si Si6 0.437729 0.265098 0.003347
Si Si7 0.360542 0.250000 0.250000
Si Si8 0.574129 0.526692 0.266149
O O1 0.178440 0.349143 0.136704
O O2 0.240148 0.143841 0.133873
O O3 0.250000 0.500000 0.119734
O O4 0.328221 0.377721 0.188709
O O5 0.307937 0.482131 0.889541
O O6 0.047358 0.380988 0.707798
O O7 0.982883 0.295444 0.895714
O O8 0.166094 0.750000 0.750000
O O9 0.207864 0.545795 0.580527
O O10 0.126548 0.504836 0.680836
O O11 0.393997 0.207828 0.104165
O O12 0.425463 0.415710 0.916503
O O13 0.450629 0.143056 0.877305
#
# Coordination Sequence:
#
# PCOD8216692 Si02
#       8
#     4   8   4   8   4   8   4   8
#     4  12  29  42  67 100 140 188 234 301 336 403
#     4  12  24  43  66 100 136 183 241 283 343 398
#     4  11  24  40  71 102 136 166 222 295 345 406
#     4  12  25  46  76 100 140 194 238 283 344 425
#     4  12  30  48  72 100 144 194 238 286 350 398
#     4  10  22  44  70  96 132 184 222 276 355 428
#     4  11  23  44  72  96 136 186 238 284 341 415
#     4  11  22  43  69 103 133 175 230 279 347 424
#
# _framework density 21.069381
#
# number of rings (size 3 to 8) (size 9 to 14) (size 15 to 20)
#    0.000    0.667    5.000    2.500    4.667    1.333 
#    0.000    0.000    0.000    0.000    0.000    0.000 
#    0.000    0.000    0.000    0.000    0.000    0.000 
#
# Total GULP energy -594928.208630 kJ/mol
# GULP energy per Si atom -12394.337680 kJ/mol
# Density = 2.102143 g / cm^3
# Si number density = 21.069381 Si / 1000 Ang^3
#
#
#
# Elastic Constant Matrix: (Units=GPa)
#
#
# Indices 1 2 3 4 5 6 
#
# 1 117.7660 42.0076 23.5816 0.0000 0.0000 0.0000
# 2 42.0076 120.5020 39.7285 0.0000 0.0000 0.0000
# 3 23.5816 39.7285 111.3856 0.0000 0.0000 0.0000
# 4 0.0000 0.0000 0.0000 37.6159 0.0000 0.0000
# 5 0.0000 0.0000 0.0000 0.0000 6.9014 0.0000
# 6 0.0000 0.0000 0.0000 0.0000 0.0000 47.8399
#
#
#
# Elastic Compliance Matrix: (Units=1/GPa)
#
#
# Indices 1 2 3 4 5 6 
#
# 1 0.009789 -0.003093 -0.000969 0.000000 0.000000 0.000000
# 2 -0.003093 0.010382 -0.003048 0.000000 0.000000 0.000000
# 3 -0.000969 -0.003048 0.010270 0.000000 0.000000 0.000000
# 4 0.000000 0.000000 0.000000 0.026584 0.000000 0.000000
# 5 0.000000 0.000000 0.000000 0.000000 0.144898 0.000000
# 6 0.000000 0.000000 0.000000 0.000000 0.000000 0.020903
#
#
# Mechanical properties :
#
#
# Convention : Reuss Voigt Hill
#
# Bulk Modulus (GPa) = 61.65128 62.25431 61.95279
# Shear Modulus (GPa) = 20.62253 34.76053 27.69153
#
# Velocity S-wave (km/s) = 3.13196 4.06619 3.62926
# Velocity P-wave (km/s) = 6.51180 7.18726 6.85785
#
# Compressibility (1/GPa) = 0.01622026
#
# Stress axis : x y z
#
# Youngs Moduli (GPa) = 102.15833 96.32303 97.36898
#
# Poissons Ratio (x) = 0.29791 0.09437
# Poissons Ratio (y) = 0.31596 0.29679
# Poissons Ratio (z) = 0.09902 0.29360
#
# Static dielectric constant tensor:
#      x y z
#    x 3.824910 0.000000 0.000000 
#    y 0.000000 4.194340 0.000000 
#    z 0.000000 0.000000 4.256380 
# 
# 
# High freq. dielectric constant tensor:
#      x y z
#    x 1.819500 0.000000 0.000000 
#    y 0.000000 1.819290 0.000000 
#    z 0.000000 0.000000 1.853340 
# 
# From -- ./inp_files/15638.got.cif
#   From: 2010.06.25/outbox.cif.g09.slc.cpg/sg52_8_cif.got.tgz:15638.got - 2010.06.26 19:32:48.
