data_PCOD8216206
_publ_section_title
;
Structure prediction by ZEFSAII (Michael W. Deem and Ramdas Pophale) SiO2 
 PCOD8216206
Probable space group: P N N A
;
_chemical_formula_sum "Si O2"
_cell_formula_units_Z 32
_cell_length_a 17.227062
_cell_length_b 9.726956
_cell_length_c 8.884235
_cell_angle_alpha 90.000000
_cell_angle_beta 90.000000
_cell_angle_gamma 90.000000
_cell_volume 1488.703488
_symmetry_space_group_name_H-M "P N N A"
_symmetry_group_IT_number 52
_symmetry_cell_setting 'orthorhombic'
loop_
_space_group_symop_operation_xyz
x,y,z
1/2-x,-y,z
x,1/2-y,1/2-z
1/2-x,1/2+y,1/2-z
-x,-y,-z
1/2+x,y,-z
-x,1/2+y,1/2+z
1/2+x,1/2-y,1/2+z
loop_
_atom_site_type_symbol
_atom_site_label
_atom_site_fract_x
_atom_site_fract_y
_atom_site_fract_z
Si Si1 0.250000 0.500000 0.869141
Si Si2 0.987107 0.442854 0.746425
Si Si3 0.901121 0.560155 0.995125
Si Si4 0.011060 0.698594 0.546779
Si Si5 0.652912 0.750000 0.250000
O O1 0.190456 0.422141 0.982497
O O2 0.292248 0.384297 0.768025
O O3 0.986645 0.309590 0.636649
O O4 0.067827 0.468078 0.835077
O O5 0.976115 0.565423 0.626867
O O6 0.920223 0.435817 0.876961
O O7 0.946594 0.686160 0.917305
O O8 0.097330 0.736660 0.604289
#
# Coordination Sequence:
#
# PCOD8216206 Si02
#       5
#     4   8   8   8   4
#     4  12  28  40  66  98 150 178 216 306 362 396
#     4  10  21  38  69  95 125 176 234 279 327 427
#     4  11  21  42  62  98 134 176 227 282 351 402
#     4  11  21  41  70  96 127 183 239 279 325 433
#     4  12  24  46  66 104 144 182 236 284 352 420
#
# _framework density 21.495215000000002
#
# number of rings (size 3 to 8) (size 9 to 14) (size 15 to 20)
#    0.000    1.000    5.000    2.250    3.500    0.000 
#    0.000    6.250    0.000    0.000    0.000    0.000 
#    0.000    0.000    0.000    0.000    0.000    0.000 
#
# Total GULP energy -396516.833101 kJ/mol
# GULP energy per Si atom -12391.151034 kJ/mol
# Density = 2.144629 g / cm^3
# Si number density = 21.495215 Si / 1000 Ang^3
#
#
#
# Elastic Constant Matrix: (Units=GPa)
#
#
# Indices 1 2 3 4 5 6 
#
# 1 156.6965 39.2482 47.0274 0.0000 0.0000 0.0000
# 2 39.2482 44.5387 18.0820 0.0000 0.0000 0.0000
# 3 47.0274 18.0820 161.0083 0.0000 0.0000 0.0000
# 4 0.0000 0.0000 0.0000 43.9740 0.0000 0.0000
# 5 0.0000 0.0000 0.0000 0.0000 23.2812 0.0000
# 6 0.0000 0.0000 0.0000 0.0000 0.0000 25.9922
#
#
#
# Elastic Compliance Matrix: (Units=1/GPa)
#
#
# Indices 1 2 3 4 5 6 
#
# 1 0.008634 -0.006899 -0.001747 0.000000 0.000000 0.000000
# 2 -0.006899 0.029038 -0.001246 0.000000 0.000000 0.000000
# 3 -0.001747 -0.001246 0.006861 0.000000 0.000000 0.000000
# 4 0.000000 0.000000 0.000000 0.022741 0.000000 0.000000
# 5 0.000000 0.000000 0.000000 0.000000 0.042953 0.000000
# 6 0.000000 0.000000 0.000000 0.000000 0.000000 0.038473
#
#
# Mechanical properties :
#
#
# Convention : Reuss Voigt Hill
#
# Bulk Modulus (GPa) = 40.40630 63.43985 51.92308
# Shear Modulus (GPa) = 28.29109 35.84188 32.06648
#
# Velocity S-wave (km/s) = 3.63182 4.08785 3.86657
# Velocity P-wave (km/s) = 6.03535 7.20127 6.64394
#
# Compressibility (1/GPa) = 0.02474862
#
# Stress axis : x y z
#
# Youngs Moduli (GPa) = 115.81895 34.43770 145.74992
#
# Poissons Ratio (x) = 0.23760 0.25463
# Poissons Ratio (y) = 0.79907 0.18160
# Poissons Ratio (z) = 0.20234 0.04291
#
# Static dielectric constant tensor:
#      x y z
#    x 3.671480 0.000000 0.000000 
#    y 0.000000 4.241740 0.000000 
#    z 0.000000 0.000000 4.269750 
# 
# 
# High freq. dielectric constant tensor:
#      x y z
#    x 1.804200 0.000000 0.000000 
#    y 0.000000 1.873490 0.000000 
#    z 0.000000 0.000000 1.861880 
# 
# From -- ./inp_files/9621.got.cif
#   From: 2010.06.25/outbox.cif.g09.slc.cpg/sg52_5_cif.got.tgz:9621.got - 2010.06.26 19:32:48.
