data_PCOD8216990
_publ_section_title
;
Structure prediction by ZEFSAII (Michael W. Deem and Ramdas Pophale) SiO2 
 PCOD8216990
Probable space group: P N N A
;
_chemical_formula_sum "Si O2"
_cell_formula_units_Z 48
_cell_length_a 14.149912
_cell_length_b 9.632505
_cell_length_c 19.859376
_cell_angle_alpha 90.000000
_cell_angle_beta 90.000000
_cell_angle_gamma 90.000000
_cell_volume 2706.815037
_symmetry_space_group_name_H-M "P N N A"
_symmetry_group_IT_number 52
_symmetry_cell_setting 'orthorhombic'
loop_
_space_group_symop_operation_xyz
x,y,z
1/2-x,-y,z
x,1/2-y,1/2-z
1/2-x,1/2+y,1/2-z
-x,-y,-z
1/2+x,y,-z
-x,1/2+y,1/2+z
1/2+x,1/2-y,1/2+z
loop_
_atom_site_type_symbol
_atom_site_label
_atom_site_fract_x
_atom_site_fract_y
_atom_site_fract_z
Si Si1 0.042430 0.515042 0.140652
Si Si2 0.641238 0.204691 0.551308
Si Si3 0.857908 0.992798 0.429690
Si Si4 0.861636 0.209963 0.540922
Si Si5 0.845646 0.413201 0.734636
Si Si6 0.639167 0.992632 0.914684
O O1 0.090174 0.379019 0.109863
O O2 0.077247 0.649190 0.101024
O O3 0.070892 0.529242 0.217963
O O4 0.927991 0.509370 0.133963
O O5 0.620966 0.140523 0.477451
O O6 0.752944 0.194565 0.564077
O O7 0.599372 0.360520 0.558633
O O8 0.750000 0.000000 0.403843
O O9 0.881898 0.132041 0.471427
O O10 0.892238 0.371126 0.533467
O O11 0.750000 0.500000 0.747941
O O12 0.826154 0.250000 0.750000
O O13 0.888286 0.445824 0.660944
O O14 0.750000 0.000000 0.916628
#
# Coordination Sequence:
#
# PCOD8216990 Si02
#       6
#     8   8   8   8   8   8
#     4  11  19  30  49  72 101 135 169 204 245 295
#     4   9  17  29  49  76 104 134 155 204 251 306
#     4   9  19  34  51  71  96 130 178 212 248 286
#     4   9  15  29  48  72 105 130 159 198 249 307
#     4  11  22  33  51  77 110 137 159 196 245 314
#     4   9  18  29  46  76 108 133 158 186 252 313
#
# _framework density 17.733018000000001
#
# number of rings (size 3 to 8) (size 9 to 14) (size 15 to 20)
#    0.000    2.333    1.667    4.500    4.667    0.000 
#    0.000    3.333    0.000    0.000    4.333    0.000 
#    0.000    0.000    0.000    0.000    0.000    0.000 
#
# Total GULP energy -594807.148826 kJ/mol
# GULP energy per Si atom -12391.815601 kJ/mol
# Density = 1.769266 g / cm^3
# Si number density = 17.733018 Si / 1000 Ang^3
#
#
#
# Elastic Constant Matrix: (Units=GPa)
#
#
# Indices 1 2 3 4 5 6 
#
# 1 68.9297 39.5584 41.4044 0.0000 0.0000 0.0000
# 2 39.5584 134.1999 41.2267 0.0000 0.0000 0.0000
# 3 41.4044 41.2267 56.2033 0.0000 0.0000 0.0000
# 4 0.0000 0.0000 0.0000 11.1032 0.0000 0.0000
# 5 0.0000 0.0000 0.0000 0.0000 20.7101 0.0000
# 6 0.0000 0.0000 0.0000 0.0000 0.0000 -0.0572
#
#
#
# Elastic Compliance Matrix: (Units=1/GPa)
#
#
# Indices 1 2 3 4 5 6 
#
# 1 0.026585 -0.002349 -0.017861 0.000000 0.000000 0.000000
# 2 -0.002349 0.009827 -0.005477 0.000000 0.000000 0.000000
# 3 -0.017861 -0.005477 0.034969 0.000000 0.000000 0.000000
# 4 0.000000 0.000000 0.000000 0.090064 0.000000 0.000000
# 5 0.000000 0.000000 0.000000 0.000000 0.048286 0.000000
# 6 0.000000 0.000000 0.000000 0.000000 0.000000-17.488726
#
#
# Mechanical properties :
#
#
# Convention : Reuss Voigt Hill
#
# Bulk Modulus (GPa) = 49.99046 55.96798 52.97922
# Shear Modulus (GPa) = -0.29034 15.49412 7.60189
#
# Velocity S-wave (km/s) = -0.40508 2.95912 2.07272
# Velocity P-wave (km/s) = 5.29462 6.58067 5.97236
#
# Compressibility (1/GPa) = 0.02000382
#
# Stress axis : x y z
#
# Youngs Moduli (GPa) = 37.61552 101.76259 28.59689
#
# Poissons Ratio (x) = 0.23908 0.51078
# Poissons Ratio (y) = 0.08837 0.15664
# Poissons Ratio (z) = 0.67187 0.55740
#
# Static dielectric constant tensor:
#      x y z
#    x 3.155250 0.000000 0.000000 
#    y 0.000000 4.214320 0.000000 
#    z 0.000000 0.000000 3.104380 
# 
# 
# High freq. dielectric constant tensor:
#      x y z
#    x 1.664690 0.000000 0.000000 
#    y 0.000000 1.702120 0.000000 
#    z 0.000000 0.000000 1.646570 
# 
# From -- ./inp_files/37181.got.cif
#   From: 2010.06.25/outbox.cif.g09.slc.cpg/sg52_19_cif.got.tgz:37181.got - 2010.06.26 19:32:48.
