data_PCOD8216626
_publ_section_title
;
Structure prediction by ZEFSAII (Michael W. Deem and Ramdas Pophale) SiO2 
 PCOD8216626
Probable space group: P N N A
;
_chemical_formula_sum "Si O2"
_cell_formula_units_Z 32
_cell_length_a 14.749165
_cell_length_b 16.738968
_cell_length_c 5.180760
_cell_angle_alpha 90.000000
_cell_angle_beta 90.000000
_cell_angle_gamma 90.000000
_cell_volume 1279.056082
_symmetry_space_group_name_H-M "P N N A"
_symmetry_group_IT_number 52
_symmetry_cell_setting 'orthorhombic'
loop_
_space_group_symop_operation_xyz
x,y,z
1/2-x,-y,z
x,1/2-y,1/2-z
1/2-x,1/2+y,1/2-z
-x,-y,-z
1/2+x,y,-z
-x,1/2+y,1/2+z
1/2+x,1/2-y,1/2+z
loop_
_atom_site_type_symbol
_atom_site_label
_atom_site_fract_x
_atom_site_fract_y
_atom_site_fract_z
Si Si1 0.400164 0.470372 0.478201
Si Si2 0.036254 0.664501 0.171383
Si Si3 0.862771 0.560403 0.029384
Si Si4 0.277602 0.300157 0.992140
O O1 0.500000 0.500000 0.500000
O O2 0.409793 0.375330 0.417831
O O3 0.348142 0.495880 0.739315
O O4 0.354234 0.512691 0.234696
O O5 0.992686 0.750000 0.250000
O O6 0.115558 0.678737 0.962337
O O7 0.959259 0.606850 0.055004
O O8 0.779858 0.619804 0.018571
O O9 0.256928 0.250000 0.250000
O O10 0.244232 0.250000 0.750000
#
# Coordination Sequence:
#
# PCOD8216626 Si02
#       4
#     8   8   8   8
#     4  10  22  42  66  95 125 166 218 262 315 390
#     4  10  23  42  66  94 127 166 209 265 319 371
#     4  11  23  44  68  91 130 171 211 264 322 380
#     4  11  25  42  64  99 131 167 222 266 317 394
#
# _framework density 25.018446999999998
#
# number of rings (size 3 to 8) (size 9 to 14) (size 15 to 20)
#    0.000    1.500    0.000    5.250    0.000   16.000 
#    0.000    5.000    0.000    0.000    0.000    0.000 
#    0.000    0.000    0.000    0.000    0.000    0.000 
#
# Total GULP energy -396604.730712 kJ/mol
# GULP energy per Si atom -12393.897835 kJ/mol
# Density = 2.496150 g / cm^3
# Si number density = 25.018447 Si / 1000 Ang^3
#
#
#
# Elastic Constant Matrix: (Units=GPa)
#
#
# Indices 1 2 3 4 5 6 
#
# 1 75.0585 15.6692 10.2952 0.0000 0.0000 0.0000
# 2 15.6692 121.1282 31.2782 0.0000 0.0000 0.0000
# 3 10.2952 31.2782 150.2881 0.0000 0.0000 0.0000
# 4 0.0000 0.0000 0.0000 36.4215 0.0000 0.0000
# 5 0.0000 0.0000 0.0000 0.0000 16.6324 0.0000
# 6 0.0000 0.0000 0.0000 0.0000 0.0000 86.6983
#
#
#
# Elastic Compliance Matrix: (Units=1/GPa)
#
#
# Indices 1 2 3 4 5 6 
#
# 1 0.013744 -0.001622 -0.000604 0.000000 0.000000 0.000000
# 2 -0.001622 0.008916 -0.001745 0.000000 0.000000 0.000000
# 3 -0.000604 -0.001745 0.007058 0.000000 0.000000 0.000000
# 4 0.000000 0.000000 0.000000 0.027456 0.000000 0.000000
# 5 0.000000 0.000000 0.000000 0.000000 0.060124 0.000000
# 6 0.000000 0.000000 0.000000 0.000000 0.000000 0.011534
#
#
# Mechanical properties :
#
#
# Convention : Reuss Voigt Hill
#
# Bulk Modulus (GPa) = 45.91838 51.21779 48.56808
# Shear Modulus (GPa) = 34.71421 47.23256 40.97339
#
# Velocity S-wave (km/s) = 3.72902 4.34972 4.05127
# Velocity P-wave (km/s) = 6.07737 6.76337 6.42953
#
# Compressibility (1/GPa) = 0.02177777
#
# Stress axis : x y z
#
# Youngs Moduli (GPa) = 72.75690 112.15771 141.67655
#
# Poissons Ratio (x) = 0.18192 0.08557
# Poissons Ratio (y) = 0.11801 0.24716
# Poissons Ratio (z) = 0.04394 0.19566
#
# Static dielectric constant tensor:
#      x y z
#    x 4.405730 0.000000 0.000000 
#    y 0.000000 4.785110 0.000000 
#    z 0.000000 0.000000 3.432720 
# 
# 
# High freq. dielectric constant tensor:
#      x y z
#    x 1.997850 0.000000 0.000000 
#    y 0.000000 2.019330 0.000000 
#    z 0.000000 0.000000 1.994040 
# 
# From -- ./inp_files/1934.got.cif
#   From: 2010.06.25/outbox.cif.g09.slc.cpg/sg52_1_cif.got.tgz:1934.got - 2010.06.26 19:32:48.
