data_PCOD8216780
_publ_section_title
;
Structure prediction by ZEFSAII (Michael W. Deem and Ramdas Pophale) SiO2 
 PCOD8216780
Probable space group: P N N A
;
_chemical_formula_sum "Si O2"
_cell_formula_units_Z 32
_cell_length_a 28.592922
_cell_length_b 8.797435
_cell_length_c 5.489894
_cell_angle_alpha 90.000000
_cell_angle_beta 90.000000
_cell_angle_gamma 90.000000
_cell_volume 1380.951943
_symmetry_space_group_name_H-M "P N N A"
_symmetry_group_IT_number 52
_symmetry_cell_setting 'orthorhombic'
loop_
_space_group_symop_operation_xyz
x,y,z
1/2-x,-y,z
x,1/2-y,1/2-z
1/2-x,1/2+y,1/2-z
-x,-y,-z
1/2+x,y,-z
-x,1/2+y,1/2+z
1/2+x,1/2-y,1/2+z
loop_
_atom_site_type_symbol
_atom_site_label
_atom_site_fract_x
_atom_site_fract_y
_atom_site_fract_z
Si Si1 0.349434 0.750000 0.250000
Si Si2 0.020550 0.069375 0.748477
Si Si3 0.147867 0.750000 0.250000
Si Si4 0.304062 0.994245 0.555591
Si Si5 0.883011 0.495623 0.427945
O O1 0.315513 0.668782 0.058696
O O2 0.384434 0.632237 0.378374
O O3 0.013246 0.250000 0.750000
O O4 0.075350 0.023444 0.737761
O O5 0.000000 0.000000 0.500000
O O6 0.000000 0.000000 0.000000
O O7 0.182040 0.871473 0.373112
O O8 0.112402 0.666656 0.436508
O O9 0.250000 0.000000 0.624480
O O10 0.332506 0.009962 0.803694
#
# Coordination Sequence:
#
# PCOD8216780 Si02
#       5
#     4   8   4   8   8
#     4  10  23  42  70  98 138 192 240 296 371 446
#     4  12  30  51  82 116 154 200 258 321 392 464
#     4  10  25  42  70 102 144 190 246 302 377 442
#     4  11  23  41  67 102 144 189 243 303 371 446
#     4  11  26  46  73 100 145 187 247 303 377 447
#
# _framework density 23.172421
#
# number of rings (size 3 to 8) (size 9 to 14) (size 15 to 20)
#    0.000    1.000    0.000    4.500   12.250   10.000 
#    0.000    0.000    0.000    0.000    0.000    0.000 
#    0.000    0.000    0.000    0.000    0.000    0.000 
#
# Total GULP energy -396903.024523 kJ/mol
# GULP energy per Si atom -12403.219516 kJ/mol
# Density = 2.311968 g / cm^3
# Si number density = 23.172421 Si / 1000 Ang^3
#
#
#
# Elastic Constant Matrix: (Units=GPa)
#
#
# Indices 1 2 3 4 5 6 
#
# 1 142.0666 45.3218 56.6992 0.0000 0.0000 0.0000
# 2 45.3218 157.8704 59.5315 0.0000 0.0000 0.0000
# 3 56.6992 59.5315 143.3510 0.0000 0.0000 0.0000
# 4 0.0000 0.0000 0.0000 28.4245 0.0000 0.0000
# 5 0.0000 0.0000 0.0000 0.0000 39.7324 0.0000
# 6 0.0000 0.0000 0.0000 0.0000 0.0000 17.5398
#
#
#
# Elastic Compliance Matrix: (Units=1/GPa)
#
#
# Indices 1 2 3 4 5 6 
#
# 1 0.008615 -0.001409 -0.002822 0.000000 0.000000 0.000000
# 2 -0.001409 0.007741 -0.002657 0.000000 0.000000 0.000000
# 3 -0.002822 -0.002657 0.009196 0.000000 0.000000 0.000000
# 4 0.000000 0.000000 0.000000 0.035181 0.000000 0.000000
# 5 0.000000 0.000000 0.000000 0.000000 0.025168 0.000000
# 6 0.000000 0.000000 0.000000 0.000000 0.000000 0.057013
#
#
# Mechanical properties :
#
#
# Convention : Reuss Voigt Hill
#
# Bulk Modulus (GPa) = 84.93126 85.15480 85.04303
# Shear Modulus (GPa) = 31.13019 35.92170 33.52595
#
# Velocity S-wave (km/s) = 3.66924 3.94152 3.80781
# Velocity P-wave (km/s) = 7.39476 7.58566 7.49082
#
# Compressibility (1/GPa) = 0.01177423
#
# Stress axis : x y z
#
# Youngs Moduli (GPa) = 116.07923 129.18454 108.74578
#
# Poissons Ratio (x) = 0.18201 0.30691
# Poissons Ratio (y) = 0.16354 0.28898
# Poissons Ratio (z) = 0.32761 0.34330
#
# Static dielectric constant tensor:
#      x y z
#    x 4.004130 0.000000 0.000000 
#    y 0.000000 4.587800 0.000000 
#    z 0.000000 0.000000 4.281070 
# 
# 
# High freq. dielectric constant tensor:
#      x y z
#    x 1.906110 0.000000 0.000000 
#    y 0.000000 1.941270 0.000000 
#    z 0.000000 0.000000 1.928180 
# 
# From -- ./inp_files/6170.got.cif
#   From: 2010.06.25/outbox.cif.g09.slc.cpg/sg52_4_cif.got.tgz:6170.got - 2010.06.26 19:32:48.
