data_PCOD8216947
_publ_section_title
;
Structure prediction by ZEFSAII (Michael W. Deem and Ramdas Pophale) SiO2 
 PCOD8216947
Probable space group: P N N A
;
_chemical_formula_sum "Si O2"
_cell_formula_units_Z 32
_cell_length_a 10.349213
_cell_length_b 15.157126
_cell_length_c 8.889295
_cell_angle_alpha 90.000000
_cell_angle_beta 90.000000
_cell_angle_gamma 90.000000
_cell_volume 1394.413264
_symmetry_space_group_name_H-M "P N N A"
_symmetry_group_IT_number 52
_symmetry_cell_setting 'orthorhombic'
loop_
_space_group_symop_operation_xyz
x,y,z
1/2-x,-y,z
x,1/2-y,1/2-z
1/2-x,1/2+y,1/2-z
-x,-y,-z
1/2+x,y,-z
-x,1/2+y,1/2+z
1/2+x,1/2-y,1/2+z
loop_
_atom_site_type_symbol
_atom_site_label
_atom_site_fract_x
_atom_site_fract_y
_atom_site_fract_z
Si Si1 0.339988 0.766641 0.921171
Si Si2 0.653995 0.425975 0.013107
Si Si3 0.415652 0.375495 0.522033
Si Si4 0.967357 0.008665 0.753594
O O1 0.381059 0.750000 0.750000
O O2 0.294629 0.673737 0.991581
O O3 0.461344 0.809652 0.009408
O O4 0.215330 0.828054 0.931447
O O5 0.750000 0.500000 0.077685
O O6 0.533173 0.429876 0.126294
O O7 0.627752 0.445276 0.837741
O O8 0.435322 0.448213 0.651434
O O9 0.391802 0.425403 0.364385
#
# Coordination Sequence:
#
# PCOD8216947 Si02
#       4
#     8   8   8   8
#     4  12  27  47  74 112 148 189 247 309 363 427
#     4  11  25  45  72 103 148 191 236 302 368 437
#     4  11  27  48  76 105 146 192 245 303 359 441
#     4  10  25  47  72 106 143 195 242 291 374 437
#
# _framework density 22.948720000000002
#
# number of rings (size 3 to 8) (size 9 to 14) (size 15 to 20)
#    0.000    1.000    2.500    1.500   14.000    2.000 
#    0.000    0.000    0.000    0.000    0.000    0.000 
#    0.000    0.000    0.000    0.000    0.000    0.000 
#
# Total GULP energy -396735.670814 kJ/mol
# GULP energy per Si atom -12397.989713 kJ/mol
# Density = 2.289649 g / cm^3
# Si number density = 22.948720 Si / 1000 Ang^3
#
#
#
# Elastic Constant Matrix: (Units=GPa)
#
#
# Indices 1 2 3 4 5 6 
#
# 1 50.1097 0.4251 3.3242 0.0000 0.0000 0.0000
# 2 0.4251 122.6414 28.0750 0.0000 0.0000 0.0000
# 3 3.3242 28.0750 110.4944 0.0000 0.0000 0.0000
# 4 0.0000 0.0000 0.0000 17.1832 0.0000 0.0000
# 5 0.0000 0.0000 0.0000 0.0000 18.4991 0.0000
# 6 0.0000 0.0000 0.0000 0.0000 0.0000 44.5155
#
#
#
# Elastic Compliance Matrix: (Units=1/GPa)
#
#
# Indices 1 2 3 4 5 6 
#
# 1 0.019997 0.000073 -0.000620 0.000000 0.000000 0.000000
# 2 0.000073 0.008658 -0.002202 0.000000 0.000000 0.000000
# 3 -0.000620 -0.002202 0.009628 0.000000 0.000000 0.000000
# 4 0.000000 0.000000 0.000000 0.058197 0.000000 0.000000
# 5 0.000000 0.000000 0.000000 0.000000 0.054057 0.000000
# 6 0.000000 0.000000 0.000000 0.000000 0.000000 0.022464
#
#
# Mechanical properties :
#
#
# Convention : Reuss Voigt Hill
#
# Bulk Modulus (GPa) = 30.50267 38.54377 34.52322
# Shear Modulus (GPa) = 26.39542 32.80097 29.59819
#
# Velocity S-wave (km/s) = 3.39513 3.78473 3.59521
# Velocity P-wave (km/s) = 5.35628 5.99425 5.68422
#
# Compressibility (1/GPa) = 0.03278401
#
# Stress axis : x y z
#
# Youngs Moduli (GPa) = 50.00815 115.50446 103.85968
#
# Poissons Ratio (x) = -0.00839 0.06440
# Poissons Ratio (y) = -0.00363 0.22870
# Poissons Ratio (z) = 0.03101 0.25434
#
# Static dielectric constant tensor:
#      x y z
#    x 3.912300 0.000000 0.000000 
#    y 0.000000 4.526480 0.000000 
#    z 0.000000 0.000000 4.295580 
# 
# 
# High freq. dielectric constant tensor:
#      x y z
#    x 1.890940 0.000000 0.000000 
#    y 0.000000 1.922550 0.000000 
#    z 0.000000 0.000000 1.921160 
# 
# From -- ./inp_files/8203.got.cif
#   From: 2010.06.25/outbox.cif.g09.slc.cpg/sg52_5_cif.got.tgz:8203.got - 2010.06.26 19:32:48.
