data_PCOD8216605
_publ_section_title
;
Structure prediction by ZEFSAII (Michael W. Deem and Ramdas Pophale) SiO2 
 PCOD8216605
Probable space group: P N N A
;
_chemical_formula_sum "Si O2"
_cell_formula_units_Z 48
_cell_length_a 9.072815
_cell_length_b 9.838300
_cell_length_c 25.647866
_cell_angle_alpha 90.000000
_cell_angle_beta 90.000000
_cell_angle_gamma 90.000000
_cell_volume 2289.356112
_symmetry_space_group_name_H-M "P N N A"
_symmetry_group_IT_number 52
_symmetry_cell_setting 'orthorhombic'
loop_
_space_group_symop_operation_xyz
x,y,z
1/2-x,-y,z
x,1/2-y,1/2-z
1/2-x,1/2+y,1/2-z
-x,-y,-z
1/2+x,y,-z
-x,1/2+y,1/2+z
1/2+x,1/2-y,1/2+z
loop_
_atom_site_type_symbol
_atom_site_label
_atom_site_fract_x
_atom_site_fract_y
_atom_site_fract_z
Si Si1 0.373312 0.396329 0.740623
Si Si2 0.580736 0.477630 0.829682
Si Si3 0.380775 0.899849 0.520637
Si Si4 0.873957 0.757781 0.586241
Si Si5 0.960442 0.241752 0.614515
Si Si6 0.414613 0.470636 0.624362
O O1 0.250000 0.500000 0.758273
O O2 0.303572 0.250000 0.750000
O O3 0.515439 0.416447 0.776912
O O4 0.414222 0.400294 0.680257
O O5 0.750000 0.500000 0.817928
O O6 0.553895 0.379078 0.879569
O O7 0.510300 0.623748 0.843245
O O8 0.339050 0.802215 0.472725
O O9 0.446599 0.800522 0.563884
O O10 0.250000 0.000000 0.540519
O O11 0.500000 0.000000 0.500000
O O12 0.712302 0.727825 0.607709
O O13 0.984441 0.626335 0.587269
O O14 0.018353 0.383008 0.635499
O O15 0.250000 0.500000 0.601379
#
# Coordination Sequence:
#
# PCOD8216605 Si02
#       6
#     8   8   8   8   8   8
#     4  11  25  45  66  97 134 173 217 279 334 395
#     4  10  22  41  69  95 125 174 225 265 325 395
#     4  12  23  42  70 101 133 172 226 274 327 401
#     4  11  22  45  66  96 135 171 223 274 329 400
#     4  11  25  42  67 100 131 177 217 276 332 391
#     4  11  27  43  64  97 134 172 223 274 340 394
#
# _framework density 20.966591999999999
#
# number of rings (size 3 to 8) (size 9 to 14) (size 15 to 20)
#    0.000    1.000    5.000    1.000    7.000    2.667 
#    0.000    0.000    0.000    0.000    0.000    0.000 
#    0.000    0.000    0.000    0.000    0.000    0.000 
#
# Total GULP energy -594975.990305 kJ/mol
# GULP energy per Si atom -12395.333131 kJ/mol
# Density = 2.091887 g / cm^3
# Si number density = 20.966592 Si / 1000 Ang^3
#
#
#
# Elastic Constant Matrix: (Units=GPa)
#
#
# Indices 1 2 3 4 5 6 
#
# 1 94.2079 44.5145 11.6055 0.0000 0.0000 0.0000
# 2 44.5145 149.6618 13.9722 0.0000 0.0000 0.0000
# 3 11.6055 13.9722 54.8948 0.0000 0.0000 0.0000
# 4 0.0000 0.0000 0.0000 25.8318 0.0000 0.0000
# 5 0.0000 0.0000 0.0000 0.0000 -0.2988 0.0000
# 6 0.0000 0.0000 0.0000 0.0000 0.0000 41.6303
#
#
#
# Elastic Compliance Matrix: (Units=1/GPa)
#
#
# Indices 1 2 3 4 5 6 
#
# 1 0.012511 -0.003559 -0.001739 0.000000 0.000000 0.000000
# 2 -0.003559 0.007857 -0.001247 0.000000 0.000000 0.000000
# 3 -0.001739 -0.001247 0.018902 0.000000 0.000000 0.000000
# 4 0.000000 0.000000 0.000000 0.038712 0.000000 0.000000
# 5 0.000000 0.000000 0.000000 0.000000 -3.346747 0.000000
# 6 0.000000 0.000000 0.000000 0.000000 0.000000 0.024021
#
#
# Mechanical properties :
#
#
# Convention : Reuss Voigt Hill
#
# Bulk Modulus (GPa) = 38.19902 48.77209 43.48556
# Shear Modulus (GPa) = -1.55138 28.67747 13.56305
#
# Velocity S-wave (km/s) = -0.86113 3.70235 2.54616
# Velocity P-wave (km/s) = 4.15570 6.44894 5.42488
#
# Compressibility (1/GPa) = 0.02617868
#
# Stress axis : x y z
#
# Youngs Moduli (GPa) = 79.93213 127.28039 52.90499
#
# Poissons Ratio (x) = 0.45296 0.09201
# Poissons Ratio (y) = 0.28446 0.06599
# Poissons Ratio (z) = 0.13901 0.15877
#
# Static dielectric constant tensor:
#      x y z
#    x 3.869090 0.000000 0.000000 
#    y 0.000000 3.928270 0.000000 
#    z 0.000000 0.000000 3.485450 
# 
# 
# High freq. dielectric constant tensor:
#      x y z
#    x 1.829420 0.000000 0.000000 
#    y 0.000000 1.836450 0.000000 
#    z 0.000000 0.000000 1.809730 
# 
# From -- ./inp_files/44362.got.cif
#   From: 2010.06.25/outbox.cif.g09.slc.cpg/sg52_23_cif.got.tgz:44362.got - 2010.06.26 19:32:48.
