data_PCOD8216104
_publ_section_title
;
Structure prediction by ZEFSAII (Michael W. Deem and Ramdas Pophale) SiO2 
 PCOD8216104
Probable space group: P N N A
;
_chemical_formula_sum "Si O2"
_cell_formula_units_Z 32
_cell_length_a 14.173776
_cell_length_b 8.822419
_cell_length_c 12.463238
_cell_angle_alpha 90.000000
_cell_angle_beta 90.000000
_cell_angle_gamma 90.000000
_cell_volume 1558.490406
_symmetry_space_group_name_H-M "P N N A"
_symmetry_group_IT_number 52
_symmetry_cell_setting 'orthorhombic'
loop_
_space_group_symop_operation_xyz
x,y,z
1/2-x,-y,z
x,1/2-y,1/2-z
1/2-x,1/2+y,1/2-z
-x,-y,-z
1/2+x,y,-z
-x,1/2+y,1/2+z
1/2+x,1/2-y,1/2+z
loop_
_atom_site_type_symbol
_atom_site_label
_atom_site_fract_x
_atom_site_fract_y
_atom_site_fract_z
Si Si1 0.453279 0.677651 0.860210
Si Si2 0.571486 0.413788 0.776515
Si Si3 0.360350 0.167740 0.138413
Si Si4 0.795905 0.847052 0.532770
O O1 0.416740 0.750000 0.750000
O O2 0.486487 0.506330 0.832764
O O3 0.543306 0.764288 0.909911
O O4 0.371683 0.701772 0.945434
O O5 0.527959 0.250000 0.750000
O O6 0.618277 0.491501 0.668996
O O7 0.658321 0.394399 0.855798
O O8 0.337260 0.250000 0.250000
O O9 0.276855 0.205906 0.053804
O O10 0.750000 0.000000 0.485761
#
# Coordination Sequence:
#
# PCOD8216104 Si02
#       4
#     8   8   8   8
#     4   9  21  41  60  85 122 169 209 251 308 376
#     4  10  21  36  64  92 123 155 206 264 317 361
#     4   9  19  37  59  92 122 150 206 260 305 365
#     4  12  20  33  69  91 116 164 214 256 313 374
#
# _framework density 20.532691
#
# number of rings (size 3 to 8) (size 9 to 14) (size 15 to 20)
#    0.000    2.500    5.000    1.500    0.000    0.000 
#    0.000    6.250   16.500    0.000    0.000    0.000 
#    0.000    0.000    0.000    0.000    0.000    0.000 
#
# Total GULP energy -396473.279841 kJ/mol
# GULP energy per Si atom -12389.789995 kJ/mol
# Density = 2.048596 g / cm^3
# Si number density = 20.532691 Si / 1000 Ang^3
#
#
#
# Elastic Constant Matrix: (Units=GPa)
#
#
# Indices 1 2 3 4 5 6 
#
# 1 136.4779 46.8489 81.6320 0.0000 0.0000 0.0000
# 2 46.8489 135.7859 40.0308 0.0000 0.0000 0.0000
# 3 81.6320 40.0308 71.5631 0.0000 0.0000 0.0000
# 4 0.0000 0.0000 0.0000 20.9340 0.0000 0.0000
# 5 0.0000 0.0000 0.0000 0.0000 1.7051 0.0000
# 6 0.0000 0.0000 0.0000 0.0000 0.0000 17.8254
#
#
#
# Elastic Compliance Matrix: (Units=1/GPa)
#
#
# Indices 1 2 3 4 5 6 
#
# 1 0.023069 -0.000241 -0.026180 0.000000 0.000000 0.000000
# 2 -0.000241 0.008821 -0.004659 0.000000 0.000000 0.000000
# 3 -0.026180 -0.004659 0.046444 0.000000 0.000000 0.000000
# 4 0.000000 0.000000 0.000000 0.047769 0.000000 0.000000
# 5 0.000000 0.000000 0.000000 0.000000 0.586461 0.000000
# 6 0.000000 0.000000 0.000000 0.000000 0.000000 0.056100
#
#
# Mechanical properties :
#
#
# Convention : Reuss Voigt Hill
#
# Bulk Modulus (GPa) = 61.83172 75.65002 68.74087
# Shear Modulus (GPa) = 5.97931 19.78059 12.87995
#
# Velocity S-wave (km/s) = 1.70834 3.10719 2.50729
# Velocity P-wave (km/s) = 5.83698 7.05666 6.47560
#
# Compressibility (1/GPa) = 0.01617293
#
# Stress axis : x y z
#
# Youngs Moduli (GPa) = 43.34789 113.36114 21.53149
#
# Poissons Ratio (x) = 0.02735 0.56370
# Poissons Ratio (y) = 0.01046 0.10032
# Poissons Ratio (z) = 1.13485 0.52819
#
# Static dielectric constant tensor:
#      x y z
#    x 3.607750 0.000000 0.000000 
#    y 0.000000 4.181720 0.000000 
#    z 0.000000 0.000000 3.375940 
# 
# 
# High freq. dielectric constant tensor:
#      x y z
#    x 1.794170 0.000000 0.000000 
#    y 0.000000 1.807290 0.000000 
#    z 0.000000 0.000000 1.766290 
# 
# From -- ./inp_files/18850.got.cif
#   From: 2010.06.25/outbox.cif.g09.slc.cpg/sg52_10_cif.got.tgz:18850.got - 2010.06.26 19:32:48.
