data_PCOD8216603
_publ_section_title
;
Structure prediction by ZEFSAII (Michael W. Deem and Ramdas Pophale) SiO2 
 PCOD8216603
Probable space group: P N N A
;
_chemical_formula_sum "Si O2"
_cell_formula_units_Z 48
_cell_length_a 16.125727
_cell_length_b 9.145117
_cell_length_c 15.504824
_cell_angle_alpha 90.000000
_cell_angle_beta 90.000000
_cell_angle_gamma 90.000000
_cell_volume 2286.522135
_symmetry_space_group_name_H-M "P N N A"
_symmetry_group_IT_number 52
_symmetry_cell_setting 'orthorhombic'
loop_
_space_group_symop_operation_xyz
x,y,z
1/2-x,-y,z
x,1/2-y,1/2-z
1/2-x,1/2+y,1/2-z
-x,-y,-z
1/2+x,y,-z
-x,1/2+y,1/2+z
1/2+x,1/2-y,1/2+z
loop_
_atom_site_type_symbol
_atom_site_label
_atom_site_fract_x
_atom_site_fract_y
_atom_site_fract_z
Si Si1 0.409173 0.835140 0.642954
Si Si2 0.846790 0.964320 0.189345
Si Si3 0.096252 0.362757 0.054552
Si Si4 0.258207 0.832792 0.329570
Si Si5 0.085679 0.690612 0.105269
Si Si6 0.958514 0.367896 0.447660
O O1 0.348067 0.697816 0.650094
O O2 0.402503 0.897558 0.546973
O O3 0.501789 0.766011 0.656385
O O4 0.385973 0.959045 0.713627
O O5 0.899801 0.077504 0.130583
O O6 0.750000 0.000000 0.193913
O O7 0.187160 0.310563 0.084685
O O8 0.075560 0.515915 0.098251
O O9 0.031507 0.239276 0.085874
O O10 0.301264 0.750000 0.250000
O O11 0.167383 0.763269 0.343302
O O12 0.250000 0.000000 0.303621
O O13 0.095440 0.771535 0.013619
O O14 0.000000 0.500000 0.500000
#
# Coordination Sequence:
#
# PCOD8216603 Si02
#       6
#     8   8   8   8   8   8
#     4  10  22  45  63  87 135 169 214 271 327 388
#     4  11  25  41  62  98 129 167 226 278 326 385
#     4  10  22  44  64  96 133 175 213 265 334 401
#     4  10  24  41  64  98 130 166 218 269 326 392
#     4  10  22  41  68  90 127 178 210 259 339 394
#     4  11  21  38  67  95 123 169 224 267 326 385
#
# _framework density 20.99258
#
# number of rings (size 3 to 8) (size 9 to 14) (size 15 to 20)
#    0.000    1.667    3.333    2.000    4.667    6.000 
#    9.000    0.000    0.000    0.000    0.000    0.000 
#    0.000    0.000    0.000    0.000    0.000    0.000 
#
# Total GULP energy -594877.275069 kJ/mol
# GULP energy per Si atom -12393.276564 kJ/mol
# Density = 2.094480 g / cm^3
# Si number density = 20.992580 Si / 1000 Ang^3
#
#
#
# Elastic Constant Matrix: (Units=GPa)
#
#
# Indices 1 2 3 4 5 6 
#
# 1 131.2803 34.7673 68.4817 0.0000 0.0000 0.0000
# 2 34.7673 77.9327 27.9905 0.0000 0.0000 0.0000
# 3 68.4817 27.9905 113.0222 0.0000 0.0000 0.0000
# 4 0.0000 0.0000 0.0000 40.0238 0.0000 0.0000
# 5 0.0000 0.0000 0.0000 0.0000 26.7201 0.0000
# 6 0.0000 0.0000 0.0000 0.0000 0.0000 26.8507
#
#
#
# Elastic Compliance Matrix: (Units=1/GPa)
#
#
# Indices 1 2 3 4 5 6 
#
# 1 0.011721 -0.002940 -0.006374 0.000000 0.000000 0.000000
# 2 -0.002940 0.014822 -0.001889 0.000000 0.000000 0.000000
# 3 -0.006374 -0.001889 0.013178 0.000000 0.000000 0.000000
# 4 0.000000 0.000000 0.000000 0.024985 0.000000 0.000000
# 5 0.000000 0.000000 0.000000 0.000000 0.037425 0.000000
# 6 0.000000 0.000000 0.000000 0.000000 0.000000 0.037243
#
#
# Mechanical properties :
#
#
# Convention : Reuss Voigt Hill
#
# Bulk Modulus (GPa) = 57.75558 64.96824 61.36191
# Shear Modulus (GPa) = 29.84183 31.45195 30.64689
#
# Velocity S-wave (km/s) = 3.77442 3.87491 3.82500
# Velocity P-wave (km/s) = 6.82401 7.14390 6.98579
#
# Compressibility (1/GPa) = 0.01731434
#
# Stress axis : x y z
#
# Youngs Moduli (GPa) = 85.32002 67.46895 75.88607
#
# Poissons Ratio (x) = 0.19833 0.48367
# Poissons Ratio (y) = 0.25081 0.14339
# Poissons Ratio (z) = 0.54380 0.12748
#
# Static dielectric constant tensor:
#      x y z
#    x 4.032730 0.000000 0.000000 
#    y 0.000000 3.814770 0.000000 
#    z 0.000000 0.000000 3.772440 
# 
# 
# High freq. dielectric constant tensor:
#      x y z
#    x 1.828900 0.000000 0.000000 
#    y 0.000000 1.819990 0.000000 
#    z 0.000000 0.000000 1.819870 
# 
# From -- ./inp_files/28097.got.cif
#   From: 2010.06.25/outbox.cif.g09.slc.cpg/sg52_15_cif.got.tgz:28097.got - 2010.06.26 19:32:48.
