data_PCOD8216734
_publ_section_title
;
Structure prediction by ZEFSAII (Michael W. Deem and Ramdas Pophale) SiO2 
 PCOD8216734
Probable space group: P N N A
;
_chemical_formula_sum "Si O2"
_cell_formula_units_Z 28
_cell_length_a 4.823546
_cell_length_b 14.788510
_cell_length_c 16.671638
_cell_angle_alpha 90.000000
_cell_angle_beta 90.000000
_cell_angle_gamma 90.000000
_cell_volume 1189.238925
_symmetry_space_group_name_H-M "P N N A"
_symmetry_group_IT_number 52
_symmetry_cell_setting 'orthorhombic'
loop_
_space_group_symop_operation_xyz
x,y,z
1/2-x,-y,z
x,1/2-y,1/2-z
1/2-x,1/2+y,1/2-z
-x,-y,-z
1/2+x,y,-z
-x,1/2+y,1/2+z
1/2+x,1/2-y,1/2+z
loop_
_atom_site_type_symbol
_atom_site_label
_atom_site_fract_x
_atom_site_fract_y
_atom_site_fract_z
Si Si1 0.116072 0.590288 0.313221
Si Si2 0.884361 0.375718 0.054106
Si Si3 0.878125 0.207622 0.166298
Si Si4 0.250000 0.000000 0.339836
O O1 0.250000 0.500000 0.354586
O O2 0.309333 0.675698 0.327040
O O3 0.091812 0.572972 0.216968
O O4 0.819476 0.619896 0.350067
O O5 0.000061 0.453470 0.111844
O O6 0.890389 0.277378 0.093500
O O7 0.063943 0.386575 0.971971
O O8 0.772928 0.250000 0.250000
#
# Coordination Sequence:
#
# PCOD8216734 Si02
#       4
#     8   8   8   4
#     4  10  23  38  70 100 126 169 238 288 336 378
#     4  12  27  43  66 101 147 184 214 274 355 427
#     4  12  22  42  68  95 135 181 234 282 326 413
#     4  10  24  44  68 106 138 180 220 286 354 410
#
# _framework density 23.544471000000001
#
# number of rings (size 3 to 8) (size 9 to 14) (size 15 to 20)
#    0.857    0.000    2.857    4.286    4.000    2.286 
#    0.000    0.000    0.000   17.143    0.000    0.000 
#    0.000    0.000    0.000    0.000    0.000    0.000 
#
# Total GULP energy -347030.208640 kJ/mol
# GULP energy per Si atom -12393.936023 kJ/mol
# Density = 2.349088 g / cm^3
# Si number density = 23.544471 Si / 1000 Ang^3
#
#
#
# Elastic Constant Matrix: (Units=GPa)
#
#
# Indices 1 2 3 4 5 6 
#
# 1 81.7701 18.2660 16.0352 0.0000 0.0000 0.0000
# 2 18.2660 95.6023 30.8405 0.0000 0.0000 0.0000
# 3 16.0352 30.8405 51.0450 0.0000 0.0000 0.0000
# 4 0.0000 0.0000 0.0000 45.5656 0.0000 0.0000
# 5 0.0000 0.0000 0.0000 0.0000 14.9939 0.0000
# 6 0.0000 0.0000 0.0000 0.0000 0.0000 55.5379
#
#
#
# Elastic Compliance Matrix: (Units=1/GPa)
#
#
# Indices 1 2 3 4 5 6 
#
# 1 0.013197 -0.001471 -0.003257 0.000000 0.000000 0.000000
# 2 -0.001471 0.013156 -0.007487 0.000000 0.000000 0.000000
# 3 -0.003257 -0.007487 0.025137 0.000000 0.000000 0.000000
# 4 0.000000 0.000000 0.000000 0.021946 0.000000 0.000000
# 5 0.000000 0.000000 0.000000 0.000000 0.066694 0.000000
# 6 0.000000 0.000000 0.000000 0.000000 0.000000 0.018006
#
#
# Mechanical properties :
#
#
# Convention : Reuss Voigt Hill
#
# Bulk Modulus (GPa) = 36.95355 39.85565 38.40460
# Shear Modulus (GPa) = 26.09810 34.10452 30.10131
#
# Velocity S-wave (km/s) = 3.33297 3.81007 3.57947
# Velocity P-wave (km/s) = 5.52638 6.02661 5.78191
#
# Compressibility (1/GPa) = 0.02706100
#
# Stress axis : x y z
#
# Youngs Moduli (GPa) = 75.77684 76.01007 39.78193
#
# Poissons Ratio (x) = 0.11179 0.12957
# Poissons Ratio (y) = 0.11145 0.29784
# Poissons Ratio (z) = 0.24681 0.56907
#
# Static dielectric constant tensor:
#      x y z
#    x 4.137120 0.000000 0.000000 
#    y 0.000000 4.318150 0.000000 
#    z 0.000000 0.000000 3.884910 
# 
# 
# High freq. dielectric constant tensor:
#      x y z
#    x 1.946580 0.000000 0.000000 
#    y 0.000000 1.947480 0.000000 
#    z 0.000000 0.000000 1.891030 
# 
# From -- ./inp_files/29980.got.cif
#   From: 2010.06.25/outbox.cif.g09.slc.cpg/sg52_15_cif.got.tgz:29980.got - 2010.06.26 19:32:48.
