data_PCOD8216254
_publ_section_title
;
Structure prediction by ZEFSAII (Michael W. Deem and Ramdas Pophale) SiO2 
 PCOD8216254
Probable space group: P N N A
;
_chemical_formula_sum "Si O2"
_cell_formula_units_Z 48
_cell_length_a 18.236091
_cell_length_b 23.651715
_cell_length_c 5.158969
_cell_angle_alpha 90.000000
_cell_angle_beta 90.000000
_cell_angle_gamma 90.000000
_cell_volume 2225.139822
_symmetry_space_group_name_H-M "P N N A"
_symmetry_group_IT_number 52
_symmetry_cell_setting 'orthorhombic'
loop_
_space_group_symop_operation_xyz
x,y,z
1/2-x,-y,z
x,1/2-y,1/2-z
1/2-x,1/2+y,1/2-z
-x,-y,-z
1/2+x,y,-z
-x,1/2+y,1/2+z
1/2+x,1/2-y,1/2+z
loop_
_atom_site_type_symbol
_atom_site_label
_atom_site_fract_x
_atom_site_fract_y
_atom_site_fract_z
Si Si1 0.921380 0.313452 0.228403
Si Si2 0.230042 0.435717 0.150010
Si Si3 0.513797 0.314543 0.269205
Si Si4 0.949000 0.028458 0.204874
Si Si5 0.428372 0.582597 0.009383
Si Si6 0.189458 0.595959 0.633679
O O1 0.895257 0.250000 0.250000
O O2 0.985449 0.326621 0.440628
O O3 0.846319 0.346105 0.275503
O O4 0.948521 0.322525 0.935507
O O5 0.250000 0.500000 0.227631
O O6 0.145108 0.416700 0.181423
O O7 0.269326 0.395997 0.361826
O O8 0.255782 0.425060 0.856856
O O9 0.546635 0.250000 0.250000
O O10 0.572195 0.364226 0.191904
O O11 0.875846 0.051906 0.076787
O O12 0.993981 0.081443 0.332574
O O13 0.923240 0.980384 0.398109
O O14 0.000000 0.000000 0.000000
#
# Coordination Sequence:
#
# PCOD8216254 Si02
#       6
#     8   8   8   8   8   8
#     4  10  21  40  67  96 125 163 223 277 325 385
#     4  12  26  42  60  93 140 177 210 265 346 404
#     4  10  21  39  66  96 127 164 216 282 333 384
#     4  11  23  38  67  94 128 167 227 278 323 396
#     4  11  24  40  62 100 130 174 219 279 333 400
#     4  12  24  42  64  94 129 171 218 263 331 404
#
# _framework density 21.571677000000001
#
# number of rings (size 3 to 8) (size 9 to 14) (size 15 to 20)
#    0.000    1.000    3.333    3.500    4.667    0.000 
#    0.000    0.833    0.000    0.000    0.000    0.000 
#    0.000    0.000    0.000    0.000    0.000    0.000 
#
# Total GULP energy -594936.376389 kJ/mol
# GULP energy per Si atom -12394.507841 kJ/mol
# Density = 2.152258 g / cm^3
# Si number density = 21.571677 Si / 1000 Ang^3
#
#
#
# Elastic Constant Matrix: (Units=GPa)
#
#
# Indices 1 2 3 4 5 6 
#
# 1 111.3963 31.1442 24.4387 0.0000 0.0000 0.0000
# 2 31.1442 107.8667 10.6438 0.0000 0.0000 0.0000
# 3 24.4387 10.6438 86.7304 0.0000 0.0000 0.0000
# 4 0.0000 0.0000 0.0000 33.0285 0.0000 0.0000
# 5 0.0000 0.0000 0.0000 0.0000 36.7438 0.0000
# 6 0.0000 0.0000 0.0000 0.0000 0.0000 23.9316
#
#
#
# Elastic Compliance Matrix: (Units=1/GPa)
#
#
# Indices 1 2 3 4 5 6 
#
# 1 0.010301 -0.002721 -0.002569 0.000000 0.000000 0.000000
# 2 -0.002721 0.010103 -0.000473 0.000000 0.000000 0.000000
# 3 -0.002569 -0.000473 0.012312 0.000000 0.000000 0.000000
# 4 0.000000 0.000000 0.000000 0.030277 0.000000 0.000000
# 5 0.000000 0.000000 0.000000 0.000000 0.027215 0.000000
# 6 0.000000 0.000000 0.000000 0.000000 0.000000 0.041786
#
#
# Mechanical properties :
#
#
# Convention : Reuss Voigt Hill
#
# Bulk Modulus (GPa) = 47.19083 48.71631 47.95357
# Shear Modulus (GPa) = 33.20426 34.72523 33.96474
#
# Velocity S-wave (km/s) = 3.92759 4.01653 3.97231
# Velocity P-wave (km/s) = 6.51857 6.64399 6.58157
#
# Compressibility (1/GPa) = 0.02119056
#
# Stress axis : x y z
#
# Youngs Moduli (GPa) = 97.07628 98.98089 81.22241
#
# Poissons Ratio (x) = 0.26930 0.20864
# Poissons Ratio (y) = 0.26412 0.03844
# Poissons Ratio (z) = 0.24936 0.04684
#
# Static dielectric constant tensor:
#      x y z
#    x 3.798230 0.000000 0.000000 
#    y 0.000000 4.309060 0.000000 
#    z 0.000000 0.000000 3.900720 
# 
# 
# High freq. dielectric constant tensor:
#      x y z
#    x 1.827780 0.000000 0.000000 
#    y 0.000000 1.855980 0.000000 
#    z 0.000000 0.000000 1.854630 
# 
# From -- ./inp_files/3430.got.cif
#   From: 2010.06.25/outbox.cif.g09.slc.cpg/sg52_2_cif.got.tgz:3430.got - 2010.06.26 19:32:48.
