data_PCOD8216666
_publ_section_title
;
Structure prediction by ZEFSAII (Michael W. Deem and Ramdas Pophale) SiO2 
 PCOD8216666
Probable space group: P N N A
;
_chemical_formula_sum "Si O2"
_cell_formula_units_Z 64
_cell_length_a 14.048247
_cell_length_b 24.994204
_cell_length_c 8.650578
_cell_angle_alpha 90.000000
_cell_angle_beta 90.000000
_cell_angle_gamma 90.000000
_cell_volume 3037.432049
_symmetry_space_group_name_H-M "P N N A"
_symmetry_group_IT_number 52
_symmetry_cell_setting 'orthorhombic'
loop_
_space_group_symop_operation_xyz
x,y,z
1/2-x,-y,z
x,1/2-y,1/2-z
1/2-x,1/2+y,1/2-z
-x,-y,-z
1/2+x,y,-z
-x,1/2+y,1/2+z
1/2+x,1/2-y,1/2+z
loop_
_atom_site_type_symbol
_atom_site_label
_atom_site_fract_x
_atom_site_fract_y
_atom_site_fract_z
Si Si1 0.965040 0.091816 0.602335
Si Si2 0.172655 0.191496 0.789264
Si Si3 0.043766 0.691816 0.297887
Si Si4 0.022517 0.497830 0.321169
Si Si5 0.820684 0.903870 0.438731
Si Si6 0.358408 0.436373 0.799442
Si Si7 0.314888 0.129992 0.988812
Si Si8 0.709330 0.058314 0.764302
O O1 0.955068 0.153059 0.650691
O O2 0.897576 0.089389 0.455953
O O3 0.072048 0.074615 0.557824
O O4 0.934565 0.052668 0.745979
O O5 0.212921 0.250000 0.750000
O O6 0.183396 0.155253 0.635128
O O7 0.230619 0.167608 0.931013
O O8 0.065294 0.195916 0.853689
O O9 0.083164 0.750000 0.250000
O O10 0.108437 0.667782 0.431436
O O11 0.097373 0.449356 0.302773
O O12 0.000000 0.500000 0.500000
O O13 0.921591 0.488454 0.234254
O O14 0.754887 0.944264 0.333705
O O15 0.781275 0.903511 0.614370
O O16 0.370542 0.397750 0.652157
O O17 0.267624 0.084735 0.096504
O O18 0.750000 0.000000 0.726335
#
# Coordination Sequence:
#
# PCOD8216666 Si02
#       8
#     8   8   8   8   8   8   8   8
#     4  11  23  43  63  95 130 171 221 268 327 399
#     4   9  22  44  67  95 130 169 225 282 342 399
#     4  10  22  43  69  95 129 173 216 276 342 395
#     4  12  26  40  64  92 135 174 217 271 326 395
#     4  10  23  39  67  92 131 173 220 272 324 401
#     4  11  23  41  63  95 129 172 218 265 326 391
#     4  11  25  41  66  98 132 173 219 280 335 405
#     4  12  25  42  60  98 137 176 221 276 329 400
#
# _framework density 21.070429000000001
#
# number of rings (size 3 to 8) (size 9 to 14) (size 15 to 20)
#    0.000    1.250    1.250    4.125    8.750    3.000 
#    0.000    0.000    0.000    5.250    0.000    0.000 
#    0.000    0.000    0.000    0.000    0.000    0.000 
#
# Total GULP energy -793385.091487 kJ/mol
# GULP energy per Si atom -12396.642054 kJ/mol
# Density = 2.102247 g / cm^3
# Si number density = 21.070429 Si / 1000 Ang^3
#
#
#
# Elastic Constant Matrix: (Units=GPa)
#
#
# Indices 1 2 3 4 5 6 
#
# 1 98.2822 33.7079 44.2207 0.0000 0.0000 0.0000
# 2 33.7079 106.4186 51.2785 0.0000 0.0000 0.0000
# 3 44.2207 51.2785 143.3927 0.0000 0.0000 0.0000
# 4 0.0000 0.0000 0.0000 29.2529 0.0000 0.0000
# 5 0.0000 0.0000 0.0000 0.0000 38.1728 0.0000
# 6 0.0000 0.0000 0.0000 0.0000 0.0000 28.6216
#
#
#
# Elastic Compliance Matrix: (Units=1/GPa)
#
#
# Indices 1 2 3 4 5 6 
#
# 1 0.012344 -0.002508 -0.002910 0.000000 0.000000 0.000000
# 2 -0.002508 0.011863 -0.003469 0.000000 0.000000 0.000000
# 3 -0.002910 -0.003469 0.009112 0.000000 0.000000 0.000000
# 4 0.000000 0.000000 0.000000 0.034185 0.000000 0.000000
# 5 0.000000 0.000000 0.000000 0.000000 0.026197 0.000000
# 6 0.000000 0.000000 0.000000 0.000000 0.000000 0.034939
#
#
# Mechanical properties :
#
#
# Convention : Reuss Voigt Hill
#
# Bulk Modulus (GPa) = 64.32780 67.38974 65.85877
# Shear Modulus (GPa) = 32.98291 33.80188 33.39239
#
# Velocity S-wave (km/s) = 3.96076 4.00963 3.98527
# Velocity P-wave (km/s) = 7.17726 7.31360 7.24575
#
# Compressibility (1/GPa) = 0.01554538
#
# Stress axis : x y z
#
# Youngs Moduli (GPa) = 81.00969 84.29804 109.74847
#
# Poissons Ratio (x) = 0.21140 0.31937
# Poissons Ratio (y) = 0.20316 0.38070
# Poissons Ratio (z) = 0.23574 0.29241
#
# Static dielectric constant tensor:
#      x y z
#    x 4.271360 0.000000 0.000000 
#    y 0.000000 3.758710 0.000000 
#    z 0.000000 0.000000 3.779910 
# 
# 
# High freq. dielectric constant tensor:
#      x y z
#    x 1.851220 0.000000 0.000000 
#    y 0.000000 1.807980 0.000000 
#    z 0.000000 0.000000 1.827550 
# 
# From -- ./inp_files/11015.got.cif
#   From: 2010.06.25/outbox.cif.g09.slc.cpg/sg52_6_cif.got.tgz:11015.got - 2010.06.26 19:32:48.
