data_PCOD8216820
_publ_section_title
;
Structure prediction by ZEFSAII (Michael W. Deem and Ramdas Pophale) SiO2 
 PCOD8216820
Probable space group: P N N A
;
_chemical_formula_sum "Si O2"
_cell_formula_units_Z 36
_cell_length_a 20.854512
_cell_length_b 7.852060
_cell_length_c 9.190195
_cell_angle_alpha 90.000000
_cell_angle_beta 90.000000
_cell_angle_gamma 90.000000
_cell_volume 1504.902514
_symmetry_space_group_name_H-M "P N N A"
_symmetry_group_IT_number 52
_symmetry_cell_setting 'orthorhombic'
loop_
_space_group_symop_operation_xyz
x,y,z
1/2-x,-y,z
x,1/2-y,1/2-z
1/2-x,1/2+y,1/2-z
-x,-y,-z
1/2+x,y,-z
-x,1/2+y,1/2+z
1/2+x,1/2-y,1/2+z
loop_
_atom_site_type_symbol
_atom_site_label
_atom_site_fract_x
_atom_site_fract_y
_atom_site_fract_z
Si Si1 0.118403 0.422432 0.337088
Si Si2 0.711866 0.678561 0.097733
Si Si3 0.414847 0.396535 0.062974
Si Si4 0.953508 0.739852 0.080145
Si Si5 0.250000 0.500000 0.452209
O O1 0.129442 0.250000 0.250000
O O2 0.079940 0.553351 0.234054
O O3 0.080384 0.390892 0.488176
O O4 0.186558 0.513104 0.356383
O O5 0.750000 0.500000 0.109032
O O6 0.684447 0.750000 0.250000
O O7 0.653850 0.676445 0.982735
O O8 0.760334 0.826653 0.045106
O O9 0.470680 0.256535 0.039634
O O10 0.425068 0.558371 0.961847
O O11 0.937854 0.750000 0.250000
#
# Coordination Sequence:
#
# PCOD8216820 Si02
#       5
#     8   8   8   8   4
#     4  10  24  45  71 106 149 195 250 311 377 450
#     4  12  27  48  73 108 151 194 254 311 380 454
#     4  10  25  44  70 104 145 195 242 311 377 445
#     4  10  23  44  72 103 145 192 252 306 369 448
#     4  12  28  44  76 110 146 204 244 310 382 448
#
# _framework density 23.921814999999999
#
# number of rings (size 3 to 8) (size 9 to 14) (size 15 to 20)
#    0.000    1.333    1.111    2.667   10.889    7.111 
#    0.000    0.000    0.000    0.000    0.000    0.000 
#    0.000    0.000    0.000    0.000    0.000    0.000 
#
# Total GULP energy -446340.503000 kJ/mol
# GULP energy per Si atom -12398.347306 kJ/mol
# Density = 2.386737 g / cm^3
# Si number density = 23.921815 Si / 1000 Ang^3
#
#
#
# Elastic Constant Matrix: (Units=GPa)
#
#
# Indices 1 2 3 4 5 6 
#
# 1 137.7029 42.0239 57.4703 0.0000 0.0000 0.0000
# 2 42.0239 114.0559 34.8716 0.0000 0.0000 0.0000
# 3 57.4703 34.8716 164.1348 0.0000 0.0000 0.0000
# 4 0.0000 0.0000 0.0000 -3.5382 0.0000 0.0000
# 5 0.0000 0.0000 0.0000 0.0000 36.1351 0.0000
# 6 0.0000 0.0000 0.0000 0.0000 0.0000 33.3428
#
#
#
# Elastic Compliance Matrix: (Units=1/GPa)
#
#
# Indices 1 2 3 4 5 6 
#
# 1 0.009154 -0.002559 -0.002661 0.000000 0.000000 0.000000
# 2 -0.002559 0.010092 -0.001248 0.000000 0.000000 0.000000
# 3 -0.002661 -0.001248 0.007290 0.000000 0.000000 0.000000
# 4 0.000000 0.000000 0.000000 -0.282628 0.000000 0.000000
# 5 0.000000 0.000000 0.000000 0.000000 0.027674 0.000000
# 6 0.000000 0.000000 0.000000 0.000000 0.000000 0.029991
#
#
# Mechanical properties :
#
#
# Convention : Reuss Voigt Hill
#
# Bulk Modulus (GPa) = 73.53836 76.06945 74.80390
# Shear Modulus (GPa) = -27.63083 31.95645 2.16281
#
# Velocity S-wave (km/s) = -3.40229 3.65892 0.95188
# Velocity P-wave (km/s) = 3.92094 7.05113 5.70492
#
# Compressibility (1/GPa) = 0.01359835
#
# Stress axis : x y z
#
# Youngs Moduli (GPa) = 109.24549 99.08747 137.18179
#
# Poissons Ratio (x) = 0.25356 0.36510
# Poissons Ratio (y) = 0.27956 0.17122
# Poissons Ratio (z) = 0.29075 0.12367
#
# Static dielectric constant tensor:
#      x y z
#    x 4.182530 0.000000 0.000000 
#    y 0.000000 4.524190 0.000000 
#    z 0.000000 0.000000 4.387250 
# 
# 
# High freq. dielectric constant tensor:
#      x y z
#    x 1.945610 0.000000 0.000000 
#    y 0.000000 1.963450 0.000000 
#    z 0.000000 0.000000 1.954230 
# 
# From -- ./inp_files/12913.got.cif
#   From: 2010.06.25/outbox.cif.g09.slc.cpg/sg52_7_cif.got.tgz:12913.got - 2010.06.26 19:32:48.
