data_PCOD8216537
_publ_section_title
;
Structure prediction by ZEFSAII (Michael W. Deem and Ramdas Pophale) SiO2 
 PCOD8216537
Probable space group: P N N A
;
_chemical_formula_sum "Si O2"
_cell_formula_units_Z 64
_cell_length_a 8.999983
_cell_length_b 14.158169
_cell_length_c 25.081802
_cell_angle_alpha 90.000000
_cell_angle_beta 90.000000
_cell_angle_gamma 90.000000
_cell_volume 3196.005487
_symmetry_space_group_name_H-M "P N N A"
_symmetry_group_IT_number 52
_symmetry_cell_setting 'orthorhombic'
loop_
_space_group_symop_operation_xyz
x,y,z
1/2-x,-y,z
x,1/2-y,1/2-z
1/2-x,1/2+y,1/2-z
-x,-y,-z
1/2+x,y,-z
-x,1/2+y,1/2+z
1/2+x,1/2-y,1/2+z
loop_
_atom_site_type_symbol
_atom_site_label
_atom_site_fract_x
_atom_site_fract_y
_atom_site_fract_z
Si Si1 0.873042 0.831911 0.093968
Si Si2 0.414955 0.863640 0.370900
Si Si3 0.968276 0.168548 0.118206
Si Si4 0.581156 0.011429 0.178334
Si Si5 0.381201 0.927750 0.018323
Si Si6 0.911766 0.024525 0.715703
Si Si7 0.423882 0.008398 0.555652
Si Si8 0.427097 0.347848 0.121659
O O1 0.705691 0.806591 0.110827
O O2 0.937003 0.918476 0.128368
O O3 0.995825 0.751079 0.106156
O O4 0.852338 0.858654 0.031883
O O5 0.456902 0.758299 0.353768
O O6 0.246486 0.859607 0.393953
O O7 0.449111 0.935321 0.322467
O O8 0.524466 0.892176 0.419223
O O9 0.058392 0.139755 0.064992
O O10 0.991444 0.086568 0.160917
O O11 0.510089 0.044239 0.233087
O O12 0.750000 0.000000 0.193537
O O13 0.250000 0.000000 0.035749
O O14 0.500000 0.000000 0.000000
O O15 0.929061 0.124297 0.684339
O O16 0.750000 0.000000 0.737668
O O17 0.476837 0.924321 0.592094
O O18 0.250000 0.000000 0.548725
O O19 0.500000 0.000000 0.500000
#
# Coordination Sequence:
#
# PCOD8216537 Si02
#       8
#     8   8   8   8   8   8   8   8
#     4  11  23  41  60  91 126 163 208 256 303 370
#     4  10  23  41  62  90 123 160 205 253 308 366
#     4  11  24  40  61  92 125 163 210 252 306 370
#     4  10  22  40  63  88 122 162 206 256 309 365
#     4  12  23  42  63  87 128 168 204 253 309 363
#     4   9  21  43  63  87 121 158 202 259 310 365
#     4  11  22  40  62  87 120 160 204 252 304 363
#     4  10  23  41  63  89 124 160 204 254 307 365
#
# _framework density 20.024998
#
# number of rings (size 3 to 8) (size 9 to 14) (size 15 to 20)
#    0.000    1.500    2.500    3.000    3.500    5.500 
#    0.000    5.000    0.000    0.000    0.000    0.000 
#    0.000    0.000    0.000    0.000    0.000    0.000 
#
# Total GULP energy -792928.450122 kJ/mol
# GULP energy per Si atom -12389.507033 kJ/mol
# Density = 1.997942 g / cm^3
# Si number density = 20.024998 Si / 1000 Ang^3
#
#
#
# Elastic Constant Matrix: (Units=GPa)
#
#
# Indices 1 2 3 4 5 6 
#
# 1 116.9617 37.1018 35.7683 0.0000 0.0000 0.0000
# 2 37.1018 90.8822 15.5051 0.0000 0.0000 0.0000
# 3 35.7683 15.5051 82.5094 0.0000 0.0000 0.0000
# 4 0.0000 0.0000 0.0000 16.7971 0.0000 0.0000
# 5 0.0000 0.0000 0.0000 0.0000 28.6144 0.0000
# 6 0.0000 0.0000 0.0000 0.0000 0.0000 41.3231
#
#
#
# Elastic Compliance Matrix: (Units=1/GPa)
#
#
# Indices 1 2 3 4 5 6 
#
# 1 0.010993 -0.003797 -0.004052 0.000000 0.000000 0.000000
# 2 -0.003797 0.012679 -0.000737 0.000000 0.000000 0.000000
# 3 -0.004052 -0.000737 0.014015 0.000000 0.000000 0.000000
# 4 0.000000 0.000000 0.000000 0.059534 0.000000 0.000000
# 5 0.000000 0.000000 0.000000 0.000000 0.034947 0.000000
# 6 0.000000 0.000000 0.000000 0.000000 0.000000 0.024200
#
#
# Mechanical properties :
#
#
# Convention : Reuss Voigt Hill
#
# Bulk Modulus (GPa) = 48.74241 51.90040 50.32140
# Shear Modulus (GPa) = 27.71958 30.81214 29.26586
#
# Velocity S-wave (km/s) = 3.72459 3.92686 3.82706
# Velocity P-wave (km/s) = 6.54907 6.82161 6.68673
#
# Compressibility (1/GPa) = 0.02051602
#
# Stress axis : x y z
#
# Youngs Moduli (GPa) = 90.96408 78.87139 71.35238
#
# Poissons Ratio (x) = 0.29944 0.28914
# Poissons Ratio (y) = 0.34535 0.05257
# Poissons Ratio (z) = 0.36861 0.05811
#
# Static dielectric constant tensor:
#      x y z
#    x 3.948260 0.000000 0.000000 
#    y 0.000000 3.806190 0.000000 
#    z 0.000000 0.000000 3.479520 
# 
# 
# High freq. dielectric constant tensor:
#      x y z
#    x 1.795330 0.000000 0.000000 
#    y 0.000000 1.786060 0.000000 
#    z 0.000000 0.000000 1.777010 
# 
# From -- ./inp_files/39676.got.cif
#   From: 2010.06.25/outbox.cif.g09.slc.cpg/sg52_20_cif.got.tgz:39676.got - 2010.06.26 19:32:48.
