data_PCOD8216650
_publ_section_title
;
Structure prediction by ZEFSAII (Michael W. Deem and Ramdas Pophale) SiO2 
 PCOD8216650
Probable space group: P N N A
;
_chemical_formula_sum "Si O2"
_cell_formula_units_Z 36
_cell_length_a 18.931823
_cell_length_b 15.402602
_cell_length_c 5.210243
_cell_angle_alpha 90.000000
_cell_angle_beta 90.000000
_cell_angle_gamma 90.000000
_cell_volume 1519.303393
_symmetry_space_group_name_H-M "P N N A"
_symmetry_group_IT_number 52
_symmetry_cell_setting 'orthorhombic'
loop_
_space_group_symop_operation_xyz
x,y,z
1/2-x,-y,z
x,1/2-y,1/2-z
1/2-x,1/2+y,1/2-z
-x,-y,-z
1/2+x,y,-z
-x,1/2+y,1/2+z
1/2+x,1/2-y,1/2+z
loop_
_atom_site_type_symbol
_atom_site_label
_atom_site_fract_x
_atom_site_fract_y
_atom_site_fract_z
Si Si1 0.706282 0.153310 0.142246
Si Si2 0.417304 0.600146 0.959910
Si Si3 0.068397 0.568446 0.237113
Si Si4 0.364361 0.352923 0.735715
Si Si5 0.369866 0.750000 0.250000
O O1 0.702298 0.250000 0.250000
O O2 0.653385 0.087514 0.287966
O O3 0.785065 0.116522 0.164263
O O4 0.679681 0.170218 0.851346
O O5 0.484986 0.584052 0.783565
O O6 0.416415 0.534121 0.201872
O O7 0.420991 0.700933 0.050102
O O8 0.087457 0.603274 0.518342
O O9 0.112946 0.615655 0.015433
O O10 0.371708 0.250000 0.750000
#
# Coordination Sequence:
#
# PCOD8216650 Si02
#       5
#     8   8   8   8   4
#     4   9  22  42  67  98 136 184 235 284 346 428
#     4  10  25  45  68 102 141 187 236 286 355 423
#     4  11  27  45  71 105 145 179 236 301 348 416
#     4  11  26  45  71 103 142 186 234 293 358 415
#     4  10  22  42  72  94 138 188 236 282 348 434
#
# _framework density 23.695069
#
# number of rings (size 3 to 8) (size 9 to 14) (size 15 to 20)
#    0.000    1.778    0.000    0.667   17.111    6.222 
#    0.000    0.000    0.000    0.000    0.000    0.000 
#    0.000    0.000    0.000    0.000    0.000    0.000 
#
# Total GULP energy -446199.499495 kJ/mol
# GULP energy per Si atom -12394.430542 kJ/mol
# Density = 2.364114 g / cm^3
# Si number density = 23.695069 Si / 1000 Ang^3
#
#
#
# Elastic Constant Matrix: (Units=GPa)
#
#
# Indices 1 2 3 4 5 6 
#
# 1 116.7416 52.3524 8.6464 0.0000 0.0000 0.0000
# 2 52.3524 62.5838 10.7008 0.0000 0.0000 0.0000
# 3 8.6464 10.7008 57.2629 0.0000 0.0000 0.0000
# 4 0.0000 0.0000 0.0000 42.5070 0.0000 0.0000
# 5 0.0000 0.0000 0.0000 0.0000 25.6598 0.0000
# 6 0.0000 0.0000 0.0000 0.0000 0.0000 30.5553
#
#
#
# Elastic Compliance Matrix: (Units=1/GPa)
#
#
# Indices 1 2 3 4 5 6 
#
# 1 0.013709 -0.011480 0.000075 0.000000 0.000000 0.000000
# 2 -0.011480 0.026120 -0.003148 0.000000 0.000000 0.000000
# 3 0.000075 -0.003148 0.018040 0.000000 0.000000 0.000000
# 4 0.000000 0.000000 0.000000 0.023526 0.000000 0.000000
# 5 0.000000 0.000000 0.000000 0.000000 0.038971 0.000000
# 6 0.000000 0.000000 0.000000 0.000000 0.000000 0.032727
#
#
# Mechanical properties :
#
#
# Convention : Reuss Voigt Hill
#
# Bulk Modulus (GPa) = 34.76590 42.22082 38.49336
# Shear Modulus (GPa) = 26.07058 30.73702 28.40380
#
# Velocity S-wave (km/s) = 3.32061 3.60556 3.46601
# Velocity P-wave (km/s) = 5.42273 5.93216 5.68315
#
# Compressibility (1/GPa) = 0.02876382
#
# Stress axis : x y z
#
# Youngs Moduli (GPa) = 72.94631 38.28427 55.43194
#
# Poissons Ratio (x) = 0.43952 -0.00418
# Poissons Ratio (y) = 0.83746 0.17448
# Poissons Ratio (z) = -0.00550 0.12051
#
# Static dielectric constant tensor:
#      x y z
#    x 4.461370 0.000000 0.000000 
#    y 0.000000 4.280380 0.000000 
#    z 0.000000 0.000000 4.710640 
# 
# 
# High freq. dielectric constant tensor:
#      x y z
#    x 1.943560 0.000000 0.000000 
#    y 0.000000 1.940470 0.000000 
#    z 0.000000 0.000000 1.939870 
# 
# From -- ./inp_files/4087.got.cif
#   From: 2010.06.25/outbox.cif.g09.slc.cpg/sg52_3_cif.got.tgz:4087.got - 2010.06.26 19:32:48.
