data_PCOD8216013
_publ_section_title
;
Structure prediction by ZEFSAII (Michael W. Deem and Ramdas Pophale) SiO2 
 PCOD8216013
Probable space group: P N N A
;
_chemical_formula_sum "Si O2"
_cell_formula_units_Z 56
_cell_length_a 21.258348
_cell_length_b 14.978036
_cell_length_c 7.954657
_cell_angle_alpha 90.000000
_cell_angle_beta 90.000000
_cell_angle_gamma 90.000000
_cell_volume 2532.828826
_symmetry_space_group_name_H-M "P N N A"
_symmetry_group_IT_number 52
_symmetry_cell_setting 'orthorhombic'
loop_
_space_group_symop_operation_xyz
x,y,z
1/2-x,-y,z
x,1/2-y,1/2-z
1/2-x,1/2+y,1/2-z
-x,-y,-z
1/2+x,y,-z
-x,1/2+y,1/2+z
1/2+x,1/2-y,1/2+z
loop_
_atom_site_type_symbol
_atom_site_label
_atom_site_fract_x
_atom_site_fract_y
_atom_site_fract_z
Si Si1 0.083048 0.423592 0.948101
Si Si2 0.629136 0.603787 0.128122
Si Si3 0.997460 0.852589 0.750244
Si Si4 0.080975 0.401399 0.557645
Si Si5 0.828951 0.762638 0.437122
Si Si6 0.304774 0.237446 0.065007
Si Si7 0.684098 0.542530 0.443593
O O1 0.103737 0.525058 0.993859
O O2 0.058503 0.416331 0.752143
O O3 0.143877 0.360886 0.969589
O O4 0.029369 0.398530 0.080985
O O5 0.572460 0.639042 0.245490
O O6 0.681689 0.554996 0.242482
O O7 0.660478 0.687872 0.042340
O O8 0.975973 0.750000 0.750000
O O9 0.976215 0.900797 0.923974
O O10 0.114864 0.306549 0.535877
O O11 0.128637 0.477675 0.496275
O O12 0.801256 0.750000 0.250000
O O13 0.770624 0.747013 0.559904
O O14 0.329704 0.250000 0.250000
O O15 0.326684 0.139232 0.019717
O O16 0.750000 0.500000 0.498692
#
# Coordination Sequence:
#
# PCOD8216013 Si02
#       7
#     8   8   8   8   8   8   8
#     4  10  24  42  71 103 138 185 239 287 352 419
#     4  11  27  48  67 102 139 188 233 287 362 423
#     4  12  24  44  73 100 146 186 238 298 343 427
#     4  10  23  42  72 105 132 187 237 291 351 415
#     4  10  20  41  68  99 138 177 231 286 347 425
#     4  12  27  43  67 103 145 181 228 297 358 426
#     4  11  23  45  71  99 135 183 232 287 357 431
#
# _framework density 22.109665
#
# number of rings (size 3 to 8) (size 9 to 14) (size 15 to 20)
#    0.000    1.143    2.857    2.571    8.000    2.286 
#    5.143    0.000    0.000    0.000    0.000    0.000 
#    0.000    0.000    0.000    0.000    0.000    0.000 
#
# Total GULP energy -694322.045004 kJ/mol
# GULP energy per Si atom -12398.607947 kJ/mol
# Density = 2.205934 g / cm^3
# Si number density = 22.109665 Si / 1000 Ang^3
#
#
#
# Elastic Constant Matrix: (Units=GPa)
#
#
# Indices 1 2 3 4 5 6 
#
# 1 51.3732 -0.7523 18.4953 0.0000 0.0000 0.0000
# 2 -0.7523 117.4894 9.1262 0.0000 0.0000 0.0000
# 3 18.4953 9.1262 69.9727 0.0000 0.0000 0.0000
# 4 0.0000 0.0000 0.0000 26.3825 0.0000 0.0000
# 5 0.0000 0.0000 0.0000 0.0000 28.3953 0.0000
# 6 0.0000 0.0000 0.0000 0.0000 0.0000 61.6487
#
#
#
# Elastic Compliance Matrix: (Units=1/GPa)
#
#
# Indices 1 2 3 4 5 6 
#
# 1 0.021552 0.000586 -0.005773 0.000000 0.000000 0.000000
# 2 0.000586 0.008614 -0.001279 0.000000 0.000000 0.000000
# 3 -0.005773 -0.001279 0.015984 0.000000 0.000000 0.000000
# 4 0.000000 0.000000 0.000000 0.037904 0.000000 0.000000
# 5 0.000000 0.000000 0.000000 0.000000 0.035217 0.000000
# 6 0.000000 0.000000 0.000000 0.000000 0.000000 0.016221
#
#
# Mechanical properties :
#
#
# Convention : Reuss Voigt Hill
#
# Bulk Modulus (GPa) = 30.10212 32.50818 31.30515
# Shear Modulus (GPa) = 31.34853 37.41638 34.38246
#
# Velocity S-wave (km/s) = 3.76954 4.11823 3.94774
# Velocity P-wave (km/s) = 5.70880 6.11131 5.91348
#
# Compressibility (1/GPa) = 0.03322025
#
# Stress axis : x y z
#
# Youngs Moduli (GPa) = 46.39839 116.08373 62.56234
#
# Poissons Ratio (x) = -0.06808 0.36119
# Poissons Ratio (y) = -0.02721 0.07999
# Poissons Ratio (z) = 0.26787 0.14842
#
# Static dielectric constant tensor:
#      x y z
#    x 3.788300 0.000000 0.000000 
#    y 0.000000 4.202130 0.000000 
#    z 0.000000 0.000000 3.809820 
# 
# 
# High freq. dielectric constant tensor:
#      x y z
#    x 1.862430 0.000000 0.000000 
#    y 0.000000 1.897980 0.000000 
#    z 0.000000 0.000000 1.854350 
# 
# From -- ./inp_files/13465.got.cif
#   From: 2010.06.25/outbox.cif.g09.slc.cpg/sg52_7_cif.got.tgz:13465.got - 2010.06.26 19:32:48.
