data_PCOD8216598
_publ_section_title
;
Structure prediction by ZEFSAII (Michael W. Deem and Ramdas Pophale) SiO2 
 PCOD8216598
Probable space group: P N N A
;
_chemical_formula_sum "Si O2"
_cell_formula_units_Z 28
_cell_length_a 17.568067
_cell_length_b 11.882271
_cell_length_c 4.889706
_cell_angle_alpha 90.000000
_cell_angle_beta 90.000000
_cell_angle_gamma 90.000000
_cell_volume 1020.718954
_symmetry_space_group_name_H-M "P N N A"
_symmetry_group_IT_number 52
_symmetry_cell_setting 'orthorhombic'
loop_
_space_group_symop_operation_xyz
x,y,z
1/2-x,-y,z
x,1/2-y,1/2-z
1/2-x,1/2+y,1/2-z
-x,-y,-z
1/2+x,y,-z
-x,1/2+y,1/2+z
1/2+x,1/2-y,1/2+z
loop_
_atom_site_type_symbol
_atom_site_label
_atom_site_fract_x
_atom_site_fract_y
_atom_site_fract_z
Si Si1 0.365013 0.671627 0.505199
Si Si2 0.750000 0.000000 0.103277
Si Si3 0.989110 0.382248 0.765808
Si Si4 0.106214 0.617328 0.727792
O O1 0.335833 0.750000 0.750000
O O2 0.292851 0.594414 0.416988
O O3 0.429774 0.581453 0.625889
O O4 0.393208 0.750000 0.250000
O O5 0.686353 0.941987 0.297808
O O6 0.006202 0.250000 0.750000
O O7 0.034884 0.577815 0.926658
O O8 0.916728 0.411637 0.582505
O O9 0.117724 0.750000 0.750000
#
# Coordination Sequence:
#
# PCOD8216598 Si02
#       4
#     8   4   8   8
#     4  11  25  46  71 102 141 185 236 292 349 416
#     4  12  28  42  68 106 148 186 222 286 368 430
#     4   9  19  41  69  92 127 180 234 285 333 397
#     4  10  22  41  66  97 134 179 231 283 340 409
#
# _framework density 27.431643999999999
#
# number of rings (size 3 to 8) (size 9 to 14) (size 15 to 20)
#    0.000    1.714    0.000    5.143    0.000   12.571 
#    0.000    0.000    0.000    5.143    0.000    0.000 
#    0.000    0.000    0.000    0.000    0.000    0.000 
#
# Total GULP energy -346932.401802 kJ/mol
# GULP energy per Si atom -12390.442921 kJ/mol
# Density = 2.736921 g / cm^3
# Si number density = 27.431644 Si / 1000 Ang^3
#
#
#
# Elastic Constant Matrix: (Units=GPa)
#
#
# Indices 1 2 3 4 5 6 
#
# 1 186.4457 38.6963 30.4776 0.0000 0.0000 0.0000
# 2 38.6963 51.9852 -0.6162 0.0000 0.0000 0.0000
# 3 30.4776 -0.6162 129.6702 0.0000 0.0000 0.0000
# 4 0.0000 0.0000 0.0000 10.3625 0.0000 0.0000
# 5 0.0000 0.0000 0.0000 0.0000 33.9919 0.0000
# 6 0.0000 0.0000 0.0000 0.0000 0.0000 47.2704
#
#
#
# Elastic Compliance Matrix: (Units=1/GPa)
#
#
# Indices 1 2 3 4 5 6 
#
# 1 0.006655 -0.004973 -0.001588 0.000000 0.000000 0.000000
# 2 -0.004973 0.022953 0.001278 0.000000 0.000000 0.000000
# 3 -0.001588 0.001278 0.008091 0.000000 0.000000 0.000000
# 4 0.000000 0.000000 0.000000 0.096502 0.000000 0.000000
# 5 0.000000 0.000000 0.000000 0.000000 0.029419 0.000000
# 6 0.000000 0.000000 0.000000 0.000000 0.000000 0.021155
#
#
# Mechanical properties :
#
#
# Convention : Reuss Voigt Hill
#
# Bulk Modulus (GPa) = 36.85440 56.13516 46.49478
# Shear Modulus (GPa) = 24.46370 38.29454 31.37912
#
# Velocity S-wave (km/s) = 2.98955 3.74036 3.38583
# Velocity P-wave (km/s) = 5.03793 6.25794 5.68078
#
# Compressibility (1/GPa) = 0.02713380
#
# Stress axis : x y z
#
# Youngs Moduli (GPa) = 150.26017 43.56744 123.59181
#
# Poissons Ratio (x) = 0.21665 0.19624
# Poissons Ratio (y) = 0.74720 -0.15793
# Poissons Ratio (z) = 0.23859 -0.05567
#
# Static dielectric constant tensor:
#      x y z
#    x 5.020410 0.000000 0.000000 
#    y 0.000000 5.837550 0.000000 
#    z 0.000000 0.000000 4.720870 
# 
# 
# High freq. dielectric constant tensor:
#      x y z
#    x 2.104950 0.000000 0.000000 
#    y 0.000000 2.170830 0.000000 
#    z 0.000000 0.000000 2.070350 
# 
# From -- ./inp_files/4763.got.cif
#   From: 2010.06.25/outbox.cif.g09.slc.cpg/sg52_3_cif.got.tgz:4763.got - 2010.06.26 19:32:48.
