data_PCOD8216791
_publ_section_title
;
Structure prediction by ZEFSAII (Michael W. Deem and Ramdas Pophale) SiO2 
 PCOD8216791
Probable space group: P N N A
;
_chemical_formula_sum "Si O2"
_cell_formula_units_Z 48
_cell_length_a 9.010471
_cell_length_b 13.480960
_cell_length_c 17.786293
_cell_angle_alpha 90.000000
_cell_angle_beta 90.000000
_cell_angle_gamma 90.000000
_cell_volume 2160.497438
_symmetry_space_group_name_H-M "P N N A"
_symmetry_group_IT_number 52
_symmetry_cell_setting 'orthorhombic'
loop_
_space_group_symop_operation_xyz
x,y,z
1/2-x,-y,z
x,1/2-y,1/2-z
1/2-x,1/2+y,1/2-z
-x,-y,-z
1/2+x,y,-z
-x,1/2+y,1/2+z
1/2+x,1/2-y,1/2+z
loop_
_atom_site_type_symbol
_atom_site_label
_atom_site_fract_x
_atom_site_fract_y
_atom_site_fract_z
Si Si1 0.428243 0.289507 0.053548
Si Si2 0.750000 0.500000 0.491034
Si Si3 0.906813 0.032185 0.224350
Si Si4 0.996076 0.750000 0.750000
Si Si5 0.590332 0.314943 0.911945
Si Si6 0.011981 0.586785 0.403911
Si Si7 0.919757 0.514782 0.108645
O O1 0.255349 0.314541 0.055610
O O2 0.472511 0.203968 0.114020
O O3 0.523082 0.385586 0.072223
O O4 0.481234 0.254364 0.968995
O O5 0.646825 0.428964 0.442101
O O6 0.850542 0.429233 0.541076
O O7 0.908019 0.151416 0.233521
O O8 0.750000 0.000000 0.189244
O O9 0.928593 0.974902 0.301868
O O10 0.030188 0.986997 0.167639
O O11 0.903923 0.729467 0.826728
O O12 0.527653 0.426245 0.915113
O O13 0.750000 0.500000 0.082013
#
# Coordination Sequence:
#
# PCOD8216791 Si02
#       7
#     8   4   8   4   8   8   8
#     4  12  25  41  70 105 133 181 229 285 348 410
#     4  10  24  42  60  96 140 168 226 288 342 410
#     4  10  23  43  67  96 134 180 223 286 341 416
#     4  10  26  46  70  98 138 184 230 278 350 404
#     4  11  25  45  70 101 140 183 230 286 342 412
#     4  11  24  41  66  97 133 177 226 284 345 415
#     4  10  23  45  67  99 138 184 231 287 338 407
#
# _framework density 22.217106999999999
#
# number of rings (size 3 to 8) (size 9 to 14) (size 15 to 20)
#    0.000    1.333    0.833    3.000    7.000    7.333 
#    3.000    0.000    0.000    1.000    0.000    0.000 
#    0.000    0.000    0.000    0.000    0.000    0.000 
#
# Total GULP energy -594942.748939 kJ/mol
# GULP energy per Si atom -12394.640603 kJ/mol
# Density = 2.216654 g / cm^3
# Si number density = 22.217107 Si / 1000 Ang^3
#
#
#
# Elastic Constant Matrix: (Units=GPa)
#
#
# Indices 1 2 3 4 5 6 
#
# 1 167.5698 50.8472 55.9666 0.0000 0.0000 0.0000
# 2 50.8472 121.8622 47.9782 0.0000 0.0000 0.0000
# 3 55.9666 47.9782 114.4494 0.0000 0.0000 0.0000
# 4 0.0000 0.0000 0.0000 26.6328 0.0000 0.0000
# 5 0.0000 0.0000 0.0000 0.0000 42.3814 0.0000
# 6 0.0000 0.0000 0.0000 0.0000 0.0000 26.4597
#
#
#
# Elastic Compliance Matrix: (Units=1/GPa)
#
#
# Indices 1 2 3 4 5 6 
#
# 1 0.007528 -0.002026 -0.002832 0.000000 0.000000 0.000000
# 2 -0.002026 0.010373 -0.003358 0.000000 0.000000 0.000000
# 3 -0.002832 -0.003358 0.011530 0.000000 0.000000 0.000000
# 4 0.000000 0.000000 0.000000 0.037548 0.000000 0.000000
# 5 0.000000 0.000000 0.000000 0.000000 0.023595 0.000000
# 6 0.000000 0.000000 0.000000 0.000000 0.000000 0.037793
#
#
# Mechanical properties :
#
#
# Convention : Reuss Voigt Hill
#
# Bulk Modulus (GPa) = 76.92486 79.27394 78.09940
# Shear Modulus (GPa) = 33.52704 35.70074 34.61389
#
# Velocity S-wave (km/s) = 3.88888 4.01297 3.95141
# Velocity P-wave (km/s) = 7.40701 7.56511 7.48648
#
# Compressibility (1/GPa) = 0.01299970
#
# Stress axis : x y z
#
# Youngs Moduli (GPa) = 132.83095 96.40016 86.73047
#
# Poissons Ratio (x) = 0.19533 0.24562
# Poissons Ratio (y) = 0.26915 0.29122
# Poissons Ratio (z) = 0.37618 0.32369
#
# Static dielectric constant tensor:
#      x y z
#    x 3.984870 0.000000 0.000000 
#    y 0.000000 4.066630 0.000000 
#    z 0.000000 0.000000 4.422860 
# 
# 
# High freq. dielectric constant tensor:
#      x y z
#    x 1.870750 0.000000 0.000000 
#    y 0.000000 1.880640 0.000000 
#    z 0.000000 0.000000 1.885150 
# 
# From -- ./inp_files/31272.got.cif
#   From: 2010.06.25/outbox.cif.g09.slc.cpg/sg52_16_cif.got.tgz:31272.got - 2010.06.26 19:32:48.
