data_PCOD8216257
_publ_section_title
;
Structure prediction by ZEFSAII (Michael W. Deem and Ramdas Pophale) SiO2 
 PCOD8216257
Probable space group: P N N A
;
_chemical_formula_sum "Si O2"
_cell_formula_units_Z 48
_cell_length_a 15.231477
_cell_length_b 17.307304
_cell_length_c 8.751005
_cell_angle_alpha 90.000000
_cell_angle_beta 90.000000
_cell_angle_gamma 90.000000
_cell_volume 2306.903208
_symmetry_space_group_name_H-M "P N N A"
_symmetry_group_IT_number 52
_symmetry_cell_setting 'orthorhombic'
loop_
_space_group_symop_operation_xyz
x,y,z
1/2-x,-y,z
x,1/2-y,1/2-z
1/2-x,1/2+y,1/2-z
-x,-y,-z
1/2+x,y,-z
-x,1/2+y,1/2+z
1/2+x,1/2-y,1/2+z
loop_
_atom_site_type_symbol
_atom_site_label
_atom_site_fract_x
_atom_site_fract_y
_atom_site_fract_z
Si Si1 0.710859 0.838026 0.812978
Si Si2 0.272696 0.085539 0.871882
Si Si3 0.865239 0.670322 0.188625
Si Si4 0.975051 0.095255 0.829905
Si Si5 0.031400 0.574063 0.685399
Si Si6 0.116549 0.168029 0.330809
O O1 0.699895 0.750000 0.750000
O O2 0.623356 0.885984 0.773931
O O3 0.796749 0.876156 0.733533
O O4 0.726646 0.848742 0.995615
O O5 0.199836 0.103112 0.744445
O O6 0.365560 0.084755 0.783700
O O7 0.250000 0.000000 0.940149
O O8 0.825749 0.750000 0.250000
O O9 0.961775 0.659038 0.258280
O O10 0.871712 0.674933 0.009111
O O11 0.988528 0.097054 0.011493
O O12 0.001422 0.011516 0.769585
O O13 0.975428 0.627546 0.796961
O O14 0.114303 0.250000 0.250000
#
# Coordination Sequence:
#
# PCOD8216257 Si02
#       6
#     8   8   8   8   8   8
#     4  10  22  40  65  97 131 169 220 269 324 391
#     4  11  23  44  70  97 132 175 224 271 332 399
#     4  12  24  42  68  93 132 176 218 272 325 393
#     4  10  21  39  67  96 127 172 217 260 328 390
#     4  10  22  41  67  97 130 171 215 270 326 395
#     4  11  25  42  63  97 135 170 219 272 328 389
#
# _framework density 20.807115
#
# number of rings (size 3 to 8) (size 9 to 14) (size 15 to 20)
#    0.000    1.333    1.667    4.500    4.667    4.000 
#    3.000    0.000    0.000    0.000    0.000    0.000 
#    0.000    0.000    0.000    0.000    0.000    0.000 
#
# Total GULP energy -595096.098161 kJ/mol
# GULP energy per Si atom -12397.835378 kJ/mol
# Density = 2.075976 g / cm^3
# Si number density = 20.807115 Si / 1000 Ang^3
#
#
#
# Elastic Constant Matrix: (Units=GPa)
#
#
# Indices 1 2 3 4 5 6 
#
# 1 160.4831 36.9838 47.8055 0.0000 0.0000 0.0000
# 2 36.9838 89.6645 51.5130 0.0000 0.0000 0.0000
# 3 47.8055 51.5130 102.4770 0.0000 0.0000 0.0000
# 4 0.0000 0.0000 0.0000 29.9858 0.0000 0.0000
# 5 0.0000 0.0000 0.0000 0.0000 23.9255 0.0000
# 6 0.0000 0.0000 0.0000 0.0000 0.0000 35.1371
#
#
#
# Elastic Compliance Matrix: (Units=1/GPa)
#
#
# Indices 1 2 3 4 5 6 
#
# 1 0.007377 -0.001498 -0.002688 0.000000 0.000000 0.000000
# 2 -0.001498 0.015986 -0.007337 0.000000 0.000000 0.000000
# 3 -0.002688 -0.007337 0.014700 0.000000 0.000000 0.000000
# 4 0.000000 0.000000 0.000000 0.033349 0.000000 0.000000
# 5 0.000000 0.000000 0.000000 0.000000 0.041796 0.000000
# 6 0.000000 0.000000 0.000000 0.000000 0.000000 0.028460
#
#
# Mechanical properties :
#
#
# Convention : Reuss Voigt Hill
#
# Bulk Modulus (GPa) = 66.59295 69.46990 68.03142
# Shear Modulus (GPa) = 29.46008 32.23115 30.84562
#
# Velocity S-wave (km/s) = 3.76688 3.94006 3.85444
# Velocity P-wave (km/s) = 7.14098 7.35927 7.25094
#
# Compressibility (1/GPa) = 0.01501660
#
# Stress axis : x y z
#
# Youngs Moduli (GPa) = 135.55082 62.55587 68.02569
#
# Poissons Ratio (x) = 0.09374 0.18287
# Poissons Ratio (y) = 0.20312 0.49908
# Poissons Ratio (z) = 0.36440 0.45895
#
# Static dielectric constant tensor:
#      x y z
#    x 4.226460 0.000000 0.000000 
#    y 0.000000 3.789730 0.000000 
#    z 0.000000 0.000000 3.543010 
# 
# 
# High freq. dielectric constant tensor:
#      x y z
#    x 1.838760 0.000000 0.000000 
#    y 0.000000 1.810860 0.000000 
#    z 0.000000 0.000000 1.798400 
# 
# From -- ./inp_files/10467.got.cif
#   From: 2010.06.25/outbox.cif.g09.slc.cpg/sg52_6_cif.got.tgz:10467.got - 2010.06.26 19:32:48.
