data_PCOD8216909
_publ_section_title
;
Structure prediction by ZEFSAII (Michael W. Deem and Ramdas Pophale) SiO2 
 PCOD8216909
Probable space group: P N N A
;
_chemical_formula_sum "Si O2"
_cell_formula_units_Z 24
_cell_length_a 14.132750
_cell_length_b 12.437219
_cell_length_c 4.938465
_cell_angle_alpha 90.000000
_cell_angle_beta 90.000000
_cell_angle_gamma 90.000000
_cell_volume 868.044398
_symmetry_space_group_name_H-M "P N N A"
_symmetry_group_IT_number 52
_symmetry_cell_setting 'orthorhombic'
loop_
_space_group_symop_operation_xyz
x,y,z
1/2-x,-y,z
x,1/2-y,1/2-z
1/2-x,1/2+y,1/2-z
-x,-y,-z
1/2+x,y,-z
-x,1/2+y,1/2+z
1/2+x,1/2-y,1/2+z
loop_
_atom_site_type_symbol
_atom_site_label
_atom_site_fract_x
_atom_site_fract_y
_atom_site_fract_z
Si Si1 0.319038 0.622849 0.728368
Si Si2 0.897699 0.130934 0.147239
Si Si3 0.918748 0.522171 0.779838
O O1 0.329858 0.750000 0.750000
O O2 0.209048 0.591853 0.690293
O O3 0.388235 0.587163 0.489701
O O4 0.344830 0.559937 0.000324
O O5 0.915296 0.250000 0.250000
O O6 0.970477 0.059206 0.338799
O O7 0.916955 0.104033 0.826773
#
# Coordination Sequence:
#
# PCOD8216909 Si02
#       3
#     8   8   8
#     4  11  24  44  71 104 146 196 250 309 374 448
#     4  10  24  45  73 108 147 196 251 309 378 452
#     4  11  25  46  72 105 147 194 250 312 375 449
#
# _framework density 27.648353
#
# number of rings (size 3 to 8) (size 9 to 14) (size 15 to 20)
#    0.000    1.333    0.000    4.000    0.000   13.333 
#    0.000   11.667    0.000    0.000    0.000    0.000 
#    0.000    0.000    0.000    0.000    0.000    0.000 
#
# Total GULP energy -297431.455535 kJ/mol
# GULP energy per Si atom -12392.977314 kJ/mol
# Density = 2.758542 g / cm^3
# Si number density = 27.648353 Si / 1000 Ang^3
#
#
#
# Elastic Constant Matrix: (Units=GPa)
#
#
# Indices 1 2 3 4 5 6 
#
# 1 127.7658 74.0808 31.2723 0.0000 0.0000 0.0000
# 2 74.0808 178.0325 75.0008 0.0000 0.0000 0.0000
# 3 31.2723 75.0008 148.5166 0.0000 0.0000 0.0000
# 4 0.0000 0.0000 0.0000 42.3608 0.0000 0.0000
# 5 0.0000 0.0000 0.0000 0.0000 48.1712 0.0000
# 6 0.0000 0.0000 0.0000 0.0000 0.0000 50.0590
#
#
#
# Elastic Compliance Matrix: (Units=1/GPa)
#
#
# Indices 1 2 3 4 5 6 
#
# 1 0.010316 -0.004290 -0.000006 0.000000 0.000000 0.000000
# 2 -0.004290 0.008919 -0.003601 0.000000 0.000000 0.000000
# 3 -0.000006 -0.003601 0.008553 0.000000 0.000000 0.000000
# 4 0.000000 0.000000 0.000000 0.023607 0.000000 0.000000
# 5 0.000000 0.000000 0.000000 0.000000 0.020759 0.000000
# 6 0.000000 0.000000 0.000000 0.000000 0.000000 0.019976
#
#
# Mechanical properties :
#
#
# Convention : Reuss Voigt Hill
#
# Bulk Modulus (GPa) = 83.37101 90.55808 86.96455
# Shear Modulus (GPa) = 44.67438 46.38227 45.52832
#
# Velocity S-wave (km/s) = 4.02407 4.10027 4.06235
# Velocity P-wave (km/s) = 7.19794 7.43242 7.31612
#
# Compressibility (1/GPa) = 0.01199458
#
# Stress axis : x y z
#
# Youngs Moduli (GPa) = 96.94015 112.12024 116.92048
#
# Poissons Ratio (x) = 0.48100 0.00066
# Poissons Ratio (y) = 0.41588 0.42100
# Poissons Ratio (z) = 0.00055 0.40372
#
# Static dielectric constant tensor:
#      x y z
#    x 5.618720 0.000000 0.000000 
#    y 0.000000 5.545310 0.000000 
#    z 0.000000 0.000000 9.397300 
# 
# 
# High freq. dielectric constant tensor:
#      x y z
#    x 2.157800 0.000000 0.000000 
#    y 0.000000 2.139570 0.000000 
#    z 0.000000 0.000000 2.145870 
# 
# From -- ./inp_files/1778.got.cif
#   From: 2010.06.25/outbox.cif.g09.slc.cpg/sg52_1_cif.got.tgz:1778.got - 2010.06.26 19:32:48.
