data_PCOD8216037
_publ_section_title
;
Structure prediction by ZEFSAII (Michael W. Deem and Ramdas Pophale) SiO2 
 PCOD8216037
Probable space group: P N N A
;
_chemical_formula_sum "Si O2"
_cell_formula_units_Z 64
_cell_length_a 12.476410
_cell_length_b 8.677208
_cell_length_c 28.265755
_cell_angle_alpha 90.000000
_cell_angle_beta 90.000000
_cell_angle_gamma 90.000000
_cell_volume 3060.062074
_symmetry_space_group_name_H-M "P N N A"
_symmetry_group_IT_number 52
_symmetry_cell_setting 'orthorhombic'
loop_
_space_group_symop_operation_xyz
x,y,z
1/2-x,-y,z
x,1/2-y,1/2-z
1/2-x,1/2+y,1/2-z
-x,-y,-z
1/2+x,y,-z
-x,1/2+y,1/2+z
1/2+x,1/2-y,1/2+z
loop_
_atom_site_type_symbol
_atom_site_label
_atom_site_fract_x
_atom_site_fract_y
_atom_site_fract_z
Si Si1 0.347892 0.164543 0.591054
Si Si2 0.476887 0.668964 0.352216
Si Si3 0.876830 0.827866 0.381455
Si Si4 0.016198 0.572551 0.426981
Si Si5 0.839251 0.871411 0.709298
Si Si6 0.472235 0.894322 0.718874
Si Si7 0.649496 0.888875 0.012605
Si Si8 0.340764 0.401729 0.722147
O O1 0.457842 0.226160 0.611988
O O2 0.249023 0.219476 0.626099
O O3 0.323260 0.226693 0.538063
O O4 0.364371 0.982769 0.588071
O O5 0.440643 0.513327 0.379521
O O6 0.371818 0.763874 0.335425
O O7 0.553392 0.627554 0.308341
O O8 0.937672 0.710278 0.414600
O O9 0.946716 0.842476 0.334272
O O10 0.950636 0.453486 0.458466
O O11 0.116526 0.635801 0.457690
O O12 0.802399 0.750000 0.750000
O O13 0.750000 0.000000 0.696246
O O14 0.941412 0.970175 0.724152
O O15 0.511877 0.750000 0.750000
O O16 0.364329 0.969393 0.738014
O O17 0.750000 0.000000 0.015516
O O18 0.250000 0.500000 0.692746
O O19 0.300683 0.250000 0.750000
#
# Coordination Sequence:
#
# PCOD8216037 Si02
#       8
#     8   8   8   8   8   8   8   8
#     4  10  22  37  65  92 138 169 210 276 335 425
#     4  11  22  44  61  95 132 169 225 282 332 394
#     4  11  22  38  61 104 131 180 217 257 349 413
#     4  10  23  38  68  92 124 167 220 276 334 420
#     4  12  25  49  69  90 128 188 242 287 333 387
#     4  12  24  40  62  98 144 178 229 280 326 406
#     4  10  20  43  64  91 123 167 218 276 345 407
#     4  12  24  37  61  98 142 184 217 274 339 417
#
# _framework density 20.914608000000001
#
# number of rings (size 3 to 8) (size 9 to 14) (size 15 to 20)
#    0.000    1.000    5.000    1.500    7.000    0.500 
#    2.250    0.000    0.000    0.000    0.000    0.000 
#    0.000    0.000    0.000    0.000    0.000    0.000 
#
# Total GULP energy -793103.769472 kJ/mol
# GULP energy per Si atom -12392.246398 kJ/mol
# Density = 2.086701 g / cm^3
# Si number density = 20.914608 Si / 1000 Ang^3
#
#
#
# Elastic Constant Matrix: (Units=GPa)
#
#
# Indices 1 2 3 4 5 6 
#
# 1 71.5470 33.4103 36.5141 0.0000 0.0000 0.0000
# 2 33.4103 117.1298 60.9495 0.0000 0.0000 0.0000
# 3 36.5141 60.9495 90.5904 0.0000 0.0000 0.0000
# 4 0.0000 0.0000 0.0000 25.9421 0.0000 0.0000
# 5 0.0000 0.0000 0.0000 0.0000 20.8896 0.0000
# 6 0.0000 0.0000 0.0000 0.0000 0.0000 45.4310
#
#
#
# Elastic Compliance Matrix: (Units=1/GPa)
#
#
# Indices 1 2 3 4 5 6 
#
# 1 0.017921 -0.002082 -0.005822 0.000000 0.000000 0.000000
# 2 -0.002082 0.013379 -0.008162 0.000000 0.000000 0.000000
# 3 -0.005822 -0.008162 0.018877 0.000000 0.000000 0.000000
# 4 0.000000 0.000000 0.000000 0.038547 0.000000 0.000000
# 5 0.000000 0.000000 0.000000 0.000000 0.047871 0.000000
# 6 0.000000 0.000000 0.000000 0.000000 0.000000 0.022011
#
#
# Mechanical properties :
#
#
# Convention : Reuss Voigt Hill
#
# Bulk Modulus (GPa) = 55.42225 60.11279 57.76752
# Shear Modulus (GPa) = 25.41260 28.34542 26.87901
#
# Velocity S-wave (km/s) = 3.48956 3.68542 3.58883
# Velocity P-wave (km/s) = 6.54163 6.84939 6.69728
#
# Compressibility (1/GPa) = 0.01804330
#
# Stress axis : x y z
#
# Youngs Moduli (GPa) = 55.80197 74.74653 52.97461
#
# Poissons Ratio (x) = 0.15561 0.30844
# Poissons Ratio (y) = 0.11617 0.43238
# Poissons Ratio (z) = 0.32491 0.61008
#
# Static dielectric constant tensor:
#      x y z
#    x 3.894320 0.000000 0.000000 
#    y 0.000000 4.077390 0.000000 
#    z 0.000000 0.000000 3.866900 
# 
# 
# High freq. dielectric constant tensor:
#      x y z
#    x 1.804230 0.000000 0.000000 
#    y 0.000000 1.833790 0.000000 
#    z 0.000000 0.000000 1.803180 
# 
# From -- ./inp_files/44855.got.cif
#   From: 2010.06.25/outbox.cif.g09.slc.cpg/sg52_23_cif.got.tgz:44855.got - 2010.06.26 19:32:48.
