data_PCOD8216585
_publ_section_title
;
Structure prediction by ZEFSAII (Michael W. Deem and Ramdas Pophale) SiO2 
 PCOD8216585
Probable space group: P N N A
;
_chemical_formula_sum "Si O2"
_cell_formula_units_Z 56
_cell_length_a 16.130033
_cell_length_b 11.160920
_cell_length_c 14.584830
_cell_angle_alpha 90.000000
_cell_angle_beta 90.000000
_cell_angle_gamma 90.000000
_cell_volume 2625.648721
_symmetry_space_group_name_H-M "P N N A"
_symmetry_group_IT_number 52
_symmetry_cell_setting 'orthorhombic'
loop_
_space_group_symop_operation_xyz
x,y,z
1/2-x,-y,z
x,1/2-y,1/2-z
1/2-x,1/2+y,1/2-z
-x,-y,-z
1/2+x,y,-z
-x,1/2+y,1/2+z
1/2+x,1/2-y,1/2+z
loop_
_atom_site_type_symbol
_atom_site_label
_atom_site_fract_x
_atom_site_fract_y
_atom_site_fract_z
Si Si1 0.549449 0.591636 0.829239
Si Si2 0.581121 0.747789 0.503493
Si Si3 0.692508 0.182715 0.845826
Si Si4 0.131162 0.077831 0.631486
Si Si5 0.629208 0.573759 0.640566
Si Si6 0.082682 0.363205 0.063095
Si Si7 0.303670 0.180322 0.657319
O O1 0.595607 0.664397 0.909618
O O2 0.451881 0.623206 0.818265
O O3 0.589016 0.626622 0.732697
O O4 0.561451 0.450692 0.852572
O O5 0.578767 0.614346 0.549182
O O6 0.495429 0.776414 0.453110
O O7 0.655858 0.755385 0.430553
O O8 0.690279 0.250000 0.750000
O O9 0.781880 0.135079 0.872016
O O10 0.662138 0.280387 0.918826
O O11 0.630717 0.069183 0.849162
O O12 0.104988 0.057196 0.525482
O O13 0.204155 0.175263 0.642440
O O14 0.159875 0.951671 0.671454
O O15 0.324961 0.250000 0.750000
#
# Coordination Sequence:
#
# PCOD8216585 Si02
#       7
#     8   8   8   8   8   8   8
#     4  11  20  42  68 100 132 174 221 274 327 403
#     4  11  22  41  65 100 129 172 227 270 336 391
#     4  11  23  42  61  96 134 172 217 262 341 399
#     4  10  22  41  64  95 126 169 233 267 321 390
#     4  11  25  40  65 100 137 169 212 278 337 398
#     4  11  21  40  70  95 129 175 224 274 323 402
#     4  11  23  40  63  94 130 176 224 279 325 388
#
# _framework density 21.328061999999999
#
# number of rings (size 3 to 8) (size 9 to 14) (size 15 to 20)
#    0.000    1.143    4.286    3.000    0.000    4.571 
#    0.000    5.714    0.000    0.000    0.000    0.000 
#    0.000    0.000    0.000    0.000    0.000    0.000 
#
# Total GULP energy -694373.578907 kJ/mol
# GULP energy per Si atom -12399.528195 kJ/mol
# Density = 2.127952 g / cm^3
# Si number density = 21.328062 Si / 1000 Ang^3
#
#
#
# Elastic Constant Matrix: (Units=GPa)
#
#
# Indices 1 2 3 4 5 6 
#
# 1 93.0523 18.5062 39.8054 0.0000 0.0000 0.0000
# 2 18.5062 68.6024 23.9723 0.0000 0.0000 0.0000
# 3 39.8054 23.9723 101.2758 0.0000 0.0000 0.0000
# 4 0.0000 0.0000 0.0000 41.8955 0.0000 0.0000
# 5 0.0000 0.0000 0.0000 0.0000 34.3554 0.0000
# 6 0.0000 0.0000 0.0000 0.0000 0.0000 27.0050
#
#
#
# Elastic Compliance Matrix: (Units=1/GPa)
#
#
# Indices 1 2 3 4 5 6 
#
# 1 0.013141 -0.001897 -0.004716 0.000000 0.000000 0.000000
# 2 -0.001897 0.016165 -0.003081 0.000000 0.000000 0.000000
# 3 -0.004716 -0.003081 0.012457 0.000000 0.000000 0.000000
# 4 0.000000 0.000000 0.000000 0.023869 0.000000 0.000000
# 5 0.000000 0.000000 0.000000 0.000000 0.029108 0.000000
# 6 0.000000 0.000000 0.000000 0.000000 0.000000 0.037030
#
#
# Mechanical properties :
#
#
# Convention : Reuss Voigt Hill
#
# Bulk Modulus (GPa) = 44.69149 47.49980 46.09565
# Shear Modulus (GPa) = 31.52270 32.69429 32.10849
#
# Velocity S-wave (km/s) = 3.84864 3.91950 3.88423
# Velocity P-wave (km/s) = 6.38351 6.54238 6.46343
#
# Compressibility (1/GPa) = 0.02237562
#
# Stress axis : x y z
#
# Youngs Moduli (GPa) = 76.09579 61.86206 80.27735
#
# Poissons Ratio (x) = 0.11736 0.37859
# Poissons Ratio (y) = 0.14436 0.24731
# Poissons Ratio (z) = 0.35887 0.19058
#
# Static dielectric constant tensor:
#      x y z
#    x 3.980500 0.000000 0.000000 
#    y 0.000000 3.878320 0.000000 
#    z 0.000000 0.000000 3.720020 
# 
# 
# High freq. dielectric constant tensor:
#      x y z
#    x 1.841650 0.000000 0.000000 
#    y 0.000000 1.831380 0.000000 
#    z 0.000000 0.000000 1.828490 
# 
# From -- ./inp_files/27291.got.cif
#   From: 2010.06.25/outbox.cif.g09.slc.cpg/sg52_14_cif.got.tgz:27291.got - 2010.06.26 19:32:48.
