data_PCOD8216489
_publ_section_title
;
Structure prediction by ZEFSAII (Michael W. Deem and Ramdas Pophale) SiO2 
 PCOD8216489
Probable space group: P N N A
;
_chemical_formula_sum "Si O2"
_cell_formula_units_Z 64
_cell_length_a 9.578045
_cell_length_b 14.255243
_cell_length_c 24.952545
_cell_angle_alpha 90.000000
_cell_angle_beta 90.000000
_cell_angle_gamma 90.000000
_cell_volume 3406.954593
_symmetry_space_group_name_H-M "P N N A"
_symmetry_group_IT_number 52
_symmetry_cell_setting 'orthorhombic'
loop_
_space_group_symop_operation_xyz
x,y,z
1/2-x,-y,z
x,1/2-y,1/2-z
1/2-x,1/2+y,1/2-z
-x,-y,-z
1/2+x,y,-z
-x,1/2+y,1/2+z
1/2+x,1/2-y,1/2+z
loop_
_atom_site_type_symbol
_atom_site_label
_atom_site_fract_x
_atom_site_fract_y
_atom_site_fract_z
Si Si1 0.911558 0.998731 0.656655
Si Si2 0.910806 0.492235 0.262258
Si Si3 0.421988 0.694110 0.696909
Si Si4 0.791787 0.104609 0.042020
Si Si5 0.416364 0.693256 0.104492
Si Si6 0.874266 0.333135 0.343326
Si Si7 0.093205 0.699643 0.111978
Si Si8 0.974211 0.780897 0.007924
O O1 0.955380 0.096187 0.629470
O O2 0.998019 0.979615 0.709811
O O3 0.750000 0.000000 0.673083
O O4 0.944984 0.916610 0.614226
O O5 0.750000 0.500000 0.244588
O O6 0.952395 0.584799 0.294802
O O7 0.940810 0.404360 0.300683
O O8 0.463631 0.750000 0.750000
O O9 0.261700 0.716413 0.681888
O O10 0.521183 0.723217 0.648736
O O11 0.829947 0.107823 0.104505
O O12 0.669284 0.178015 0.030263
O O13 0.750000 0.000000 0.025316
O O14 0.924985 0.132427 0.006366
O O15 0.512812 0.753830 0.144025
O O16 0.257244 0.717119 0.117910
O O17 0.449965 0.715113 0.043164
O O18 0.045281 0.713499 0.051178
#
# Coordination Sequence:
#
# PCOD8216489 Si02
#       8
#     8   8   8   8   8   8   8   8
#     4  10  23  41  62  83 121 161 206 251 304 355
#     4  10  22  39  59  93 124 156 200 245 301 365
#     4  11  21  37  62  90 120 159 198 245 303 359
#     4  11  21  39  63  92 121 161 198 246 304 361
#     4  10  24  42  59  90 118 162 206 253 306 357
#     4  10  23  38  62  89 127 157 196 252 303 360
#     4  11  22  42  62  87 121 160 202 256 298 368
#     4  11  22  40  64  87 125 158 202 251 303 359
#
# _framework density 18.785105000000001
#
# number of rings (size 3 to 8) (size 9 to 14) (size 15 to 20)
#    0.000    1.500    3.750    1.500    3.500    1.500 
#    0.000    0.000    0.000    0.000    0.000    0.000 
#    0.000    0.000    0.000    0.000    0.000    0.000 
#
# Total GULP energy -793947.247562 kJ/mol
# GULP energy per Si atom -12405.425743 kJ/mol
# Density = 1.874235 g / cm^3
# Si number density = 18.785105 Si / 1000 Ang^3
#
#
#
# Elastic Constant Matrix: (Units=GPa)
#
#
# Indices 1 2 3 4 5 6 
#
# 1 71.6465 42.4464 41.5797 0.0000 0.0000 0.0000
# 2 42.4464 98.3811 51.2867 0.0000 0.0000 0.0000
# 3 41.5797 51.2867 120.0039 0.0000 0.0000 0.0000
# 4 0.0000 0.0000 0.0000 26.5603 0.0000 0.0000
# 5 0.0000 0.0000 0.0000 0.0000 22.0970 0.0000
# 6 0.0000 0.0000 0.0000 0.0000 0.0000 14.4189
#
#
#
# Elastic Compliance Matrix: (Units=1/GPa)
#
#
# Indices 1 2 3 4 5 6 
#
# 1 0.020294 -0.006549 -0.004233 0.000000 0.000000 0.000000
# 2 -0.006549 0.015192 -0.004223 0.000000 0.000000 0.000000
# 3 -0.004233 -0.004223 0.011605 0.000000 0.000000 0.000000
# 4 0.000000 0.000000 0.000000 0.037650 0.000000 0.000000
# 5 0.000000 0.000000 0.000000 0.000000 0.045255 0.000000
# 6 0.000000 0.000000 0.000000 0.000000 0.000000 0.069354
#
#
# Mechanical properties :
#
#
# Convention : Reuss Voigt Hill
#
# Bulk Modulus (GPa) = 58.54857 62.29525 60.42191
# Shear Modulus (GPa) = 21.27182 22.92982 22.10082
#
# Velocity S-wave (km/s) = 3.36873 3.49755 3.43375
# Velocity P-wave (km/s) = 6.80928 7.03879 6.92499
#
# Compressibility (1/GPa) = 0.01707984
#
# Stress axis : x y z
#
# Youngs Moduli (GPa) = 49.27605 65.82440 86.17306
#
# Poissons Ratio (x) = 0.43110 0.36473
# Poissons Ratio (y) = 0.32272 0.36394
# Poissons Ratio (z) = 0.20856 0.27800
#
# Static dielectric constant tensor:
#      x y z
#    x 3.525930 0.000000 0.000000 
#    y 0.000000 3.457600 0.000000 
#    z 0.000000 0.000000 3.504200 
# 
# 
# High freq. dielectric constant tensor:
#      x y z
#    x 1.734600 0.000000 0.000000 
#    y 0.000000 1.733450 0.000000 
#    z 0.000000 0.000000 1.738010 
# 
# From -- ./inp_files/39688.got.cif
#   From: 2010.06.25/outbox.cif.g09.slc.cpg/sg52_20_cif.got.tgz:39688.got - 2010.06.26 19:32:48.
