data_PCOD8216178
_publ_section_title
;
Structure prediction by ZEFSAII (Michael W. Deem and Ramdas Pophale) SiO2 
 PCOD8216178
Probable space group: P N N A
;
_chemical_formula_sum "Si O2"
_cell_formula_units_Z 48
_cell_length_a 13.322663
_cell_length_b 26.277144
_cell_length_c 6.665530
_cell_angle_alpha 90.000000
_cell_angle_beta 90.000000
_cell_angle_gamma 90.000000
_cell_volume 2333.478968
_symmetry_space_group_name_H-M "P N N A"
_symmetry_group_IT_number 52
_symmetry_cell_setting 'orthorhombic'
loop_
_space_group_symop_operation_xyz
x,y,z
1/2-x,-y,z
x,1/2-y,1/2-z
1/2-x,1/2+y,1/2-z
-x,-y,-z
1/2+x,y,-z
-x,1/2+y,1/2+z
1/2+x,1/2-y,1/2+z
loop_
_atom_site_type_symbol
_atom_site_label
_atom_site_fract_x
_atom_site_fract_y
_atom_site_fract_z
Si Si1 0.024139 0.303417 0.756019
Si Si2 0.468095 0.973643 0.198155
Si Si3 0.346223 0.470020 0.992578
Si Si4 0.959878 0.858055 0.838274
Si Si5 0.316040 0.704816 0.086622
Si Si6 0.374374 0.144870 0.524667
O O1 0.961056 0.250000 0.750000
O O2 0.052631 0.325418 0.539716
O O3 0.961066 0.348147 0.859136
O O4 0.120296 0.284093 0.886082
O O5 0.561514 0.975542 0.345144
O O6 0.437664 0.917203 0.131908
O O7 0.374263 0.003585 0.295572
O O8 0.500000 0.000000 0.000000
O O9 0.250000 0.500000 0.904966
O O10 0.323029 0.409954 0.012564
O O11 0.871019 0.841951 0.691955
O O12 0.071441 0.849476 0.742320
O O13 0.309285 0.750000 0.250000
O O14 0.207101 0.688759 0.005808
#
# Coordination Sequence:
#
# PCOD8216178 Si02
#       6
#     8   8   8   8   8   8
#     4  11  22  41  61  86 126 163 204 260 306 371
#     4  10  21  38  62  88 119 163 208 252 307 370
#     4  10  21  39  60  89 125 159 201 259 313 363
#     4  10  22  40  62  89 123 162 206 252 313 370
#     4  11  22  41  62  92 120 160 208 252 313 368
#     4  10  23  38  61  90 123 161 205 256 313 376
#
# _framework density 20.570145
#
# number of rings (size 3 to 8) (size 9 to 14) (size 15 to 20)
#    0.000    1.667    1.667    2.500    0.000    6.000 
#    3.000    3.333    0.000    0.000    0.000    0.000 
#    0.000    0.000    0.000    0.000    0.000    0.000 
#
# Total GULP energy -594915.139377 kJ/mol
# GULP energy per Si atom -12394.065404 kJ/mol
# Density = 2.052333 g / cm^3
# Si number density = 20.570145 Si / 1000 Ang^3
#
#
#
# Elastic Constant Matrix: (Units=GPa)
#
#
# Indices 1 2 3 4 5 6 
#
# 1 66.5494 28.9589 10.0146 0.0000 0.0000 0.0000
# 2 28.9589 126.6403 51.8414 0.0000 0.0000 0.0000
# 3 10.0146 51.8414 106.2482 0.0000 0.0000 0.0000
# 4 0.0000 0.0000 0.0000 38.6783 0.0000 0.0000
# 5 0.0000 0.0000 0.0000 0.0000 11.3102 0.0000
# 6 0.0000 0.0000 0.0000 0.0000 0.0000 28.7330
#
#
#
# Elastic Compliance Matrix: (Units=1/GPa)
#
#
# Indices 1 2 3 4 5 6 
#
# 1 0.016698 -0.003966 0.000361 0.000000 0.000000 0.000000
# 2 -0.003966 0.010809 -0.004900 0.000000 0.000000 0.000000
# 3 0.000361 -0.004900 0.011769 0.000000 0.000000 0.000000
# 4 0.000000 0.000000 0.000000 0.025854 0.000000 0.000000
# 5 0.000000 0.000000 0.000000 0.000000 0.088415 0.000000
# 6 0.000000 0.000000 0.000000 0.000000 0.000000 0.034803
#
#
# Mechanical properties :
#
#
# Convention : Reuss Voigt Hill
#
# Bulk Modulus (GPa) = 44.91210 53.45195 49.18202
# Shear Modulus (GPa) = 23.49829 29.65251 26.57540
#
# Velocity S-wave (km/s) = 3.38353 3.80087 3.59826
# Velocity P-wave (km/s) = 6.09470 6.73081 6.42064
#
# Compressibility (1/GPa) = 0.02226572
#
# Stress axis : x y z
#
# Youngs Moduli (GPa) = 59.88756 92.51255 84.96992
#
# Poissons Ratio (x) = 0.36693 -0.03070
# Poissons Ratio (y) = 0.23753 0.41638
# Poissons Ratio (z) = -0.02164 0.45334
#
# Static dielectric constant tensor:
#      x y z
#    x 3.640660 0.000000 0.000000 
#    y 0.000000 4.032770 0.000000 
#    z 0.000000 0.000000 4.178130 
# 
# 
# High freq. dielectric constant tensor:
#      x y z
#    x 1.793480 0.000000 0.000000 
#    y 0.000000 1.822520 0.000000 
#    z 0.000000 0.000000 1.806670 
# 
# From -- ./inp_files/2470.got.cif
#   From: 2010.06.25/outbox.cif.g09.slc.cpg/sg52_2_cif.got.tgz:2470.got - 2010.06.26 19:32:48.
