data_PCOD8216212
_publ_section_title
;
Structure prediction by ZEFSAII (Michael W. Deem and Ramdas Pophale) SiO2 
 PCOD8216212
Probable space group: P N N A
;
_chemical_formula_sum "Si O2"
_cell_formula_units_Z 64
_cell_length_a 15.901616
_cell_length_b 20.913847
_cell_length_c 9.132071
_cell_angle_alpha 90.000000
_cell_angle_beta 90.000000
_cell_angle_gamma 90.000000
_cell_volume 3036.997732
_symmetry_space_group_name_H-M "P N N A"
_symmetry_group_IT_number 52
_symmetry_cell_setting 'orthorhombic'
loop_
_space_group_symop_operation_xyz
x,y,z
1/2-x,-y,z
x,1/2-y,1/2-z
1/2-x,1/2+y,1/2-z
-x,-y,-z
1/2+x,y,-z
-x,1/2+y,1/2+z
1/2+x,1/2-y,1/2+z
loop_
_atom_site_type_symbol
_atom_site_label
_atom_site_fract_x
_atom_site_fract_y
_atom_site_fract_z
Si Si1 0.535761 0.436443 0.071729
Si Si2 0.220214 0.935364 0.118452
Si Si3 0.479835 0.440351 0.395610
Si Si4 0.214840 0.816850 0.597223
Si Si5 0.518608 0.677000 0.415512
Si Si6 0.281973 0.178073 0.919037
Si Si7 0.477905 0.317481 0.907926
Si Si8 0.782390 0.566476 0.940855
O O1 0.532711 0.446647 0.245634
O O2 0.500000 0.500000 0.000000
O O3 0.484297 0.372761 0.028960
O O4 0.626213 0.421547 0.005020
O O5 0.119470 0.935898 0.143703
O O6 0.275213 0.935732 0.266765
O O7 0.250000 0.000000 0.034370
O O8 0.254817 0.874893 0.028260
O O9 0.500000 0.500000 0.500000
O O10 0.516159 0.376764 0.474189
O O11 0.254400 0.834303 0.755392
O O12 0.249456 0.749242 0.532836
O O13 0.118155 0.803304 0.626414
O O14 0.225133 0.874077 0.485304
O O15 0.618421 0.669785 0.423681
O O16 0.483633 0.662759 0.250513
O O17 0.486653 0.748367 0.463359
O O18 0.750000 0.500000 0.010367
#
# Coordination Sequence:
#
# PCOD8216212 Si02
#       8
#     8   8   8   8   8   8   8   8
#     4  12  24  39  58  82 115 156 197 248 302 355
#     4  10  21  39  59  85 119 157 199 245 294 355
#     4  11  23  39  61  92 122 157 204 253 303 362
#     4   9  17  35  58  84 112 146 191 234 282 348
#     4   8  17  34  59  88 116 151 195 234 288 356
#     4   8  17  33  58  84 113 150 186 228 285 349
#     4   9  17  36  62  84 114 156 194 238 290 351
#     4  11  24  39  55  81 112 149 197 244 294 353
#
# _framework density 21.073443000000001
#
# number of rings (size 3 to 8) (size 9 to 14) (size 15 to 20)
#    0.000    2.250    0.000    5.250    0.000    4.500 
#    0.000   10.000    0.000    0.000    0.000    0.000 
#    0.000    0.000    0.000    0.000    0.000    0.000 
#
# Total GULP energy -793021.995894 kJ/mol
# GULP energy per Si atom -12390.968686 kJ/mol
# Density = 2.102548 g / cm^3
# Si number density = 21.073443 Si / 1000 Ang^3
#
#
#
# Elastic Constant Matrix: (Units=GPa)
#
#
# Indices 1 2 3 4 5 6 
#
# 1 41.7990 10.1584 23.4702 0.0000 0.0000 0.0000
# 2 10.1584 196.8804 88.8543 0.0000 0.0000 0.0000
# 3 23.4702 88.8543 131.1322 0.0000 0.0000 0.0000
# 4 0.0000 0.0000 0.0000 46.7086 0.0000 0.0000
# 5 0.0000 0.0000 0.0000 0.0000 23.0495 0.0000
# 6 0.0000 0.0000 0.0000 0.0000 0.0000 24.7203
#
#
#
# Elastic Compliance Matrix: (Units=1/GPa)
#
#
# Indices 1 2 3 4 5 6 
#
# 1 0.026769 0.001125 -0.005554 0.000000 0.000000 0.000000
# 2 0.001125 0.007364 -0.005191 0.000000 0.000000 0.000000
# 3 -0.005554 -0.005191 0.012137 0.000000 0.000000 0.000000
# 4 0.000000 0.000000 0.000000 0.021409 0.000000 0.000000
# 5 0.000000 0.000000 0.000000 0.000000 0.043385 0.000000
# 6 0.000000 0.000000 0.000000 0.000000 0.000000 0.040453
#
#
# Mechanical properties :
#
#
# Convention : Reuss Voigt Hill
#
# Bulk Modulus (GPa) = 36.99431 68.30859 52.65145
# Shear Modulus (GPa) = 27.81386 35.38427 31.59906
#
# Velocity S-wave (km/s) = 3.63692 4.10212 3.87650
# Velocity P-wave (km/s) = 5.93543 7.41090 6.71382
#
# Compressibility (1/GPa) = 0.02703119
#
# Stress axis : x y z
#
# Youngs Moduli (GPa) = 37.35681 135.79556 82.39004
#
# Poissons Ratio (x) = -0.15280 0.45756
# Poissons Ratio (y) = -0.04203 0.42770
# Poissons Ratio (z) = 0.20746 0.70494
#
# Static dielectric constant tensor:
#      x y z
#    x 3.314490 0.000000 0.000000 
#    y 0.000000 4.347870 0.000000 
#    z 0.000000 0.000000 3.714800 
# 
# 
# High freq. dielectric constant tensor:
#      x y z
#    x 1.789420 0.000000 0.000000 
#    y 0.000000 1.852280 0.000000 
#    z 0.000000 0.000000 1.816880 
# 
# From -- ./inp_files/12578.got.cif
#   From: 2010.06.25/outbox.cif.g09.slc.cpg/sg52_7_cif.got.tgz:12578.got - 2010.06.26 19:32:48.
