data_PCOD8216110
_publ_section_title
;
Structure prediction by ZEFSAII (Michael W. Deem and Ramdas Pophale) SiO2 
 PCOD8216110
Probable space group: P N N A
;
_chemical_formula_sum "Si O2"
_cell_formula_units_Z 64
_cell_length_a 23.241176
_cell_length_b 15.175915
_cell_length_c 9.561056
_cell_angle_alpha 90.000000
_cell_angle_beta 90.000000
_cell_angle_gamma 90.000000
_cell_volume 3372.242883
_symmetry_space_group_name_H-M "P N N A"
_symmetry_group_IT_number 52
_symmetry_cell_setting 'orthorhombic'
loop_
_space_group_symop_operation_xyz
x,y,z
1/2-x,-y,z
x,1/2-y,1/2-z
1/2-x,1/2+y,1/2-z
-x,-y,-z
1/2+x,y,-z
-x,1/2+y,1/2+z
1/2+x,1/2-y,1/2+z
loop_
_atom_site_type_symbol
_atom_site_label
_atom_site_fract_x
_atom_site_fract_y
_atom_site_fract_z
Si Si1 0.892173 0.684812 0.628783
Si Si2 0.807177 0.175891 0.133661
Si Si3 0.419428 0.496477 0.368791
Si Si4 0.010335 0.546259 0.856501
Si Si5 0.174081 0.172086 0.856613
Si Si6 0.483654 0.244002 0.599212
Si Si7 0.114044 0.804217 0.111297
Si Si8 0.113245 0.509298 0.676270
O O1 0.871812 0.750000 0.750000
O O2 0.880206 0.582101 0.668529
O O3 0.854456 0.709426 0.496309
O O4 0.960575 0.692687 0.596589
O O5 0.817689 0.250000 0.250000
O O6 0.740675 0.152276 0.116955
O O7 0.839424 0.085183 0.165596
O O8 0.830963 0.213035 0.986464
O O9 0.475851 0.504532 0.273497
O O10 0.388488 0.404706 0.334105
O O11 0.428035 0.495199 0.538208
O O12 0.993400 0.644710 0.902592
O O13 0.076493 0.535085 0.812251
O O14 0.000000 0.500000 0.000000
O O15 0.164063 0.250000 0.750000
O O16 0.143970 0.083949 0.799422
O O17 0.450616 0.250000 0.750000
O O18 0.443313 0.274147 0.472586
O O19 0.121849 0.750000 0.250000
#
# Coordination Sequence:
#
# PCOD8216110 Si02
#       8
#     8   8   8   8   8   8   8   8
#     4  10  21  37  60  82 119 157 189 237 289 364
#     4  10  21  41  63  81 112 154 203 243 295 351
#     4  10  21  37  55  82 114 155 193 222 287 351
#     4  12  23  34  54  88 122 155 184 233 294 357
#     4  10  23  38  61  88 111 153 201 251 290 336
#     4  11  21  37  57  82 119 160 192 226 293 364
#     4  11  23  36  58  87 117 148 194 253 290 337
#     4  10  22  37  61  82 117 151 196 243 282 350
#
# _framework density 18.978466000000001
#
# number of rings (size 3 to 8) (size 9 to 14) (size 15 to 20)
#    0.000    1.500    2.500    4.125    5.250    1.000 
#    0.000    0.000    0.000    0.000    0.000    1.750 
#    0.000    0.000    0.000    0.000    0.000    0.000 
#
# Total GULP energy -793182.511263 kJ/mol
# GULP energy per Si atom -12393.476738 kJ/mol
# Density = 1.893527 g / cm^3
# Si number density = 18.978466 Si / 1000 Ang^3
#
#
#
# Elastic Constant Matrix: (Units=GPa)
#
#
# Indices 1 2 3 4 5 6 
#
# 1 88.9683 36.8522 60.7574 0.0000 0.0000 0.0000
# 2 36.8522 127.8664 65.2454 0.0000 0.0000 0.0000
# 3 60.7574 65.2454 117.8817 0.0000 0.0000 0.0000
# 4 0.0000 0.0000 0.0000 32.8792 0.0000 0.0000
# 5 0.0000 0.0000 0.0000 0.0000 3.3997 0.0000
# 6 0.0000 0.0000 0.0000 0.0000 0.0000 6.5847
#
#
#
# Elastic Compliance Matrix: (Units=1/GPa)
#
#
# Indices 1 2 3 4 5 6 
#
# 1 0.017379 -0.000611 -0.008619 0.000000 0.000000 0.000000
# 2 -0.000611 0.010920 -0.005729 0.000000 0.000000 0.000000
# 3 -0.008619 -0.005729 0.016097 0.000000 0.000000 0.000000
# 4 0.000000 0.000000 0.000000 0.030414 0.000000 0.000000
# 5 0.000000 0.000000 0.000000 0.000000 0.294143 0.000000
# 6 0.000000 0.000000 0.000000 0.000000 0.000000 0.151866
#
#
# Mechanical properties :
#
#
# Convention : Reuss Voigt Hill
#
# Bulk Modulus (GPa) = 69.07432 73.38072 71.22752
# Shear Modulus (GPa) = 8.99987 20.03017 14.51502
#
# Velocity S-wave (km/s) = 2.18001 3.25224 2.76853
# Velocity P-wave (km/s) = 6.54307 7.26993 6.91606
#
# Compressibility (1/GPa) = 0.01447716
#
# Stress axis : x y z
#
# Youngs Moduli (GPa) = 57.54007 91.57396 62.12449
#
# Poissons Ratio (x) = 0.05592 0.53548
# Poissons Ratio (y) = 0.03514 0.35593
# Poissons Ratio (z) = 0.49596 0.52466
#
# Static dielectric constant tensor:
#      x y z
#    x 3.342490 0.000000 0.000000 
#    y 0.000000 3.895570 0.000000 
#    z 0.000000 0.000000 3.525120 
# 
# 
# High freq. dielectric constant tensor:
#      x y z
#    x 1.716290 0.000000 0.000000 
#    y 0.000000 1.761520 0.000000 
#    z 0.000000 0.000000 1.736640 
# 
# From -- ./inp_files/14503.got.cif
#   From: 2010.06.25/outbox.cif.g09.slc.cpg/sg52_8_cif.got.tgz:14503.got - 2010.06.26 19:32:48.
