data_PCOD8216991
_publ_section_title
;
Structure prediction by ZEFSAII (Michael W. Deem and Ramdas Pophale) SiO2 
 PCOD8216991
Probable space group: P N N A
;
_chemical_formula_sum "Si O2"
_cell_formula_units_Z 32
_cell_length_a 30.602656
_cell_length_b 4.915384
_cell_length_c 11.875217
_cell_angle_alpha 90.000000
_cell_angle_beta 90.000000
_cell_angle_gamma 90.000000
_cell_volume 1786.315334
_symmetry_space_group_name_H-M "P N N A"
_symmetry_group_IT_number 52
_symmetry_cell_setting 'orthorhombic'
loop_
_space_group_symop_operation_xyz
x,y,z
1/2-x,-y,z
x,1/2-y,1/2-z
1/2-x,1/2+y,1/2-z
-x,-y,-z
1/2+x,y,-z
-x,1/2+y,1/2+z
1/2+x,1/2-y,1/2+z
loop_
_atom_site_type_symbol
_atom_site_label
_atom_site_fract_x
_atom_site_fract_y
_atom_site_fract_z
Si Si1 0.703537 0.502605 0.330455
Si Si2 0.983942 0.501984 0.823865
Si Si3 0.933649 0.673607 0.031775
Si Si4 0.113640 0.811281 0.882101
O O1 0.750000 0.500000 0.399709
O O2 0.712509 0.750000 0.250000
O O3 0.661816 0.567190 0.409267
O O4 0.692069 0.250000 0.250000
O O5 0.965336 0.250000 0.750000
O O6 0.024569 0.397102 0.894398
O O7 0.001879 0.750000 0.750000
O O8 0.945570 0.630496 0.901036
O O9 0.892675 0.477489 0.057363
O O10 0.921590 0.981997 0.064433
O O11 0.107222 0.750000 0.750000
#
# Coordination Sequence:
#
# PCOD8216991 Si02
#       4
#     8   8   8   8
#     4   9  17  28  43  66  97 130 155 181 227 280
#     4  11  22  36  50  67  96 126 157 201 242 274
#     4  11  22  33  50  72  92 125 166 194 231 285
#     4  11  19  31  49  71 100 128 158 194 228 276
#
# _framework density 17.913971
#
# number of rings (size 3 to 8) (size 9 to 14) (size 15 to 20)
#    0.000    1.500    0.000    9.000    0.000    4.000 
#    0.000    0.000    0.000    0.000    0.000    0.000 
#    0.000   20.000    0.000    0.000    0.000    0.000 
#
# Total GULP energy -396514.897465 kJ/mol
# GULP energy per Si atom -12391.090546 kJ/mol
# Density = 1.787320 g / cm^3
# Si number density = 17.913971 Si / 1000 Ang^3
#
#
#
# Elastic Constant Matrix: (Units=GPa)
#
#
# Indices 1 2 3 4 5 6 
#
# 1 80.7052 3.6180 20.9526 0.0000 0.0000 0.0000
# 2 3.6180 87.9596 19.4785 0.0000 0.0000 0.0000
# 3 20.9526 19.4785 61.8249 0.0000 0.0000 0.0000
# 4 0.0000 0.0000 0.0000 25.9698 0.0000 0.0000
# 5 0.0000 0.0000 0.0000 0.0000 12.7835 0.0000
# 6 0.0000 0.0000 0.0000 0.0000 0.0000 30.1913
#
#
#
# Elastic Compliance Matrix: (Units=1/GPa)
#
#
# Indices 1 2 3 4 5 6 
#
# 1 0.013606 0.000496 -0.004767 0.000000 0.000000 0.000000
# 2 0.000496 0.012240 -0.004024 0.000000 0.000000 0.000000
# 3 -0.004767 -0.004024 0.019058 0.000000 0.000000 0.000000
# 4 0.000000 0.000000 0.000000 0.038506 0.000000 0.000000
# 5 0.000000 0.000000 0.000000 0.000000 0.078226 0.000000
# 6 0.000000 0.000000 0.000000 0.000000 0.000000 0.033122
#
#
# Mechanical properties :
#
#
# Convention : Reuss Voigt Hill
#
# Bulk Modulus (GPa) = 35.31977 35.39866 35.35921
# Shear Modulus (GPa) = 22.64620 26.21830 24.43225
#
# Velocity S-wave (km/s) = 3.55937 3.82981 3.69706
# Velocity P-wave (km/s) = 6.05403 6.27374 6.16486
#
# Compressibility (1/GPa) = 0.02831276
#
# Stress axis : x y z
#
# Youngs Moduli (GPa) = 73.49555 81.70177 52.47045
#
# Poissons Ratio (x) = -0.04053 0.25015
# Poissons Ratio (y) = -0.03646 0.21116
# Poissons Ratio (z) = 0.35039 0.32880
#
# Static dielectric constant tensor:
#      x y z
#    x 3.714810 0.000000 0.000000 
#    y 0.000000 3.586740 0.000000 
#    z 0.000000 0.000000 3.196390 
# 
# 
# High freq. dielectric constant tensor:
#      x y z
#    x 1.689000 0.000000 0.000000 
#    y 0.000000 1.725090 0.000000 
#    z 0.000000 0.000000 1.639060 
# 
# From -- ./inp_files/22582.got.cif
#   From: 2010.06.25/outbox.cif.g09.slc.cpg/sg52_12_cif.got.tgz:22582.got - 2010.06.26 19:32:48.
