data_PCOD8216208
_publ_section_title
;
Structure prediction by ZEFSAII (Michael W. Deem and Ramdas Pophale) SiO2 
 PCOD8216208
Probable space group: P N N A
;
_chemical_formula_sum "Si O2"
_cell_formula_units_Z 36
_cell_length_a 16.242498
_cell_length_b 7.432630
_cell_length_c 15.249915
_cell_angle_alpha 90.000000
_cell_angle_beta 90.000000
_cell_angle_gamma 90.000000
_cell_volume 1841.038027
_symmetry_space_group_name_H-M "P N N A"
_symmetry_group_IT_number 52
_symmetry_cell_setting 'orthorhombic'
loop_
_space_group_symop_operation_xyz
x,y,z
1/2-x,-y,z
x,1/2-y,1/2-z
1/2-x,1/2+y,1/2-z
-x,-y,-z
1/2+x,y,-z
-x,1/2+y,1/2+z
1/2+x,1/2-y,1/2+z
loop_
_atom_site_type_symbol
_atom_site_label
_atom_site_fract_x
_atom_site_fract_y
_atom_site_fract_z
Si Si1 0.570790 0.079585 0.363088
Si Si2 0.310279 0.847145 0.481300
Si Si3 0.916333 0.983733 0.167380
Si Si4 0.950949 0.724945 0.851289
Si Si5 0.250000 0.500000 0.565382
O O1 0.640482 0.061808 0.437454
O O2 0.601915 0.994956 0.270997
O O3 0.546655 0.288009 0.353896
O O4 0.488120 0.967271 0.382399
O O5 0.369202 0.759454 0.408407
O O6 0.253948 0.680307 0.508892
O O7 0.250000 0.000000 0.441802
O O8 0.829698 0.020050 0.124454
O O9 0.982178 0.121953 0.127268
O O10 0.925660 0.750000 0.750000
#
# Coordination Sequence:
#
# PCOD8216208 Si02
#       5
#     8   8   8   8   4
#     4   9  19  35  59  85 111 146 185 234 291 349
#     4  11  23  37  55  86 116 151 196 239 287 332
#     4   9  19  36  57  87 116 147 183 229 296 353
#     4  10  21  39  58  79 111 156 199 234 280 341
#     4  10  22  36  56  90 120 146 180 238 300 350
#
# _framework density 19.554185
#
# number of rings (size 3 to 8) (size 9 to 14) (size 15 to 20)
#    0.000    2.222    0.000    2.000    1.556    5.333 
#   10.000    0.000    0.000    0.000    0.000    0.000 
#    0.000    0.000    0.000    0.000    0.000    0.000 
#
# Total GULP energy -446285.470479 kJ/mol
# GULP energy per Si atom -12396.818624 kJ/mol
# Density = 1.950968 g / cm^3
# Si number density = 19.554185 Si / 1000 Ang^3
#
#
#
# Elastic Constant Matrix: (Units=GPa)
#
#
# Indices 1 2 3 4 5 6 
#
# 1 96.2339 63.2093 47.5967 0.0000 0.0000 0.0000
# 2 63.2093 99.4146 54.0993 0.0000 0.0000 0.0000
# 3 47.5967 54.0993 58.2486 0.0000 0.0000 0.0000
# 4 0.0000 0.0000 0.0000 11.1983 0.0000 0.0000
# 5 0.0000 0.0000 0.0000 0.0000 26.8859 0.0000
# 6 0.0000 0.0000 0.0000 0.0000 0.0000 33.0618
#
#
#
# Elastic Compliance Matrix: (Units=1/GPa)
#
#
# Indices 1 2 3 4 5 6 
#
# 1 0.020001 -0.007730 -0.009164 0.000000 0.000000 0.000000
# 2 -0.007730 0.023326 -0.015347 0.000000 0.000000 0.000000
# 3 -0.009164 -0.015347 0.038910 0.000000 0.000000 0.000000
# 4 0.000000 0.000000 0.000000 0.089299 0.000000 0.000000
# 5 0.000000 0.000000 0.000000 0.000000 0.037194 0.000000
# 6 0.000000 0.000000 0.000000 0.000000 0.000000 0.030246
#
#
# Mechanical properties :
#
#
# Convention : Reuss Voigt Hill
#
# Bulk Modulus (GPa) = 56.32650 64.85640 60.59145
# Shear Modulus (GPa) = 16.16142 20.16197 18.16170
#
# Velocity S-wave (km/s) = 2.87800 3.21453 3.05091
# Velocity P-wave (km/s) = 6.31757 6.85690 6.59276
#
# Compressibility (1/GPa) = 0.01775363
#
# Stress axis : x y z
#
# Youngs Moduli (GPa) = 49.99675 42.87129 25.70014
#
# Poissons Ratio (x) = 0.33140 0.23552
# Poissons Ratio (y) = 0.38649 0.39443
# Poissons Ratio (z) = 0.45818 0.65797
#
# Static dielectric constant tensor:
#      x y z
#    x 3.349300 0.000000 0.000000 
#    y 0.000000 3.810990 0.000000 
#    z 0.000000 0.000000 3.536070 
# 
# 
# High freq. dielectric constant tensor:
#      x y z
#    x 1.746470 0.000000 0.000000 
#    y 0.000000 1.777860 0.000000 
#    z 0.000000 0.000000 1.755850 
# 
# From -- ./inp_files/26738.got.cif
#   From: 2010.06.25/outbox.cif.g09.slc.cpg/sg52_14_cif.got.tgz:26738.got - 2010.06.26 19:32:48.
