data_PCOD8216434
_publ_section_title
;
Structure prediction by ZEFSAII (Michael W. Deem and Ramdas Pophale) SiO2 
 PCOD8216434
Probable space group: P N N A
;
_chemical_formula_sum "Si O2"
_cell_formula_units_Z 60
_cell_length_a 23.951135
_cell_length_b 15.549919
_cell_length_c 7.711876
_cell_angle_alpha 90.000000
_cell_angle_beta 90.000000
_cell_angle_gamma 90.000000
_cell_volume 2872.197287
_symmetry_space_group_name_H-M "P N N A"
_symmetry_group_IT_number 52
_symmetry_cell_setting 'orthorhombic'
loop_
_space_group_symop_operation_xyz
x,y,z
1/2-x,-y,z
x,1/2-y,1/2-z
1/2-x,1/2+y,1/2-z
-x,-y,-z
1/2+x,y,-z
-x,1/2+y,1/2+z
1/2+x,1/2-y,1/2+z
loop_
_atom_site_type_symbol
_atom_site_label
_atom_site_fract_x
_atom_site_fract_y
_atom_site_fract_z
Si Si1 0.359402 0.229361 0.058218
Si Si2 0.916457 0.498403 0.897316
Si Si3 0.198896 0.439794 0.962210
Si Si4 0.700488 0.438393 0.435279
Si Si5 0.730361 0.250652 0.945517
Si Si6 0.929548 0.250000 0.250000
Si Si7 0.972992 0.073998 0.269142
Si Si8 0.102219 0.545067 0.466770
O O1 0.383430 0.250000 0.250000
O O2 0.296385 0.259298 0.050491
O O3 0.364700 0.131887 0.984571
O O4 0.393412 0.283011 0.915073
O O5 0.915256 0.435042 0.731860
O O6 0.963463 0.564981 0.830584
O O7 0.856462 0.542330 0.926095
O O8 0.933435 0.449416 0.070095
O O9 0.250000 0.500000 0.034986
O O10 0.189446 0.463692 0.763280
O O11 0.209220 0.337493 0.965072
O O12 0.750000 0.500000 0.508003
O O13 0.711539 0.336819 0.459083
O O14 0.643728 0.463367 0.534257
O O15 0.707660 0.250000 0.750000
O O16 0.969561 0.171542 0.205088
O O17 0.949560 0.023343 0.097913
#
# Coordination Sequence:
#
# PCOD8216434 Si02
#       8
#     8   8   8   8   8   4   8   8
#     4  10  22  35  61  97 128 160 215 263 315 370
#     4  11  23  42  68  89 129 164 218 265 321 392
#     4  11  26  40  67  96 128 174 217 261 335 393
#     4  11  22  41  62  94 134 171 215 266 324 391
#     4  11  24  38  58  93 133 172 210 260 321 387
#     4  10  22  38  64  88 126 164 208 266 320 364
#     4  10  23  43  63  94 122 168 216 268 327 378
#     4  11  21  39  67  93 125 171 214 266 327 382
#
# _framework density 20.889928999999999
#
# number of rings (size 3 to 8) (size 9 to 14) (size 15 to 20)
#    0.000    1.333    2.667    2.400    7.467    1.067 
#    3.600    0.000    0.000    0.000    0.000    0.000 
#    0.000    0.000    0.000    0.000    0.000    0.000 
#
# Total GULP energy -743425.751731 kJ/mol
# GULP energy per Si atom -12390.429196 kJ/mol
# Density = 2.084238 g / cm^3
# Si number density = 20.889929 Si / 1000 Ang^3
#
#
#
# Elastic Constant Matrix: (Units=GPa)
#
#
# Indices 1 2 3 4 5 6 
#
# 1 118.3499 45.9360 44.5738 0.0000 0.0000 0.0000
# 2 45.9360 102.0260 5.1108 0.0000 0.0000 0.0000
# 3 44.5738 5.1108 110.6356 0.0000 0.0000 0.0000
# 4 0.0000 0.0000 0.0000 24.8743 0.0000 0.0000
# 5 0.0000 0.0000 0.0000 0.0000 71.5444 0.0000
# 6 0.0000 0.0000 0.0000 0.0000 0.0000 22.1112
#
#
#
# Elastic Compliance Matrix: (Units=1/GPa)
#
#
# Indices 1 2 3 4 5 6 
#
# 1 0.012273 -0.005290 -0.004700 0.000000 0.000000 0.000000
# 2 -0.005290 0.012105 0.001572 0.000000 0.000000 0.000000
# 3 -0.004700 0.001572 0.010860 0.000000 0.000000 0.000000
# 4 0.000000 0.000000 0.000000 0.040202 0.000000 0.000000
# 5 0.000000 0.000000 0.000000 0.000000 0.013977 0.000000
# 6 0.000000 0.000000 0.000000 0.000000 0.000000 0.045226
#
#
# Mechanical properties :
#
#
# Convention : Reuss Voigt Hill
#
# Bulk Modulus (GPa) = 54.34598 58.02808 56.18703
# Shear Modulus (GPa) = 31.72318 39.39870 35.56094
#
# Velocity S-wave (km/s) = 3.90113 4.34754 4.13037
# Velocity P-wave (km/s) = 6.80909 7.28284 7.04994
#
# Compressibility (1/GPa) = 0.01840062
#
# Stress axis : x y z
#
# Youngs Moduli (GPa) = 81.47831 82.61320 92.08296
#
# Poissons Ratio (x) = 0.43706 0.43282
# Poissons Ratio (y) = 0.43105 -0.14478
# Poissons Ratio (z) = 0.38298 -0.12989
#
# Static dielectric constant tensor:
#      x y z
#    x 3.693460 0.000000 0.000000 
#    y 0.000000 3.550850 0.000000 
#    z 0.000000 0.000000 4.025170 
# 
# 
# High freq. dielectric constant tensor:
#      x y z
#    x 1.805530 0.000000 0.000000 
#    y 0.000000 1.809120 0.000000 
#    z 0.000000 0.000000 1.837600 
# 
# From -- ./inp_files/14445.got.cif
#   From: 2010.06.25/outbox.cif.g09.slc.cpg/sg52_8_cif.got.tgz:14445.got - 2010.06.26 19:32:48.
