data_PCOD8216623
_publ_section_title
;
Structure prediction by ZEFSAII (Michael W. Deem and Ramdas Pophale) SiO2 
 PCOD8216623
Probable space group: P N N A
;
_chemical_formula_sum "Si O2"
_cell_formula_units_Z 44
_cell_length_a 12.927978
_cell_length_b 17.665471
_cell_length_c 9.259795
_cell_angle_alpha 90.000000
_cell_angle_beta 90.000000
_cell_angle_gamma 90.000000
_cell_volume 2114.741060
_symmetry_space_group_name_H-M "P N N A"
_symmetry_group_IT_number 52
_symmetry_cell_setting 'orthorhombic'
loop_
_space_group_symop_operation_xyz
x,y,z
1/2-x,-y,z
x,1/2-y,1/2-z
1/2-x,1/2+y,1/2-z
-x,-y,-z
1/2+x,y,-z
-x,1/2+y,1/2+z
1/2+x,1/2-y,1/2+z
loop_
_atom_site_type_symbol
_atom_site_label
_atom_site_fract_x
_atom_site_fract_y
_atom_site_fract_z
Si Si1 0.620866 0.102086 0.177816
Si Si2 0.121116 0.869897 0.142716
Si Si3 0.280252 0.272232 0.601876
Si Si4 0.383135 0.980735 0.520976
Si Si5 0.266089 0.374490 0.072378
Si Si6 0.250000 0.500000 0.471009
O O1 0.500502 0.119121 0.153356
O O2 0.681063 0.180629 0.156239
O O3 0.638579 0.063256 0.331027
O O4 0.664863 0.044202 0.062009
O O5 0.170762 0.839420 0.292250
O O6 0.180086 0.948857 0.130932
O O7 0.143951 0.817564 0.004536
O O8 0.341841 0.250000 0.750000
O O9 0.238380 0.197163 0.525342
O O10 0.340861 0.921862 0.396118
O O11 0.500000 0.000000 0.500000
O O12 0.329551 0.062815 0.519367
#
# Coordination Sequence:
#
# PCOD8216623 Si02
#       6
#     8   8   8   8   8   4
#     4  11  23  43  69  99 136 181 227 275 346 406
#     4  11  24  42  70 102 133 182 226 282 335 403
#     4  11  25  45  65  94 139 185 222 277 334 406
#     4  11  22  39  71 102 131 177 224 283 341 407
#     4  11  23  43  66  99 137 172 228 280 337 396
#     4  10  22  42  66 100 142 170 222 288 336 396
#
# _framework density 20.806331
#
# number of rings (size 3 to 8) (size 9 to 14) (size 15 to 20)
#    0.000    1.091    3.636    3.273    2.545    2.909 
#    0.000    3.636    0.000    0.000    0.000    0.000 
#    0.000    0.000    0.000    0.000    0.000    0.000 
#
# Total GULP energy -545161.076548 kJ/mol
# GULP energy per Si atom -12390.024467 kJ/mol
# Density = 2.075897 g / cm^3
# Si number density = 20.806331 Si / 1000 Ang^3
#
#
#
# Elastic Constant Matrix: (Units=GPa)
#
#
# Indices 1 2 3 4 5 6 
#
# 1 128.4623 32.1354 50.1059 0.0000 0.0000 0.0000
# 2 32.1354 112.8982 48.1042 0.0000 0.0000 0.0000
# 3 50.1059 48.1042 116.6205 0.0000 0.0000 0.0000
# 4 0.0000 0.0000 0.0000 37.9015 0.0000 0.0000
# 5 0.0000 0.0000 0.0000 0.0000 17.1495 0.0000
# 6 0.0000 0.0000 0.0000 0.0000 0.0000 9.5837
#
#
#
# Elastic Compliance Matrix: (Units=1/GPa)
#
#
# Indices 1 2 3 4 5 6 
#
# 1 0.009477 -0.001168 -0.003590 0.000000 0.000000 0.000000
# 2 -0.001168 0.010890 -0.003990 0.000000 0.000000 0.000000
# 3 -0.003590 -0.003990 0.011763 0.000000 0.000000 0.000000
# 4 0.000000 0.000000 0.000000 0.026384 0.000000 0.000000
# 5 0.000000 0.000000 0.000000 0.000000 0.058311 0.000000
# 6 0.000000 0.000000 0.000000 0.000000 0.000000 0.104344
#
#
# Mechanical properties :
#
#
# Convention : Reuss Voigt Hill
#
# Bulk Modulus (GPa) = 68.33426 68.74132 68.53779
# Shear Modulus (GPa) = 20.53028 28.10264 24.31646
#
# Velocity S-wave (km/s) = 3.14464 3.67914 3.42234
# Velocity P-wave (km/s) = 6.78965 7.15252 6.97344
#
# Compressibility (1/GPa) = 0.01463395
#
# Stress axis : x y z
#
# Youngs Moduli (GPa) = 105.52119 91.82619 85.01106
#
# Poissons Ratio (x) = 0.10724 0.30519
# Poissons Ratio (y) = 0.12323 0.33922
# Poissons Ratio (z) = 0.37882 0.36641
#
# Static dielectric constant tensor:
#      x y z
#    x 4.052660 0.000000 0.000000 
#    y 0.000000 4.021970 0.000000 
#    z 0.000000 0.000000 4.124610 
# 
# 
# High freq. dielectric constant tensor:
#      x y z
#    x 1.807420 0.000000 0.000000 
#    y 0.000000 1.834670 0.000000 
#    z 0.000000 0.000000 1.822460 
# 
# From -- ./inp_files/10379.got.cif
#   From: 2010.06.25/outbox.cif.g09.slc.cpg/sg52_6_cif.got.tgz:10379.got - 2010.06.26 19:32:48.
