data_PCOD8216846
_publ_section_title
;
Structure prediction by ZEFSAII (Michael W. Deem and Ramdas Pophale) SiO2 
 PCOD8216846
Probable space group: P N N A
;
_chemical_formula_sum "Si O2"
_cell_formula_units_Z 56
_cell_length_a 18.682029
_cell_length_b 9.306298
_cell_length_c 14.308044
_cell_angle_alpha 90.000000
_cell_angle_beta 90.000000
_cell_angle_gamma 90.000000
_cell_volume 2487.604100
_symmetry_space_group_name_H-M "P N N A"
_symmetry_group_IT_number 52
_symmetry_cell_setting 'orthorhombic'
loop_
_space_group_symop_operation_xyz
x,y,z
1/2-x,-y,z
x,1/2-y,1/2-z
1/2-x,1/2+y,1/2-z
-x,-y,-z
1/2+x,y,-z
-x,1/2+y,1/2+z
1/2+x,1/2-y,1/2+z
loop_
_atom_site_type_symbol
_atom_site_label
_atom_site_fract_x
_atom_site_fract_y
_atom_site_fract_z
Si Si1 0.639680 0.319562 0.841698
Si Si2 0.972765 0.787618 0.357792
Si Si3 0.129838 0.136419 0.979916
Si Si4 0.019172 0.613156 0.852215
Si Si5 0.571617 0.655283 0.503849
Si Si6 0.361680 0.250000 0.750000
Si Si7 0.750000 0.000000 0.547709
Si Si8 0.219740 0.711736 0.559434
O O1 0.677557 0.250000 0.750000
O O2 0.559842 0.365082 0.810657
O O3 0.684147 0.454664 0.884082
O O4 0.633854 0.192270 0.915532
O O5 0.966654 0.750000 0.250000
O O6 0.898030 0.754862 0.407926
O O7 0.038869 0.692210 0.395887
O O8 0.983060 0.951773 0.389056
O O9 0.211320 0.105108 0.945845
O O10 0.067345 0.013322 0.974945
O O11 0.082669 0.620302 0.774605
O O12 0.036784 0.734113 0.930036
O O13 0.658035 0.662309 0.511709
O O14 0.311154 0.293134 0.664423
O O15 0.736493 0.871656 0.475447
#
# Coordination Sequence:
#
# PCOD8216846 Si02
#       8
#     8   8   8   8   8   4   4   8
#     4  11  24  45  75 101 143 188 247 301 368 434
#     4  12  28  41  73 107 142 189 240 299 356 442
#     4  11  26  46  69 106 149 186 235 309 358 434
#     4  11  24  44  70 104 140 191 233 299 361 424
#     4  11  24  47  69 100 143 186 236 289 365 422
#     4  10  24  40  74 104 144 188 246 290 358 454
#     4  10  24  48  68 100 142 194 240 306 368 442
#     4  10  24  45  69 102 145 193 235 297 369 428
#
# _framework density 22.511621000000002
#
# number of rings (size 3 to 8) (size 9 to 14) (size 15 to 20)
#    0.000    1.143    2.143    2.143   15.000    0.000 
#   10.286    1.429    0.000    0.000    0.000    0.000 
#    0.000    0.000    0.000    0.000    0.000    0.000 
#
# Total GULP energy -693827.283334 kJ/mol
# GULP energy per Si atom -12389.772917 kJ/mol
# Density = 2.246038 g / cm^3
# Si number density = 22.511621 Si / 1000 Ang^3
#
#
#
# Elastic Constant Matrix: (Units=GPa)
#
#
# Indices 1 2 3 4 5 6 
#
# 1 133.3097 17.0177 55.7756 0.0000 0.0000 0.0000
# 2 17.0177 98.4806 39.9598 0.0000 0.0000 0.0000
# 3 55.7756 39.9598 146.4055 0.0000 0.0000 0.0000
# 4 0.0000 0.0000 0.0000 13.6522 0.0000 0.0000
# 5 0.0000 0.0000 0.0000 0.0000 27.6618 0.0000
# 6 0.0000 0.0000 0.0000 0.0000 0.0000 -32.2308
#
#
#
# Elastic Compliance Matrix: (Units=1/GPa)
#
#
# Indices 1 2 3 4 5 6 
#
# 1 0.008927 -0.000183 -0.003351 0.000000 0.000000 0.000000
# 2 -0.000183 0.011423 -0.003048 0.000000 0.000000 0.000000
# 3 -0.003351 -0.003048 0.008939 0.000000 0.000000 0.000000
# 4 0.000000 0.000000 0.000000 0.073248 0.000000 0.000000
# 5 0.000000 0.000000 0.000000 0.000000 0.036151 0.000000
# 6 0.000000 0.000000 0.000000 0.000000 0.000000 -0.031026
#
#
# Mechanical properties :
#
#
# Convention : Reuss Voigt Hill
#
# Bulk Modulus (GPa) = 62.01692 67.07801 64.54746
# Shear Modulus (GPa) = 39.61985 19.51283 29.56634
#
# Velocity S-wave (km/s) = 4.19975 2.94732 3.62799
# Velocity P-wave (km/s) = 7.15024 6.43770 6.80331
#
# Compressibility (1/GPa) = 0.01612463
#
# Stress axis : x y z
#
# Youngs Moduli (GPa) = 112.02426 87.54523 111.87149
#
# Poissons Ratio (x) = 0.01601 0.37486
# Poissons Ratio (y) = 0.02049 0.34099
# Poissons Ratio (z) = 0.37537 0.26684
#
# Static dielectric constant tensor:
#      x y z
#    x 4.542040 0.000000 0.000000 
#    y 0.000000 4.351870 0.000000 
#    z 0.000000 0.000000 3.952180 
# 
# 
# High freq. dielectric constant tensor:
#      x y z
#    x 1.907650 0.000000 0.000000 
#    y 0.000000 1.895110 0.000000 
#    z 0.000000 0.000000 1.876500 
# 
# From -- ./inp_files/28820.got.cif
#   From: 2010.06.25/outbox.cif.g09.slc.cpg/sg52_15_cif.got.tgz:28820.got - 2010.06.26 19:32:48.
