data_PCOD8216352
_publ_section_title
;
Structure prediction by ZEFSAII (Michael W. Deem and Ramdas Pophale) SiO2 
 PCOD8216352
Probable space group: P N N A
;
_chemical_formula_sum "Si O2"
_cell_formula_units_Z 48
_cell_length_a 8.773648
_cell_length_b 18.445759
_cell_length_c 13.558896
_cell_angle_alpha 90.000000
_cell_angle_beta 90.000000
_cell_angle_gamma 90.000000
_cell_volume 2194.325582
_symmetry_space_group_name_H-M "P N N A"
_symmetry_group_IT_number 52
_symmetry_cell_setting 'orthorhombic'
loop_
_space_group_symop_operation_xyz
x,y,z
1/2-x,-y,z
x,1/2-y,1/2-z
1/2-x,1/2+y,1/2-z
-x,-y,-z
1/2+x,y,-z
-x,1/2+y,1/2+z
1/2+x,1/2-y,1/2+z
loop_
_atom_site_type_symbol
_atom_site_label
_atom_site_fract_x
_atom_site_fract_y
_atom_site_fract_z
Si Si1 0.571633 0.325231 0.329923
Si Si2 0.301268 0.685413 0.885944
Si Si3 0.366302 0.934143 0.238934
Si Si4 0.576916 0.484031 0.397719
Si Si5 0.730715 0.210008 0.843808
Si Si6 0.445367 0.663853 0.078368
O O1 0.631664 0.340156 0.219369
O O2 0.689946 0.273470 0.387414
O O3 0.548178 0.400055 0.382823
O O4 0.412644 0.280933 0.340054
O O5 0.124232 0.667913 0.902034
O O6 0.404594 0.641035 0.965936
O O7 0.310417 0.875267 0.157754
O O8 0.381261 0.895670 0.345027
O O9 0.250000 0.000000 0.249497
O O10 0.520666 0.967522 0.194625
O O11 0.750000 0.500000 0.411239
O O12 0.500000 0.500000 0.500000
O O13 0.656035 0.250000 0.750000
O O14 0.645719 0.258066 0.926540
#
# Coordination Sequence:
#
# PCOD8216352 Si02
#       6
#     8   8   8   8   8   8
#     4  11  24  44  69  95 144 175 231 289 350 410
#     4  11  25  43  69 107 134 184 235 295 345 414
#     4  11  24  46  71 100 137 183 232 283 355 417
#     4  12  28  44  66  98 139 182 228 279 350 422
#     4  10  21  41  70  94 131 177 222 280 342 402
#     4  11  26  43  73 103 141 177 242 285 353 414
#
# _framework density 21.874600999999998
#
# number of rings (size 3 to 8) (size 9 to 14) (size 15 to 20)
#    0.000    1.000    3.333    2.500   14.000    0.000 
#    0.000    4.167    0.000    0.000    0.000    0.000 
#    0.000    0.000    0.000    0.000    0.000    0.000 
#
# Total GULP energy -594729.786030 kJ/mol
# GULP energy per Si atom -12390.203876 kJ/mol
# Density = 2.182481 g / cm^3
# Si number density = 21.874601 Si / 1000 Ang^3
#
#
#
# Elastic Constant Matrix: (Units=GPa)
#
#
# Indices 1 2 3 4 5 6 
#
# 1 150.6305 30.5528 47.9519 0.0000 0.0000 0.0000
# 2 30.5528 135.7218 41.9430 0.0000 0.0000 0.0000
# 3 47.9519 41.9430 127.2386 0.0000 0.0000 0.0000
# 4 0.0000 0.0000 0.0000 25.6892 0.0000 0.0000
# 5 0.0000 0.0000 0.0000 0.0000 37.0892 0.0000
# 6 0.0000 0.0000 0.0000 0.0000 0.0000 28.5560
#
#
#
# Elastic Compliance Matrix: (Units=1/GPa)
#
#
# Indices 1 2 3 4 5 6 
#
# 1 0.007647 -0.000925 -0.002577 0.000000 0.000000 0.000000
# 2 -0.000925 0.008316 -0.002393 0.000000 0.000000 0.000000
# 3 -0.002577 -0.002393 0.009619 0.000000 0.000000 0.000000
# 4 0.000000 0.000000 0.000000 0.038927 0.000000 0.000000
# 5 0.000000 0.000000 0.000000 0.000000 0.026962 0.000000
# 6 0.000000 0.000000 0.000000 0.000000 0.000000 0.035019
#
#
# Mechanical properties :
#
#
# Convention : Reuss Voigt Hill
#
# Bulk Modulus (GPa) = 72.50310 72.72071 72.61191
# Shear Modulus (GPa) = 34.99546 37.80974 36.40260
#
# Velocity S-wave (km/s) = 4.00412 4.16201 4.08382
# Velocity P-wave (km/s) = 7.38878 7.51085 7.45007
#
# Compressibility (1/GPa) = 0.01379251
#
# Stress axis : x y z
#
# Youngs Moduli (GPa) = 130.77521 120.25531 103.96017
#
# Poissons Ratio (x) = 0.11124 0.26789
# Poissons Ratio (y) = 0.12097 0.24873
# Poissons Ratio (z) = 0.33699 0.28772
#
# Static dielectric constant tensor:
#      x y z
#    x 4.029720 0.000000 0.000000 
#    y 0.000000 4.014430 0.000000 
#    z 0.000000 0.000000 4.081410 
# 
# 
# High freq. dielectric constant tensor:
#      x y z
#    x 1.867520 0.000000 0.000000 
#    y 0.000000 1.855480 0.000000 
#    z 0.000000 0.000000 1.868880 
# 
# From -- ./inp_files/24734.got.cif
#   From: 2010.06.25/outbox.cif.g09.slc.cpg/sg52_13_cif.got.tgz:24734.got - 2010.06.26 19:32:48.
