data_PCOD8216259
_publ_section_title
;
Structure prediction by ZEFSAII (Michael W. Deem and Ramdas Pophale) SiO2 
 PCOD8216259
Probable space group: P N N A
;
_chemical_formula_sum "Si O2"
_cell_formula_units_Z 64
_cell_length_a 15.070451
_cell_length_b 11.194195
_cell_length_c 18.544844
_cell_angle_alpha 90.000000
_cell_angle_beta 90.000000
_cell_angle_gamma 90.000000
_cell_volume 3128.544247
_symmetry_space_group_name_H-M "P N N A"
_symmetry_group_IT_number 52
_symmetry_cell_setting 'orthorhombic'
loop_
_space_group_symop_operation_xyz
x,y,z
1/2-x,-y,z
x,1/2-y,1/2-z
1/2-x,1/2+y,1/2-z
-x,-y,-z
1/2+x,y,-z
-x,1/2+y,1/2+z
1/2+x,1/2-y,1/2+z
loop_
_atom_site_type_symbol
_atom_site_label
_atom_site_fract_x
_atom_site_fract_y
_atom_site_fract_z
Si Si1 0.393679 0.669633 0.088937
Si Si2 0.163635 0.307237 0.935231
Si Si3 0.503853 0.140452 0.072960
Si Si4 0.833683 0.274223 0.167363
Si Si5 0.572321 0.680121 0.822790
Si Si6 0.980585 0.124712 0.093602
Si Si7 0.237775 0.126939 0.290903
Si Si8 0.450658 0.485727 0.876035
O O1 0.432877 0.797818 0.114908
O O2 0.342192 0.608428 0.154029
O O3 0.479863 0.585451 0.071702
O O4 0.325628 0.687285 0.022148
O O5 0.103373 0.191823 0.919247
O O6 0.252122 0.294137 0.887917
O O7 0.116496 0.433434 0.920861
O O8 0.438379 0.231380 0.110744
O O9 0.501190 0.012969 0.112975
O O10 0.466451 0.134353 0.992161
O O11 0.801438 0.250000 0.250000
O O12 0.892488 0.165682 0.136258
O O13 0.893688 0.392600 0.170652
O O14 0.555149 0.750000 0.750000
O O15 0.671834 0.638139 0.834490
O O16 0.504613 0.569630 0.821284
O O17 0.219060 0.250000 0.250000
O O18 0.250000 0.000000 0.246104
#
# Coordination Sequence:
#
# PCOD8216259 Si02
#       8
#     8   8   8   8   8   8   8   8
#     4  10  21  39  68  89 124 164 212 258 321 370
#     4  10  22  40  62  95 122 162 207 267 310 373
#     4   9  20  41  65  88 125 163 216 262 307 386
#     4  11  25  40  61  93 129 168 208 260 323 384
#     4  10  22  37  62  92 122 162 208 257 324 375
#     4   9  21  41  63  93 119 169 215 257 315 380
#     4  11  24  41  61  97 131 165 207 269 329 390
#     4  10  21  42  60  90 120 165 215 255 307 380
#
# _framework density 20.456797999999999
#
# number of rings (size 3 to 8) (size 9 to 14) (size 15 to 20)
#    0.000    2.000    1.250    0.750    3.500    8.500 
#    2.250    0.000    0.000    0.000    0.000    0.000 
#    0.000    0.000    0.000    0.000    0.000    0.000 
#
# Total GULP energy -792974.956975 kJ/mol
# GULP energy per Si atom -12390.233703 kJ/mol
# Density = 2.041024 g / cm^3
# Si number density = 20.456798 Si / 1000 Ang^3
#
#
#
# Elastic Constant Matrix: (Units=GPa)
#
#
# Indices 1 2 3 4 5 6 
#
# 1 95.9060 38.5881 39.9373 0.0000 0.0000 0.0000
# 2 38.5881 138.6655 33.7766 0.0000 0.0000 0.0000
# 3 39.9373 33.7766 70.1243 0.0000 0.0000 0.0000
# 4 0.0000 0.0000 0.0000 20.1444 0.0000 0.0000
# 5 0.0000 0.0000 0.0000 0.0000 28.0467 0.0000
# 6 0.0000 0.0000 0.0000 0.0000 0.0000 18.3992
#
#
#
# Elastic Compliance Matrix: (Units=1/GPa)
#
#
# Indices 1 2 3 4 5 6 
#
# 1 0.014265 -0.002255 -0.007038 0.000000 0.000000 0.000000
# 2 -0.002255 0.008527 -0.002823 0.000000 0.000000 0.000000
# 3 -0.007038 -0.002823 0.019628 0.000000 0.000000 0.000000
# 4 0.000000 0.000000 0.000000 0.049642 0.000000 0.000000
# 5 0.000000 0.000000 0.000000 0.000000 0.035655 0.000000
# 6 0.000000 0.000000 0.000000 0.000000 0.000000 0.054350
#
#
# Mechanical properties :
#
#
# Convention : Reuss Voigt Hill
#
# Bulk Modulus (GPa) = 54.98052 58.81108 56.89580
# Shear Modulus (GPa) = 23.54478 26.14430 24.84454
#
# Velocity S-wave (km/s) = 3.39625 3.57883 3.48873
# Velocity P-wave (km/s) = 6.50493 6.77412 6.64089
#
# Compressibility (1/GPa) = 0.01818826
#
# Stress axis : x y z
#
# Youngs Moduli (GPa) = 70.10121 117.27781 50.94716
#
# Poissons Ratio (x) = 0.26451 0.35856
# Poissons Ratio (y) = 0.15811 0.14380
# Poissons Ratio (z) = 0.49337 0.33102
#
# Static dielectric constant tensor:
#      x y z
#    x 3.669200 0.000000 0.000000 
#    y 0.000000 4.110190 0.000000 
#    z 0.000000 0.000000 3.468720 
# 
# 
# High freq. dielectric constant tensor:
#      x y z
#    x 1.794640 0.000000 0.000000 
#    y 0.000000 1.823620 0.000000 
#    z 0.000000 0.000000 1.778550 
# 
# From -- ./inp_files/33301.got.cif
#   From: 2010.06.25/outbox.cif.g09.slc.cpg/sg52_17_cif.got.tgz:33301.got - 2010.06.26 19:32:48.
