data_PCOD8216683
_publ_section_title
;
Structure prediction by ZEFSAII (Michael W. Deem and Ramdas Pophale) SiO2 
 PCOD8216683
Probable space group: P N N A
;
_chemical_formula_sum "Si O2"
_cell_formula_units_Z 44
_cell_length_a 13.495599
_cell_length_b 9.088969
_cell_length_c 17.606606
_cell_angle_alpha 90.000000
_cell_angle_beta 90.000000
_cell_angle_gamma 90.000000
_cell_volume 2159.645324
_symmetry_space_group_name_H-M "P N N A"
_symmetry_group_IT_number 52
_symmetry_cell_setting 'orthorhombic'
loop_
_space_group_symop_operation_xyz
x,y,z
1/2-x,-y,z
x,1/2-y,1/2-z
1/2-x,1/2+y,1/2-z
-x,-y,-z
1/2+x,y,-z
-x,1/2+y,1/2+z
1/2+x,1/2-y,1/2+z
loop_
_atom_site_type_symbol
_atom_site_label
_atom_site_fract_x
_atom_site_fract_y
_atom_site_fract_z
Si Si1 0.637054 0.522933 0.761148
Si Si2 0.491179 0.750000 0.250000
Si Si3 0.062769 0.833896 0.909709
Si Si4 0.395790 0.221866 0.129087
Si Si5 0.776556 0.170623 0.492846
Si Si6 0.413222 0.649381 0.535026
O O1 0.750000 0.500000 0.783787
O O2 0.578773 0.376416 0.782594
O O3 0.588970 0.648713 0.811514
O O4 0.627400 0.568676 0.672452
O O5 0.556596 0.816704 0.181347
O O6 0.128829 0.695873 0.937982
O O7 0.116095 0.984992 0.937386
O O8 0.953028 0.841169 0.947913
O O9 0.499173 0.211593 0.086476
O O10 0.303646 0.258565 0.074124
O O11 0.682769 0.251064 0.456119
O O12 0.750000 0.000000 0.501352
#
# Coordination Sequence:
#
# PCOD8216683 Si02
#       6
#     8   4   8   8   8   8
#     4  11  24  38  64  97 133 167 207 267 336 394
#     4  12  24  42  66  94 134 168 218 272 324 398
#     4  10  24  42  64  97 126 176 216 264 333 386
#     4  10  23  42  61  98 129 170 210 262 336 386
#     4  11  25  40  67  96 127 170 225 271 319 383
#     4  10  22  44  67  89 133 173 216 270 317 393
#
# _framework density 20.373715000000001
#
# number of rings (size 3 to 8) (size 9 to 14) (size 15 to 20)
#    0.000    1.455    1.818    2.182   10.182    1.455 
#    0.000    3.636    0.000    0.000    0.000    0.000 
#    0.000    0.000    0.000    0.000    0.000    0.000 
#
# Total GULP energy -545590.016839 kJ/mol
# GULP energy per Si atom -12399.773110 kJ/mol
# Density = 2.032734 g / cm^3
# Si number density = 20.373715 Si / 1000 Ang^3
#
#
#
# Elastic Constant Matrix: (Units=GPa)
#
#
# Indices 1 2 3 4 5 6 
#
# 1 73.2640 30.0624 21.5472 0.0000 0.0000 0.0000
# 2 30.0624 100.7063 23.8213 0.0000 0.0000 0.0000
# 3 21.5472 23.8213 105.3584 0.0000 0.0000 0.0000
# 4 0.0000 0.0000 0.0000 31.1549 0.0000 0.0000
# 5 0.0000 0.0000 0.0000 0.0000 -736.1593 0.0000
# 6 0.0000 0.0000 0.0000 0.0000 0.0000 35.5542
#
#
#
# Elastic Compliance Matrix: (Units=1/GPa)
#
#
# Indices 1 2 3 4 5 6 
#
# 1 0.016077 -0.004249 -0.002327 0.000000 0.000000 0.000000
# 2 -0.004249 0.011614 -0.001757 0.000000 0.000000 0.000000
# 3 -0.002327 -0.001757 0.010365 0.000000 0.000000 0.000000
# 4 0.000000 0.000000 0.000000 0.032098 0.000000 0.000000
# 5 0.000000 0.000000 0.000000 0.000000 -0.001358 0.000000
# 6 0.000000 0.000000 0.000000 0.000000 0.000000 0.028126
#
#
# Mechanical properties :
#
#
# Convention : Reuss Voigt Hill
#
# Bulk Modulus (GPa) = 46.75197 47.79894 47.27545
# Shear Modulus (GPa) = 41.41928 -120.29684 -39.43878
#
# Velocity S-wave (km/s) = 4.51375 -7.69242 -4.40451
# Velocity P-wave (km/s) = 7.08253 7.44216 1.61609
#
# Compressibility (1/GPa) = 0.02138947
#
# Stress axis : x y z
#
# Youngs Moduli (GPa) = 62.20008 86.10472 96.48201
#
# Poissons Ratio (x) = 0.36584 0.22455
# Poissons Ratio (y) = 0.26427 0.16951
# Poissons Ratio (z) = 0.14476 0.15128
#
# Static dielectric constant tensor:
#      x y z
#    x 3.495690 0.000000 0.000000 
#    y 0.000000 3.826100 0.000000 
#    z 0.000000 0.000000 3.805610 
# 
# 
# High freq. dielectric constant tensor:
#      x y z
#    x 1.784080 0.000000 0.000000 
#    y 0.000000 1.806960 0.000000 
#    z 0.000000 0.000000 1.797080 
# 
# From -- ./inp_files/32957.got.cif
#   From: 2010.06.25/outbox.cif.g09.slc.cpg/sg52_17_cif.got.tgz:32957.got - 2010.06.26 19:32:48.
