data_PCOD8216600
_publ_section_title
;
Structure prediction by ZEFSAII (Michael W. Deem and Ramdas Pophale) SiO2 
 PCOD8216600
Probable space group: P N N A
;
_chemical_formula_sum "Si O2"
_cell_formula_units_Z 40
_cell_length_a 5.740632
_cell_length_b 11.307247
_cell_length_c 27.935105
_cell_angle_alpha 90.000000
_cell_angle_beta 90.000000
_cell_angle_gamma 90.000000
_cell_volume 1813.288448
_symmetry_space_group_name_H-M "P N N A"
_symmetry_group_IT_number 52
_symmetry_cell_setting 'orthorhombic'
loop_
_space_group_symop_operation_xyz
x,y,z
1/2-x,-y,z
x,1/2-y,1/2-z
1/2-x,1/2+y,1/2-z
-x,-y,-z
1/2+x,y,-z
-x,1/2+y,1/2+z
1/2+x,1/2-y,1/2+z
loop_
_atom_site_type_symbol
_atom_site_label
_atom_site_fract_x
_atom_site_fract_y
_atom_site_fract_z
Si Si1 0.338966 0.125636 0.592900
Si Si2 0.947102 0.794481 0.160216
Si Si3 0.348955 0.624614 0.180137
Si Si4 0.088871 0.669528 0.526715
Si Si5 0.750000 0.500000 0.396638
Si Si6 0.333927 0.250000 0.750000
O O1 0.148689 0.195620 0.623859
O O2 0.553874 0.102203 0.627451
O O3 0.416104 0.196301 0.545491
O O4 0.250000 0.000000 0.574081
O O5 0.813063 0.815797 0.209521
O O6 0.196476 0.744222 0.175821
O O7 0.933161 0.921582 0.134155
O O8 0.250000 0.500000 0.197429
O O9 0.526984 0.648111 0.222774
O O10 0.344401 0.646212 0.501346
O O11 0.080793 0.582214 0.571881
#
# Coordination Sequence:
#
# PCOD8216600 Si02
#       6
#     8   8   8   8   4   4
#     4  10  22  41  66  99 133 176 230 285 361 424
#     4  10  22  42  63  96 136 182 232 284 349 424
#     4  11  22  40  71  94 137 188 230 298 354 430
#     4  11  26  46  72 105 141 183 237 299 361 432
#     4  10  24  46  70  96 142 190 232 292 350 438
#     4  10  24  38  58 106 132 176 236 284 354 412
#
# _framework density 22.059367999999999
#
# number of rings (size 3 to 8) (size 9 to 14) (size 15 to 20)
#    0.000    1.600    2.000    1.200    5.600    4.000 
#    7.200    0.000    0.000    0.000    0.000    0.000 
#    0.000    0.000    0.000    0.000    0.000    0.000 
#
# Total GULP energy -495546.979062 kJ/mol
# GULP energy per Si atom -12388.674477 kJ/mol
# Density = 2.200916 g / cm^3
# Si number density = 22.059368 Si / 1000 Ang^3
#
#
#
# Elastic Constant Matrix: (Units=GPa)
#
#
# Indices 1 2 3 4 5 6 
#
# 1 95.9933 38.2787 35.4939 0.0000 0.0000 0.0000
# 2 38.2787 152.0939 52.6768 0.0000 0.0000 0.0000
# 3 35.4939 52.6768 99.5357 0.0000 0.0000 0.0000
# 4 0.0000 0.0000 0.0000 24.4586 0.0000 0.0000
# 5 0.0000 0.0000 0.0000 0.0000 -17.2502 0.0000
# 6 0.0000 0.0000 0.0000 0.0000 0.0000 18.0121
#
#
#
# Elastic Compliance Matrix: (Units=1/GPa)
#
#
# Indices 1 2 3 4 5 6 
#
# 1 0.012457 -0.001955 -0.003407 0.000000 0.000000 0.000000
# 2 -0.001955 0.008357 -0.003726 0.000000 0.000000 0.000000
# 3 -0.003407 -0.003726 0.013233 0.000000 0.000000 0.000000
# 4 0.000000 0.000000 0.000000 0.040885 0.000000 0.000000
# 5 0.000000 0.000000 0.000000 0.000000 -0.057970 0.000000
# 6 0.000000 0.000000 0.000000 0.000000 0.000000 0.055518
#
#
# Mechanical properties :
#
#
# Convention : Reuss Voigt Hill
#
# Bulk Modulus (GPa) = 63.00673 66.72465 64.86569
# Shear Modulus (GPa) = 52.11156 19.78898 35.95027
#
# Velocity S-wave (km/s) = 4.86566 2.99838 4.04134
# Velocity P-wave (km/s) = 7.75825 6.50388 7.15859
#
# Compressibility (1/GPa) = 0.01587132
#
# Stress axis : x y z
#
# Youngs Moduli (GPa) = 80.27690 119.65577 75.56581
#
# Poissons Ratio (x) = 0.23392 0.25749
# Poissons Ratio (y) = 0.15694 0.28154
# Poissons Ratio (z) = 0.27354 0.44581
#
# Static dielectric constant tensor:
#      x y z
#    x 3.992190 0.000000 0.000000 
#    y 0.000000 3.070640 0.000000 
#    z 0.000000 0.000000 4.109950 
# 
# 
# High freq. dielectric constant tensor:
#      x y z
#    x 1.854590 0.000000 0.000000 
#    y 0.000000 1.877730 0.000000 
#    z 0.000000 0.000000 1.875050 
# 
# From -- ./inp_files/41522.got.cif
#   From: 2010.06.25/outbox.cif.g09.slc.cpg/sg52_21_cif.got.tgz:41522.got - 2010.06.26 19:32:48.
