data_PCOD8216749
_publ_section_title
;
Structure prediction by ZEFSAII (Michael W. Deem and Ramdas Pophale) SiO2 
 PCOD8216749
Probable space group: P N N A
;
_chemical_formula_sum "Si O2"
_cell_formula_units_Z 56
_cell_length_a 14.119281
_cell_length_b 21.150150
_cell_length_c 9.471524
_cell_angle_alpha 90.000000
_cell_angle_beta 90.000000
_cell_angle_gamma 90.000000
_cell_volume 2828.433012
_symmetry_space_group_name_H-M "P N N A"
_symmetry_group_IT_number 52
_symmetry_cell_setting 'orthorhombic'
loop_
_space_group_symop_operation_xyz
x,y,z
1/2-x,-y,z
x,1/2-y,1/2-z
1/2-x,1/2+y,1/2-z
-x,-y,-z
1/2+x,y,-z
-x,1/2+y,1/2+z
1/2+x,1/2-y,1/2+z
loop_
_atom_site_type_symbol
_atom_site_label
_atom_site_fract_x
_atom_site_fract_y
_atom_site_fract_z
Si Si1 0.678447 0.751195 0.418158
Si Si2 0.172893 0.051001 0.817203
Si Si3 0.126595 0.383518 0.163091
Si Si4 0.174115 0.157576 0.032605
Si Si5 0.769692 0.389694 0.059283
Si Si6 0.465710 0.761192 0.415883
Si Si7 0.045068 0.966314 0.632693
O O1 0.682668 0.750000 0.250000
O O2 0.726335 0.688399 0.483624
O O3 0.726975 0.815160 0.472993
O O4 0.571406 0.754565 0.474909
O O5 0.216272 0.098942 0.704789
O O6 0.250000 0.000000 0.866753
O O7 0.082619 0.015595 0.749546
O O8 0.146360 0.093121 0.952130
O O9 0.179018 0.356986 0.301153
O O10 0.080972 0.329751 0.061112
O O11 0.038920 0.427772 0.209493
O O12 0.206590 0.419379 0.068514
O O13 0.093325 0.208752 0.999526
O O14 0.872641 0.421174 0.071541
O O15 0.464974 0.750000 0.250000
O O16 0.000000 0.000000 0.500000
#
# Coordination Sequence:
#
# PCOD8216749 Si02
#       7
#     8   8   8   8   8   8   8
#     4  11  20  36  66  92 122 164 206 250 314 381
#     4  10  23  41  62  92 124 170 219 250 309 392
#     4  11  22  40  64  94 129 161 208 270 324 368
#     4  11  23  40  63  97 131 160 202 272 322 374
#     4  11  21  39  67  90 120 168 214 258 308 383
#     4   9  20  36  61  91 123 163 201 246 322 382
#     4  11  23  42  66  89 123 171 221 257 309 384
#
# _framework density 19.798946999999998
#
# number of rings (size 3 to 8) (size 9 to 14) (size 15 to 20)
#    0.000    1.429    5.714    0.000    0.000    0.571 
#    5.143    0.000    3.143    0.000    0.000    0.000 
#    0.000    0.000    0.000    0.000    0.000    0.000 
#
# Total GULP energy -694302.725264 kJ/mol
# GULP energy per Si atom -12398.262951 kJ/mol
# Density = 1.975388 g / cm^3
# Si number density = 19.798947 Si / 1000 Ang^3
#
#
#
# Elastic Constant Matrix: (Units=GPa)
#
#
# Indices 1 2 3 4 5 6 
#
# 1 84.2417 19.2530 51.9826 0.0000 0.0000 0.0000
# 2 19.2530 92.5745 36.7670 0.0000 0.0000 0.0000
# 3 51.9826 36.7670 68.6776 0.0000 0.0000 0.0000
# 4 0.0000 0.0000 0.0000 37.8163 0.0000 0.0000
# 5 0.0000 0.0000 0.0000 0.0000 23.2020 0.0000
# 6 0.0000 0.0000 0.0000 0.0000 0.0000 28.4463
#
#
#
# Elastic Compliance Matrix: (Units=1/GPa)
#
#
# Indices 1 2 3 4 5 6 
#
# 1 0.022786 0.002681 -0.018682 0.000000 0.000000 0.000000
# 2 0.002681 0.014035 -0.009543 0.000000 0.000000 0.000000
# 3 -0.018682 -0.009543 0.033810 0.000000 0.000000 0.000000
# 4 0.000000 0.000000 0.000000 0.026444 0.000000 0.000000
# 5 0.000000 0.000000 0.000000 0.000000 0.043100 0.000000
# 6 0.000000 0.000000 0.000000 0.000000 0.000000 0.035154
#
#
# Mechanical properties :
#
#
# Convention : Reuss Voigt Hill
#
# Bulk Modulus (GPa) = 51.16947 51.27767 51.22357
# Shear Modulus (GPa) = 21.46569 27.05901 24.26235
#
# Velocity S-wave (km/s) = 3.29627 3.70089 3.50442
# Velocity P-wave (km/s) = 6.35514 6.64962 6.50405
#
# Compressibility (1/GPa) = 0.01954290
#
# Stress axis : x y z
#
# Youngs Moduli (GPa) = 43.88671 71.25284 29.57695
#
# Poissons Ratio (x) = -0.19102 0.55256
# Poissons Ratio (y) = -0.11766 0.28224
# Poissons Ratio (z) = 0.81990 0.67994
#
# Static dielectric constant tensor:
#      x y z
#    x 3.788270 0.000000 0.000000 
#    y 0.000000 3.621680 0.000000 
#    z 0.000000 0.000000 3.244560 
# 
# 
# High freq. dielectric constant tensor:
#      x y z
#    x 1.780710 0.000000 0.000000 
#    y 0.000000 1.780050 0.000000 
#    z 0.000000 0.000000 1.745600 
# 
# From -- ./inp_files/10834.got.cif
#   From: 2010.06.25/outbox.cif.g09.slc.cpg/sg52_6_cif.got.tgz:10834.got - 2010.06.26 19:32:48.
