data_PCOD8216541
_publ_section_title
;
Structure prediction by ZEFSAII (Michael W. Deem and Ramdas Pophale) SiO2 
 PCOD8216541
Probable space group: P N N A
;
_chemical_formula_sum "Si O2"
_cell_formula_units_Z 44
_cell_length_a 16.249676
_cell_length_b 12.048169
_cell_length_c 11.210183
_cell_angle_alpha 90.000000
_cell_angle_beta 90.000000
_cell_angle_gamma 90.000000
_cell_volume 2194.716654
_symmetry_space_group_name_H-M "P N N A"
_symmetry_group_IT_number 52
_symmetry_cell_setting 'orthorhombic'
loop_
_space_group_symop_operation_xyz
x,y,z
1/2-x,-y,z
x,1/2-y,1/2-z
1/2-x,1/2+y,1/2-z
-x,-y,-z
1/2+x,y,-z
-x,1/2+y,1/2+z
1/2+x,1/2-y,1/2+z
loop_
_atom_site_type_symbol
_atom_site_label
_atom_site_fract_x
_atom_site_fract_y
_atom_site_fract_z
Si Si1 0.415105 0.750000 0.250000
Si Si2 0.570943 0.313616 0.366486
Si Si3 0.547484 0.798627 0.065074
Si Si4 0.830286 0.852822 0.531172
Si Si5 0.345333 0.091817 0.555651
Si Si6 0.835837 0.034294 0.176029
O O1 0.476732 0.818741 0.164322
O O2 0.356605 0.827598 0.331862
O O3 0.542636 0.250000 0.250000
O O4 0.488500 0.339388 0.439996
O O5 0.635706 0.242810 0.444137
O O6 0.605394 0.429567 0.321708
O O7 0.574262 0.669829 0.051168
O O8 0.627877 0.868188 0.095627
O O9 0.731337 0.856775 0.518417
O O10 0.869552 0.971939 0.497432
O O11 0.317223 0.079956 0.692275
O O12 0.750000 0.000000 0.115551
#
# Coordination Sequence:
#
# PCOD8216541 Si02
#       6
#     4   8   8   8   8   8
#     4  10  22  40  64  90 134 164 206 262 330 384
#     4  11  22  39  60  94 130 165 215 267 323 385
#     4  11  24  39  63  93 127 174 211 265 326 388
#     4  10  22  40  66  97 126 169 210 269 318 387
#     4  11  20  40  66  95 121 167 224 257 316 386
#     4  12  21  38  66  96 126 163 215 275 316 382
#
# _framework density 20.048145000000002
#
# number of rings (size 3 to 8) (size 9 to 14) (size 15 to 20)
#    0.000    1.091    5.455    1.636    0.000    4.364 
#    1.636    0.000   24.000    0.000    0.000    0.000 
#    0.000    0.000    0.000    0.000    0.000    0.000 
#
# Total GULP energy -545614.771446 kJ/mol
# GULP energy per Si atom -12400.335715 kJ/mol
# Density = 2.000251 g / cm^3
# Si number density = 20.048145 Si / 1000 Ang^3
#
#
#
# Elastic Constant Matrix: (Units=GPa)
#
#
# Indices 1 2 3 4 5 6 
#
# 1 90.3379 33.1827 45.8697 0.0000 0.0000 0.0000
# 2 33.1827 80.9488 30.6777 0.0000 0.0000 0.0000
# 3 45.8697 30.6777 109.4422 0.0000 0.0000 0.0000
# 4 0.0000 0.0000 0.0000 26.8816 0.0000 0.0000
# 5 0.0000 0.0000 0.0000 0.0000 67.5366 0.0000
# 6 0.0000 0.0000 0.0000 0.0000 0.0000 19.8124
#
#
#
# Elastic Compliance Matrix: (Units=1/GPa)
#
#
# Indices 1 2 3 4 5 6 
#
# 1 0.015290 -0.004295 -0.005204 0.000000 0.000000 0.000000
# 2 -0.004295 0.015028 -0.002412 0.000000 0.000000 0.000000
# 3 -0.005204 -0.002412 0.011995 0.000000 0.000000 0.000000
# 4 0.000000 0.000000 0.000000 0.037200 0.000000 0.000000
# 5 0.000000 0.000000 0.000000 0.000000 0.014807 0.000000
# 6 0.000000 0.000000 0.000000 0.000000 0.000000 0.050473
#
#
# Mechanical properties :
#
#
# Convention : Reuss Voigt Hill
#
# Bulk Modulus (GPa) = 54.08614 55.57656 54.83135
# Shear Modulus (GPa) = 28.60736 34.24605 31.42670
#
# Velocity S-wave (km/s) = 3.78157 4.13751 3.96354
# Velocity P-wave (km/s) = 6.78998 7.11386 6.95381
#
# Compressibility (1/GPa) = 0.01848903
#
# Stress axis : x y z
#
# Youngs Moduli (GPa) = 65.40304 66.54048 83.37023
#
# Poissons Ratio (x) = 0.28581 0.43388
# Poissons Ratio (y) = 0.28093 0.20112
# Poissons Ratio (z) = 0.34038 0.16052
#
# Static dielectric constant tensor:
#      x y z
#    x 3.653270 0.000000 0.000000 
#    y 0.000000 3.730210 0.000000 
#    z 0.000000 0.000000 3.738680 
# 
# 
# High freq. dielectric constant tensor:
#      x y z
#    x 1.781660 0.000000 0.000000 
#    y 0.000000 1.785800 0.000000 
#    z 0.000000 0.000000 1.775850 
# 
# From -- ./inp_files/20507.got.cif
#   From: 2010.06.25/outbox.cif.g09.slc.cpg/sg52_11_cif.got.tgz:20507.got - 2010.06.26 19:32:48.
