data_PCOD8216470
_publ_section_title
;
Structure prediction by ZEFSAII (Michael W. Deem and Ramdas Pophale) SiO2 
 PCOD8216470
Probable space group: P N N A
;
_chemical_formula_sum "Si O2"
_cell_formula_units_Z 56
_cell_length_a 13.735263
_cell_length_b 21.380972
_cell_length_c 9.164974
_cell_angle_alpha 90.000000
_cell_angle_beta 90.000000
_cell_angle_gamma 90.000000
_cell_volume 2691.507917
_symmetry_space_group_name_H-M "P N N A"
_symmetry_group_IT_number 52
_symmetry_cell_setting 'orthorhombic'
loop_
_space_group_symop_operation_xyz
x,y,z
1/2-x,-y,z
x,1/2-y,1/2-z
1/2-x,1/2+y,1/2-z
-x,-y,-z
1/2+x,y,-z
-x,1/2+y,1/2+z
1/2+x,1/2-y,1/2+z
loop_
_atom_site_type_symbol
_atom_site_label
_atom_site_fract_x
_atom_site_fract_y
_atom_site_fract_z
Si Si1 0.384346 0.152656 0.679182
Si Si2 0.688098 0.114009 0.420808
Si Si3 0.260914 0.307488 0.353916
Si Si4 0.279869 0.433998 0.198840
Si Si5 0.364053 0.749107 0.924741
Si Si6 0.073455 0.779761 0.960674
Si Si7 0.482870 0.068703 0.442977
O O1 0.278173 0.118558 0.694608
O O2 0.429149 0.164982 0.839142
O O3 0.368090 0.219331 0.599297
O O4 0.459204 0.111661 0.583540
O O5 0.722704 0.066638 0.545894
O O6 0.672656 0.182953 0.485605
O O7 0.582879 0.090729 0.360716
O O8 0.228468 0.250000 0.250000
O O9 0.239804 0.375767 0.290534
O O10 0.205578 0.302764 0.509706
O O11 0.375289 0.303296 0.391507
O O12 0.250000 0.500000 0.274677
O O13 0.396004 0.428002 0.174739
O O14 0.365048 0.750000 0.750000
O O15 0.467244 0.760254 0.995903
O O16 0.500000 0.000000 0.500000
#
# Coordination Sequence:
#
# PCOD8216470 Si02
#       7
#     8   8   8   8   8   8   8
#     4  10  22  38  61  95 131 169 211 280 335 396
#     4  11  21  39  61  94 133 167 221 272 339 395
#     4  12  24  42  66  98 132 174 221 284 339 400
#     4  11  24  41  66  97 134 179 231 281 341 404
#     4  12  25  38  67  98 134 176 218 280 347 406
#     4  11  23  39  62  94 133 166 218 271 340 401
#     4  11  22  38  66  95 130 179 229 279 328 405
#
# _framework density 20.806180000000001
#
# number of rings (size 3 to 8) (size 9 to 14) (size 15 to 20)
#    0.000    0.857    5.714    2.143    6.000    0.000 
#    0.000    0.000    6.286    1.714    0.000    0.000 
#    0.000    0.000    0.000    0.000    0.000    0.000 
#
# Total GULP energy -694112.108970 kJ/mol
# GULP energy per Si atom -12394.859089 kJ/mol
# Density = 2.075882 g / cm^3
# Si number density = 20.806180 Si / 1000 Ang^3
#
#
#
# Elastic Constant Matrix: (Units=GPa)
#
#
# Indices 1 2 3 4 5 6 
#
# 1 109.9121 22.8956 22.0225 0.0000 0.0000 0.0000
# 2 22.8956 127.9813 40.6266 0.0000 0.0000 0.0000
# 3 22.0225 40.6266 81.0528 0.0000 0.0000 0.0000
# 4 0.0000 0.0000 0.0000 26.3594 0.0000 0.0000
# 5 0.0000 0.0000 0.0000 0.0000 27.1553 0.0000
# 6 0.0000 0.0000 0.0000 0.0000 0.0000 27.5550
#
#
#
# Elastic Compliance Matrix: (Units=1/GPa)
#
#
# Indices 1 2 3 4 5 6 
#
# 1 0.009744 -0.001074 -0.002109 0.000000 0.000000 0.000000
# 2 -0.001074 0.009410 -0.004425 0.000000 0.000000 0.000000
# 3 -0.002109 -0.004425 0.015129 0.000000 0.000000 0.000000
# 4 0.000000 0.000000 0.000000 0.037937 0.000000 0.000000
# 5 0.000000 0.000000 0.000000 0.000000 0.036825 0.000000
# 6 0.000000 0.000000 0.000000 0.000000 0.000000 0.036291
#
#
# Mechanical properties :
#
#
# Convention : Reuss Voigt Hill
#
# Bulk Modulus (GPa) = 52.44595 54.44838 53.44717
# Shear Modulus (GPa) = 29.95636 31.77404 30.86520
#
# Velocity S-wave (km/s) = 3.79856 3.91211 3.85575
# Velocity P-wave (km/s) = 6.67086 6.82878 6.75028
#
# Compressibility (1/GPa) = 0.01906725
#
# Stress axis : x y z
#
# Youngs Moduli (GPa) = 102.62213 106.26495 66.09891
#
# Poissons Ratio (x) = 0.11409 0.13943
# Poissons Ratio (y) = 0.11018 0.29250
# Poissons Ratio (z) = 0.21648 0.47024
#
# Static dielectric constant tensor:
#      x y z
#    x 4.051870 0.000000 0.000000 
#    y 0.000000 3.802980 0.000000 
#    z 0.000000 0.000000 3.487200 
# 
# 
# High freq. dielectric constant tensor:
#      x y z
#    x 1.836710 0.000000 0.000000 
#    y 0.000000 1.807340 0.000000 
#    z 0.000000 0.000000 1.777870 
# 
# From -- ./inp_files/10787.got.cif
#   From: 2010.06.25/outbox.cif.g09.slc.cpg/sg52_6_cif.got.tgz:10787.got - 2010.06.26 19:32:48.
