data_PCOD8216752
_publ_section_title
;
Structure prediction by ZEFSAII (Michael W. Deem and Ramdas Pophale) SiO2 
 PCOD8216752
Probable space group: P N N A
;
_chemical_formula_sum "Si O2"
_cell_formula_units_Z 32
_cell_length_a 13.953580
_cell_length_b 5.323188
_cell_length_c 17.944160
_cell_angle_alpha 90.000000
_cell_angle_beta 90.000000
_cell_angle_gamma 90.000000
_cell_volume 1332.847876
_symmetry_space_group_name_H-M "P N N A"
_symmetry_group_IT_number 52
_symmetry_cell_setting 'orthorhombic'
loop_
_space_group_symop_operation_xyz
x,y,z
1/2-x,-y,z
x,1/2-y,1/2-z
1/2-x,1/2+y,1/2-z
-x,-y,-z
1/2+x,y,-z
-x,1/2+y,1/2+z
1/2+x,1/2-y,1/2+z
loop_
_atom_site_type_symbol
_atom_site_label
_atom_site_fract_x
_atom_site_fract_y
_atom_site_fract_z
Si Si1 0.636466 0.998897 0.289842
Si Si2 0.250000 0.000000 0.982374
Si Si3 0.419681 0.709067 0.937198
Si Si4 0.374968 0.367879 0.070065
Si Si5 0.750000 0.500000 0.797947
O O1 0.595671 0.250000 0.250000
O O2 0.600938 0.995831 0.375377
O O3 0.750000 0.000000 0.287770
O O4 0.595076 0.750000 0.250000
O O5 0.339226 0.927208 0.928515
O O6 0.216581 0.772639 0.035197
O O7 0.529175 0.808856 0.926247
O O8 0.406084 0.604556 0.020395
O O9 0.344944 0.460750 0.151806
O O10 0.767645 0.750000 0.750000
#
# Coordination Sequence:
#
# PCOD8216752 Si02
#       5
#     8   4   8   8   4
#     4  10  23  41  64 101 144 191 234 293 374 446
#     4  12  21  44  74 107 146 192 244 326 373 450
#     4  11  25  42  75 104 144 196 254 318 374 457
#     4  11  25  46  70 110 141 194 260 313 379 454
#     4  12  27  50  78 107 158 208 254 318 393 464
#
# _framework density 24.008742000000002
#
# number of rings (size 3 to 8) (size 9 to 14) (size 15 to 20)
#    0.000    1.000    2.500    3.000    8.750    2.000 
#    0.000    0.000    0.000    0.000    0.000    0.000 
#    0.000    0.000    0.000    0.000    0.000    0.000 
#
# Total GULP energy -396804.908108 kJ/mol
# GULP energy per Si atom -12400.153378 kJ/mol
# Density = 2.395410 g / cm^3
# Si number density = 24.008742 Si / 1000 Ang^3
#
#
#
# Elastic Constant Matrix: (Units=GPa)
#
#
# Indices 1 2 3 4 5 6 
#
# 1 165.0539 40.9815 48.2048 0.0000 0.0000 0.0000
# 2 40.9815 89.8042 40.5415 0.0000 0.0000 0.0000
# 3 48.2048 40.5415 138.9544 0.0000 0.0000 0.0000
# 4 0.0000 0.0000 0.0000 23.2059 0.0000 0.0000
# 5 0.0000 0.0000 0.0000 0.0000 19.5797 0.0000
# 6 0.0000 0.0000 0.0000 0.0000 0.0000 34.2926
#
#
#
# Elastic Compliance Matrix: (Units=1/GPa)
#
#
# Indices 1 2 3 4 5 6 
#
# 1 0.007192 -0.002483 -0.001771 0.000000 0.000000 0.000000
# 2 -0.002483 0.013682 -0.003130 0.000000 0.000000 0.000000
# 3 -0.001771 -0.003130 0.008724 0.000000 0.000000 0.000000
# 4 0.000000 0.000000 0.000000 0.043092 0.000000 0.000000
# 5 0.000000 0.000000 0.000000 0.000000 0.051073 0.000000
# 6 0.000000 0.000000 0.000000 0.000000 0.000000 0.029161
#
#
# Mechanical properties :
#
#
# Convention : Reuss Voigt Hill
#
# Bulk Modulus (GPa) = 67.42997 72.58535 70.00766
# Shear Modulus (GPa) = 28.96273 33.02129 30.99201
#
# Velocity S-wave (km/s) = 3.47701 3.71264 3.59676
# Velocity P-wave (km/s) = 6.65327 6.97688 6.81699
#
# Compressibility (1/GPa) = 0.01483020
#
# Stress axis : x y z
#
# Youngs Moduli (GPa) = 139.03935 73.09112 114.62343
#
# Poissons Ratio (x) = 0.18147 0.20296
# Poissons Ratio (y) = 0.34520 0.35882
# Poissons Ratio (z) = 0.24619 0.22881
#
# Static dielectric constant tensor:
#      x y z
#    x 4.649220 0.000000 0.000000 
#    y 0.000000 4.187410 0.000000 
#    z 0.000000 0.000000 4.331990 
# 
# 
# High freq. dielectric constant tensor:
#      x y z
#    x 1.958480 0.000000 0.000000 
#    y 0.000000 1.935930 0.000000 
#    z 0.000000 0.000000 1.951360 
# 
# From -- ./inp_files/32633.got.cif
#   From: 2010.06.25/outbox.cif.g09.slc.cpg/sg52_17_cif.got.tgz:32633.got - 2010.06.26 19:32:48.
