data_PCOD8216928
_publ_section_title
;
Structure prediction by ZEFSAII (Michael W. Deem and Ramdas Pophale) SiO2 
 PCOD8216928
Probable space group: P N N A
;
_chemical_formula_sum "Si O2"
_cell_formula_units_Z 28
_cell_length_a 15.587893
_cell_length_b 7.232138
_cell_length_c 8.844942
_cell_angle_alpha 90.000000
_cell_angle_beta 90.000000
_cell_angle_gamma 90.000000
_cell_volume 997.123863
_symmetry_space_group_name_H-M "P N N A"
_symmetry_group_IT_number 52
_symmetry_cell_setting 'orthorhombic'
loop_
_space_group_symop_operation_xyz
x,y,z
1/2-x,-y,z
x,1/2-y,1/2-z
1/2-x,1/2+y,1/2-z
-x,-y,-z
1/2+x,y,-z
-x,1/2+y,1/2+z
1/2+x,1/2-y,1/2+z
loop_
_atom_site_type_symbol
_atom_site_label
_atom_site_fract_x
_atom_site_fract_y
_atom_site_fract_z
Si Si1 0.782750 0.302444 0.084126
Si Si2 0.937711 0.968049 0.776903
Si Si3 0.250000 0.500000 0.352647
Si Si4 0.474991 0.291802 0.000279
O O1 0.750000 0.500000 0.037896
O O2 0.747895 0.250000 0.250000
O O3 0.884631 0.287327 0.083751
O O4 0.738670 0.175914 0.958820
O O5 0.985518 0.015920 0.611428
O O6 0.836305 0.008678 0.751510
O O7 0.978968 0.125616 0.881121
O O8 0.953707 0.769128 0.867912
#
# Coordination Sequence:
#
# PCOD8216928 Si02
#       4
#     8   8   4   8
#     4  12  27  51  80 122 169 225 290 362 440 535
#     4  10  24  47  80 123 166 231 285 366 439 537
#     4  12  30  48  84 128 170 226 290 364 454 522
#     4  10  24  47  82 117 171 228 296 356 449 538
#
# _framework density 28.080763999999999
#
# number of rings (size 3 to 8) (size 9 to 14) (size 15 to 20)
#    0.000    1.143    4.286    0.000   14.000    2.286 
#    0.000    0.000    0.000    0.000    0.000    0.000 
#    0.000    0.000    0.000    0.000    0.000    0.000 
#
# Total GULP energy -347324.869554 kJ/mol
# GULP energy per Si atom -12404.459627 kJ/mol
# Density = 2.801685 g / cm^3
# Si number density = 28.080764 Si / 1000 Ang^3
#
#
#
# Elastic Constant Matrix: (Units=GPa)
#
#
# Indices 1 2 3 4 5 6 
#
# 1 106.6579 17.0479 84.0019 0.0000 0.0000 0.0000
# 2 17.0479 253.3944 98.5646 0.0000 0.0000 0.0000
# 3 84.0019 98.5646 220.6464 0.0000 0.0000 0.0000
# 4 0.0000 0.0000 0.0000 32.3212 0.0000 0.0000
# 5 0.0000 0.0000 0.0000 0.0000 31.0431 0.0000
# 6 0.0000 0.0000 0.0000 0.0000 0.0000 40.9294
#
#
#
# Elastic Compliance Matrix: (Units=1/GPa)
#
#
# Indices 1 2 3 4 5 6 
#
# 1 0.013760 0.001346 -0.005840 0.000000 0.000000 0.000000
# 2 0.001346 0.004908 -0.002705 0.000000 0.000000 0.000000
# 3 -0.005840 -0.002705 0.007964 0.000000 0.000000 0.000000
# 4 0.000000 0.000000 0.000000 0.030939 0.000000 0.000000
# 5 0.000000 0.000000 0.000000 0.000000 0.032213 0.000000
# 6 0.000000 0.000000 0.000000 0.000000 0.000000 0.024432
#
#
# Mechanical properties :
#
#
# Convention : Reuss Voigt Hill
#
# Bulk Modulus (GPa) = 81.73880 108.88083 95.30982
# Shear Modulus (GPa) = 37.68128 46.26436 41.97282
#
# Velocity S-wave (km/s) = 3.66715 4.06340 3.87035
# Velocity P-wave (km/s) = 6.86312 7.80214 7.34764
#
# Compressibility (1/GPa) = 0.01223409
#
# Stress axis : x y z
#
# Youngs Moduli (GPa) = 72.67499 203.75019 125.57146
#
# Poissons Ratio (x) = -0.27420 0.73330
# Poissons Ratio (y) = -0.09780 0.33964
# Poissons Ratio (z) = 0.42440 0.55110
#
# Static dielectric constant tensor:
#      x y z
#    x 5.233440 0.000000 0.000000 
#    y 0.000000 7.108410 0.000000 
#    z 0.000000 0.000000 5.805670 
# 
# 
# High freq. dielectric constant tensor:
#      x y z
#    x 2.099110 0.000000 0.000000 
#    y 0.000000 2.219920 0.000000 
#    z 0.000000 0.000000 2.207930 
# 
# From -- ./inp_files/11351.got.cif
#   From: 2010.06.25/outbox.cif.g09.slc.cpg/sg52_6_cif.got.tgz:11351.got - 2010.06.26 19:32:48.
