data_PCOD8216694
_publ_section_title
;
Structure prediction by ZEFSAII (Michael W. Deem and Ramdas Pophale) SiO2 
 PCOD8216694
Probable space group: P N N A
;
_chemical_formula_sum "Si O2"
_cell_formula_units_Z 28
_cell_length_a 7.807422
_cell_length_b 5.151303
_cell_length_c 27.142058
_cell_angle_alpha 90.000000
_cell_angle_beta 90.000000
_cell_angle_gamma 90.000000
_cell_volume 1091.610047
_symmetry_space_group_name_H-M "P N N A"
_symmetry_group_IT_number 52
_symmetry_cell_setting 'orthorhombic'
loop_
_space_group_symop_operation_xyz
x,y,z
1/2-x,-y,z
x,1/2-y,1/2-z
1/2-x,1/2+y,1/2-z
-x,-y,-z
1/2+x,y,-z
-x,1/2+y,1/2+z
1/2+x,1/2-y,1/2+z
loop_
_atom_site_type_symbol
_atom_site_label
_atom_site_fract_x
_atom_site_fract_y
_atom_site_fract_z
Si Si1 0.550338 0.009642 0.056347
Si Si2 0.250000 0.000000 0.783369
Si Si3 0.097366 0.818596 0.193038
Si Si4 0.955164 0.491576 0.114501
O O1 0.477768 0.769459 0.088446
O O2 0.750000 0.000000 0.060342
O O3 0.484377 0.278436 0.078313
O O4 0.500000 0.000000 0.000000
O O5 0.236722 0.750000 0.750000
O O6 0.420968 0.983747 0.816742
O O7 0.126508 0.750000 0.250000
O O8 0.067525 0.545685 0.164240
O O9 0.250000 0.000000 0.173314
O O10 0.750000 0.500000 0.126023
#
# Coordination Sequence:
#
# PCOD8216694 Si02
#       4
#     8   4   8   8
#     4  10  22  44  72 103 140 181 238 299 377 449
#     4  10  24  42  70  96 140 202 246 302 378 426
#     4  11  26  45  72 108 155 200 264 312 374 445
#     4  10  24  43  72 104 140 194 242 300 367 457
#
# _framework density 25.650181
#
# number of rings (size 3 to 8) (size 9 to 14) (size 15 to 20)
#    0.000    1.714    0.000    1.714   14.000    3.429 
#    0.000    2.857    0.000    0.000    0.000    0.000 
#    0.000    0.000    0.000    0.000    0.000    0.000 
#
# Total GULP energy -347181.995786 kJ/mol
# GULP energy per Si atom -12399.356992 kJ/mol
# Density = 2.559180 g / cm^3
# Si number density = 25.650181 Si / 1000 Ang^3
#
#
#
# Elastic Constant Matrix: (Units=GPa)
#
#
# Indices 1 2 3 4 5 6 
#
# 1 107.1383 50.8459 24.7083 0.0000 0.0000 0.0000
# 2 50.8459 165.6819 63.5971 0.0000 0.0000 0.0000
# 3 24.7083 63.5971 166.5305 0.0000 0.0000 0.0000
# 4 0.0000 0.0000 0.0000 39.5956 0.0000 0.0000
# 5 0.0000 0.0000 0.0000 0.0000 30.9985 0.0000
# 6 0.0000 0.0000 0.0000 0.0000 0.0000 25.4158
#
#
#
# Elastic Compliance Matrix: (Units=1/GPa)
#
#
# Indices 1 2 3 4 5 6 
#
# 1 0.010948 -0.003206 -0.000400 0.000000 0.000000 0.000000
# 2 -0.003206 0.008011 -0.002584 0.000000 0.000000 0.000000
# 3 -0.000400 -0.002584 0.007051 0.000000 0.000000 0.000000
# 4 0.000000 0.000000 0.000000 0.025255 0.000000 0.000000
# 5 0.000000 0.000000 0.000000 0.000000 0.032260 0.000000
# 6 0.000000 0.000000 0.000000 0.000000 0.000000 0.039346
#
#
# Mechanical properties :
#
#
# Convention : Reuss Voigt Hill
#
# Bulk Modulus (GPa) = 73.36655 79.73927 76.55291
# Shear Modulus (GPa) = 35.76700 39.21526 37.49113
#
# Velocity S-wave (km/s) = 3.73824 3.91429 3.82728
# Velocity P-wave (km/s) = 6.87731 7.18217 7.03139
#
# Compressibility (1/GPa) = 0.01363019
#
# Stress axis : x y z
#
# Youngs Moduli (GPa) = 91.34464 124.82209 141.82429
#
# Poissons Ratio (x) = 0.40020 0.05671
# Poissons Ratio (y) = 0.29287 0.36645
# Poissons Ratio (z) = 0.03653 0.32252
#
# Static dielectric constant tensor:
#      x y z
#    x 5.163730 0.000000 0.000000 
#    y 0.000000 5.021500 0.000000 
#    z 0.000000 0.000000 4.483980 
# 
# 
# High freq. dielectric constant tensor:
#      x y z
#    x 2.019500 0.000000 0.000000 
#    y 0.000000 2.042330 0.000000 
#    z 0.000000 0.000000 2.026590 
# 
# From -- ./inp_files/41962.got.cif
#   From: 2010.06.25/outbox.cif.g09.slc.cpg/sg52_21_cif.got.tgz:41962.got - 2010.06.26 19:32:48.
