data_PCOD8216264
_publ_section_title
;
Structure prediction by ZEFSAII (Michael W. Deem and Ramdas Pophale) SiO2 
 PCOD8216264
Probable space group: P N N A
;
_chemical_formula_sum "Si O2"
_cell_formula_units_Z 52
_cell_length_a 20.011847
_cell_length_b 8.972341
_cell_length_c 14.978054
_cell_angle_alpha 90.000000
_cell_angle_beta 90.000000
_cell_angle_gamma 90.000000
_cell_volume 2689.356257
_symmetry_space_group_name_H-M "P N N A"
_symmetry_group_IT_number 52
_symmetry_cell_setting 'orthorhombic'
loop_
_space_group_symop_operation_xyz
x,y,z
1/2-x,-y,z
x,1/2-y,1/2-z
1/2-x,1/2+y,1/2-z
-x,-y,-z
1/2+x,y,-z
-x,1/2+y,1/2+z
1/2+x,1/2-y,1/2+z
loop_
_atom_site_type_symbol
_atom_site_label
_atom_site_fract_x
_atom_site_fract_y
_atom_site_fract_z
Si Si1 0.951017 0.517124 0.269322
Si Si2 0.230137 0.666863 0.904824
Si Si3 0.366973 0.823363 0.902768
Si Si4 0.681621 0.579837 0.525456
Si Si5 0.574948 0.836987 0.838530
Si Si6 0.134960 0.750000 0.750000
Si Si7 0.477432 0.615043 0.925761
O O1 0.907464 0.651972 0.310648
O O2 0.914014 0.366180 0.298693
O O3 0.954955 0.526482 0.162723
O O4 0.025001 0.527965 0.311818
O O5 0.250000 0.500000 0.934913
O O6 0.295871 0.756547 0.876327
O O7 0.180837 0.661692 0.820396
O O8 0.194952 0.755177 0.985846
O O9 0.412333 0.707684 0.960419
O O10 0.358434 0.978766 0.954838
O O11 0.750000 0.500000 0.552957
O O12 0.639744 0.593827 0.615846
O O13 0.597559 0.750000 0.750000
O O14 0.539055 0.725112 0.907288
O O15 0.500000 0.500000 0.000000
#
# Coordination Sequence:
#
# PCOD8216264 Si02
#       7
#     8   8   8   8   8   4   8
#     4  10  22  39  57  92 122 163 204 250 305 374
#     4  11  25  36  57  90 127 165 199 253 303 376
#     4  10  21  40  58  87 128 161 204 250 310 370
#     4  10  22  42  64  88 118 160 211 249 312 370
#     4   9  21  42  64  83 120 161 200 257 314 359
#     4  12  24  34  62  88 132 166 204 240 308 384
#     4  10  22  35  62  90 123 161 206 256 304 358
#
# _framework density 19.335481999999999
#
# number of rings (size 3 to 8) (size 9 to 14) (size 15 to 20)
#    0.000    1.846    1.538    2.308    8.615    3.692 
#    0.000    0.769    5.077    0.000    0.000    0.000 
#    0.000    0.000    0.000    0.000    0.000    0.000 
#
# Total GULP energy -644762.439534 kJ/mol
# GULP energy per Si atom -12399.277683 kJ/mol
# Density = 1.929147 g / cm^3
# Si number density = 19.335482 Si / 1000 Ang^3
#
#
#
# Elastic Constant Matrix: (Units=GPa)
#
#
# Indices 1 2 3 4 5 6 
#
# 1 117.5460 53.2903 68.9661 0.0000 0.0000 0.0000
# 2 53.2903 120.2383 49.7557 0.0000 0.0000 0.0000
# 3 68.9661 49.7557 98.6788 0.0000 0.0000 0.0000
# 4 0.0000 0.0000 0.0000 24.6015 0.0000 0.0000
# 5 0.0000 0.0000 0.0000 0.0000 29.2262 0.0000
# 6 0.0000 0.0000 0.0000 0.0000 0.0000 38.3457
#
#
#
# Elastic Compliance Matrix: (Units=1/GPa)
#
#
# Indices 1 2 3 4 5 6 
#
# 1 0.015211 -0.002960 -0.009138 0.000000 0.000000 0.000000
# 2 -0.002960 0.011086 -0.003521 0.000000 0.000000 0.000000
# 3 -0.009138 -0.003521 0.018296 0.000000 0.000000 0.000000
# 4 0.000000 0.000000 0.000000 0.040648 0.000000 0.000000
# 5 0.000000 0.000000 0.000000 0.000000 0.034216 0.000000
# 6 0.000000 0.000000 0.000000 0.000000 0.000000 0.026079
#
#
# Mechanical properties :
#
#
# Convention : Reuss Voigt Hill
#
# Bulk Modulus (GPa) = 74.88360 75.60971 75.24665
# Shear Modulus (GPa) = 27.59009 29.39807 28.49408
#
# Velocity S-wave (km/s) = 3.78155 3.90349 3.84300
# Velocity P-wave (km/s) = 7.60786 7.71397 7.66110
#
# Compressibility (1/GPa) = 0.01335406
#
# Stress axis : x y z
#
# Youngs Moduli (GPa) = 65.74265 90.20641 54.65713
#
# Poissons Ratio (x) = 0.26701 0.49947
# Poissons Ratio (y) = 0.19460 0.19244
# Poissons Ratio (z) = 0.60077 0.31760
#
# Static dielectric constant tensor:
#      x y z
#    x 3.637580 0.000000 0.000000 
#    y 0.000000 3.605090 0.000000 
#    z 0.000000 0.000000 3.215460 
# 
# 
# High freq. dielectric constant tensor:
#      x y z
#    x 1.760660 0.000000 0.000000 
#    y 0.000000 1.756010 0.000000 
#    z 0.000000 0.000000 1.726420 
# 
# From -- ./inp_files/28706.got.cif
#   From: 2010.06.25/outbox.cif.g09.slc.cpg/sg52_15_cif.got.tgz:28706.got - 2010.06.26 19:32:48.
