data_PCOD8216559
_publ_section_title
;
Structure prediction by ZEFSAII (Michael W. Deem and Ramdas Pophale) SiO2 
 PCOD8216559
Probable space group: P N N A
;
_chemical_formula_sum "Si O2"
_cell_formula_units_Z 40
_cell_length_a 17.106970
_cell_length_b 18.943619
_cell_length_c 6.321766
_cell_angle_alpha 90.000000
_cell_angle_beta 90.000000
_cell_angle_gamma 90.000000
_cell_volume 2048.681571
_symmetry_space_group_name_H-M "P N N A"
_symmetry_group_IT_number 52
_symmetry_cell_setting 'orthorhombic'
loop_
_space_group_symop_operation_xyz
x,y,z
1/2-x,-y,z
x,1/2-y,1/2-z
1/2-x,1/2+y,1/2-z
-x,-y,-z
1/2+x,y,-z
-x,1/2+y,1/2+z
1/2+x,1/2-y,1/2+z
loop_
_atom_site_type_symbol
_atom_site_label
_atom_site_fract_x
_atom_site_fract_y
_atom_site_fract_z
Si Si1 0.890398 0.441726 0.483249
Si Si2 0.784636 0.750000 0.250000
Si Si3 0.704212 0.818065 0.870333
Si Si4 0.172985 0.371715 0.042229
Si Si5 0.468352 0.954337 0.307096
Si Si6 0.250000 0.500000 0.792999
O O1 0.866720 0.372815 0.615508
O O2 0.915668 0.499491 0.651993
O O3 0.817467 0.470740 0.354745
O O4 0.959596 0.421478 0.322239
O O5 0.729628 0.701786 0.394237
O O6 0.836378 0.804207 0.387586
O O7 0.670617 0.750000 0.750000
O O8 0.778601 0.850125 0.748871
O O9 0.084751 0.390984 0.105743
O O10 0.216413 0.437828 0.937292
O O11 0.500000 0.000000 0.500000
#
# Coordination Sequence:
#
# PCOD8216559 Si02
#       6
#     8   4   8   8   8   4
#     4  11  23  39  64  96 128 165 213 271 321 378
#     4  10  22  40  68  90 130 164 216 264 314 378
#     4  10  22  40  68  91 124 168 220 263 312 382
#     4  11  22  39  66  96 128 169 212 265 321 384
#     4  11  24  40  64  93 135 163 205 268 331 381
#     4  12  20  38  72  96 120 162 228 268 314 378
#
# _framework density 19.524754000000001
#
# number of rings (size 3 to 8) (size 9 to 14) (size 15 to 20)
#    0.000    1.200    4.000    2.400    0.000    0.000 
#    0.000    0.000   28.600    0.000    0.000    0.000 
#    0.000    0.000    0.000    0.000    0.000    0.000 
#
# Total GULP energy -496144.514717 kJ/mol
# GULP energy per Si atom -12403.612868 kJ/mol
# Density = 1.948031 g / cm^3
# Si number density = 19.524754 Si / 1000 Ang^3
#
#
#
# Elastic Constant Matrix: (Units=GPa)
#
#
# Indices 1 2 3 4 5 6 
#
# 1 131.0113 64.5400 53.1086 0.0000 0.0000 0.0000
# 2 64.5400 110.0345 40.0385 0.0000 0.0000 0.0000
# 3 53.1086 40.0385 102.3559 0.0000 0.0000 0.0000
# 4 0.0000 0.0000 0.0000 5.5711 0.0000 0.0000
# 5 0.0000 0.0000 0.0000 0.0000 33.2788 0.0000
# 6 0.0000 0.0000 0.0000 0.0000 0.0000 27.0397
#
#
#
# Elastic Compliance Matrix: (Units=1/GPa)
#
#
# Indices 1 2 3 4 5 6 
#
# 1 0.012025 -0.005577 -0.004058 0.000000 0.000000 0.000000
# 2 -0.005577 0.013183 -0.002263 0.000000 0.000000 0.000000
# 3 -0.004058 -0.002263 0.012761 0.000000 0.000000 0.000000
# 4 0.000000 0.000000 0.000000 0.179496 0.000000 0.000000
# 5 0.000000 0.000000 0.000000 0.000000 0.030049 0.000000
# 6 0.000000 0.000000 0.000000 0.000000 0.000000 0.036983
#
#
# Mechanical properties :
#
#
# Convention : Reuss Voigt Hill
#
# Bulk Modulus (GPa) = 70.55760 73.19732 71.87746
# Shear Modulus (GPa) = 15.97362 25.55889 20.76626
#
# Velocity S-wave (km/s) = 2.86339 3.62201 3.26480
# Velocity P-wave (km/s) = 6.86644 7.42043 7.14880
#
# Compressibility (1/GPa) = 0.01417282
#
# Stress axis : x y z
#
# Youngs Moduli (GPa) = 83.15894 75.85813 78.36626
#
# Poissons Ratio (x) = 0.42304 0.31801
# Poissons Ratio (y) = 0.46375 0.17735
# Poissons Ratio (z) = 0.33746 0.17167
#
# Static dielectric constant tensor:
#      x y z
#    x 4.066990 0.000000 0.000000 
#    y 0.000000 3.885220 0.000000 
#    z 0.000000 0.000000 3.991710 
# 
# 
# High freq. dielectric constant tensor:
#      x y z
#    x 1.749410 0.000000 0.000000 
#    y 0.000000 1.766140 0.000000 
#    z 0.000000 0.000000 1.784860 
# 
# From -- ./inp_files/3228.got.cif
#   From: 2010.06.25/outbox.cif.g09.slc.cpg/sg52_2_cif.got.tgz:3228.got - 2010.06.26 19:32:48.
