data_PCOD8216120
_publ_section_title
;
Structure prediction by ZEFSAII (Michael W. Deem and Ramdas Pophale) SiO2 
 PCOD8216120
Probable space group: P N N A
;
_chemical_formula_sum "Si O2"
_cell_formula_units_Z 64
_cell_length_a 21.807964
_cell_length_b 16.271050
_cell_length_c 9.033027
_cell_angle_alpha 90.000000
_cell_angle_beta 90.000000
_cell_angle_gamma 90.000000
_cell_volume 3205.265504
_symmetry_space_group_name_H-M "P N N A"
_symmetry_group_IT_number 52
_symmetry_cell_setting 'orthorhombic'
loop_
_space_group_symop_operation_xyz
x,y,z
1/2-x,-y,z
x,1/2-y,1/2-z
1/2-x,1/2+y,1/2-z
-x,-y,-z
1/2+x,y,-z
-x,1/2+y,1/2+z
1/2+x,1/2-y,1/2+z
loop_
_atom_site_type_symbol
_atom_site_label
_atom_site_fract_x
_atom_site_fract_y
_atom_site_fract_z
Si Si1 0.095618 0.756733 0.423079
Si Si2 0.091111 0.468288 0.406090
Si Si3 0.461841 0.385800 0.575807
Si Si4 0.412650 0.552313 0.068973
Si Si5 0.542128 0.898290 0.409527
Si Si6 0.279697 0.252925 0.579807
Si Si7 0.208787 0.079000 0.923150
Si Si8 0.787927 0.918038 0.420826
O O1 0.090254 0.750000 0.250000
O O2 0.043297 0.702438 0.500555
O O3 0.080970 0.848441 0.471939
O O4 0.162899 0.731905 0.474784
O O5 0.083969 0.554879 0.487232
O O6 0.099013 0.486025 0.231603
O O7 0.148684 0.421306 0.475372
O O8 0.031823 0.412842 0.436311
O O9 0.436821 0.379419 0.742806
O O10 0.468637 0.617788 0.079642
O O11 0.437630 0.490501 0.944795
O O12 0.349708 0.592076 0.015260
O O13 0.300898 0.250000 0.750000
O O14 0.237917 0.331896 0.545894
O O15 0.248827 0.165225 0.542392
O O16 0.192789 0.073568 0.749938
O O17 0.250000 0.000000 0.968384
O O18 0.750000 0.000000 0.468950
#
# Coordination Sequence:
#
# PCOD8216120 Si02
#       8
#     8   8   8   8   8   8   8   8
#     4  12  24  37  58  87 115 146 190 240 287 336
#     4  10  21  37  59  86 113 146 191 239 286 337
#     4  10  21  38  59  83 115 152 187 230 288 349
#     4  10  21  37  59  86 113 146 191 239 286 337
#     4  10  21  38  59  83 115 152 187 230 288 349
#     4  10  22  39  58  83 115 154 198 238 287 354
#     4  10  21  37  58  83 115 157 196 235 290 351
#     4  10  21  37  58  83 115 157 196 235 290 351
#
# _framework density 19.967144999999999
#
# number of rings (size 3 to 8) (size 9 to 14) (size 15 to 20)
#    0.000    1.750    0.000    4.125    0.000    7.500 
#    0.000    2.500    0.000    0.000    0.000    0.000 
#    0.000    0.000    0.000    0.000    0.000    0.000 
#
# Total GULP energy -793557.230510 kJ/mol
# GULP energy per Si atom -12399.331727 kJ/mol
# Density = 1.992170 g / cm^3
# Si number density = 19.967145 Si / 1000 Ang^3
#
#
#
# Elastic Constant Matrix: (Units=GPa)
#
#
# Indices 1 2 3 4 5 6 
#
# 1 90.4754 31.3299 50.7706 0.0000 0.0000 0.0000
# 2 31.3299 98.9546 28.5029 0.0000 0.0000 0.0000
# 3 50.7706 28.5029 130.1742 0.0000 0.0000 0.0000
# 4 0.0000 0.0000 0.0000 26.0309 0.0000 0.0000
# 5 0.0000 0.0000 0.0000 0.0000 35.5284 0.0000
# 6 0.0000 0.0000 0.0000 0.0000 0.0000 25.0680
#
#
#
# Elastic Compliance Matrix: (Units=1/GPa)
#
#
# Indices 1 2 3 4 5 6 
#
# 1 0.015090 -0.003290 -0.005165 0.000000 0.000000 0.000000
# 2 -0.003290 0.011503 -0.001236 0.000000 0.000000 0.000000
# 3 -0.005165 -0.001236 0.009967 0.000000 0.000000 0.000000
# 4 0.000000 0.000000 0.000000 0.038416 0.000000 0.000000
# 5 0.000000 0.000000 0.000000 0.000000 0.028146 0.000000
# 6 0.000000 0.000000 0.000000 0.000000 0.000000 0.039892
#
#
# Mechanical properties :
#
#
# Convention : Reuss Voigt Hill
#
# Bulk Modulus (GPa) = 58.20994 60.09011 59.15003
# Shear Modulus (GPa) = 29.74019 31.25884 30.49952
#
# Velocity S-wave (km/s) = 3.86353 3.96095 3.91255
# Velocity P-wave (km/s) = 7.00847 7.14693 7.07804
#
# Compressibility (1/GPa) = 0.01717920
#
# Stress axis : x y z
#
# Youngs Moduli (GPa) = 66.26698 86.93247 100.33016
#
# Poissons Ratio (x) = 0.28601 0.51823
# Poissons Ratio (y) = 0.21802 0.12396
# Poissons Ratio (z) = 0.34228 0.10741
#
# Static dielectric constant tensor:
#      x y z
#    x 3.618560 0.000000 0.000000 
#    y 0.000000 3.601520 0.000000 
#    z 0.000000 0.000000 3.648900 
# 
# 
# High freq. dielectric constant tensor:
#      x y z
#    x 1.782680 0.000000 0.000000 
#    y 0.000000 1.776310 0.000000 
#    z 0.000000 0.000000 1.784710 
# 
# From -- ./inp_files/13586.got.cif
#   From: 2010.06.25/outbox.cif.g09.slc.cpg/sg52_7_cif.got.tgz:13586.got - 2010.06.26 19:32:48.
