data_PCOD8216164
_publ_section_title
;
Structure prediction by ZEFSAII (Michael W. Deem and Ramdas Pophale) SiO2 
 PCOD8216164
Probable space group: P N N A
;
_chemical_formula_sum "Si O2"
_cell_formula_units_Z 56
_cell_length_a 19.825873
_cell_length_b 9.101844
_cell_length_c 15.204256
_cell_angle_alpha 90.000000
_cell_angle_beta 90.000000
_cell_angle_gamma 90.000000
_cell_volume 2743.638453
_symmetry_space_group_name_H-M "P N N A"
_symmetry_group_IT_number 52
_symmetry_cell_setting 'orthorhombic'
loop_
_space_group_symop_operation_xyz
x,y,z
1/2-x,-y,z
x,1/2-y,1/2-z
1/2-x,1/2+y,1/2-z
-x,-y,-z
1/2+x,y,-z
-x,1/2+y,1/2+z
1/2+x,1/2-y,1/2+z
loop_
_atom_site_type_symbol
_atom_site_label
_atom_site_fract_x
_atom_site_fract_y
_atom_site_fract_z
Si Si1 0.502862 0.676371 0.001777
Si Si2 0.732525 0.835900 0.542580
Si Si3 0.600815 0.834589 0.656998
Si Si4 0.565077 0.415297 0.726061
Si Si5 0.063837 0.838484 0.834717
Si Si6 0.314046 0.422615 0.570594
Si Si7 0.634570 0.336468 0.558104
O O1 0.544873 0.723401 0.913173
O O2 0.500000 0.500000 0.000000
O O3 0.545703 0.729037 0.084913
O O4 0.428492 0.752958 0.009870
O O5 0.676722 0.830226 0.620158
O O6 0.704034 0.742108 0.461173
O O7 0.803833 0.773255 0.575650
O O8 0.750000 0.000000 0.510792
O O9 0.594795 0.750000 0.750000
O O10 0.585160 0.003059 0.684352
O O11 0.545443 0.250000 0.750000
O O12 0.493697 0.463892 0.682433
O O13 0.621782 0.412054 0.652417
O O14 0.084774 0.750000 0.750000
O O15 0.130551 0.927543 0.855137
O O16 0.250000 0.500000 0.614173
O O17 0.341109 0.520148 0.491293
#
# Coordination Sequence:
#
# PCOD8216164 Si02
#       7
#     8   8   8   8   8   8   8
#     4  11  22  41  66  97 132 174 217 275 330 394
#     4  11  22  41  63  94 131 175 218 270 331 405
#     4  12  25  38  64 101 136 168 222 270 328 402
#     4  10  21  38  59  94 127 168 213 257 323 392
#     4  10  21  39  68  87 123 169 216 273 328 386
#     4  10  22  41  64  93 122 167 224 267 330 393
#     4  10  23  39  66  90 132 176 218 265 329 391
#
# _framework density 20.410851000000001
#
# number of rings (size 3 to 8) (size 9 to 14) (size 15 to 20)
#    0.000    1.429    1.429    5.143    2.000    2.857 
#    0.000    0.714    3.143    0.000    0.000    0.000 
#    0.000    0.000    0.000    0.000    0.000    0.000 
#
# Total GULP energy -693819.930556 kJ/mol
# GULP energy per Si atom -12389.641617 kJ/mol
# Density = 2.036440 g / cm^3
# Si number density = 20.410851 Si / 1000 Ang^3
#
#
#
# Elastic Constant Matrix: (Units=GPa)
#
#
# Indices 1 2 3 4 5 6 
#
# 1 173.3453 43.0660 61.5296 0.0000 0.0000 0.0000
# 2 43.0660 85.8986 25.5690 0.0000 0.0000 0.0000
# 3 61.5296 25.5690 91.9330 0.0000 0.0000 0.0000
# 4 0.0000 0.0000 0.0000 22.1183 0.0000 0.0000
# 5 0.0000 0.0000 0.0000 0.0000 44.8938 0.0000
# 6 0.0000 0.0000 0.0000 0.0000 0.0000 31.0909
#
#
#
# Elastic Compliance Matrix: (Units=1/GPa)
#
#
# Indices 1 2 3 4 5 6 
#
# 1 0.008090 -0.002665 -0.004673 0.000000 0.000000 0.000000
# 2 -0.002665 0.013570 -0.001991 0.000000 0.000000 0.000000
# 3 -0.004673 -0.001991 0.014559 0.000000 0.000000 0.000000
# 4 0.000000 0.000000 0.000000 0.045212 0.000000 0.000000
# 5 0.000000 0.000000 0.000000 0.000000 0.022275 0.000000
# 6 0.000000 0.000000 0.000000 0.000000 0.000000 0.032164
#
#
# Mechanical properties :
#
#
# Convention : Reuss Voigt Hill
#
# Bulk Modulus (GPa) = 56.94314 67.94511 62.44412
# Shear Modulus (GPa) = 31.17599 34.35473 32.76536
#
# Velocity S-wave (km/s) = 3.91246 4.10708 4.01096
# Velocity P-wave (km/s) = 6.95477 7.47341 7.21875
#
# Compressibility (1/GPa) = 0.01756138
#
# Stress axis : x y z
#
# Youngs Moduli (GPa) = 123.61524 73.69080 68.68683
#
# Poissons Ratio (x) = 0.19637 0.32098
# Poissons Ratio (y) = 0.32941 0.13674
# Poissons Ratio (z) = 0.57767 0.14670
#
# Static dielectric constant tensor:
#      x y z
#    x 4.302720 0.000000 0.000000 
#    y 0.000000 3.671620 0.000000 
#    z 0.000000 0.000000 10.507680 
# 
# 
# High freq. dielectric constant tensor:
#      x y z
#    x 1.818360 0.000000 0.000000 
#    y 0.000000 1.799260 0.000000 
#    z 0.000000 0.000000 1.786550 
# 
# From -- ./inp_files/28756.got.cif
#   From: 2010.06.25/outbox.cif.g09.slc.cpg/sg52_15_cif.got.tgz:28756.got - 2010.06.26 19:32:48.
