data_PCOD8216597
_publ_section_title
;
Structure prediction by ZEFSAII (Michael W. Deem and Ramdas Pophale) SiO2 
 PCOD8216597
Probable space group: P N N A
;
_chemical_formula_sum "Si O2"
_cell_formula_units_Z 32
_cell_length_a 14.718739
_cell_length_b 16.538524
_cell_length_c 5.083642
_cell_angle_alpha 90.000000
_cell_angle_beta 90.000000
_cell_angle_gamma 90.000000
_cell_volume 1237.491747
_symmetry_space_group_name_H-M "P N N A"
_symmetry_group_IT_number 52
_symmetry_cell_setting 'orthorhombic'
loop_
_space_group_symop_operation_xyz
x,y,z
1/2-x,-y,z
x,1/2-y,1/2-z
1/2-x,1/2+y,1/2-z
-x,-y,-z
1/2+x,y,-z
-x,1/2+y,1/2+z
1/2+x,1/2-y,1/2+z
loop_
_atom_site_type_symbol
_atom_site_label
_atom_site_fract_x
_atom_site_fract_y
_atom_site_fract_z
Si Si1 0.617061 0.058290 0.438658
Si Si2 0.791563 0.161846 0.312222
Si Si3 0.349050 0.032582 0.052425
Si Si4 0.522491 0.697487 0.995954
O O1 0.715090 0.103714 0.436491
O O2 0.538265 0.118250 0.517559
O O3 0.591161 0.018863 0.158562
O O4 0.617209 0.984577 0.651615
O O5 0.748555 0.250000 0.250000
O O6 0.841511 0.126023 0.046602
O O7 0.871532 0.172419 0.527187
O O8 0.250000 0.000000 0.013066
O O9 0.490868 0.750000 0.750000
O O10 0.502833 0.750000 0.250000
#
# Coordination Sequence:
#
# PCOD8216597 Si02
#       4
#     8   8   8   8
#     4  11  23  43  67  92 133 174 215 273 330 388
#     4  10  24  44  70  98 134 176 221 280 339 393
#     4  10  22  41  66  97 128 169 222 267 325 402
#     4  11  25  42  65 101 134 173 229 271 324 404
#
# _framework density 25.858757000000001
#
# number of rings (size 3 to 8) (size 9 to 14) (size 15 to 20)
#    0.000    1.500    0.000    4.500    0.000   17.000 
#    0.000    0.000    0.000    4.500    0.000    0.000 
#    0.000    0.000    0.000    0.000    0.000    0.000 
#
# Total GULP energy -396643.074546 kJ/mol
# GULP energy per Si atom -12395.096080 kJ/mol
# Density = 2.579990 g / cm^3
# Si number density = 25.858757 Si / 1000 Ang^3
#
#
#
# Elastic Constant Matrix: (Units=GPa)
#
#
# Indices 1 2 3 4 5 6 
#
# 1 67.3001 13.9499 21.8030 0.0000 0.0000 0.0000
# 2 13.9499 126.0429 45.2034 0.0000 0.0000 0.0000
# 3 21.8030 45.2034 151.1117 0.0000 0.0000 0.0000
# 4 0.0000 0.0000 0.0000 44.8041 0.0000 0.0000
# 5 0.0000 0.0000 0.0000 0.0000 14.0171 0.0000
# 6 0.0000 0.0000 0.0000 0.0000 0.0000 35.9013
#
#
#
# Elastic Compliance Matrix: (Units=1/GPa)
#
#
# Indices 1 2 3 4 5 6 
#
# 1 0.015707 -0.001037 -0.001956 0.000000 0.000000 0.000000
# 2 -0.001037 0.008956 -0.002529 0.000000 0.000000 0.000000
# 3 -0.001956 -0.002529 0.007657 0.000000 0.000000 0.000000
# 4 0.000000 0.000000 0.000000 0.022319 0.000000 0.000000
# 5 0.000000 0.000000 0.000000 0.000000 0.071341 0.000000
# 6 0.000000 0.000000 0.000000 0.000000 0.000000 0.027854
#
#
# Mechanical properties :
#
#
# Convention : Reuss Voigt Hill
#
# Bulk Modulus (GPa) = 47.00400 56.26304 51.63352
# Shear Modulus (GPa) = 29.07469 36.51107 32.79288
#
# Velocity S-wave (km/s) = 3.35679 3.76166 3.56498
# Velocity P-wave (km/s) = 5.76548 6.37745 6.07917
#
# Compressibility (1/GPa) = 0.02127479
#
# Stress axis : x y z
#
# Youngs Moduli (GPa) = 63.66393 111.66082 130.60797
#
# Poissons Ratio (x) = 0.11578 0.25549
# Poissons Ratio (y) = 0.06601 0.33036
# Poissons Ratio (z) = 0.12454 0.28243
#
# Static dielectric constant tensor:
#      x y z
#    x 4.646840 0.000000 0.000000 
#    y 0.000000 5.753550 0.000000 
#    z 0.000000 0.000000 4.838600 
# 
# 
# High freq. dielectric constant tensor:
#      x y z
#    x 2.027490 0.000000 0.000000 
#    y 0.000000 2.056870 0.000000 
#    z 0.000000 0.000000 2.033970 
# 
# From -- ./inp_files/2086.got.cif
#   From: 2010.06.25/outbox.cif.g09.slc.cpg/sg52_2_cif.got.tgz:2086.got - 2010.06.26 19:32:48.
