data_PCOD8216716
_publ_section_title
;
Structure prediction by ZEFSAII (Michael W. Deem and Ramdas Pophale) SiO2 
 PCOD8216716
Probable space group: P N N A
;
_chemical_formula_sum "Si O2"
_cell_formula_units_Z 32
_cell_length_a 18.904166
_cell_length_b 11.779844
_cell_length_c 6.007582
_cell_angle_alpha 90.000000
_cell_angle_beta 90.000000
_cell_angle_gamma 90.000000
_cell_volume 1337.817180
_symmetry_space_group_name_H-M "P N N A"
_symmetry_group_IT_number 52
_symmetry_cell_setting 'orthorhombic'
loop_
_space_group_symop_operation_xyz
x,y,z
1/2-x,-y,z
x,1/2-y,1/2-z
1/2-x,1/2+y,1/2-z
-x,-y,-z
1/2+x,y,-z
-x,1/2+y,1/2+z
1/2+x,1/2-y,1/2+z
loop_
_atom_site_type_symbol
_atom_site_label
_atom_site_fract_x
_atom_site_fract_y
_atom_site_fract_z
Si Si1 0.750000 0.500000 0.901894
Si Si2 0.362552 0.065261 0.076799
Si Si3 0.138446 0.383543 0.789476
Si Si4 0.593958 0.750000 0.250000
Si Si5 0.514870 0.634383 0.873946
O O1 0.701490 0.580629 0.749407
O O2 0.798171 0.581726 0.049958
O O3 0.435239 0.059086 0.216041
O O4 0.358101 0.175637 0.916648
O O5 0.353798 0.947643 0.945336
O O6 0.143687 0.250000 0.750000
O O7 0.062766 0.423128 0.900056
O O8 0.546846 0.841197 0.383268
O O9 0.499488 0.750000 0.750000
#
# Coordination Sequence:
#
# PCOD8216716 Si02
#       5
#     4   8   8   4   8
#     4  12  28  48  66 108 146 196 230 296 360 432
#     4  11  24  47  70 110 143 189 238 294 361 422
#     4  11  26  51  73 104 143 188 242 297 359 430
#     4  10  22  46  76 108 144 182 244 296 352 424
#     4   9  21  43  79 106 138 184 240 302 353 417
#
# _framework density 23.919561999999999
#
# number of rings (size 3 to 8) (size 9 to 14) (size 15 to 20)
#    0.000    1.500    0.000    3.000    0.000   11.000 
#   42.750    0.000    0.000    0.000    0.000    0.000 
#    0.000    0.000    0.000    0.000    0.000    0.000 
#
# Total GULP energy -396841.352227 kJ/mol
# GULP energy per Si atom -12401.292257 kJ/mol
# Density = 2.386512 g / cm^3
# Si number density = 23.919562 Si / 1000 Ang^3
#
#
#
# Elastic Constant Matrix: (Units=GPa)
#
#
# Indices 1 2 3 4 5 6 
#
# 1 191.5336 69.1162 90.2410 0.0000 0.0000 0.0000
# 2 69.1162 132.4694 78.7467 0.0000 0.0000 0.0000
# 3 90.2410 78.7467 164.3627 0.0000 0.0000 0.0000
# 4 0.0000 0.0000 0.0000 31.6900 0.0000 0.0000
# 5 0.0000 0.0000 0.0000 0.0000 48.5746 0.0000
# 6 0.0000 0.0000 0.0000 0.0000 0.0000 29.6031
#
#
#
# Elastic Compliance Matrix: (Units=1/GPa)
#
#
# Indices 1 2 3 4 5 6 
#
# 1 0.007412 -0.002025 -0.003099 0.000000 0.000000 0.000000
# 2 -0.002025 0.011108 -0.004210 0.000000 0.000000 0.000000
# 3 -0.003099 -0.004210 0.009803 0.000000 0.000000 0.000000
# 4 0.000000 0.000000 0.000000 0.031556 0.000000 0.000000
# 5 0.000000 0.000000 0.000000 0.000000 0.020587 0.000000
# 6 0.000000 0.000000 0.000000 0.000000 0.000000 0.033780
#
#
# Mechanical properties :
#
#
# Convention : Reuss Voigt Hill
#
# Bulk Modulus (GPa) = 103.58180 107.17484 105.37832
# Shear Modulus (GPa) = 36.72886 38.65764 37.69325
#
# Velocity S-wave (km/s) = 3.92282 4.02450 3.97398
# Velocity P-wave (km/s) = 7.99476 8.15470 8.07513
#
# Compressibility (1/GPa) = 0.00965421
#
# Stress axis : x y z
#
# Youngs Moduli (GPa) = 134.91775 90.02394 102.01056
#
# Poissons Ratio (x) = 0.18228 0.31616
# Poissons Ratio (y) = 0.27318 0.42949
# Poissons Ratio (z) = 0.41815 0.37903
#
# Static dielectric constant tensor:
#      x y z
#    x 4.741000 0.000000 0.000000 
#    y 0.000000 4.212760 0.000000 
#    z 0.000000 0.000000 4.520780 
# 
# 
# High freq. dielectric constant tensor:
#      x y z
#    x 1.955420 0.000000 0.000000 
#    y 0.000000 1.951140 0.000000 
#    z 0.000000 0.000000 1.962540 
# 
# From -- ./inp_files/3036.got.cif
#   From: 2010.06.25/outbox.cif.g09.slc.cpg/sg52_2_cif.got.tgz:3036.got - 2010.06.26 19:32:48.
