data_PCOD8216729
_publ_section_title
;
Structure prediction by ZEFSAII (Michael W. Deem and Ramdas Pophale) SiO2 
 PCOD8216729
Probable space group: P N N A
;
_chemical_formula_sum "Si O2"
_cell_formula_units_Z 60
_cell_length_a 13.930660
_cell_length_b 23.965511
_cell_length_c 8.678342
_cell_angle_alpha 90.000000
_cell_angle_beta 90.000000
_cell_angle_gamma 90.000000
_cell_volume 2897.311214
_symmetry_space_group_name_H-M "P N N A"
_symmetry_group_IT_number 52
_symmetry_cell_setting 'orthorhombic'
loop_
_space_group_symop_operation_xyz
x,y,z
1/2-x,-y,z
x,1/2-y,1/2-z
1/2-x,1/2+y,1/2-z
-x,-y,-z
1/2+x,y,-z
-x,1/2+y,1/2+z
1/2+x,1/2-y,1/2+z
loop_
_atom_site_type_symbol
_atom_site_label
_atom_site_fract_x
_atom_site_fract_y
_atom_site_fract_z
Si Si1 0.304832 0.108489 0.119766
Si Si2 0.750000 0.500000 0.427036
Si Si3 0.521038 0.625122 0.426013
Si Si4 0.317990 0.448744 0.074440
Si Si5 0.427146 0.939412 0.804744
Si Si6 0.638667 0.391299 0.008763
Si Si7 0.014938 0.542821 0.836640
Si Si8 0.863545 0.685911 0.740190
O O1 0.353008 0.086687 0.277115
O O2 0.217524 0.150117 0.153221
O O3 0.385521 0.143233 0.023896
O O4 0.272101 0.054170 0.028009
O O5 0.662798 0.482112 0.316778
O O6 0.452263 0.587256 0.532832
O O7 0.555992 0.587466 0.284167
O O8 0.461807 0.677875 0.358969
O O9 0.250000 0.500000 0.123914
O O10 0.250595 0.406638 0.975377
O O11 0.409656 0.466253 0.974534
O O12 0.406970 0.890258 0.679925
O O13 0.508263 0.982712 0.742786
O O14 0.587431 0.437654 0.900846
O O15 0.623910 0.333000 0.918579
O O16 0.834250 0.750000 0.750000
#
# Coordination Sequence:
#
# PCOD8216729 Si02
#       8
#     8   4   8   8   8   8   8   8
#     4  11  23  39  64  97 127 173 215 265 341 403
#     4  12  22  34  62  96 144 166 204 258 342 422
#     4  11  24  38  65  94 124 170 223 269 331 396
#     4  11  21  34  54  87 133 170 203 245 309 405
#     4  12  21  35  58  96 136 168 202 257 324 407
#     4  10  23  37  60  89 120 171 212 249 326 389
#     4  11  22  35  54  89 137 167 198 249 314 391
#     4  10  24  50  68  87 126 174 229 290 331 379
#
# _framework density 20.708855
#
# number of rings (size 3 to 8) (size 9 to 14) (size 15 to 20)
#    0.000    1.067    4.667    2.400    1.867    0.000 
#    0.000    7.333    0.000    0.000    0.000    0.000 
#    0.000    0.000    0.000    0.000    0.000    0.000 
#
# Total GULP energy -743782.396534 kJ/mol
# GULP energy per Si atom -12396.373276 kJ/mol
# Density = 2.066172 g / cm^3
# Si number density = 20.708855 Si / 1000 Ang^3
#
#
#
# Elastic Constant Matrix: (Units=GPa)
#
#
# Indices 1 2 3 4 5 6 
#
# 1 65.7041 30.5611 14.1430 0.0000 0.0000 0.0000
# 2 30.5611 104.2460 35.8109 0.0000 0.0000 0.0000
# 3 14.1430 35.8109 81.4969 0.0000 0.0000 0.0000
# 4 0.0000 0.0000 0.0000 22.9123 0.0000 0.0000
# 5 0.0000 0.0000 0.0000 0.0000 29.1921 0.0000
# 6 0.0000 0.0000 0.0000 0.0000 0.0000 18.4789
#
#
#
# Elastic Compliance Matrix: (Units=1/GPa)
#
#
# Indices 1 2 3 4 5 6 
#
# 1 0.017683 -0.004864 -0.000931 0.000000 0.000000 0.000000
# 2 -0.004864 0.012636 -0.004708 0.000000 0.000000 0.000000
# 3 -0.000931 -0.004708 0.014501 0.000000 0.000000 0.000000
# 4 0.000000 0.000000 0.000000 0.043645 0.000000 0.000000
# 5 0.000000 0.000000 0.000000 0.000000 0.034256 0.000000
# 6 0.000000 0.000000 0.000000 0.000000 0.000000 0.054116
#
#
# Mechanical properties :
#
#
# Convention : Reuss Voigt Hill
#
# Bulk Modulus (GPa) = 41.99517 45.83079 43.91298
# Shear Modulus (GPa) = 24.29772 25.51213 24.90492
#
# Velocity S-wave (km/s) = 3.42906 3.51371 3.47165
# Velocity P-wave (km/s) = 6.00007 6.21616 6.10907
#
# Compressibility (1/GPa) = 0.02381226
#
# Stress axis : x y z
#
# Youngs Moduli (GPa) = 56.55269 79.13857 68.96097
#
# Poissons Ratio (x) = 0.38493 0.06423
# Poissons Ratio (y) = 0.27507 0.32469
# Poissons Ratio (z) = 0.05267 0.37261
#
# Static dielectric constant tensor:
#      x y z
#    x 3.907200 0.000000 0.000000 
#    y 0.000000 3.294070 0.000000 
#    z 0.000000 0.000000 3.965170 
# 
# 
# High freq. dielectric constant tensor:
#      x y z
#    x 1.825240 0.000000 0.000000 
#    y 0.000000 1.751560 0.000000 
#    z 0.000000 0.000000 1.828140 
# 
# From -- ./inp_files/10936.got.cif
#   From: 2010.06.25/outbox.cif.g09.slc.cpg/sg52_6_cif.got.tgz:10936.got - 2010.06.26 19:32:48.
