data_PCOD8216673
_publ_section_title
;
Structure prediction by ZEFSAII (Michael W. Deem and Ramdas Pophale) SiO2 
 PCOD8216673
Probable space group: P N N A
;
_chemical_formula_sum "Si O2"
_cell_formula_units_Z 40
_cell_length_a 8.867205
_cell_length_b 24.697284
_cell_length_c 7.492062
_cell_angle_alpha 90.000000
_cell_angle_beta 90.000000
_cell_angle_gamma 90.000000
_cell_volume 1640.730712
_symmetry_space_group_name_H-M "P N N A"
_symmetry_group_IT_number 52
_symmetry_cell_setting 'orthorhombic'
loop_
_space_group_symop_operation_xyz
x,y,z
1/2-x,-y,z
x,1/2-y,1/2-z
1/2-x,1/2+y,1/2-z
-x,-y,-z
1/2+x,y,-z
-x,1/2+y,1/2+z
1/2+x,1/2-y,1/2+z
loop_
_atom_site_type_symbol
_atom_site_label
_atom_site_fract_x
_atom_site_fract_y
_atom_site_fract_z
Si Si1 0.517269 0.601653 0.519017
Si Si2 0.420623 0.732920 0.930374
Si Si3 0.176388 0.836903 0.552192
Si Si4 0.280397 0.669616 0.344286
Si Si5 0.750989 0.439930 0.262862
O O1 0.398353 0.620717 0.371079
O O2 0.615883 0.653933 0.576146
O O3 0.634500 0.558637 0.432559
O O4 0.421104 0.576504 0.683830
O O5 0.515905 0.750000 0.750000
O O6 0.513545 0.690836 0.054532
O O7 0.288587 0.698708 0.824973
O O8 0.347205 0.777859 0.058034
O O9 0.257993 0.825537 0.364500
O O10 0.178565 0.899041 0.615892
O O11 0.750000 0.500000 0.179201
#
# Coordination Sequence:
#
# PCOD8216673 Si02
#       5
#     8   8   8   8   8
#     4  10  22  43  71  99 130 175 225 275 340 415
#     4  12  24  41  65  96 135 180 221 270 335 402
#     4  12  25  41  64  99 134 173 225 274 333 406
#     4  11  22  42  67  99 139 176 220 279 339 408
#     4  11  24  45  70  99 134 176 226 286 342 399
#
# _framework density 24.379380000000001
#
# number of rings (size 3 to 8) (size 9 to 14) (size 15 to 20)
#    0.000    0.800    0.000    9.600    0.000    1.600 
#    0.000   13.000    0.000    0.000    0.000    0.000 
#    0.000    0.000    0.000    0.000    0.000    0.000 
#
# Total GULP energy -495540.299361 kJ/mol
# GULP energy per Si atom -12388.507484 kJ/mol
# Density = 2.432389 g / cm^3
# Si number density = 24.379380 Si / 1000 Ang^3
#
#
#
# Elastic Constant Matrix: (Units=GPa)
#
#
# Indices 1 2 3 4 5 6 
#
# 1 149.6592 59.5424 28.0438 0.0000 0.0000 0.0000
# 2 59.5424 180.8758 53.7383 0.0000 0.0000 0.0000
# 3 28.0438 53.7383 93.6084 0.0000 0.0000 0.0000
# 4 0.0000 0.0000 0.0000 34.8702 0.0000 0.0000
# 5 0.0000 0.0000 0.0000 0.0000 21.7098 0.0000
# 6 0.0000 0.0000 0.0000 0.0000 0.0000 30.9175
#
#
#
# Elastic Compliance Matrix: (Units=1/GPa)
#
#
# Indices 1 2 3 4 5 6 
#
# 1 0.007771 -0.002250 -0.001036 0.000000 0.000000 0.000000
# 2 -0.002250 0.007317 -0.003526 0.000000 0.000000 0.000000
# 3 -0.001036 -0.003526 0.013018 0.000000 0.000000 0.000000
# 4 0.000000 0.000000 0.000000 0.028678 0.000000 0.000000
# 5 0.000000 0.000000 0.000000 0.000000 0.046062 0.000000
# 6 0.000000 0.000000 0.000000 0.000000 0.000000 0.032344
#
#
# Mechanical properties :
#
#
# Convention : Reuss Voigt Hill
#
# Bulk Modulus (GPa) = 69.06071 78.53248 73.79659
# Shear Modulus (GPa) = 32.54294 36.35410 34.44852
#
# Velocity S-wave (km/s) = 3.65753 3.86577 3.76309
# Velocity P-wave (km/s) = 6.79895 7.22552 7.01548
#
# Compressibility (1/GPa) = 0.01448001
#
# Stress axis : x y z
#
# Youngs Moduli (GPa) = 128.67781 136.66528 76.81849
#
# Poissons Ratio (x) = 0.30755 0.07961
# Poissons Ratio (y) = 0.28957 0.27089
# Poissons Ratio (z) = 0.13335 0.48194
#
# Static dielectric constant tensor:
#      x y z
#    x 4.953750 0.000000 0.000000 
#    y 0.000000 4.207170 0.000000 
#    z 0.000000 0.000000 4.217210 
# 
# 
# High freq. dielectric constant tensor:
#      x y z
#    x 2.004640 0.000000 0.000000 
#    y 0.000000 1.951150 0.000000 
#    z 0.000000 0.000000 1.957640 
# 
# From -- ./inp_files/7425.got.cif
#   From: 2010.06.25/outbox.cif.g09.slc.cpg/sg52_4_cif.got.tgz:7425.got - 2010.06.26 19:32:48.
