data_PCOD8216667
_publ_section_title
;
Structure prediction by ZEFSAII (Michael W. Deem and Ramdas Pophale) SiO2 
 PCOD8216667
Probable space group: P N N A
;
_chemical_formula_sum "Si O2"
_cell_formula_units_Z 44
_cell_length_a 10.861190
_cell_length_b 22.215876
_cell_length_c 9.125483
_cell_angle_alpha 90.000000
_cell_angle_beta 90.000000
_cell_angle_gamma 90.000000
_cell_volume 2201.895552
_symmetry_space_group_name_H-M "P N N A"
_symmetry_group_IT_number 52
_symmetry_cell_setting 'orthorhombic'
loop_
_space_group_symop_operation_xyz
x,y,z
1/2-x,-y,z
x,1/2-y,1/2-z
1/2-x,1/2+y,1/2-z
-x,-y,-z
1/2+x,y,-z
-x,1/2+y,1/2+z
1/2+x,1/2-y,1/2+z
loop_
_atom_site_type_symbol
_atom_site_label
_atom_site_fract_x
_atom_site_fract_y
_atom_site_fract_z
Si Si1 0.865306 0.862608 0.718973
Si Si2 0.030097 0.815909 0.961615
Si Si3 0.924246 0.699128 0.074709
Si Si4 0.907789 0.117143 0.765017
Si Si5 0.109139 0.005618 0.382018
Si Si6 0.709443 0.750000 0.250000
O O1 0.909303 0.838034 0.875732
O O2 0.922739 0.821663 0.592646
O O3 0.719630 0.854947 0.709474
O O4 0.907729 0.931290 0.699728
O O5 0.130848 0.797269 0.842848
O O6 0.998132 0.762067 0.075087
O O7 0.077752 0.870795 0.061713
O O8 0.788846 0.709729 0.138864
O O9 0.985187 0.647690 0.171587
O O10 0.910330 0.045624 0.740165
O O11 0.250000 0.000000 0.448690
O O12 0.000000 0.000000 0.500000
#
# Coordination Sequence:
#
# PCOD8216667 Si02
#       6
#     8   8   8   8   8   4
#     4  11  24  42  67  91 132 166 219 273 324 392
#     4  12  24  41  62  96 131 169 213 267 332 388
#     4  12  22  40  65  94 125 171 215 263 328 395
#     4  11  24  42  65  94 131 167 216 273 327 386
#     4  10  22  43  69  97 127 175 225 271 325 395
#     4  12  24  38  64  96 132 172 220 262 338 398
#
# _framework density 19.982780999999999
#
# number of rings (size 3 to 8) (size 9 to 14) (size 15 to 20)
#    0.000    0.727    5.455    2.182    0.000    2.182 
#    0.000    0.000    0.000    0.000    0.000    0.000 
#    0.000    0.000    0.000    0.000    0.000    0.000 
#
# Total GULP energy -545737.977655 kJ/mol
# GULP energy per Si atom -12403.135856 kJ/mol
# Density = 1.993730 g / cm^3
# Si number density = 19.982781 Si / 1000 Ang^3
#
#
#
# Elastic Constant Matrix: (Units=GPa)
#
#
# Indices 1 2 3 4 5 6 
#
# 1 84.9645 28.9200 25.4304 0.0000 0.0000 0.0000
# 2 28.9200 83.5903 23.8375 0.0000 0.0000 0.0000
# 3 25.4304 23.8375 91.4165 0.0000 0.0000 0.0000
# 4 0.0000 0.0000 0.0000 39.2241 0.0000 0.0000
# 5 0.0000 0.0000 0.0000 0.0000 40.6357 0.0000
# 6 0.0000 0.0000 0.0000 0.0000 0.0000 28.9569
#
#
#
# Elastic Compliance Matrix: (Units=1/GPa)
#
#
# Indices 1 2 3 4 5 6 
#
# 1 0.013992 -0.004031 -0.002841 0.000000 0.000000 0.000000
# 2 -0.004031 0.014085 -0.002552 0.000000 0.000000 0.000000
# 3 -0.002841 -0.002552 0.012395 0.000000 0.000000 0.000000
# 4 0.000000 0.000000 0.000000 0.025495 0.000000 0.000000
# 5 0.000000 0.000000 0.000000 0.000000 0.024609 0.000000
# 6 0.000000 0.000000 0.000000 0.000000 0.000000 0.034534
#
#
# Mechanical properties :
#
#
# Convention : Reuss Voigt Hill
#
# Bulk Modulus (GPa) = 46.24295 46.26079 46.25187
# Shear Modulus (GPa) = 33.07652 33.88224 33.47938
#
# Velocity S-wave (km/s) = 4.07289 4.12220 4.09762
# Velocity P-wave (km/s) = 6.73124 6.77180 6.75155
#
# Compressibility (1/GPa) = 0.02162492
#
# Stress axis : x y z
#
# Youngs Moduli (GPa) = 71.46960 70.99642 80.67968
#
# Poissons Ratio (x) = 0.28616 0.22924
# Poissons Ratio (y) = 0.28806 0.20586
# Poissons Ratio (z) = 0.20307 0.18115
#
# Static dielectric constant tensor:
#      x y z
#    x 3.740860 0.000000 0.000000 
#    y 0.000000 3.734730 0.000000 
#    z 0.000000 0.000000 3.638200 
# 
# 
# High freq. dielectric constant tensor:
#      x y z
#    x 1.789770 0.000000 0.000000 
#    y 0.000000 1.783930 0.000000 
#    z 0.000000 0.000000 1.777880 
# 
# From -- ./inp_files/8803.got.cif
#   From: 2010.06.25/outbox.cif.g09.slc.cpg/sg52_5_cif.got.tgz:8803.got - 2010.06.26 19:32:48.
