data_PCOD8216370
_publ_section_title
;
Structure prediction by ZEFSAII (Michael W. Deem and Ramdas Pophale) SiO2 
 PCOD8216370
Probable space group: P N N A
;
_chemical_formula_sum "Si O2"
_cell_formula_units_Z 56
_cell_length_a 28.111914
_cell_length_b 6.464393
_cell_length_c 15.247166
_cell_angle_alpha 90.000000
_cell_angle_beta 90.000000
_cell_angle_gamma 90.000000
_cell_volume 2770.813503
_symmetry_space_group_name_H-M "P N N A"
_symmetry_group_IT_number 52
_symmetry_cell_setting 'orthorhombic'
loop_
_space_group_symop_operation_xyz
x,y,z
1/2-x,-y,z
x,1/2-y,1/2-z
1/2-x,1/2+y,1/2-z
-x,-y,-z
1/2+x,y,-z
-x,1/2+y,1/2+z
1/2+x,1/2-y,1/2+z
loop_
_atom_site_type_symbol
_atom_site_label
_atom_site_fract_x
_atom_site_fract_y
_atom_site_fract_z
Si Si1 0.018269 0.031299 0.400630
Si Si2 0.096826 0.340373 0.454437
Si Si3 0.886471 0.105634 0.108637
Si Si4 0.348222 0.453182 0.009922
Si Si5 0.294596 0.860270 0.835078
Si Si6 0.250000 0.500000 0.949762
Si Si7 0.596952 0.733763 0.649752
Si Si8 0.045628 0.750000 0.750000
O O1 0.043221 0.816116 0.371343
O O2 0.055101 0.214193 0.410873
O O3 0.000000 0.000000 0.500000
O O4 0.983133 0.109260 0.321671
O O5 0.082053 0.477643 0.538627
O O6 0.109391 0.500339 0.377792
O O7 0.139972 0.198003 0.490769
O O8 0.918686 0.104319 0.195217
O O9 0.835223 0.002459 0.123590
O O10 0.876424 0.335541 0.069135
O O11 0.364969 0.379164 0.103997
O O12 0.292135 0.403339 0.007556
O O13 0.316565 0.750000 0.750000
O O14 0.276382 0.679283 0.897256
O O15 0.250000 0.000000 0.806774
O O16 0.607844 0.750000 0.750000
#
# Coordination Sequence:
#
# PCOD8216370 Si02
#       8
#     8   8   8   8   8   4   8   4
#     4  11  24  42  62  94 128 169 223 281 327 413
#     4  10  21  42  66  87 123 172 212 264 338 388
#     4  11  25  41  60  94 130 171 213 274 326 397
#     4  10  22  40  65  96 126 167 219 270 325 408
#     4  12  25  38  61  93 130 173 216 259 324 405
#     4  12  22  40  68  90 130 170 216 262 332 394
#     4  10  22  41  67  90 126 167 222 270 340 402
#     4  12  26  40  64  96 136 168 228 284 334 392
#
# _framework density 20.210671000000001
#
# number of rings (size 3 to 8) (size 9 to 14) (size 15 to 20)
#    0.000    1.143    3.571    3.429    3.000    6.286 
#    0.000    1.429    3.143    0.000    0.000    0.000 
#    0.000    0.000    0.000    0.000    0.000    0.000 
#
# Total GULP energy -693763.263280 kJ/mol
# GULP energy per Si atom -12388.629701 kJ/mol
# Density = 2.016467 g / cm^3
# Si number density = 20.210671 Si / 1000 Ang^3
#
#
#
# Elastic Constant Matrix: (Units=GPa)
#
#
# Indices 1 2 3 4 5 6 
#
# 1 107.4297 38.1861 55.0191 0.0000 0.0000 0.0000
# 2 38.1861 114.8569 47.1169 0.0000 0.0000 0.0000
# 3 55.0191 47.1169 151.6183 0.0000 0.0000 0.0000
# 4 0.0000 0.0000 0.0000 25.8655 0.0000 0.0000
# 5 0.0000 0.0000 0.0000 0.0000 148.9823 0.0000
# 6 0.0000 0.0000 0.0000 0.0000 0.0000 29.0023
#
#
#
# Elastic Compliance Matrix: (Units=1/GPa)
#
#
# Indices 1 2 3 4 5 6 
#
# 1 0.012044 -0.002535 -0.003583 0.000000 0.000000 0.000000
# 2 -0.002535 0.010512 -0.002347 0.000000 0.000000 0.000000
# 3 -0.003583 -0.002347 0.008625 0.000000 0.000000 0.000000
# 4 0.000000 0.000000 0.000000 0.038662 0.000000 0.000000
# 5 0.000000 0.000000 0.000000 0.000000 0.006712 0.000000
# 6 0.000000 0.000000 0.000000 0.000000 0.000000 0.034480
#
#
# Mechanical properties :
#
#
# Convention : Reuss Voigt Hill
#
# Bulk Modulus (GPa) = 70.16398 72.72765 71.44582
# Shear Modulus (GPa) = 37.67479 56.34221 47.00850
#
# Velocity S-wave (km/s) = 4.32221 5.28564 4.82802
# Velocity P-wave (km/s) = 7.72660 8.56233 8.15518
#
# Compressibility (1/GPa) = 0.01425233
#
# Stress axis : x y z
#
# Youngs Moduli (GPa) = 83.02676 95.13026 115.94142
#
# Poissons Ratio (x) = 0.24111 0.41542
# Poissons Ratio (y) = 0.21043 0.27211
# Poissons Ratio (z) = 0.29749 0.22327
#
# Static dielectric constant tensor:
#      x y z
#    x 4.113380 0.000000 0.000000 
#    y 0.000000 3.912620 0.000000 
#    z 0.000000 0.000000 3.928930 
# 
# 
# High freq. dielectric constant tensor:
#      x y z
#    x 1.779730 0.000000 0.000000 
#    y 0.000000 1.804810 0.000000 
#    z 0.000000 0.000000 1.792500 
# 
# From -- ./inp_files/29708.got.cif
#   From: 2010.06.25/outbox.cif.g09.slc.cpg/sg52_15_cif.got.tgz:29708.got - 2010.06.26 19:32:48.
