data_PCOD8216507
_publ_section_title
;
Structure prediction by ZEFSAII (Michael W. Deem and Ramdas Pophale) SiO2 
 PCOD8216507
Probable space group: P N N A
;
_chemical_formula_sum "Si O2"
_cell_formula_units_Z 60
_cell_length_a 19.624558
_cell_length_b 6.406165
_cell_length_c 23.290360
_cell_angle_alpha 90.000000
_cell_angle_beta 90.000000
_cell_angle_gamma 90.000000
_cell_volume 2928.021126
_symmetry_space_group_name_H-M "P N N A"
_symmetry_group_IT_number 52
_symmetry_cell_setting 'orthorhombic'
loop_
_space_group_symop_operation_xyz
x,y,z
1/2-x,-y,z
x,1/2-y,1/2-z
1/2-x,1/2+y,1/2-z
-x,-y,-z
1/2+x,y,-z
-x,1/2+y,1/2+z
1/2+x,1/2-y,1/2+z
loop_
_atom_site_type_symbol
_atom_site_label
_atom_site_fract_x
_atom_site_fract_y
_atom_site_fract_z
Si Si1 0.366113 0.275487 0.895743
Si Si2 0.156314 0.338716 0.972225
Si Si3 0.533757 0.433165 0.441810
Si Si4 0.973125 0.368111 0.190911
Si Si5 0.673721 0.074793 0.605376
Si Si6 0.750000 0.500000 0.416512
Si Si7 0.940045 0.269156 0.846182
Si Si8 0.103405 0.350216 0.312517
O O1 0.333133 0.442752 0.939138
O O2 0.400704 0.386479 0.841198
O O3 0.304189 0.122546 0.876497
O O4 0.425044 0.137025 0.923146
O O5 0.081967 0.263090 0.954188
O O6 0.212621 0.166440 0.957148
O O7 0.161224 0.377159 0.039381
O O8 0.500000 0.500000 0.500000
O O9 0.478683 0.355158 0.396257
O O10 0.957501 0.250000 0.250000
O O11 0.006247 0.600826 0.193403
O O12 0.031348 0.229142 0.160015
O O13 0.618856 0.906630 0.625867
O O14 0.750000 0.000000 0.616429
O O15 0.663209 0.283676 0.643747
O O16 0.901527 0.099798 0.806121
O O17 0.115430 0.250000 0.250000
#
# Coordination Sequence:
#
# PCOD8216507 Si02
#       8
#     8   8   8   8   8   4   8   8
#     4  11  21  40  62  92 129 166 213 258 326 383
#     4  11  23  40  63  93 134 174 214 264 325 392
#     4  11  22  34  62  99 128 167 207 266 327 389
#     4  10  22  39  67  95 124 162 216 273 326 384
#     4  11  25  41  62  95 130 176 218 264 321 391
#     4  10  24  40  64  88 132 178 212 254 316 398
#     4  11  22  42  66  94 128 168 214 277 330 383
#     4  10  23  44  63  93 127 166 218 274 326 385
#
# _framework density 20.491657
#
# number of rings (size 3 to 8) (size 9 to 14) (size 15 to 20)
#    0.000    1.333    2.667    2.800    1.867    9.600 
#    2.400    0.000    2.933    0.000    0.000    0.000 
#    0.000    0.000    0.000    0.000    0.000    0.000 
#
# Total GULP energy -743615.414697 kJ/mol
# GULP energy per Si atom -12393.590245 kJ/mol
# Density = 2.044502 g / cm^3
# Si number density = 20.491657 Si / 1000 Ang^3
#
#
#
# Elastic Constant Matrix: (Units=GPa)
#
#
# Indices 1 2 3 4 5 6 
#
# 1 95.5491 49.4131 52.6836 0.0000 0.0000 0.0000
# 2 49.4131 142.5890 57.0423 0.0000 0.0000 0.0000
# 3 52.6836 57.0423 106.4414 0.0000 0.0000 0.0000
# 4 0.0000 0.0000 0.0000 33.0899 0.0000 0.0000
# 5 0.0000 0.0000 0.0000 0.0000 12.0514 0.0000
# 6 0.0000 0.0000 0.0000 0.0000 0.0000 22.4431
#
#
#
# Elastic Compliance Matrix: (Units=1/GPa)
#
#
# Indices 1 2 3 4 5 6 
#
# 1 0.015275 -0.002888 -0.006012 0.000000 0.000000 0.000000
# 2 -0.002888 0.009473 -0.003647 0.000000 0.000000 0.000000
# 3 -0.006012 -0.003647 0.014325 0.000000 0.000000 0.000000
# 4 0.000000 0.000000 0.000000 0.030221 0.000000 0.000000
# 5 0.000000 0.000000 0.000000 0.000000 0.082978 0.000000
# 6 0.000000 0.000000 0.000000 0.000000 0.000000 0.044557
#
#
# Mechanical properties :
#
#
# Convention : Reuss Voigt Hill
#
# Bulk Modulus (GPa) = 71.54377 73.65083 72.59730
# Shear Modulus (GPa) = 22.06694 25.87956 23.97325
#
# Velocity S-wave (km/s) = 3.28514 3.55763 3.42410
# Velocity P-wave (km/s) = 7.02701 7.27293 7.15103
#
# Compressibility (1/GPa) = 0.01397746
#
# Stress axis : x y z
#
# Youngs Moduli (GPa) = 65.46859 105.56283 69.80650
#
# Poissons Ratio (x) = 0.30486 0.41971
# Poissons Ratio (y) = 0.18907 0.25460
# Poissons Ratio (z) = 0.39363 0.38501
#
# Static dielectric constant tensor:
#      x y z
#    x 3.936010 0.000000 0.000000 
#    y 0.000000 3.398040 0.000000 
#    z 0.000000 0.000000 3.529020 
# 
# 
# High freq. dielectric constant tensor:
#      x y z
#    x 1.802550 0.000000 0.000000 
#    y 0.000000 1.821470 0.000000 
#    z 0.000000 0.000000 1.783210 
# 
# From -- ./inp_files/41030.got.cif
#   From: 2010.06.25/outbox.cif.g09.slc.cpg/sg52_21_cif.got.tgz:41030.got - 2010.06.26 19:32:48.
