data_PCOD8216186
_publ_section_title
;
Structure prediction by ZEFSAII (Michael W. Deem and Ramdas Pophale) SiO2 
 PCOD8216186
Probable space group: P N N A
;
_chemical_formula_sum "Si O2"
_cell_formula_units_Z 36
_cell_length_a 19.143719
_cell_length_b 13.154832
_cell_length_c 5.486633
_cell_angle_alpha 90.000000
_cell_angle_beta 90.000000
_cell_angle_gamma 90.000000
_cell_volume 1381.711996
_symmetry_space_group_name_H-M "P N N A"
_symmetry_group_IT_number 52
_symmetry_cell_setting 'orthorhombic'
loop_
_space_group_symop_operation_xyz
x,y,z
1/2-x,-y,z
x,1/2-y,1/2-z
1/2-x,1/2+y,1/2-z
-x,-y,-z
1/2+x,y,-z
-x,1/2+y,1/2+z
1/2+x,1/2-y,1/2+z
loop_
_atom_site_type_symbol
_atom_site_label
_atom_site_fract_x
_atom_site_fract_y
_atom_site_fract_z
Si Si1 0.346783 0.750000 0.750000
Si Si2 0.562995 0.628692 0.247480
Si Si3 0.871662 0.134050 0.749207
Si Si4 0.776238 0.899116 0.908137
Si Si5 0.408535 0.637505 0.145479
O O1 0.292435 0.697770 0.569257
O O2 0.396444 0.840352 0.642883
O O3 0.568537 0.750000 0.250000
O O4 0.597158 0.584900 0.497228
O O5 0.482588 0.591585 0.222149
O O6 0.599449 0.582252 0.002407
O O7 0.898282 0.250000 0.750000
O O8 0.787714 0.131471 0.732973
O O9 0.845211 0.932208 0.750097
O O10 0.750000 0.000000 0.054096
O O11 0.397860 0.750000 0.250000
#
# Coordination Sequence:
#
# PCOD8216186 Si02
#       5
#     4   8   8   8   8
#     4  10  22  40  68  92 128 172 228 264 336 392
#     4   9  20  35  64  95 128 167 218 270 331 396
#     4  10  21  38  63  97 127 169 218 275 331 390
#     4  11  25  42  63  95 132 175 226 275 328 394
#     4   9  20  38  64  91 124 170 218 267 326 399
#
# _framework density 26.054634
#
# number of rings (size 3 to 8) (size 9 to 14) (size 15 to 20)
#    0.000    2.222    0.000    2.000   18.667    0.889 
#    0.000    2.222    0.000    0.000    0.000    0.000 
#    0.000    0.000    0.000    0.000    0.000    0.000 
#
# Total GULP energy -446031.291658 kJ/mol
# GULP energy per Si atom -12389.758102 kJ/mol
# Density = 2.599533 g / cm^3
# Si number density = 26.054634 Si / 1000 Ang^3
#
#
#
# Elastic Constant Matrix: (Units=GPa)
#
#
# Indices 1 2 3 4 5 6 
#
# 1 229.1684 13.9011 107.7724 0.0000 0.0000 0.0000
# 2 13.9011 12.6474 14.2526 0.0000 0.0000 0.0000
# 3 107.7724 14.2526 186.7651 0.0000 0.0000 0.0000
# 4 0.0000 0.0000 0.0000 31.3487 0.0000 0.0000
# 5 0.0000 0.0000 0.0000 0.0000 36.9072 0.0000
# 6 0.0000 0.0000 0.0000 0.0000 0.0000 5.5898
#
#
#
# Elastic Compliance Matrix: (Units=1/GPa)
#
#
# Indices 1 2 3 4 5 6 
#
# 1 0.006090 -0.002991 -0.003286 0.000000 0.000000 0.000000
# 2 -0.002991 0.087976 -0.004988 0.000000 0.000000 0.000000
# 3 -0.003286 -0.004988 0.007631 0.000000 0.000000 0.000000
# 4 0.000000 0.000000 0.000000 0.031899 0.000000 0.000000
# 5 0.000000 0.000000 0.000000 0.000000 0.027095 0.000000
# 6 0.000000 0.000000 0.000000 0.000000 0.000000 0.178896
#
#
# Mechanical properties :
#
#
# Convention : Reuss Voigt Hill
#
# Bulk Modulus (GPa) = 12.63139 77.82589 45.22864
# Shear Modulus (GPa) = 12.86978 34.27946 23.57462
#
# Velocity S-wave (km/s) = 2.22492 3.63116 3.01128
# Velocity P-wave (km/s) = 3.38510 6.89315 5.43021
#
# Compressibility (1/GPa) = 0.07916786
#
# Stress axis : x y z
#
# Youngs Moduli (GPa) = 164.19095 11.36673 131.03963
#
# Poissons Ratio (x) = 0.03400 0.43063
# Poissons Ratio (y) = 0.49107 0.65361
# Poissons Ratio (z) = 0.53957 0.05670
#
# Static dielectric constant tensor:
#      x y z
#    x 4.773500 0.000000 0.000000 
#    y 0.000000 4.820070 0.000000 
#    z 0.000000 0.000000 5.961040 
# 
# 
# High freq. dielectric constant tensor:
#      x y z
#    x 2.050860 0.000000 0.000000 
#    y 0.000000 2.040850 0.000000 
#    z 0.000000 0.000000 2.031890 
# 
# From -- ./inp_files/4094.got.cif
#   From: 2010.06.25/outbox.cif.g09.slc.cpg/sg52_3_cif.got.tgz:4094.got - 2010.06.26 19:32:48.
