data_PCOD8216325
_publ_section_title
;
Structure prediction by ZEFSAII (Michael W. Deem and Ramdas Pophale) SiO2 
 PCOD8216325
Probable space group: P N N A
;
_chemical_formula_sum "Si O2"
_cell_formula_units_Z 60
_cell_length_a 9.729795
_cell_length_b 10.946018
_cell_length_c 24.201250
_cell_angle_alpha 90.000000
_cell_angle_beta 90.000000
_cell_angle_gamma 90.000000
_cell_volume 2577.493899
_symmetry_space_group_name_H-M "P N N A"
_symmetry_group_IT_number 52
_symmetry_cell_setting 'orthorhombic'
loop_
_space_group_symop_operation_xyz
x,y,z
1/2-x,-y,z
x,1/2-y,1/2-z
1/2-x,1/2+y,1/2-z
-x,-y,-z
1/2+x,y,-z
-x,1/2+y,1/2+z
1/2+x,1/2-y,1/2+z
loop_
_atom_site_type_symbol
_atom_site_label
_atom_site_fract_x
_atom_site_fract_y
_atom_site_fract_z
Si Si1 0.637972 0.285815 0.133176
Si Si2 0.484031 0.522274 0.663366
Si Si3 0.250000 0.500000 0.409805
Si Si4 0.533353 0.870824 0.725600
Si Si5 0.470388 0.638281 0.984581
Si Si6 0.757429 0.249838 0.551153
Si Si7 0.715645 0.363381 0.839097
Si Si8 0.419772 0.250883 0.684421
O O1 0.603856 0.139948 0.142475
O O2 0.543447 0.383600 0.166973
O O3 0.617250 0.329308 0.070171
O O4 0.793799 0.312476 0.152266
O O5 0.622771 0.525827 0.629388
O O6 0.511109 0.523338 0.729817
O O7 0.419818 0.387421 0.657471
O O8 0.269997 0.607282 0.454060
O O9 0.463975 0.750000 0.750000
O O10 0.696980 0.850130 0.717208
O O11 0.613621 0.710032 0.985288
O O12 0.500000 0.500000 0.000000
O O13 0.381334 0.681197 0.036089
O O14 0.784024 0.225626 0.616066
O O15 0.750000 0.500000 0.860827
O O16 0.557005 0.329554 0.827774
O O17 0.391885 0.250000 0.750000
#
# Coordination Sequence:
#
# PCOD8216325 Si02
#       8
#     8   8   4   8   8   8   8   8
#     4  11  25  49  72 106 156 202 250 322 398 457
#     4  11  23  44  75 109 156 200 254 313 383 467
#     4  12  24  48  76 108 148 190 262 316 378 464
#     4  10  21  40  72 101 146 196 240 301 374 450
#     4  12  27  52  77 108 145 197 260 327 393 468
#     4  12  27  50  76 108 142 193 254 322 392 453
#     4  12  24  43  68 103 150 196 251 309 366 453
#     4  12  26  43  71 117 157 204 257 308 386 475
#
# _framework density 23.278424999999999
#
# number of rings (size 3 to 8) (size 9 to 14) (size 15 to 20)
#    0.000    0.533    4.000    4.800    4.667    0.533 
#    4.800    2.000    0.000    0.000    0.000    0.000 
#    0.000    0.000    0.000    0.000    0.000    0.000 
#
# Total GULP energy -743414.033805 kJ/mol
# GULP energy per Si atom -12390.233897 kJ/mol
# Density = 2.322544 g / cm^3
# Si number density = 23.278425 Si / 1000 Ang^3
#
#
#
# Elastic Constant Matrix: (Units=GPa)
#
#
# Indices 1 2 3 4 5 6 
#
# 1 145.6224 51.2209 27.4625 0.0000 0.0000 0.0000
# 2 51.2209 134.3566 42.0166 0.0000 0.0000 0.0000
# 3 27.4625 42.0166 70.1283 0.0000 0.0000 0.0000
# 4 0.0000 0.0000 0.0000 38.8425 0.0000 0.0000
# 5 0.0000 0.0000 0.0000 0.0000 38.0525 0.0000
# 6 0.0000 0.0000 0.0000 0.0000 0.0000 32.2370
#
#
#
# Elastic Compliance Matrix: (Units=1/GPa)
#
#
# Indices 1 2 3 4 5 6 
#
# 1 0.008078 -0.002572 -0.001622 0.000000 0.000000 0.000000
# 2 -0.002572 0.009978 -0.004971 0.000000 0.000000 0.000000
# 3 -0.001622 -0.004971 0.017873 0.000000 0.000000 0.000000
# 4 0.000000 0.000000 0.000000 0.025745 0.000000 0.000000
# 5 0.000000 0.000000 0.000000 0.000000 0.026279 0.000000
# 6 0.000000 0.000000 0.000000 0.000000 0.000000 0.031020
#
#
# Mechanical properties :
#
#
# Convention : Reuss Voigt Hill
#
# Bulk Modulus (GPa) = 56.82381 65.72303 61.27342
# Shear Modulus (GPa) = 34.92345 37.12022 36.02183
#
# Velocity S-wave (km/s) = 3.87751 3.99760 3.93801
# Velocity P-wave (km/s) = 6.67160 7.04290 6.85976
#
# Compressibility (1/GPa) = 0.01759826
#
# Stress axis : x y z
#
# Youngs Moduli (GPa) = 123.79712 100.22045 55.94998
#
# Poissons Ratio (x) = 0.25779 0.09076
# Poissons Ratio (y) = 0.31843 0.27812
# Poissons Ratio (z) = 0.20082 0.49819
#
# Static dielectric constant tensor:
#      x y z
#    x 4.235910 0.000000 0.000000 
#    y 0.000000 4.328540 0.000000 
#    z 0.000000 0.000000 4.462430 
# 
# 
# High freq. dielectric constant tensor:
#      x y z
#    x 1.928180 0.000000 0.000000 
#    y 0.000000 1.930030 0.000000 
#    z 0.000000 0.000000 1.915600 
# 
# From -- ./inp_files/42336.got.cif
#   From: 2010.06.25/outbox.cif.g09.slc.cpg/sg52_22_cif.got.tgz:42336.got - 2010.06.26 19:32:48.
