data_PCOD8216192
_publ_section_title
;
Structure prediction by ZEFSAII (Michael W. Deem and Ramdas Pophale) SiO2 
 PCOD8216192
Probable space group: P N N A
;
_chemical_formula_sum "Si O2"
_cell_formula_units_Z 60
_cell_length_a 17.429374
_cell_length_b 18.103265
_cell_length_c 9.106365
_cell_angle_alpha 90.000000
_cell_angle_beta 90.000000
_cell_angle_gamma 90.000000
_cell_volume 2873.318384
_symmetry_space_group_name_H-M "P N N A"
_symmetry_group_IT_number 52
_symmetry_cell_setting 'orthorhombic'
loop_
_space_group_symop_operation_xyz
x,y,z
1/2-x,-y,z
x,1/2-y,1/2-z
1/2-x,1/2+y,1/2-z
-x,-y,-z
1/2+x,y,-z
-x,1/2+y,1/2+z
1/2+x,1/2-y,1/2+z
loop_
_atom_site_type_symbol
_atom_site_label
_atom_site_fract_x
_atom_site_fract_y
_atom_site_fract_z
Si Si1 0.717513 0.847413 0.206169
Si Si2 0.501688 0.079498 0.842420
Si Si3 0.932127 0.727507 0.595260
Si Si4 0.569291 0.665792 0.104583
Si Si5 0.155563 0.827828 0.314814
Si Si6 0.750000 0.500000 0.441671
Si Si7 0.280858 0.720731 0.972849
Si Si8 0.889918 0.454353 0.591208
O O1 0.636353 0.823545 0.276125
O O2 0.731478 0.794591 0.065263
O O3 0.779953 0.834457 0.334662
O O4 0.729135 0.931291 0.160653
O O5 0.558734 0.139196 0.917440
O O6 0.483576 0.101125 0.673738
O O7 0.542074 0.999658 0.830417
O O8 0.424358 0.079336 0.940696
O O9 0.895476 0.750000 0.750000
O O10 0.870357 0.758338 0.481387
O O11 0.017573 0.761416 0.581984
O O12 0.601601 0.643564 0.946526
O O13 0.125817 0.750000 0.250000
O O14 0.242069 0.815981 0.381014
O O15 0.148734 0.890582 0.190521
O O16 0.823226 0.512205 0.547116
#
# Coordination Sequence:
#
# PCOD8216192 Si02
#       8
#     8   8   8   8   8   4   8   8
#     4  10  22  40  68  93 129 175 225 262 325 398
#     4  10  22  42  63  91 132 171 218 259 336 397
#     4  10  21  38  65  94 128 169 210 276 330 382
#     4  10  22  41  67  91 129 175 218 265 330 395
#     4  11  23  39  64  96 127 170 219 273 328 393
#     4  12  22  42  70  94 126 182 218 270 322 402
#     4  10  22  40  63  98 130 165 220 284 320 385
#     4  11  24  40  64  95 129 172 215 276 324 396
#
# _framework density 20.881779000000002
#
# number of rings (size 3 to 8) (size 9 to 14) (size 15 to 20)
#    0.000    1.600    1.333    2.800   11.200    2.667 
#   12.000    8.000    0.000    0.000    0.000    0.000 
#    0.000    0.000    0.000    0.000    0.000    0.000 
#
# Total GULP energy -743470.028628 kJ/mol
# GULP energy per Si atom -12391.167144 kJ/mol
# Density = 2.083425 g / cm^3
# Si number density = 20.881779 Si / 1000 Ang^3
#
#
#
# Elastic Constant Matrix: (Units=GPa)
#
#
# Indices 1 2 3 4 5 6 
#
# 1 122.7859 43.2770 46.7558 0.0000 0.0000 0.0000
# 2 43.2770 107.3744 34.7198 0.0000 0.0000 0.0000
# 3 46.7558 34.7198 71.4514 0.0000 0.0000 0.0000
# 4 0.0000 0.0000 0.0000 33.0477 0.0000 0.0000
# 5 0.0000 0.0000 0.0000 0.0000 28.4386 0.0000
# 6 0.0000 0.0000 0.0000 0.0000 0.0000 26.0506
#
#
#
# Elastic Compliance Matrix: (Units=1/GPa)
#
#
# Indices 1 2 3 4 5 6 
#
# 1 0.011426 -0.002595 -0.006216 0.000000 0.000000 0.000000
# 2 -0.002595 0.011639 -0.003957 0.000000 0.000000 0.000000
# 3 -0.006216 -0.003957 0.019986 0.000000 0.000000 0.000000
# 4 0.000000 0.000000 0.000000 0.030259 0.000000 0.000000
# 5 0.000000 0.000000 0.000000 0.000000 0.035163 0.000000
# 6 0.000000 0.000000 0.000000 0.000000 0.000000 0.038387
#
#
# Mechanical properties :
#
#
# Convention : Reuss Voigt Hill
#
# Bulk Modulus (GPa) = 57.09707 61.23523 59.16615
# Shear Modulus (GPa) = 28.05293 29.29800 28.67546
#
# Velocity S-wave (km/s) = 3.66924 3.74978 3.70973
# Velocity P-wave (km/s) = 6.73450 6.93803 6.83702
#
# Compressibility (1/GPa) = 0.01751403
#
# Stress axis : x y z
#
# Youngs Moduli (GPa) = 87.52076 85.91926 50.03559
#
# Poissons Ratio (x) = 0.22299 0.31100
# Poissons Ratio (y) = 0.22714 0.19800
# Poissons Ratio (z) = 0.54400 0.34000
#
# Static dielectric constant tensor:
#      x y z
#    x 3.837860 0.000000 0.000000 
#    y 0.000000 3.623500 0.000000 
#    z 0.000000 0.000000 3.915490 
# 
# 
# High freq. dielectric constant tensor:
#      x y z
#    x 1.822960 0.000000 0.000000 
#    y 0.000000 1.806590 0.000000 
#    z 0.000000 0.000000 1.813890 
# 
# From -- ./inp_files/12421.got.cif
#   From: 2010.06.25/outbox.cif.g09.slc.cpg/sg52_7_cif.got.tgz:12421.got - 2010.06.26 19:32:48.
