data_PCOD8216079
_publ_section_title
;
Structure prediction by ZEFSAII (Michael W. Deem and Ramdas Pophale) SiO2 
 PCOD8216079
Probable space group: P N N A
;
_chemical_formula_sum "Si O2"
_cell_formula_units_Z 48
_cell_length_a 14.567032
_cell_length_b 9.825389
_cell_length_c 17.927520
_cell_angle_alpha 90.000000
_cell_angle_beta 90.000000
_cell_angle_gamma 90.000000
_cell_volume 2565.907780
_symmetry_space_group_name_H-M "P N N A"
_symmetry_group_IT_number 52
_symmetry_cell_setting 'orthorhombic'
loop_
_space_group_symop_operation_xyz
x,y,z
1/2-x,-y,z
x,1/2-y,1/2-z
1/2-x,1/2+y,1/2-z
-x,-y,-z
1/2+x,y,-z
-x,1/2+y,1/2+z
1/2+x,1/2-y,1/2+z
loop_
_atom_site_type_symbol
_atom_site_label
_atom_site_fract_x
_atom_site_fract_y
_atom_site_fract_z
Si Si1 0.250000 0.000000 0.919186
Si Si2 0.936834 0.596694 0.277093
Si Si3 0.520890 0.146800 0.697087
Si Si4 0.750000 0.500000 0.209264
Si Si5 0.499812 0.146404 0.534942
Si Si6 0.155908 0.766055 0.629949
Si Si7 0.436373 0.900650 0.952724
O O1 0.295208 0.119797 0.869373
O O2 0.169794 0.063463 0.970320
O O3 0.951937 0.750000 0.250000
O O4 0.833965 0.545115 0.261624
O O5 0.956731 0.583406 0.365016
O O6 0.009618 0.502906 0.232536
O O7 0.580719 0.250000 0.750000
O O8 0.423783 0.229846 0.691838
O O9 0.559004 0.135999 0.612481
O O10 0.768542 0.376230 0.152862
O O11 0.394568 0.196224 0.551031
O O12 0.548668 0.246070 0.477094
O O13 0.500000 0.000000 0.500000
O O14 0.500000 0.000000 0.000000
#
# Coordination Sequence:
#
# PCOD8216079 Si02
#       7
#     4   8   8   4   8   8   8
#     4  12  21  36  56  86 116 165 196 252 297 360
#     4  11  21  33  55  84 116 156 197 245 294 367
#     4   9  18  35  52  78 112 152 195 236 297 359
#     4  10  21  36  52  90 122 159 200 234 313 390
#     4  10  21  38  55  80 124 165 198 243 303 376
#     4   9  21  34  56  82 124 161 193 241 300 375
#     4  12  23  38  56  88 126 161 206 249 307 369
#
# _framework density 18.706831000000001
#
# number of rings (size 3 to 8) (size 9 to 14) (size 15 to 20)
#    1.000    0.667    1.667    4.500    2.333    4.000 
#    0.000    0.000    0.000    0.000    0.000    3.500 
#    0.000    0.000    0.000    0.000    0.000    0.000 
#
# Total GULP energy -594636.620669 kJ/mol
# GULP energy per Si atom -12388.262931 kJ/mol
# Density = 1.866425 g / cm^3
# Si number density = 18.706831 Si / 1000 Ang^3
#
#
#
# Elastic Constant Matrix: (Units=GPa)
#
#
# Indices 1 2 3 4 5 6 
#
# 1 42.3962 30.6947 29.9518 0.0000 0.0000 0.0000
# 2 30.6947 162.9130 56.6214 0.0000 0.0000 0.0000
# 3 29.9518 56.6214 115.1500 0.0000 0.0000 0.0000
# 4 0.0000 0.0000 0.0000 44.5323 0.0000 0.0000
# 5 0.0000 0.0000 0.0000 0.0000 22.7743 0.0000
# 6 0.0000 0.0000 0.0000 0.0000 0.0000 19.5028
#
#
#
# Elastic Compliance Matrix: (Units=1/GPa)
#
#
# Indices 1 2 3 4 5 6 
#
# 1 0.030564 -0.003613 -0.006174 0.000000 0.000000 0.000000
# 2 -0.003613 0.007831 -0.002911 0.000000 0.000000 0.000000
# 3 -0.006174 -0.002911 0.011721 0.000000 0.000000 0.000000
# 4 0.000000 0.000000 0.000000 0.022456 0.000000 0.000000
# 5 0.000000 0.000000 0.000000 0.000000 0.043909 0.000000
# 6 0.000000 0.000000 0.000000 0.000000 0.000000 0.051275
#
#
# Mechanical properties :
#
#
# Convention : Reuss Voigt Hill
#
# Bulk Modulus (GPa) = 40.45011 61.66610 51.05811
# Shear Modulus (GPa) = 24.82740 30.90800 27.86770
#
# Velocity S-wave (km/s) = 3.64701 4.06917 3.86386
# Velocity P-wave (km/s) = 6.27729 7.42385 6.87452
#
# Compressibility (1/GPa) = 0.02472181
#
# Stress axis : x y z
#
# Youngs Moduli (GPa) = 32.71798 127.70417 85.31446
#
# Poissons Ratio (x) = 0.46140 0.52669
# Poissons Ratio (y) = 0.11821 0.24832
# Poissons Ratio (z) = 0.20198 0.37170
#
# Static dielectric constant tensor:
#      x y z
#    x 3.145730 0.000000 0.000000 
#    y 0.000000 3.743630 0.000000 
#    z 0.000000 0.000000 3.543380 
# 
# 
# High freq. dielectric constant tensor:
#      x y z
#    x 1.663300 0.000000 0.000000 
#    y 0.000000 1.755740 0.000000 
#    z 0.000000 0.000000 1.731620 
# 
# From -- ./inp_files/33093.got.cif
#   From: 2010.06.25/outbox.cif.g09.slc.cpg/sg52_17_cif.got.tgz:33093.got - 2010.06.26 19:32:48.
