data_PCOD8216760
_publ_section_title
;
Structure prediction by ZEFSAII (Michael W. Deem and Ramdas Pophale) SiO2 
 PCOD8216760
Probable space group: P N N A
;
_chemical_formula_sum "Si O2"
_cell_formula_units_Z 48
_cell_length_a 14.689224
_cell_length_b 16.068038
_cell_length_c 9.563102
_cell_angle_alpha 90.000000
_cell_angle_beta 90.000000
_cell_angle_gamma 90.000000
_cell_volume 2257.150366
_symmetry_space_group_name_H-M "P N N A"
_symmetry_group_IT_number 52
_symmetry_cell_setting 'orthorhombic'
loop_
_space_group_symop_operation_xyz
x,y,z
1/2-x,-y,z
x,1/2-y,1/2-z
1/2-x,1/2+y,1/2-z
-x,-y,-z
1/2+x,y,-z
-x,1/2+y,1/2+z
1/2+x,1/2-y,1/2+z
loop_
_atom_site_type_symbol
_atom_site_label
_atom_site_fract_x
_atom_site_fract_y
_atom_site_fract_z
Si Si1 0.221636 0.321826 0.983176
Si Si2 0.406365 0.252003 0.588651
Si Si3 0.568626 0.470855 0.300846
Si Si4 0.750000 0.000000 0.356067
Si Si5 0.152297 0.250000 0.250000
Si Si6 0.963553 0.885072 0.918943
Si Si7 0.526849 0.316167 0.134592
O O1 0.298915 0.260362 0.923961
O O2 0.244216 0.418324 0.953212
O O3 0.129175 0.292061 0.909615
O O4 0.214830 0.306906 0.149603
O O5 0.436404 0.250000 0.750000
O O6 0.442023 0.340961 0.528819
O O7 0.460149 0.181888 0.499636
O O8 0.662735 0.508680 0.244294
O O9 0.588479 0.423411 0.447419
O O10 0.492317 0.541832 0.314289
O O11 0.523726 0.409270 0.190176
O O12 0.095438 0.185570 0.156037
O O13 0.493311 0.250000 0.250000
#
# Coordination Sequence:
#
# PCOD8216760 Si02
#       7
#     8   8   8   4   4   8   8
#     4  11  25  41  68  96 138 177 238 284 349 428
#     4  12  23  40  68  97 131 184 235 279 352 424
#     4  10  23  41  68 100 137 181 235 289 351 421
#     4  10  24  44  64 100 134 184 230 292 356 410
#     4  12  24  44  64 100 138 186 232 300 358 408
#     4  11  22  41  67  98 138 182 235 291 357 411
#     4  11  21  42  66  97 136 179 227 289 350 412
#
# _framework density 21.265751999999999
#
# number of rings (size 3 to 8) (size 9 to 14) (size 15 to 20)
#    0.000    1.000    4.167    1.500    1.167    5.333 
#    0.000    8.333    0.000    0.000    0.000    0.000 
#    0.000    0.000    0.000    0.000    0.000    0.000 
#
# Total GULP energy -595118.645343 kJ/mol
# GULP energy per Si atom -12398.305111 kJ/mol
# Density = 2.121735 g / cm^3
# Si number density = 21.265752 Si / 1000 Ang^3
#
#
#
# Elastic Constant Matrix: (Units=GPa)
#
#
# Indices 1 2 3 4 5 6 
#
# 1 91.0667 30.1326 58.0626 0.0000 0.0000 0.0000
# 2 30.1326 94.3503 65.7346 0.0000 0.0000 0.0000
# 3 58.0626 65.7346 145.0487 0.0000 0.0000 0.0000
# 4 0.0000 0.0000 0.0000 45.0523 0.0000 0.0000
# 5 0.0000 0.0000 0.0000 0.0000 26.4173 0.0000
# 6 0.0000 0.0000 0.0000 0.0000 0.0000 30.7927
#
#
#
# Elastic Compliance Matrix: (Units=1/GPa)
#
#
# Indices 1 2 3 4 5 6 
#
# 1 0.014793 -0.000875 -0.005525 0.000000 0.000000 0.000000
# 2 -0.000875 0.015541 -0.006693 0.000000 0.000000 0.000000
# 3 -0.005525 -0.006693 0.012139 0.000000 0.000000 0.000000
# 4 0.000000 0.000000 0.000000 0.022196 0.000000 0.000000
# 5 0.000000 0.000000 0.000000 0.000000 0.037854 0.000000
# 6 0.000000 0.000000 0.000000 0.000000 0.000000 0.032475
#
#
# Mechanical properties :
#
#
# Convention : Reuss Voigt Hill
#
# Bulk Modulus (GPa) = 61.39707 70.92505 66.16106
# Shear Modulus (GPa) = 30.00942 32.22153 31.11548
#
# Velocity S-wave (km/s) = 3.76062 3.89676 3.82929
# Velocity P-wave (km/s) = 6.91306 7.32601 7.12253
#
# Compressibility (1/GPa) = 0.01628742
#
# Stress axis : x y z
#
# Youngs Moduli (GPa) = 67.59844 64.34494 82.37886
#
# Poissons Ratio (x) = 0.05631 0.45515
# Poissons Ratio (y) = 0.05916 0.55135
# Poissons Ratio (z) = 0.37349 0.43065
#
# Static dielectric constant tensor:
#      x y z
#    x 3.766570 0.000000 0.000000 
#    y 0.000000 4.011030 0.000000 
#    z 0.000000 0.000000 4.025680 
# 
# 
# High freq. dielectric constant tensor:
#      x y z
#    x 1.822640 0.000000 0.000000 
#    y 0.000000 1.840320 0.000000 
#    z 0.000000 0.000000 1.842740 
# 
# From -- ./inp_files/10553.got.cif
#   From: 2010.06.25/outbox.cif.g09.slc.cpg/sg52_6_cif.got.tgz:10553.got - 2010.06.26 19:32:48.
