data_PCOD8216318
_publ_section_title
;
Structure prediction by ZEFSAII (Michael W. Deem and Ramdas Pophale) SiO2 
 PCOD8216318
Probable space group: P N N A
;
_chemical_formula_sum "Si O2"
_cell_formula_units_Z 36
_cell_length_a 8.556475
_cell_length_b 8.409128
_cell_length_c 20.494341
_cell_angle_alpha 90.000000
_cell_angle_beta 90.000000
_cell_angle_gamma 90.000000
_cell_volume 1474.618938
_symmetry_space_group_name_H-M "P N N A"
_symmetry_group_IT_number 52
_symmetry_cell_setting 'orthorhombic'
loop_
_space_group_symop_operation_xyz
x,y,z
1/2-x,-y,z
x,1/2-y,1/2-z
1/2-x,1/2+y,1/2-z
-x,-y,-z
1/2+x,y,-z
-x,1/2+y,1/2+z
1/2+x,1/2-y,1/2+z
loop_
_atom_site_type_symbol
_atom_site_label
_atom_site_fract_x
_atom_site_fract_y
_atom_site_fract_z
Si Si1 0.307297 0.666948 0.641213
Si Si2 0.750000 0.500000 0.813584
Si Si3 0.165145 0.337111 0.490446
Si Si4 0.750000 0.000000 0.480486
Si Si5 0.544473 0.750000 0.750000
Si Si6 0.019067 0.843617 0.603562
O O1 0.250000 0.500000 0.669162
O O2 0.371322 0.652096 0.567073
O O3 0.445904 0.730218 0.684801
O O4 0.161122 0.786824 0.649127
O O5 0.651534 0.600077 0.762654
O O6 0.634821 0.392838 0.857479
O O7 0.250000 0.500000 0.466545
O O8 0.012222 0.311590 0.444643
O O9 0.249554 0.163573 0.477288
O O10 0.910440 0.006216 0.437192
#
# Coordination Sequence:
#
# PCOD8216318 Si02
#       6
#     8   4   8   4   4   8
#     4  10  26  46  76 105 151 203 246 305 370 462
#     4  12  29  48  76 112 146 198 249 330 368 436
#     4  10  22  42  73 116 152 190 244 310 381 448
#     4  10  21  40  68 104 156 202 233 296 374 472
#     4  12  30  48  74 104 148 196 266 304 376 452
#     4  11  24  45  77 109 149 194 249 311 389 445
#
# _framework density 24.413088999999999
#
# number of rings (size 3 to 8) (size 9 to 14) (size 15 to 20)
#    0.000    1.333    0.000    4.000    6.222   15.111 
#    0.000    0.000    2.444    0.000    0.000    0.000 
#    0.000    0.000    0.000    0.000    0.000    0.000 
#
# Total GULP energy -446037.962990 kJ/mol
# GULP energy per Si atom -12389.943416 kJ/mol
# Density = 2.435752 g / cm^3
# Si number density = 24.413089 Si / 1000 Ang^3
#
#
#
# Elastic Constant Matrix: (Units=GPa)
#
#
# Indices 1 2 3 4 5 6 
#
# 1 148.5206 67.5702 68.3533 0.0000 0.0000 0.0000
# 2 67.5702 175.9017 35.0525 0.0000 0.0000 0.0000
# 3 68.3533 35.0525 96.4897 0.0000 0.0000 0.0000
# 4 0.0000 0.0000 0.0000 31.1098 0.0000 0.0000
# 5 0.0000 0.0000 0.0000 0.0000 -109.6289 0.0000
# 6 0.0000 0.0000 0.0000 0.0000 0.0000 52.7738
#
#
#
# Elastic Compliance Matrix: (Units=1/GPa)
#
#
# Indices 1 2 3 4 5 6 
#
# 1 0.011248 -0.002946 -0.006898 0.000000 0.000000 0.000000
# 2 -0.002946 0.006900 -0.000420 0.000000 0.000000 0.000000
# 3 -0.006898 -0.000420 0.015403 0.000000 0.000000 0.000000
# 4 0.000000 0.000000 0.000000 0.032144 0.000000 0.000000
# 5 0.000000 0.000000 0.000000 0.000000 -0.009122 0.000000
# 6 0.000000 0.000000 0.000000 0.000000 0.000000 0.018949
#
#
# Mechanical properties :
#
#
# Convention : Reuss Voigt Hill
#
# Bulk Modulus (GPa) = 76.78307 84.76268 80.77287
# Shear Modulus (GPa) = 49.80527 11.51335 30.65931
#
# Velocity S-wave (km/s) = 4.52165 2.17400 3.54765
# Velocity P-wave (km/s) = 7.66683 6.41072 7.06674
#
# Compressibility (1/GPa) = 0.01302371
#
# Stress axis : x y z
#
# Youngs Moduli (GPa) = 88.90437 144.91984 64.92382
#
# Poissons Ratio (x) = 0.42697 0.44783
# Poissons Ratio (y) = 0.26193 0.02724
# Poissons Ratio (z) = 0.61325 0.06081
#
# Static dielectric constant tensor:
#      x y z
#    x 4.564180 0.000000 0.000000 
#    y 0.000000 4.796600 0.000000 
#    z 0.000000 0.000000 4.207800 
# 
# 
# High freq. dielectric constant tensor:
#      x y z
#    x 1.980510 0.000000 0.000000 
#    y 0.000000 1.989590 0.000000 
#    z 0.000000 0.000000 1.944060 
# 
# From -- ./inp_files/35623.got.cif
#   From: 2010.06.25/outbox.cif.g09.slc.cpg/sg52_18_cif.got.tgz:35623.got - 2010.06.26 19:32:48.
