data_PCOD8216258
_publ_section_title
;
Structure prediction by ZEFSAII (Michael W. Deem and Ramdas Pophale) SiO2 
 PCOD8216258
Probable space group: P N N A
;
_chemical_formula_sum "Si O2"
_cell_formula_units_Z 56
_cell_length_a 12.322745
_cell_length_b 11.759101
_cell_length_c 18.208650
_cell_angle_alpha 90.000000
_cell_angle_beta 90.000000
_cell_angle_gamma 90.000000
_cell_volume 2638.513559
_symmetry_space_group_name_H-M "P N N A"
_symmetry_group_IT_number 52
_symmetry_cell_setting 'orthorhombic'
loop_
_space_group_symop_operation_xyz
x,y,z
1/2-x,-y,z
x,1/2-y,1/2-z
1/2-x,1/2+y,1/2-z
-x,-y,-z
1/2+x,y,-z
-x,1/2+y,1/2+z
1/2+x,1/2-y,1/2+z
loop_
_atom_site_type_symbol
_atom_site_label
_atom_site_fract_x
_atom_site_fract_y
_atom_site_fract_z
Si Si1 0.874135 0.238568 0.553513
Si Si2 0.084820 0.413533 0.938617
Si Si3 0.181625 0.103696 0.399402
Si Si4 0.038892 0.873361 0.660900
Si Si5 0.728232 0.212506 0.081099
Si Si6 0.104693 0.876246 0.825615
Si Si7 0.471168 0.932627 0.929339
O O1 0.764280 0.209915 0.597913
O O2 0.832536 0.267352 0.471349
O O3 0.930626 0.347442 0.590981
O O4 0.961634 0.134880 0.555845
O O5 0.087106 0.535897 0.897891
O O6 0.169476 0.331032 0.895460
O O7 0.128352 0.424786 0.021483
O O8 0.091102 0.120861 0.337463
O O9 0.250000 0.000000 0.370098
O O10 0.092171 0.896343 0.739561
O O11 0.059105 0.742268 0.641145
O O12 0.768297 0.138894 0.152014
O O13 0.635038 0.136466 0.044566
O O14 0.046595 0.984043 0.861499
O O15 0.500000 0.000000 0.000000
#
# Coordination Sequence:
#
# PCOD8216258 Si02
#       7
#     8   8   8   8   8   8   8
#     4  10  21  39  68 103 128 165 222 286 327 390
#     4  10  22  39  70 102 129 164 224 285 334 385
#     4  11  22  37  70  99 130 171 219 280 336 392
#     4  11  25  45  63  93 142 177 222 277 337 404
#     4  10  22  41  67 101 128 168 227 270 342 397
#     4  11  25  45  62  91 137 186 220 268 337 413
#     4  11  23  41  69  95 135 172 222 279 322 401
#
# _framework density 21.224070999999999
#
# number of rings (size 3 to 8) (size 9 to 14) (size 15 to 20)
#    0.000    1.429    2.857    1.714    8.000    0.000 
#   10.286    5.000    0.000    0.000    0.000    0.000 
#    0.000    0.000    0.000    0.000    0.000    0.000 
#
# Total GULP energy -693765.039283 kJ/mol
# GULP energy per Si atom -12388.661416 kJ/mol
# Density = 2.117576 g / cm^3
# Si number density = 21.224071 Si / 1000 Ang^3
#
#
#
# Elastic Constant Matrix: (Units=GPa)
#
#
# Indices 1 2 3 4 5 6 
#
# 1 115.1015 44.9953 46.4190 0.0000 0.0000 0.0000
# 2 44.9953 132.2315 32.3354 0.0000 0.0000 0.0000
# 3 46.4190 32.3354 65.1379 0.0000 0.0000 0.0000
# 4 0.0000 0.0000 0.0000 28.8251 0.0000 0.0000
# 5 0.0000 0.0000 0.0000 0.0000 26.2615 0.0000
# 6 0.0000 0.0000 0.0000 0.0000 0.0000 37.1552
#
#
#
# Elastic Compliance Matrix: (Units=1/GPa)
#
#
# Indices 1 2 3 4 5 6 
#
# 1 0.012841 -0.002426 -0.007947 0.000000 0.000000 0.000000
# 2 -0.002426 0.009066 -0.002771 0.000000 0.000000 0.000000
# 3 -0.007947 -0.002771 0.022391 0.000000 0.000000 0.000000
# 4 0.000000 0.000000 0.000000 0.034692 0.000000 0.000000
# 5 0.000000 0.000000 0.000000 0.000000 0.038079 0.000000
# 6 0.000000 0.000000 0.000000 0.000000 0.000000 0.026914
#
#
# Mechanical properties :
#
#
# Convention : Reuss Voigt Hill
#
# Bulk Modulus (GPa) = 55.52677 62.21891 58.87284
# Shear Modulus (GPa) = 28.36495 31.02977 29.69736
#
# Velocity S-wave (km/s) = 3.65972 3.82777 3.74469
# Velocity P-wave (km/s) = 6.63905 6.99390 6.81879
#
# Compressibility (1/GPa) = 0.01800933
#
# Stress axis : x y z
#
# Youngs Moduli (GPa) = 77.87423 110.30448 44.66146
#
# Poissons Ratio (x) = 0.26764 0.35490
# Poissons Ratio (y) = 0.18895 0.12377
# Poissons Ratio (z) = 0.61883 0.30569
#
# Static dielectric constant tensor:
#      x y z
#    x 4.260350 0.000000 0.000000 
#    y 0.000000 5.182620 0.000000 
#    z 0.000000 0.000000 3.270820 
# 
# 
# High freq. dielectric constant tensor:
#      x y z
#    x 1.853200 0.000000 0.000000 
#    y 0.000000 1.854300 0.000000 
#    z 0.000000 0.000000 1.785570 
# 
# From -- ./inp_files/36808.got.cif
#   From: 2010.06.25/outbox.cif.g09.slc.cpg/sg52_19_cif.got.tgz:36808.got - 2010.06.26 19:32:48.
