data_PCOD8216618
_publ_section_title
;
Structure prediction by ZEFSAII (Michael W. Deem and Ramdas Pophale) SiO2 
 PCOD8216618
Probable space group: P N N A
;
_chemical_formula_sum "Si O2"
_cell_formula_units_Z 48
_cell_length_a 11.029722
_cell_length_b 21.749601
_cell_length_c 8.819755
_cell_angle_alpha 90.000000
_cell_angle_beta 90.000000
_cell_angle_gamma 90.000000
_cell_volume 2115.789131
_symmetry_space_group_name_H-M "P N N A"
_symmetry_group_IT_number 52
_symmetry_cell_setting 'orthorhombic'
loop_
_space_group_symop_operation_xyz
x,y,z
1/2-x,-y,z
x,1/2-y,1/2-z
1/2-x,1/2+y,1/2-z
-x,-y,-z
1/2+x,y,-z
-x,1/2+y,1/2+z
1/2+x,1/2-y,1/2+z
loop_
_atom_site_type_symbol
_atom_site_label
_atom_site_fract_x
_atom_site_fract_y
_atom_site_fract_z
Si Si1 0.718947 0.099489 0.213020
Si Si2 0.448648 0.093753 0.605274
Si Si3 0.905685 0.685079 0.694930
Si Si4 0.518266 0.963056 0.706990
Si Si5 0.470188 0.806581 0.857359
Si Si6 0.814673 0.102639 0.891595
O O1 0.804006 0.093053 0.360682
O O2 0.611871 0.049017 0.212685
O O3 0.659083 0.167022 0.200401
O O4 0.807461 0.089437 0.069781
O O5 0.501600 0.156093 0.681626
O O6 0.466576 0.089240 0.424848
O O7 0.519520 0.033651 0.661302
O O8 0.849385 0.750000 0.750000
O O9 0.968445 0.705591 0.537703
O O10 0.808163 0.631732 0.670471
O O11 0.638566 0.960357 0.813714
O O12 0.502350 0.750000 0.750000
O O13 0.576229 0.854580 0.836443
#
# Coordination Sequence:
#
# PCOD8216618 Si02
#       6
#     8   8   8   8   8   8
#     4  10  22  44  66  96 134 171 228 284 339 413
#     4  11  24  45  65 102 138 173 235 278 355 419
#     4  11  25  41  63  98 133 177 224 280 335 412
#     4  10  25  43  71  97 136 184 220 291 353 421
#     4  10  22  42  65  95 132 178 228 278 337 404
#     4  10  22  45  65  96 130 174 227 277 346 405
#
# _framework density 22.686571000000001
#
# number of rings (size 3 to 8) (size 9 to 14) (size 15 to 20)
#    0.000    1.667    1.667    1.000    7.000    2.000 
#    6.000    0.000    0.000    0.000    0.000    0.000 
#    0.000    0.000    0.000    0.000    0.000    0.000 
#
# Total GULP energy -594826.668105 kJ/mol
# GULP energy per Si atom -12392.222252 kJ/mol
# Density = 2.263493 g / cm^3
# Si number density = 22.686571 Si / 1000 Ang^3
#
#
#
# Elastic Constant Matrix: (Units=GPa)
#
#
# Indices 1 2 3 4 5 6 
#
# 1 85.9581 6.0144 30.2687 0.0000 0.0000 0.0000
# 2 6.0144 56.4835 33.7459 0.0000 0.0000 0.0000
# 3 30.2687 33.7459 100.9381 0.0000 0.0000 0.0000
# 4 0.0000 0.0000 0.0000 39.2187 0.0000 0.0000
# 5 0.0000 0.0000 0.0000 0.0000 36.5801 0.0000
# 6 0.0000 0.0000 0.0000 0.0000 0.0000 14.3153
#
#
#
# Elastic Compliance Matrix: (Units=1/GPa)
#
#
# Indices 1 2 3 4 5 6 
#
# 1 0.013070 0.001187 -0.004316 0.000000 0.000000 0.000000
# 2 0.001187 0.022231 -0.007788 0.000000 0.000000 0.000000
# 3 -0.004316 -0.007788 0.013805 0.000000 0.000000 0.000000
# 4 0.000000 0.000000 0.000000 0.025498 0.000000 0.000000
# 5 0.000000 0.000000 0.000000 0.000000 0.027337 0.000000
# 6 0.000000 0.000000 0.000000 0.000000 0.000000 0.069856
#
#
# Mechanical properties :
#
#
# Convention : Reuss Voigt Hill
#
# Bulk Modulus (GPa) = 36.66837 42.60419 39.63628
# Shear Modulus (GPa) = 24.66419 29.57954 27.12186
#
# Velocity S-wave (km/s) = 3.30081 3.61478 3.46136
# Velocity P-wave (km/s) = 5.54303 6.02017 5.78652
#
# Compressibility (1/GPa) = 0.02727146
#
# Stress axis : x y z
#
# Youngs Moduli (GPa) = 76.50854 44.98228 72.43637
#
# Poissons Ratio (x) = -0.05340 0.31266
# Poissons Ratio (y) = -0.09082 0.56416
# Poissons Ratio (z) = 0.33024 0.35033
#
# Static dielectric constant tensor:
#      x y z
#    x 4.016780 0.000000 0.000000 
#    y 0.000000 4.292760 0.000000 
#    z 0.000000 0.000000 4.305830 
# 
# 
# High freq. dielectric constant tensor:
#      x y z
#    x 1.894380 0.000000 0.000000 
#    y 0.000000 1.889070 0.000000 
#    z 0.000000 0.000000 1.900140 
# 
# From -- ./inp_files/8849.got.cif
#   From: 2010.06.25/outbox.cif.g09.slc.cpg/sg52_5_cif.got.tgz:8849.got - 2010.06.26 19:32:48.
