data_PCOD8216045
_publ_section_title
;
Structure prediction by ZEFSAII (Michael W. Deem and Ramdas Pophale) SiO2 
 PCOD8216045
Probable space group: P N N A
;
_chemical_formula_sum "Si O2"
_cell_formula_units_Z 48
_cell_length_a 9.659810
_cell_length_b 23.946260
_cell_length_c 9.187222
_cell_angle_alpha 90.000000
_cell_angle_beta 90.000000
_cell_angle_gamma 90.000000
_cell_volume 2125.154401
_symmetry_space_group_name_H-M "P N N A"
_symmetry_group_IT_number 52
_symmetry_cell_setting 'orthorhombic'
loop_
_space_group_symop_operation_xyz
x,y,z
1/2-x,-y,z
x,1/2-y,1/2-z
1/2-x,1/2+y,1/2-z
-x,-y,-z
1/2+x,y,-z
-x,1/2+y,1/2+z
1/2+x,1/2-y,1/2+z
loop_
_atom_site_type_symbol
_atom_site_label
_atom_site_fract_x
_atom_site_fract_y
_atom_site_fract_z
Si Si1 0.298629 0.590813 0.196884
Si Si2 0.405668 0.257518 0.917461
Si Si3 0.541856 0.985398 0.661239
Si Si4 0.101304 0.101599 0.827129
Si Si5 0.169847 0.862254 0.028549
Si Si6 0.637473 0.326681 0.052813
O O1 0.402889 0.540818 0.243050
O O2 0.156012 0.563046 0.146016
O O3 0.268577 0.632560 0.330040
O O4 0.369162 0.624804 0.066988
O O5 0.448424 0.250000 0.750000
O O6 0.342748 0.202089 0.987303
O O7 0.293793 0.306307 0.930229
O O8 0.540401 0.275064 0.008357
O O9 0.414803 0.959709 0.754184
O O10 0.500000 0.000000 0.500000
O O11 0.252797 0.104330 0.899204
O O12 0.084555 0.149832 0.706262
O O13 0.980720 0.110786 0.947067
#
# Coordination Sequence:
#
# PCOD8216045 Si02
#       6
#     8   8   8   8   8   8
#     4  10  24  41  73 105 139 182 237 300 358 417
#     4  12  27  44  71 103 140 192 241 288 364 426
#     4  10  20  44  73 103 138 184 237 290 355 432
#     4  11  24  46  71 101 143 184 234 298 354 429
#     4  11  25  45  67 101 143 181 233 297 356 418
#     4  12  26  45  71 105 137 187 245 289 355 431
#
# _framework density 22.586594999999999
#
# number of rings (size 3 to 8) (size 9 to 14) (size 15 to 20)
#    0.000    1.000    3.333    3.000    4.667    2.000 
#    0.000    0.000    0.000    0.000    0.000    0.000 
#    0.000    0.000    0.000    0.000    0.000    0.000 
#
# Total GULP energy -595402.756259 kJ/mol
# GULP energy per Si atom -12404.224089 kJ/mol
# Density = 2.253519 g / cm^3
# Si number density = 22.586595 Si / 1000 Ang^3
#
#
#
# Elastic Constant Matrix: (Units=GPa)
#
#
# Indices 1 2 3 4 5 6 
#
# 1 65.0579 14.9702 39.6372 0.0000 0.0000 0.0000
# 2 14.9702 84.7836 48.3125 0.0000 0.0000 0.0000
# 3 39.6372 48.3125 128.2246 0.0000 0.0000 0.0000
# 4 0.0000 0.0000 0.0000 40.5446 0.0000 0.0000
# 5 0.0000 0.0000 0.0000 0.0000 34.8125 0.0000
# 6 0.0000 0.0000 0.0000 0.0000 0.0000 33.0181
#
#
#
# Elastic Compliance Matrix: (Units=1/GPa)
#
#
# Indices 1 2 3 4 5 6 
#
# 1 0.018938 -0.000010 -0.005850 0.000000 0.000000 0.000000
# 2 -0.000010 0.015019 -0.005656 0.000000 0.000000 0.000000
# 3 -0.005850 -0.005656 0.011738 0.000000 0.000000 0.000000
# 4 0.000000 0.000000 0.000000 0.024664 0.000000 0.000000
# 5 0.000000 0.000000 0.000000 0.000000 0.028725 0.000000
# 6 0.000000 0.000000 0.000000 0.000000 0.000000 0.030286
#
#
# Mechanical properties :
#
#
# Convention : Reuss Voigt Hill
#
# Bulk Modulus (GPa) = 44.12525 53.76733 48.94629
# Shear Modulus (GPa) = 31.25821 33.35145 32.30483
#
# Velocity S-wave (km/s) = 3.72415 3.84683 3.78599
# Velocity P-wave (km/s) = 6.17016 6.60208 6.38977
#
# Compressibility (1/GPa) = 0.02266276
#
# Stress axis : x y z
#
# Youngs Moduli (GPa) = 52.80515 66.58039 85.19133
#
# Poissons Ratio (x) = 0.00068 0.49839
# Poissons Ratio (y) = 0.00054 0.48183
# Poissons Ratio (z) = 0.30892 0.37657
#
# Static dielectric constant tensor:
#      x y z
#    x 4.136340 0.000000 0.000000 
#    y 0.000000 4.195060 0.000000 
#    z 0.000000 0.000000 4.152190 
# 
# 
# High freq. dielectric constant tensor:
#      x y z
#    x 1.893380 0.000000 0.000000 
#    y 0.000000 1.893920 0.000000 
#    z 0.000000 0.000000 1.892610 
# 
# From -- ./inp_files/8866.got.cif
#   From: 2010.06.25/outbox.cif.g09.slc.cpg/sg52_5_cif.got.tgz:8866.got - 2010.06.26 19:32:48.
