data_PCOD8216596
_publ_section_title
;
Structure prediction by ZEFSAII (Michael W. Deem and Ramdas Pophale) SiO2 
 PCOD8216596
Probable space group: P N N A
;
_chemical_formula_sum "Si O2"
_cell_formula_units_Z 28
_cell_length_a 7.480736
_cell_length_b 10.313561
_cell_length_c 18.639760
_cell_angle_alpha 90.000000
_cell_angle_beta 90.000000
_cell_angle_gamma 90.000000
_cell_volume 1438.113908
_symmetry_space_group_name_H-M "P N N A"
_symmetry_group_IT_number 52
_symmetry_cell_setting 'orthorhombic'
loop_
_space_group_symop_operation_xyz
x,y,z
1/2-x,-y,z
x,1/2-y,1/2-z
1/2-x,1/2+y,1/2-z
-x,-y,-z
1/2+x,y,-z
-x,1/2+y,1/2+z
1/2+x,1/2-y,1/2+z
loop_
_atom_site_type_symbol
_atom_site_label
_atom_site_fract_x
_atom_site_fract_y
_atom_site_fract_z
Si Si1 0.118137 0.238972 0.438101
Si Si2 0.087725 0.770116 0.167325
Si Si3 0.250000 0.000000 0.097404
Si Si4 0.730783 0.350520 0.089672
O O1 0.264515 0.190378 0.379787
O O2 0.145277 0.394355 0.451685
O O3 0.138990 0.161871 0.511913
O O4 0.921895 0.217688 0.407295
O O5 0.130451 0.750000 0.250000
O O6 0.890762 0.718870 0.149153
O O7 0.107638 0.922968 0.147808
O O8 0.750000 0.500000 0.110046
#
# Coordination Sequence:
#
# PCOD8216596 Si02
#       4
#     8   8   4   8
#     4  10  22  41  66  94 126 164 214 264 321 367
#     4  10  24  44  63  97 127 172 213 266 326 377
#     4   8  22  44  64  92 124 172 208 266 324 366
#     4  12  24  40  67 100 127 172 213 265 322 380
#
# _framework density 19.469947000000001
#
# number of rings (size 3 to 8) (size 9 to 14) (size 15 to 20)
#    1.714    0.000    2.857    0.857    0.000    9.143 
#    5.143    0.000    0.000    0.000    0.000    0.000 
#    0.000    0.000    0.000    0.000    0.000    0.000 
#
# Total GULP energy -347043.711556 kJ/mol
# GULP energy per Si atom -12394.418270 kJ/mol
# Density = 1.942563 g / cm^3
# Si number density = 19.469947 Si / 1000 Ang^3
#
#
#
# Elastic Constant Matrix: (Units=GPa)
#
#
# Indices 1 2 3 4 5 6 
#
# 1 123.5860 40.2682 13.3896 0.0000 0.0000 0.0000
# 2 40.2682 116.3260 2.1694 0.0000 0.0000 0.0000
# 3 13.3896 2.1694 77.3308 0.0000 0.0000 0.0000
# 4 0.0000 0.0000 0.0000 12.1657 0.0000 0.0000
# 5 0.0000 0.0000 0.0000 0.0000 22.0426 0.0000
# 6 0.0000 0.0000 0.0000 0.0000 0.0000 31.2178
#
#
#
# Elastic Compliance Matrix: (Units=1/GPa)
#
#
# Indices 1 2 3 4 5 6 
#
# 1 0.009295 -0.003189 -0.001520 0.000000 0.000000 0.000000
# 2 -0.003189 0.009695 0.000280 0.000000 0.000000 0.000000
# 3 -0.001520 0.000280 0.013187 0.000000 0.000000 0.000000
# 4 0.000000 0.000000 0.000000 0.082198 0.000000 0.000000
# 5 0.000000 0.000000 0.000000 0.000000 0.045367 0.000000
# 6 0.000000 0.000000 0.000000 0.000000 0.000000 0.032033
#
#
# Mechanical properties :
#
#
# Convention : Reuss Voigt Hill
#
# Bulk Modulus (GPa) = 42.88303 47.65523 45.26913
# Shear Modulus (GPa) = 23.99149 30.51292 27.25221
#
# Velocity S-wave (km/s) = 3.51412 3.96306 3.74532
# Velocity P-wave (km/s) = 6.20794 6.74318 6.48109
#
# Compressibility (1/GPa) = 0.02331925
#
# Stress axis : x y z
#
# Youngs Moduli (GPa) = 107.57979 103.14197 75.83351
#
# Poissons Ratio (x) = 0.32896 0.11527
# Poissons Ratio (y) = 0.34312 -0.02125
# Poissons Ratio (z) = 0.16352 -0.02891
#
# Static dielectric constant tensor:
#      x y z
#    x 3.557490 0.000000 0.000000 
#    y 0.000000 3.458910 0.000000 
#    z 0.000000 0.000000 3.222910 
# 
# 
# High freq. dielectric constant tensor:
#      x y z
#    x 1.765440 0.000000 0.000000 
#    y 0.000000 1.753690 0.000000 
#    z 0.000000 0.000000 1.736070 
# 
# From -- ./inp_files/24020.got.cif
#   From: 2010.06.25/outbox.cif.g09.slc.cpg/sg52_13_cif.got.tgz:24020.got - 2010.06.26 19:32:48.
