data_PCOD8216647
_publ_section_title
;
Structure prediction by ZEFSAII (Michael W. Deem and Ramdas Pophale) SiO2 
 PCOD8216647
Probable space group: P N N A
;
_chemical_formula_sum "Si O2"
_cell_formula_units_Z 28
_cell_length_a 16.670388
_cell_length_b 4.945081
_cell_length_c 14.684180
_cell_angle_alpha 90.000000
_cell_angle_beta 90.000000
_cell_angle_gamma 90.000000
_cell_volume 1210.511215
_symmetry_space_group_name_H-M "P N N A"
_symmetry_group_IT_number 52
_symmetry_cell_setting 'orthorhombic'
loop_
_space_group_symop_operation_xyz
x,y,z
1/2-x,-y,z
x,1/2-y,1/2-z
1/2-x,1/2+y,1/2-z
-x,-y,-z
1/2+x,y,-z
-x,1/2+y,1/2+z
1/2+x,1/2-y,1/2+z
loop_
_atom_site_type_symbol
_atom_site_label
_atom_site_fract_x
_atom_site_fract_y
_atom_site_fract_z
Si Si1 0.837650 0.556932 0.980015
Si Si2 0.527165 0.366174 0.844791
Si Si3 0.384867 0.069343 0.911321
Si Si4 0.592264 0.250000 0.250000
O O1 0.750000 0.500000 0.937498
O O2 0.902184 0.492241 0.901554
O O3 0.843231 0.354156 0.065859
O O4 0.856570 0.862373 0.010687
O O5 0.562487 0.250000 0.750000
O O6 0.481306 0.129196 0.902534
O O7 0.461487 0.594654 0.824338
O O8 0.355730 0.958817 0.811615
#
# Coordination Sequence:
#
# PCOD8216647 Si02
#       4
#     8   8   8   4
#     4  12  26  43  65 101 139 177 213 274 348 410
#     4  10  23  42  72  99 129 173 232 279 328 393
#     4  11  23  44  70  94 128 177 230 273 324 395
#     4  10  22  42  72 100 120 170 234 284 316 378
#
# _framework density 23.130724000000001
#
# number of rings (size 3 to 8) (size 9 to 14) (size 15 to 20)
#    0.000    1.143    2.857    2.571    8.000    0.000 
#    2.571    2.857    3.143    0.000    0.000    0.000 
#    0.000    0.000    0.000    0.000    0.000    0.000 
#
# Total GULP energy -346940.369356 kJ/mol
# GULP energy per Si atom -12390.727477 kJ/mol
# Density = 2.307808 g / cm^3
# Si number density = 23.130724 Si / 1000 Ang^3
#
#
#
# Elastic Constant Matrix: (Units=GPa)
#
#
# Indices 1 2 3 4 5 6 
#
# 1 83.6475 21.2022 31.7681 0.0000 0.0000 0.0000
# 2 21.2022 108.5325 26.6397 0.0000 0.0000 0.0000
# 3 31.7681 26.6397 63.2403 0.0000 0.0000 0.0000
# 4 0.0000 0.0000 0.0000 38.3042 0.0000 0.0000
# 5 0.0000 0.0000 0.0000 0.0000 10.1135 0.0000
# 6 0.0000 0.0000 0.0000 0.0000 0.0000 21.5064
#
#
#
# Elastic Compliance Matrix: (Units=1/GPa)
#
#
# Indices 1 2 3 4 5 6 
#
# 1 0.014912 -0.001198 -0.006986 0.000000 0.000000 0.000000
# 2 -0.001198 0.010373 -0.003767 0.000000 0.000000 0.000000
# 3 -0.006986 -0.003767 0.020909 0.000000 0.000000 0.000000
# 4 0.000000 0.000000 0.000000 0.026107 0.000000 0.000000
# 5 0.000000 0.000000 0.000000 0.000000 0.098877 0.000000
# 6 0.000000 0.000000 0.000000 0.000000 0.000000 0.046498
#
#
# Mechanical properties :
#
#
# Convention : Reuss Voigt Hill
#
# Bulk Modulus (GPa) = 44.86326 46.07115 45.46721
# Shear Modulus (GPa) = 20.07958 25.70552 22.89255
#
# Velocity S-wave (km/s) = 2.94954 3.33726 3.14937
# Velocity P-wave (km/s) = 5.57111 5.90006 5.73794
#
# Compressibility (1/GPa) = 0.02228995
#
# Stress axis : x y z
#
# Youngs Moduli (GPa) = 67.06067 96.40722 47.82607
#
# Poissons Ratio (x) = 0.11553 0.33411
# Poissons Ratio (y) = 0.08036 0.18018
# Poissons Ratio (z) = 0.46849 0.36321
#
# Static dielectric constant tensor:
#      x y z
#    x 3.803940 0.000000 0.000000 
#    y 0.000000 4.423280 0.000000 
#    z 0.000000 0.000000 4.103080 
# 
# 
# High freq. dielectric constant tensor:
#      x y z
#    x 1.868740 0.000000 0.000000 
#    y 0.000000 1.936070 0.000000 
#    z 0.000000 0.000000 1.906990 
# 
# From -- ./inp_files/27534.got.cif
#   From: 2010.06.25/outbox.cif.g09.slc.cpg/sg52_14_cif.got.tgz:27534.got - 2010.06.26 19:32:48.
