data_PCOD8216030
_publ_section_title
;
Structure prediction by ZEFSAII (Michael W. Deem and Ramdas Pophale) SiO2 
 PCOD8216030
Probable space group: P N N A
;
_chemical_formula_sum "Si O2"
_cell_formula_units_Z 40
_cell_length_a 12.298396
_cell_length_b 23.475680
_cell_length_c 6.339175
_cell_angle_alpha 90.000000
_cell_angle_beta 90.000000
_cell_angle_gamma 90.000000
_cell_volume 1830.203557
_symmetry_space_group_name_H-M "P N N A"
_symmetry_group_IT_number 52
_symmetry_cell_setting 'orthorhombic'
loop_
_space_group_symop_operation_xyz
x,y,z
1/2-x,-y,z
x,1/2-y,1/2-z
1/2-x,1/2+y,1/2-z
-x,-y,-z
1/2+x,y,-z
-x,1/2+y,1/2+z
1/2+x,1/2-y,1/2+z
loop_
_atom_site_type_symbol
_atom_site_label
_atom_site_fract_x
_atom_site_fract_y
_atom_site_fract_z
Si Si1 0.690978 0.645940 0.980545
Si Si2 0.188466 0.197434 0.866493
Si Si3 0.641937 0.398202 0.652406
Si Si4 0.440696 0.455162 0.854532
Si Si5 0.817769 0.250000 0.750000
Si Si6 0.250000 0.500000 0.572043
O O1 0.802415 0.631127 0.855502
O O2 0.621314 0.694803 0.851263
O O3 0.723562 0.667949 0.212208
O O4 0.615397 0.591146 0.995693
O O5 0.124087 0.250000 0.750000
O O6 0.114530 0.147709 0.966934
O O7 0.247223 0.227512 0.058326
O O8 0.526307 0.424819 0.703333
O O9 0.726512 0.445630 0.572594
O O10 0.353846 0.488652 0.716416
O O11 0.500000 0.500000 0.000000
#
# Coordination Sequence:
#
# PCOD8216030 Si02
#       6
#     8   8   8   8   4   4
#     4  10  20  42  67  96 137 172 221 286 336 405
#     4   9  18  39  71  93 131 176 221 280 344 393
#     4  11  23  40  68  96 134 180 225 274 345 405
#     4  12  25  41  69  99 136 178 230 277 345 410
#     4   8  18  36  74  92 124 186 216 274 354 394
#     4  12  24  46  64  96 136 180 224 288 336 412
#
# _framework density 21.855495000000001
#
# number of rings (size 3 to 8) (size 9 to 14) (size 15 to 20)
#    0.000    1.600    2.000    3.000    0.000    0.000 
#    0.000    0.000   52.800    0.000    0.000    0.000 
#    0.000    0.000    0.000    0.000    0.000    0.000 
#
# Total GULP energy -495639.474279 kJ/mol
# GULP energy per Si atom -12390.986857 kJ/mol
# Density = 2.180575 g / cm^3
# Si number density = 21.855495 Si / 1000 Ang^3
#
#
#
# Elastic Constant Matrix: (Units=GPa)
#
#
# Indices 1 2 3 4 5 6 
#
# 1 82.9915 41.1315 41.8897 0.0000 0.0000 0.0000
# 2 41.1315 154.1640 71.4798 0.0000 0.0000 0.0000
# 3 41.8897 71.4798 130.4851 0.0000 0.0000 0.0000
# 4 0.0000 0.0000 0.0000 58.1612 0.0000 0.0000
# 5 0.0000 0.0000 0.0000 0.0000 55.8059 0.0000
# 6 0.0000 0.0000 0.0000 0.0000 0.0000 30.1175
#
#
#
# Elastic Compliance Matrix: (Units=1/GPa)
#
#
# Indices 1 2 3 4 5 6 
#
# 1 0.015000 -0.002372 -0.003516 0.000000 0.000000 0.000000
# 2 -0.002372 0.009070 -0.004207 0.000000 0.000000 0.000000
# 3 -0.003516 -0.004207 0.011097 0.000000 0.000000 0.000000
# 4 0.000000 0.000000 0.000000 0.017194 0.000000 0.000000
# 5 0.000000 0.000000 0.000000 0.000000 0.017919 0.000000
# 6 0.000000 0.000000 0.000000 0.000000 0.000000 0.033203
#
#
# Mechanical properties :
#
#
# Convention : Reuss Voigt Hill
#
# Bulk Modulus (GPa) = 66.76957 75.18251 70.97604
# Shear Modulus (GPa) = 38.86049 43.02621 40.94335
#
# Velocity S-wave (km/s) = 4.22129 4.44178 4.33294
# Velocity P-wave (km/s) = 7.37399 7.79618 7.58802
#
# Compressibility (1/GPa) = 0.01497688
#
# Stress axis : x y z
#
# Youngs Moduli (GPa) = 66.66840 110.25249 90.11259
#
# Poissons Ratio (x) = 0.26148 0.31685
# Poissons Ratio (y) = 0.15811 0.37912
# Poissons Ratio (z) = 0.23442 0.46386
#
# Static dielectric constant tensor:
#      x y z
#    x 3.473090 0.000000 0.000000 
#    y 0.000000 4.829980 0.000000 
#    z 0.000000 0.000000 4.326240 
# 
# 
# High freq. dielectric constant tensor:
#      x y z
#    x 1.806070 0.000000 0.000000 
#    y 0.000000 1.900810 0.000000 
#    z 0.000000 0.000000 1.882780 
# 
# From -- ./inp_files/1440.got.cif
#   From: 2010.06.25/outbox.cif.g09.slc.cpg/sg52_1_cif.got.tgz:1440.got - 2010.06.26 19:32:48.
