data_PCOD8216675
_publ_section_title
;
Structure prediction by ZEFSAII (Michael W. Deem and Ramdas Pophale) SiO2 
 PCOD8216675
Probable space group: P N N A
;
_chemical_formula_sum "Si O2"
_cell_formula_units_Z 60
_cell_length_a 8.993304
_cell_length_b 25.239450
_cell_length_c 11.865348
_cell_angle_alpha 90.000000
_cell_angle_beta 90.000000
_cell_angle_gamma 90.000000
_cell_volume 2693.268435
_symmetry_space_group_name_H-M "P N N A"
_symmetry_group_IT_number 52
_symmetry_cell_setting 'orthorhombic'
loop_
_space_group_symop_operation_xyz
x,y,z
1/2-x,-y,z
x,1/2-y,1/2-z
1/2-x,1/2+y,1/2-z
-x,-y,-z
1/2+x,y,-z
-x,1/2+y,1/2+z
1/2+x,1/2-y,1/2+z
loop_
_atom_site_type_symbol
_atom_site_label
_atom_site_fract_x
_atom_site_fract_y
_atom_site_fract_z
Si Si1 0.014069 0.403596 0.369838
Si Si2 0.250000 0.000000 0.587328
Si Si3 0.654876 0.918415 0.585145
Si Si4 0.401117 0.647502 0.008081
Si Si5 0.001469 0.806215 0.722225
Si Si6 0.161903 0.193110 0.730097
Si Si7 0.341779 0.899883 0.891464
Si Si8 0.006722 0.986964 0.240546
O O1 0.066981 0.357091 0.285998
O O2 0.836249 0.405680 0.388044
O O3 0.069622 0.459922 0.318482
O O4 0.102190 0.390030 0.483090
O O5 0.251282 0.050919 0.509126
O O6 0.101644 0.995987 0.659597
O O7 0.493519 0.902667 0.538351
O O8 0.762622 0.867288 0.591925
O O9 0.638444 0.951704 0.701626
O O10 0.501711 0.684625 0.087622
O O11 0.347252 0.680166 0.901063
O O12 0.919818 0.750000 0.750000
O O13 0.168371 0.801535 0.767859
O O14 0.081108 0.250000 0.750000
O O15 0.095197 0.146640 0.809280
O O16 0.415463 0.954403 0.851624
#
# Coordination Sequence:
#
# PCOD8216675 Si02
#       8
#     8   4   8   8   8   8   8   8
#     4  11  25  44  69  96 134 179 230 275 338 410
#     4  12  22  40  64  96 136 178 220 270 338 406
#     4  12  25  39  66 102 138 175 221 279 341 406
#     4  12  23  44  70 103 136 175 227 287 342 415
#     4  10  24  45  69  99 137 180 220 282 345 403
#     4  10  22  43  73  97 135 184 225 279 352 408
#     4  11  23  45  66  93 136 178 228 279 338 403
#     4  12  23  42  67  96 135 183 222 274 342 415
#
# _framework density 22.277763
#
# number of rings (size 3 to 8) (size 9 to 14) (size 15 to 20)
#    0.000    0.800    5.333    1.600    3.733    1.067 
#    0.000    0.667    0.000    0.000    0.000    0.000 
#    0.000    0.000    0.000    0.000    0.000    0.000 
#
# Total GULP energy -743760.122512 kJ/mol
# GULP energy per Si atom -12396.002042 kJ/mol
# Density = 2.222706 g / cm^3
# Si number density = 22.277763 Si / 1000 Ang^3
#
#
#
# Elastic Constant Matrix: (Units=GPa)
#
#
# Indices 1 2 3 4 5 6 
#
# 1 47.5910 21.6854 19.4759 0.0000 0.0000 0.0000
# 2 21.6854 159.0516 65.2053 0.0000 0.0000 0.0000
# 3 19.4759 65.2053 137.4782 0.0000 0.0000 0.0000
# 4 0.0000 0.0000 0.0000 -19.8955 0.0000 0.0000
# 5 0.0000 0.0000 0.0000 0.0000 30.4587 0.0000
# 6 0.0000 0.0000 0.0000 0.0000 0.0000 9.7800
#
#
#
# Elastic Compliance Matrix: (Units=1/GPa)
#
#
# Indices 1 2 3 4 5 6 
#
# 1 0.022924 -0.002227 -0.002191 0.000000 0.000000 0.000000
# 2 -0.002227 0.008021 -0.003489 0.000000 0.000000 0.000000
# 3 -0.002191 -0.003489 0.009239 0.000000 0.000000 0.000000
# 4 0.000000 0.000000 0.000000 -0.050263 0.000000 0.000000
# 5 0.000000 0.000000 0.000000 0.000000 0.032831 0.000000
# 6 0.000000 0.000000 0.000000 0.000000 0.000000 0.102249
#
#
# Mechanical properties :
#
#
# Convention : Reuss Voigt Hill
#
# Bulk Modulus (GPa) = 41.03464 61.87268 51.45366
# Shear Modulus (GPa) = 33.57060 19.91894 26.74477
#
# Velocity S-wave (km/s) = 3.88611 2.99342 3.46860
# Velocity P-wave (km/s) = 6.21251 6.30722 6.26005
#
# Compressibility (1/GPa) = 0.02436965
#
# Stress axis : x y z
#
# Youngs Moduli (GPa) = 43.62256 124.66865 108.23595
#
# Poissons Ratio (x) = 0.27766 0.23716
# Poissons Ratio (y) = 0.09716 0.37763
# Poissons Ratio (z) = 0.09558 0.43496
#
# Static dielectric constant tensor:
#      x y z
#    x 3.859730 0.000000 0.000000 
#    y 0.000000 4.175500 0.000000 
#    z 0.000000 0.000000 3.926390 
# 
# 
# High freq. dielectric constant tensor:
#      x y z
#    x 1.860710 0.000000 0.000000 
#    y 0.000000 1.882470 0.000000 
#    z 0.000000 0.000000 1.877130 
# 
# From -- ./inp_files/17118.got.cif
#   From: 2010.06.25/outbox.cif.g09.slc.cpg/sg52_9_cif.got.tgz:17118.got - 2010.06.26 19:32:48.
