data_PCOD8216483
_publ_section_title
;
Structure prediction by ZEFSAII (Michael W. Deem and Ramdas Pophale) SiO2 
 PCOD8216483
Probable space group: P N N A
;
_chemical_formula_sum "Si O2"
_cell_formula_units_Z 52
_cell_length_a 23.481297
_cell_length_b 19.404302
_cell_length_c 5.219483
_cell_angle_alpha 90.000000
_cell_angle_beta 90.000000
_cell_angle_gamma 90.000000
_cell_volume 2378.195726
_symmetry_space_group_name_H-M "P N N A"
_symmetry_group_IT_number 52
_symmetry_cell_setting 'orthorhombic'
loop_
_space_group_symop_operation_xyz
x,y,z
1/2-x,-y,z
x,1/2-y,1/2-z
1/2-x,1/2+y,1/2-z
-x,-y,-z
1/2+x,y,-z
-x,1/2+y,1/2+z
1/2+x,1/2-y,1/2+z
loop_
_atom_site_type_symbol
_atom_site_label
_atom_site_fract_x
_atom_site_fract_y
_atom_site_fract_z
Si Si1 0.151047 0.416594 0.188222
Si Si2 0.317857 0.503395 0.700615
Si Si3 0.961476 0.670039 0.739576
Si Si4 0.745408 0.823916 0.626070
Si Si5 0.467731 0.170362 0.261227
Si Si6 0.854816 0.129476 0.941284
Si Si7 0.324165 0.250000 0.750000
O O1 0.170339 0.447111 0.459781
O O2 0.090659 0.380982 0.218264
O O3 0.194290 0.358502 0.090615
O O4 0.150992 0.472762 0.961700
O O5 0.250000 0.500000 0.749714
O O6 0.348331 0.430325 0.650047
O O7 0.941716 0.750000 0.750000
O O8 0.987631 0.652442 0.463201
O O9 0.006755 0.652971 0.961286
O O10 0.753939 0.750000 0.750000
O O11 0.703073 0.874222 0.778451
O O12 0.716356 0.810879 0.353610
O O13 0.450774 0.250000 0.250000
O O14 0.411732 0.121873 0.229599
O O15 0.863386 0.207534 0.054365
#
# Coordination Sequence:
#
# PCOD8216483 Si02
#       7
#     8   8   8   8   8   8   4
#     4  12  25  45  67  95 138 180 230 264 336 410
#     4  12  26  44  67  97 139 185 221 269 338 413
#     4  10  23  44  68  98 132 177 223 280 335 391
#     4  10  22  39  64 100 128 166 220 287 345 394
#     4  10  22  41  68  98 132 167 224 282 340 392
#     4  11  24  41  66 101 131 175 220 282 341 397
#     4  10  22  38  66  96 134 156 220 288 352 380
#
# _framework density 21.865313
#
# number of rings (size 3 to 8) (size 9 to 14) (size 15 to 20)
#    0.000    1.231    1.538    4.154    9.692    0.000 
#    4.154    4.615    0.000    0.000    0.000    0.000 
#    0.000    0.000    0.000    0.000    0.000    0.000 
#
# Total GULP energy -644732.194480 kJ/mol
# GULP energy per Si atom -12398.696048 kJ/mol
# Density = 2.181555 g / cm^3
# Si number density = 21.865313 Si / 1000 Ang^3
#
#
#
# Elastic Constant Matrix: (Units=GPa)
#
#
# Indices 1 2 3 4 5 6 
#
# 1 108.3760 50.8752 19.3684 0.0000 0.0000 0.0000
# 2 50.8752 65.9494 10.4251 0.0000 0.0000 0.0000
# 3 19.3684 10.4251 91.1844 0.0000 0.0000 0.0000
# 4 0.0000 0.0000 0.0000 28.1656 0.0000 0.0000
# 5 0.0000 0.0000 0.0000 0.0000 -25.3941 0.0000
# 6 0.0000 0.0000 0.0000 0.0000 0.0000 15.0274
#
#
#
# Elastic Compliance Matrix: (Units=1/GPa)
#
#
# Indices 1 2 3 4 5 6 
#
# 1 0.014772 -0.011100 -0.001869 0.000000 0.000000 0.000000
# 2 -0.011100 0.023783 -0.000361 0.000000 0.000000 0.000000
# 3 -0.001869 -0.000361 0.011405 0.000000 0.000000 0.000000
# 4 0.000000 0.000000 0.000000 0.035504 0.000000 0.000000
# 5 0.000000 0.000000 0.000000 0.000000 -0.039379 0.000000
# 6 0.000000 0.000000 0.000000 0.000000 0.000000 0.066545
#
#
# Mechanical properties :
#
#
# Convention : Reuss Voigt Hill
#
# Bulk Modulus (GPa) = 42.91850 47.42746 45.17298
# Shear Modulus (GPa) = 34.00046 15.88251 24.94148
#
# Velocity S-wave (km/s) = 3.94762 2.69807 3.38107
# Velocity P-wave (km/s) = 6.35999 5.60749 5.99556
#
# Compressibility (1/GPa) = 0.02329997
#
# Stress axis : x y z
#
# Youngs Moduli (GPa) = 67.69665 42.04667 87.68075
#
# Poissons Ratio (x) = 0.46672 0.16384
# Poissons Ratio (y) = 0.75143 0.03168
# Poissons Ratio (z) = 0.12650 0.01519
#
# Static dielectric constant tensor:
#      x y z
#    x 3.778540 0.000000 0.000000 
#    y 0.000000 3.916770 0.000000 
#    z 0.000000 0.000000 4.366260 
# 
# 
# High freq. dielectric constant tensor:
#      x y z
#    x 1.854510 0.000000 0.000000 
#    y 0.000000 1.853370 0.000000 
#    z 0.000000 0.000000 1.875640 
# 
# From -- ./inp_files/4421.got.cif
#   From: 2010.06.25/outbox.cif.g09.slc.cpg/sg52_3_cif.got.tgz:4421.got - 2010.06.26 19:32:48.
