data_PCOD8216738
_publ_section_title
;
Structure prediction by ZEFSAII (Michael W. Deem and Ramdas Pophale) SiO2 
 PCOD8216738
Probable space group: P N N A
;
_chemical_formula_sum "Si O2"
_cell_formula_units_Z 64
_cell_length_a 15.007226
_cell_length_b 8.653053
_cell_length_c 24.693320
_cell_angle_alpha 90.000000
_cell_angle_beta 90.000000
_cell_angle_gamma 90.000000
_cell_volume 3206.633099
_symmetry_space_group_name_H-M "P N N A"
_symmetry_group_IT_number 52
_symmetry_cell_setting 'orthorhombic'
loop_
_space_group_symop_operation_xyz
x,y,z
1/2-x,-y,z
x,1/2-y,1/2-z
1/2-x,1/2+y,1/2-z
-x,-y,-z
1/2+x,y,-z
-x,1/2+y,1/2+z
1/2+x,1/2-y,1/2+z
loop_
_atom_site_type_symbol
_atom_site_label
_atom_site_fract_x
_atom_site_fract_y
_atom_site_fract_z
Si Si1 0.774506 0.326426 0.466391
Si Si2 0.570241 0.316941 0.307267
Si Si3 0.575529 0.819511 0.191129
Si Si4 0.750771 0.824468 0.576537
Si Si5 0.522943 0.822240 0.008921
Si Si6 0.939132 0.820944 0.610607
Si Si7 0.254212 0.680737 0.857220
Si Si8 0.447004 0.321525 0.104247
O O1 0.750000 0.500000 0.451181
O O2 0.734396 0.285061 0.524761
O O3 0.879930 0.303734 0.465604
O O4 0.731305 0.217519 0.420580
O O5 0.538747 0.250000 0.250000
O O6 0.582563 0.498537 0.303917
O O7 0.664154 0.243099 0.322640
O O8 0.493116 0.278853 0.349756
O O9 0.563743 0.750000 0.250000
O O10 0.488707 0.775204 0.156525
O O11 0.663693 0.758416 0.162554
O O12 0.832230 0.802596 0.618741
O O13 0.658610 0.785389 0.606908
O O14 0.750000 0.000000 0.554633
O O15 0.455794 0.745733 0.050946
O O16 0.513105 0.729086 0.953280
O O17 0.500000 0.000000 0.000000
O O18 0.969255 0.998990 0.613696
O O19 0.250000 0.500000 0.847558
#
# Coordination Sequence:
#
# PCOD8216738 Si02
#       8
#     8   8   8   8   8   8   8   8
#     4  11  22  36  56  91 131 167 209 253 306 374
#     4  12  26  44  67  92 124 166 209 262 314 372
#     4  12  25  45  65  92 126 162 212 259 313 375
#     4   9  21  40  62  89 127 165 206 257 314 371
#     4  11  22  36  58  91 127 168 210 258 313 372
#     4  11  21  40  64  91 125 165 207 261 313 373
#     4  12  25  41  63  92 127 167 209 254 311 374
#     4  10  23  40  63  92 123 164 212 258 315 373
#
# _framework density 19.958629999999999
#
# number of rings (size 3 to 8) (size 9 to 14) (size 15 to 20)
#    0.000    1.000    1.250    6.000    3.500    1.000 
#    0.000    0.625    0.000    0.000    0.000    0.000 
#    0.000    0.000    0.000    0.000    0.000    0.000 
#
# Total GULP energy -793980.034242 kJ/mol
# GULP energy per Si atom -12405.938035 kJ/mol
# Density = 1.991320 g / cm^3
# Si number density = 19.958630 Si / 1000 Ang^3
#
#
#
# Elastic Constant Matrix: (Units=GPa)
#
#
# Indices 1 2 3 4 5 6 
#
# 1 89.9625 36.6689 46.3330 0.0000 0.0000 0.0000
# 2 36.6689 150.6334 44.1284 0.0000 0.0000 0.0000
# 3 46.3330 44.1284 108.2381 0.0000 0.0000 0.0000
# 4 0.0000 0.0000 0.0000 35.0104 0.0000 0.0000
# 5 0.0000 0.0000 0.0000 0.0000 9.3520 0.0000
# 6 0.0000 0.0000 0.0000 0.0000 0.0000 27.0103
#
#
#
# Elastic Compliance Matrix: (Units=1/GPa)
#
#
# Indices 1 2 3 4 5 6 
#
# 1 0.014761 -0.001979 -0.005512 0.000000 0.000000 0.000000
# 2 -0.001979 0.007804 -0.002335 0.000000 0.000000 0.000000
# 3 -0.005512 -0.002335 0.012550 0.000000 0.000000 0.000000
# 4 0.000000 0.000000 0.000000 0.028563 0.000000 0.000000
# 5 0.000000 0.000000 0.000000 0.000000 0.106929 0.000000
# 6 0.000000 0.000000 0.000000 0.000000 0.000000 0.037023
#
#
# Mechanical properties :
#
#
# Convention : Reuss Voigt Hill
#
# Bulk Modulus (GPa) = 64.66306 67.01053 65.83679
# Shear Modulus (GPa) = 21.51132 29.05479 25.28306
#
# Velocity S-wave (km/s) = 3.28654 3.81957 3.56304
# Velocity P-wave (km/s) = 6.84622 7.28696 7.07002
#
# Compressibility (1/GPa) = 0.01546478
#
# Stress axis : x y z
#
# Youngs Moduli (GPa) = 67.74589 128.13500 79.67929
#
# Poissons Ratio (x) = 0.25352 0.43920
# Poissons Ratio (y) = 0.13404 0.18604
# Poissons Ratio (z) = 0.37342 0.29917
#
# Static dielectric constant tensor:
#      x y z
#    x 3.763080 0.000000 0.000000 
#    y 0.000000 3.480130 0.000000 
#    z 0.000000 0.000000 3.601120 
# 
# 
# High freq. dielectric constant tensor:
#      x y z
#    x 1.789570 0.000000 0.000000 
#    y 0.000000 1.795020 0.000000 
#    z 0.000000 0.000000 1.770500 
# 
# From -- ./inp_files/40685.got.cif
#   From: 2010.06.25/outbox.cif.g09.slc.cpg/sg52_21_cif.got.tgz:40685.got - 2010.06.26 19:32:48.
