data_PCOD8216813
_publ_section_title
;
Structure prediction by ZEFSAII (Michael W. Deem and Ramdas Pophale) SiO2 
 PCOD8216813
Probable space group: P N N A
;
_chemical_formula_sum "Si O2"
_cell_formula_units_Z 48
_cell_length_a 9.723128
_cell_length_b 26.512070
_cell_length_c 9.653018
_cell_angle_alpha 90.000000
_cell_angle_beta 90.000000
_cell_angle_gamma 90.000000
_cell_volume 2488.357395
_symmetry_space_group_name_H-M "P N N A"
_symmetry_group_IT_number 52
_symmetry_cell_setting 'orthorhombic'
loop_
_space_group_symop_operation_xyz
x,y,z
1/2-x,-y,z
x,1/2-y,1/2-z
1/2-x,1/2+y,1/2-z
-x,-y,-z
1/2+x,y,-z
-x,1/2+y,1/2+z
1/2+x,1/2-y,1/2+z
loop_
_atom_site_type_symbol
_atom_site_label
_atom_site_fract_x
_atom_site_fract_y
_atom_site_fract_z
Si Si1 0.625105 0.962322 0.000859
Si Si2 0.709082 0.793569 0.361878
Si Si3 0.534946 0.898337 0.754078
Si Si4 0.969175 0.208036 0.640197
Si Si5 0.868722 0.033633 0.520356
Si Si6 0.216747 0.595005 0.758429
O O1 0.625203 0.923497 0.873521
O O2 0.750000 0.000000 0.992734
O O3 0.624052 0.925923 0.133955
O O4 0.500000 0.000000 0.000000
O O5 0.672878 0.750000 0.250000
O O6 0.620027 0.785930 0.500750
O O7 0.672119 0.848006 0.296005
O O8 0.869999 0.791349 0.402897
O O9 0.567514 0.840047 0.733753
O O10 0.584207 0.919871 0.609507
O O11 0.375266 0.907743 0.786492
O O12 0.929407 0.250000 0.750000
O O13 0.805366 0.055854 0.381139
O O14 0.750000 0.000000 0.592759
O O15 0.000000 0.000000 0.500000
#
# Coordination Sequence:
#
# PCOD8216813 Si02
#       6
#     8   8   8   8   8   8
#     4  12  24  43  62  90 130 174 212 255 309 368
#     4  10  23  44  69  95 126 163 205 263 320 374
#     4  11  23  42  63  93 125 164 211 258 310 374
#     4  10  23  44  68  95 127 160 208 262 318 379
#     4  12  22  37  64  90 122 164 204 255 311 363
#     4  11  23  43  62  92 130 162 206 263 312 367
#
# _framework density 19.289833999999999
#
# number of rings (size 3 to 8) (size 9 to 14) (size 15 to 20)
#    0.000    1.000    5.000    2.000    2.333    0.667 
#    3.000    0.000    0.000    0.000    0.000    0.000 
#    0.000    0.000    0.000    0.000    0.000    0.000 
#
# Total GULP energy -595102.147420 kJ/mol
# GULP energy per Si atom -12397.961405 kJ/mol
# Density = 1.924593 g / cm^3
# Si number density = 19.289834 Si / 1000 Ang^3
#
#
#
# Elastic Constant Matrix: (Units=GPa)
#
#
# Indices 1 2 3 4 5 6 
#
# 1 89.6793 57.8251 39.2701 0.0000 0.0000 0.0000
# 2 57.8251 161.3732 70.4266 0.0000 0.0000 0.0000
# 3 39.2701 70.4266 124.8064 0.0000 0.0000 0.0000
# 4 0.0000 0.0000 0.0000 39.5734 0.0000 0.0000
# 5 0.0000 0.0000 0.0000 0.0000 19.8802 0.0000
# 6 0.0000 0.0000 0.0000 0.0000 0.0000 27.0746
#
#
#
# Elastic Compliance Matrix: (Units=1/GPa)
#
#
# Indices 1 2 3 4 5 6 
#
# 1 0.014956 -0.004385 -0.002231 0.000000 0.000000 0.000000
# 2 -0.004385 0.009507 -0.003985 0.000000 0.000000 0.000000
# 3 -0.002231 -0.003985 0.010963 0.000000 0.000000 0.000000
# 4 0.000000 0.000000 0.000000 0.025269 0.000000 0.000000
# 5 0.000000 0.000000 0.000000 0.000000 0.050301 0.000000
# 6 0.000000 0.000000 0.000000 0.000000 0.000000 0.036935
#
#
# Mechanical properties :
#
#
# Convention : Reuss Voigt Hill
#
# Bulk Modulus (GPa) = 70.30866 78.98916 74.64891
# Shear Modulus (GPa) = 28.75616 31.19479 29.97547
#
# Velocity S-wave (km/s) = 3.86520 4.02576 3.94630
# Velocity P-wave (km/s) = 7.51315 7.91495 7.71667
#
# Compressibility (1/GPa) = 0.01422300
#
# Stress axis : x y z
#
# Youngs Moduli (GPa) = 66.86502 105.18157 91.21462
#
# Poissons Ratio (x) = 0.46125 0.20351
# Poissons Ratio (y) = 0.29322 0.36350
# Poissons Ratio (z) = 0.14919 0.41915
#
# Static dielectric constant tensor:
#      x y z
#    x 3.628800 0.000000 0.000000 
#    y 0.000000 3.764560 0.000000 
#    z 0.000000 0.000000 3.571650 
# 
# 
# High freq. dielectric constant tensor:
#      x y z
#    x 1.751460 0.000000 0.000000 
#    y 0.000000 1.774020 0.000000 
#    z 0.000000 0.000000 1.752510 
# 
# From -- ./inp_files/7695.got.cif
#   From: 2010.06.25/outbox.cif.g09.slc.cpg/sg52_4_cif.got.tgz:7695.got - 2010.06.26 19:32:48.
