data_PCOD8216743
_publ_section_title
;
Structure prediction by ZEFSAII (Michael W. Deem and Ramdas Pophale) SiO2 
 PCOD8216743
Probable space group: P N N A
;
_chemical_formula_sum "Si O2"
_cell_formula_units_Z 40
_cell_length_a 13.510370
_cell_length_b 24.443882
_cell_length_c 4.830905
_cell_angle_alpha 90.000000
_cell_angle_beta 90.000000
_cell_angle_gamma 90.000000
_cell_volume 1595.386522
_symmetry_space_group_name_H-M "P N N A"
_symmetry_group_IT_number 52
_symmetry_cell_setting 'orthorhombic'
loop_
_space_group_symop_operation_xyz
x,y,z
1/2-x,-y,z
x,1/2-y,1/2-z
1/2-x,1/2+y,1/2-z
-x,-y,-z
1/2+x,y,-z
-x,1/2+y,1/2+z
1/2+x,1/2-y,1/2+z
loop_
_atom_site_type_symbol
_atom_site_label
_atom_site_fract_x
_atom_site_fract_y
_atom_site_fract_z
Si Si1 0.120355 0.149429 0.685772
Si Si2 0.730848 0.189245 0.836547
Si Si3 0.585704 0.883240 0.780097
Si Si4 0.071275 0.447033 0.475300
Si Si5 0.138933 0.989380 0.545937
O O1 0.170548 0.154279 0.388802
O O2 0.147353 0.092613 0.851399
O O3 0.001514 0.153225 0.636199
O O4 0.164421 0.196132 0.887989
O O5 0.759784 0.250000 0.750000
O O6 0.831439 0.156603 0.899510
O O7 0.534409 0.915010 0.039552
O O8 0.627617 0.928077 0.564748
O O9 0.115202 0.463520 0.181166
O O10 0.062965 0.499407 0.692756
O O11 0.250000 0.000000 0.651809
#
# Coordination Sequence:
#
# PCOD8216743 Si02
#       5
#     8   8   8   8   8
#     4  10  25  44  69  97 136 171 228 279 337 407
#     4  12  26  48  70  98 130 179 236 293 345 395
#     4  10  26  43  73  97 146 171 236 269 352 393
#     4  10  23  40  65  99 141 172 219 262 341 400
#     4  12  22  39  68 102 140 184 215 269 331 421
#
# _framework density 25.072292000000001
#
# number of rings (size 3 to 8) (size 9 to 14) (size 15 to 20)
#    1.200    0.000    0.000    6.000    0.000    8.000 
#    0.000    0.000    0.000    0.000    0.000    0.000 
#    0.000    0.000    0.000    0.000    0.000    0.000 
#
# Total GULP energy -495713.636037 kJ/mol
# GULP energy per Si atom -12392.840901 kJ/mol
# Density = 2.501523 g / cm^3
# Si number density = 25.072292 Si / 1000 Ang^3
#
#
#
# Elastic Constant Matrix: (Units=GPa)
#
#
# Indices 1 2 3 4 5 6 
#
# 1 151.8907 51.2878 26.2062 0.0000 0.0000 0.0000
# 2 51.2878 86.7259 -7.3123 0.0000 0.0000 0.0000
# 3 26.2062 -7.3123 99.3969 0.0000 0.0000 0.0000
# 4 0.0000 0.0000 0.0000 30.8534 0.0000 0.0000
# 5 0.0000 0.0000 0.0000 0.0000 2.0383 0.0000
# 6 0.0000 0.0000 0.0000 0.0000 0.0000 20.0941
#
#
#
# Elastic Compliance Matrix: (Units=1/GPa)
#
#
# Indices 1 2 3 4 5 6 
#
# 1 0.008919 -0.005507 -0.002757 0.000000 0.000000 0.000000
# 2 -0.005507 0.015003 0.002556 0.000000 0.000000 0.000000
# 3 -0.002757 0.002556 0.010975 0.000000 0.000000 0.000000
# 4 0.000000 0.000000 0.000000 0.032411 0.000000 0.000000
# 5 0.000000 0.000000 0.000000 0.000000 0.490596 0.000000
# 6 0.000000 0.000000 0.000000 0.000000 0.000000 0.049766
#
#
# Mechanical properties :
#
#
# Convention : Reuss Voigt Hill
#
# Bulk Modulus (GPa) = 42.58710 53.15302 47.87006
# Shear Modulus (GPa) = 7.97559 28.45261 18.21410
#
# Velocity S-wave (km/s) = 1.78548 3.37237 2.69822
# Velocity P-wave (km/s) = 4.61229 6.03405 5.37043
#
# Compressibility (1/GPa) = 0.02348129
#
# Stress axis : x y z
#
# Youngs Moduli (GPa) = 112.12396 66.65505 91.11240
#
# Poissons Ratio (x) = 0.36705 0.25116
# Poissons Ratio (y) = 0.61744 -0.23284
# Poissons Ratio (z) = 0.30908 -0.17034
#
# Static dielectric constant tensor:
#      x y z
#    x 4.550230 0.000000 0.000000 
#    y 0.000000 4.413300 0.000000 
#    z 0.000000 0.000000 4.326050 
# 
# 
# High freq. dielectric constant tensor:
#      x y z
#    x 2.004030 0.000000 0.000000 
#    y 0.000000 1.994090 0.000000 
#    z 0.000000 0.000000 1.998150 
# 
# From -- ./inp_files/2287.got.cif
#   From: 2010.06.25/outbox.cif.g09.slc.cpg/sg52_2_cif.got.tgz:2287.got - 2010.06.26 19:32:48.
