data_PCOD8216429
_publ_section_title
;
Structure prediction by ZEFSAII (Michael W. Deem and Ramdas Pophale) SiO2 
 PCOD8216429
Probable space group: P N N A
;
_chemical_formula_sum "Si O2"
_cell_formula_units_Z 44
_cell_length_a 4.970605
_cell_length_b 16.849619
_cell_length_c 27.601667
_cell_angle_alpha 90.000000
_cell_angle_beta 90.000000
_cell_angle_gamma 90.000000
_cell_volume 2311.716908
_symmetry_space_group_name_H-M "P N N A"
_symmetry_group_IT_number 52
_symmetry_cell_setting 'orthorhombic'
loop_
_space_group_symop_operation_xyz
x,y,z
1/2-x,-y,z
x,1/2-y,1/2-z
1/2-x,1/2+y,1/2-z
-x,-y,-z
1/2+x,y,-z
-x,1/2+y,1/2+z
1/2+x,1/2-y,1/2+z
loop_
_atom_site_type_symbol
_atom_site_label
_atom_site_fract_x
_atom_site_fract_y
_atom_site_fract_z
Si Si1 0.558929 0.607015 0.654664
Si Si2 0.869862 0.082228 0.738683
Si Si3 0.250000 0.500000 0.422905
Si Si4 0.056203 0.706634 0.632982
Si Si5 0.636061 0.679529 0.214427
Si Si6 0.403884 0.658296 0.468814
O O1 0.511690 0.568189 0.707170
O O2 0.531670 0.541888 0.612239
O O3 0.357678 0.676791 0.641074
O O4 0.857776 0.642885 0.656490
O O5 0.628458 0.144633 0.739338
O O6 0.123272 0.115332 0.707844
O O7 0.750000 0.000000 0.717251
O O8 0.413009 0.564802 0.454481
O O9 0.047346 0.790533 0.660957
O O10 0.979196 0.715397 0.576222
O O11 0.740507 0.750000 0.250000
O O12 0.603993 0.676618 0.512950
#
# Coordination Sequence:
#
# PCOD8216429 Si02
#       6
#     8   8   4   8   8   8
#     4  11  20  34  51  79 109 147 195 232 262 329
#     4  12  23  37  55  86 121 152 190 238 288 341
#     4  10  22  34  54  78 112 158 196 236 284 326
#     4  11  23  36  56  79 103 147 195 237 278 326
#     4  12  22  38  60  82 115 152 201 236 286 353
#     4  11  23  39  54  77 111 149 199 245 288 330
#
# _framework density 19.033472
#
# number of rings (size 3 to 8) (size 9 to 14) (size 15 to 20)
#    0.000    0.727    4.545    4.909    0.000    5.818 
#    0.000    0.000    0.000    0.000    0.000    0.000 
#    0.000   14.545    0.000    0.000    0.000    0.000 
#
# Total GULP energy -545555.534350 kJ/mol
# GULP energy per Si atom -12398.989417 kJ/mol
# Density = 1.899015 g / cm^3
# Si number density = 19.033472 Si / 1000 Ang^3
#
#
#
# Elastic Constant Matrix: (Units=GPa)
#
#
# Indices 1 2 3 4 5 6 
#
# 1 78.3051 14.4569 26.0973 0.0000 0.0000 0.0000
# 2 14.4569 47.0457 38.8579 0.0000 0.0000 0.0000
# 3 26.0973 38.8579 102.4052 0.0000 0.0000 0.0000
# 4 0.0000 0.0000 0.0000 27.6933 0.0000 0.0000
# 5 0.0000 0.0000 0.0000 0.0000 19.1728 0.0000
# 6 0.0000 0.0000 0.0000 0.0000 0.0000 29.3465
#
#
#
# Elastic Compliance Matrix: (Units=1/GPa)
#
#
# Indices 1 2 3 4 5 6 
#
# 1 0.014082 -0.001985 -0.002835 0.000000 0.000000 0.000000
# 2 -0.001985 0.031239 -0.011348 0.000000 0.000000 0.000000
# 3 -0.002835 -0.011348 0.014794 0.000000 0.000000 0.000000
# 4 0.000000 0.000000 0.000000 0.036110 0.000000 0.000000
# 5 0.000000 0.000000 0.000000 0.000000 0.052157 0.000000
# 6 0.000000 0.000000 0.000000 0.000000 0.000000 0.034076
#
#
# Mechanical properties :
#
#
# Convention : Reuss Voigt Hill
#
# Bulk Modulus (GPa) = 36.00034 42.95336 39.47685
# Shear Modulus (GPa) = 22.31614 25.13212 23.72413
#
# Velocity S-wave (km/s) = 3.42785 3.63770 3.53433
# Velocity P-wave (km/s) = 5.88406 6.34508 6.11891
#
# Compressibility (1/GPa) = 0.02777751
#
# Stress axis : x y z
#
# Youngs Moduli (GPa) = 71.01231 32.01156 67.59693
#
# Poissons Ratio (x) = 0.06356 0.19166
# Poissons Ratio (y) = 0.14099 0.76706
# Poissons Ratio (z) = 0.20134 0.36325
#
# Static dielectric constant tensor:
#      x y z
#    x 3.535880 0.000000 0.000000 
#    y 0.000000 3.338540 0.000000 
#    z 0.000000 0.000000 3.590260 
# 
# 
# High freq. dielectric constant tensor:
#      x y z
#    x 1.759580 0.000000 0.000000 
#    y 0.000000 1.694210 0.000000 
#    z 0.000000 0.000000 1.726480 
# 
# From -- ./inp_files/41639.got.cif
#   From: 2010.06.25/outbox.cif.g09.slc.cpg/sg52_21_cif.got.tgz:41639.got - 2010.06.26 19:32:48.
