data_PCOD8216830
_publ_section_title
;
Structure prediction by ZEFSAII (Michael W. Deem and Ramdas Pophale) SiO2 
 PCOD8216830
Probable space group: P N N A
;
_chemical_formula_sum "Si O2"
_cell_formula_units_Z 52
_cell_length_a 21.629159
_cell_length_b 14.752239
_cell_length_c 7.349367
_cell_angle_alpha 90.000000
_cell_angle_beta 90.000000
_cell_angle_gamma 90.000000
_cell_volume 2345.025167
_symmetry_space_group_name_H-M "P N N A"
_symmetry_group_IT_number 52
_symmetry_cell_setting 'orthorhombic'
loop_
_space_group_symop_operation_xyz
x,y,z
1/2-x,-y,z
x,1/2-y,1/2-z
1/2-x,1/2+y,1/2-z
-x,-y,-z
1/2+x,y,-z
-x,1/2+y,1/2+z
1/2+x,1/2-y,1/2+z
loop_
_atom_site_type_symbol
_atom_site_label
_atom_site_fract_x
_atom_site_fract_y
_atom_site_fract_z
Si Si1 0.397838 0.152191 0.710559
Si Si2 0.067587 0.963723 0.047138
Si Si3 0.159906 0.250000 0.250000
Si Si4 0.809922 0.553421 0.651961
Si Si5 0.532465 0.839139 0.647841
Si Si6 0.681942 0.499163 0.061290
Si Si7 0.610122 0.175573 0.385750
O O1 0.368855 0.250000 0.750000
O O2 0.421813 0.114016 0.900068
O O3 0.453817 0.160020 0.566474
O O4 0.344851 0.094825 0.617943
O O5 0.064419 0.923994 0.251586
O O6 0.125622 0.034727 0.040956
O O7 0.000000 0.000000 0.000000
O O8 0.200348 0.336474 0.326090
O O9 0.116093 0.210576 0.407614
O O10 0.750000 0.500000 0.563831
O O11 0.818794 0.507192 0.845713
O O12 0.557353 0.750000 0.750000
O O13 0.459340 0.846726 0.668089
O O14 0.750000 0.500000 0.143065
O O15 0.646213 0.416549 0.153498
O O16 0.638464 0.250000 0.250000
#
# Coordination Sequence:
#
# PCOD8216830 Si02
#       7
#     8   8   4   8   8   8   8
#     4  12  26  43  70 104 135 186 229 285 358 416
#     4  12  27  43  72 105 142 184 236 293 359 421
#     4  10  24  44  72 100 132 188 238 278 350 436
#     4  10  24  49  71 102 144 189 231 294 356 423
#     4  11  24  44  65 100 144 175 227 292 349 422
#     4  10  23  46  68  95 137 180 229 285 342 415
#     4  10  24  41  68  98 132 177 226 287 347 412
#
# _framework density 22.174600999999999
#
# number of rings (size 3 to 8) (size 9 to 14) (size 15 to 20)
#    0.000    1.231    3.077    0.923   11.846    2.462 
#    9.692    0.000    0.000    0.000    0.000    0.000 
#    0.000    0.000    0.000    0.000    0.000    0.000 
#
# Total GULP energy -644625.985604 kJ/mol
# GULP energy per Si atom -12396.653569 kJ/mol
# Density = 2.212413 g / cm^3
# Si number density = 22.174601 Si / 1000 Ang^3
#
#
#
# Elastic Constant Matrix: (Units=GPa)
#
#
# Indices 1 2 3 4 5 6 
#
# 1 127.3067 66.3742 11.0313 0.0000 0.0000 0.0000
# 2 66.3742 162.8407 33.6399 0.0000 0.0000 0.0000
# 3 11.0313 33.6399 80.8278 0.0000 0.0000 0.0000
# 4 0.0000 0.0000 0.0000 36.8511 0.0000 0.0000
# 5 0.0000 0.0000 0.0000 0.0000 17.2906 0.0000
# 6 0.0000 0.0000 0.0000 0.0000 0.0000 15.7566
#
#
#
# Elastic Compliance Matrix: (Units=1/GPa)
#
#
# Indices 1 2 3 4 5 6 
#
# 1 0.009985 -0.004145 0.000362 0.000000 0.000000 0.000000
# 2 -0.004145 0.008439 -0.002947 0.000000 0.000000 0.000000
# 3 0.000362 -0.002947 0.013549 0.000000 0.000000 0.000000
# 4 0.000000 0.000000 0.000000 0.027136 0.000000 0.000000
# 5 0.000000 0.000000 0.000000 0.000000 0.057835 0.000000
# 6 0.000000 0.000000 0.000000 0.000000 0.000000 0.063465
#
#
# Mechanical properties :
#
#
# Convention : Reuss Voigt Hill
#
# Bulk Modulus (GPa) = 54.01139 65.89622 59.95380
# Shear Modulus (GPa) = 24.99522 31.30832 28.15177
#
# Velocity S-wave (km/s) = 3.36102 3.76160 3.56694
# Velocity P-wave (km/s) = 6.28269 6.97479 6.63777
#
# Compressibility (1/GPa) = 0.01851461
#
# Stress axis : x y z
#
# Youngs Moduli (GPa) = 100.15520 118.49742 73.80677
#
# Poissons Ratio (x) = 0.49112 -0.02674
# Poissons Ratio (y) = 0.41510 0.21748
# Poissons Ratio (z) = -0.03628 0.34916
#
# Static dielectric constant tensor:
#      x y z
#    x 3.979730 0.000000 0.000000 
#    y 0.000000 4.226250 0.000000 
#    z 0.000000 0.000000 4.106870 
# 
# 
# High freq. dielectric constant tensor:
#      x y z
#    x 1.857790 0.000000 0.000000 
#    y 0.000000 1.882290 0.000000 
#    z 0.000000 0.000000 1.884820 
# 
# From -- ./inp_files/13360.got.cif
#   From: 2010.06.25/outbox.cif.g09.slc.cpg/sg52_7_cif.got.tgz:13360.got - 2010.06.26 19:32:48.
