data_PCOD8216961
_publ_section_title
;
Structure prediction by ZEFSAII (Michael W. Deem and Ramdas Pophale) SiO2 
 PCOD8216961
Probable space group: P N N A
;
_chemical_formula_sum "Si O2"
_cell_formula_units_Z 36
_cell_length_a 19.534744
_cell_length_b 15.707407
_cell_length_c 4.989407
_cell_angle_alpha 90.000000
_cell_angle_beta 90.000000
_cell_angle_gamma 90.000000
_cell_volume 1530.950515
_symmetry_space_group_name_H-M "P N N A"
_symmetry_group_IT_number 52
_symmetry_cell_setting 'orthorhombic'
loop_
_space_group_symop_operation_xyz
x,y,z
1/2-x,-y,z
x,1/2-y,1/2-z
1/2-x,1/2+y,1/2-z
-x,-y,-z
1/2+x,y,-z
-x,1/2+y,1/2+z
1/2+x,1/2-y,1/2+z
loop_
_atom_site_type_symbol
_atom_site_label
_atom_site_fract_x
_atom_site_fract_y
_atom_site_fract_z
Si Si1 0.426391 0.342996 0.726895
Si Si2 0.250000 0.000000 0.002782
Si Si3 0.331610 0.841845 0.823532
Si Si4 0.884444 0.441128 0.774765
Si Si5 0.420158 0.625582 0.181258
O O1 0.392715 0.250000 0.750000
O O2 0.418761 0.373229 0.422447
O O3 0.505386 0.333586 0.809143
O O4 0.385082 0.406158 0.922523
O O5 0.222299 0.079428 0.823914
O O6 0.306793 0.038403 0.198567
O O7 0.296812 0.750000 0.750000
O O8 0.390981 0.863752 0.615210
O O9 0.368175 0.830299 0.110449
O O10 0.929535 0.526012 0.753790
#
# Coordination Sequence:
#
# PCOD8216961 Si02
#       5
#     8   4   8   8   8
#     4  12  24  41  67 102 135 163 209 275 339 396
#     4  10  26  46  66  92 134 180 228 270 316 388
#     4  11  23  42  70  98 130 177 225 273 325 386
#     4  11  24  43  66  92 130 179 218 263 325 391
#     4  11  23  43  69  98 130 169 219 270 331 397
#
# _framework density 23.514800999999999
#
# number of rings (size 3 to 8) (size 9 to 14) (size 15 to 20)
#    0.000    0.889    0.000    8.000    0.000    8.889 
#    0.000    6.667    0.000    0.000    0.000    0.000 
#    0.000    0.000    0.000    0.000    0.000    0.000 
#
# Total GULP energy -446580.789798 kJ/mol
# GULP energy per Si atom -12405.021939 kJ/mol
# Density = 2.346128 g / cm^3
# Si number density = 23.514801 Si / 1000 Ang^3
#
#
#
# Elastic Constant Matrix: (Units=GPa)
#
#
# Indices 1 2 3 4 5 6 
#
# 1 92.5213 26.5432 7.5901 0.0000 0.0000 0.0000
# 2 26.5432 158.6213 11.5124 0.0000 0.0000 0.0000
# 3 7.5901 11.5124 78.9118 0.0000 0.0000 0.0000
# 4 0.0000 0.0000 0.0000 42.0695 0.0000 0.0000
# 5 0.0000 0.0000 0.0000 0.0000 19.1601 0.0000
# 6 0.0000 0.0000 0.0000 0.0000 0.0000 21.5190
#
#
#
# Elastic Compliance Matrix: (Units=1/GPa)
#
#
# Indices 1 2 3 4 5 6 
#
# 1 0.011407 -0.001849 -0.000827 0.000000 0.000000 0.000000
# 2 -0.001849 0.006671 -0.000795 0.000000 0.000000 0.000000
# 3 -0.000827 -0.000795 0.012868 0.000000 0.000000 0.000000
# 4 0.000000 0.000000 0.000000 0.023770 0.000000 0.000000
# 5 0.000000 0.000000 0.000000 0.000000 0.052192 0.000000
# 6 0.000000 0.000000 0.000000 0.000000 0.000000 0.046471
#
#
# Mechanical properties :
#
#
# Convention : Reuss Voigt Hill
#
# Bulk Modulus (GPa) = 41.66178 46.81619 44.23899
# Shear Modulus (GPa) = 29.70485 35.51030 32.60758
#
# Velocity S-wave (km/s) = 3.55807 3.89025 3.72786
# Velocity P-wave (km/s) = 5.88519 6.33492 6.11419
#
# Compressibility (1/GPa) = 0.02400281
#
# Stress axis : x y z
#
# Youngs Moduli (GPa) = 87.66875 149.89331 77.71208
#
# Poissons Ratio (x) = 0.27711 0.06430
# Poissons Ratio (y) = 0.16207 0.06182
# Poissons Ratio (z) = 0.07254 0.11924
#
# Static dielectric constant tensor:
#      x y z
#    x 3.920150 0.000000 0.000000 
#    y 0.000000 4.654190 0.000000 
#    z 0.000000 0.000000 4.206490 
# 
# 
# High freq. dielectric constant tensor:
#      x y z
#    x 1.912220 0.000000 0.000000 
#    y 0.000000 1.954150 0.000000 
#    z 0.000000 0.000000 1.939260 
# 
# From -- ./inp_files/4068.got.cif
#   From: 2010.06.25/outbox.cif.g09.slc.cpg/sg52_3_cif.got.tgz:4068.got - 2010.06.26 19:32:48.
