data_PCOD8216819
_publ_section_title
;
Structure prediction by ZEFSAII (Michael W. Deem and Ramdas Pophale) SiO2 
 PCOD8216819
Probable space group: P N N A
;
_chemical_formula_sum "Si O2"
_cell_formula_units_Z 32
_cell_length_a 31.240708
_cell_length_b 5.006495
_cell_length_c 9.342157
_cell_angle_alpha 90.000000
_cell_angle_beta 90.000000
_cell_angle_gamma 90.000000
_cell_volume 1461.173597
_symmetry_space_group_name_H-M "P N N A"
_symmetry_group_IT_number 52
_symmetry_cell_setting 'orthorhombic'
loop_
_space_group_symop_operation_xyz
x,y,z
1/2-x,-y,z
x,1/2-y,1/2-z
1/2-x,1/2+y,1/2-z
-x,-y,-z
1/2+x,y,-z
-x,1/2+y,1/2+z
1/2+x,1/2-y,1/2+z
loop_
_atom_site_type_symbol
_atom_site_label
_atom_site_fract_x
_atom_site_fract_y
_atom_site_fract_z
Si Si1 0.010296 0.750000 0.250000
Si Si2 0.047544 0.750000 0.750000
Si Si3 0.139812 0.136786 0.102664
Si Si4 0.084891 0.851875 0.453006
Si Si5 0.799988 0.503434 0.344724
O O1 0.038264 0.864339 0.381235
O O2 0.980843 0.503420 0.295458
O O3 0.079692 0.793531 0.619533
O O4 0.160877 0.250000 0.250000
O O5 0.109128 0.367329 0.045093
O O6 0.110450 0.879230 0.132378
O O7 0.176288 0.033406 0.995520
O O8 0.750000 0.500000 0.381646
O O9 0.813819 0.250000 0.250000
O O10 0.813604 0.750000 0.250000
#
# Coordination Sequence:
#
# PCOD8216819 Si02
#       5
#     4   4   8   8   8
#     4  12  22  46  62  92 134 172 218 282 338 396
#     4  12  26  40  66  96 124 176 228 274 336 394
#     4  12  24  44  67  99 136 178 216 273 331 396
#     4  12  25  42  66  97 132 172 224 277 332 392
#     4  10  23  44  71 103 136 173 217 272 331 394
#
# _framework density 21.900203999999999
#
# number of rings (size 3 to 8) (size 9 to 14) (size 15 to 20)
#    0.000    0.500    2.500    6.000    5.250    0.000 
#    0.000    6.250    0.000    0.000    0.000    0.000 
#    0.000    0.000    0.000    0.000    0.000    0.000 
#
# Total GULP energy -396833.838848 kJ/mol
# GULP energy per Si atom -12401.057464 kJ/mol
# Density = 2.185036 g / cm^3
# Si number density = 21.900204 Si / 1000 Ang^3
#
#
#
# Elastic Constant Matrix: (Units=GPa)
#
#
# Indices 1 2 3 4 5 6 
#
# 1 69.8739 47.5684 43.6716 0.0000 0.0000 0.0000
# 2 47.5684 157.9333 38.9619 0.0000 0.0000 0.0000
# 3 43.6716 38.9619 143.8632 0.0000 0.0000 0.0000
# 4 0.0000 0.0000 0.0000 32.7476 0.0000 0.0000
# 5 0.0000 0.0000 0.0000 0.0000 -74.3729 0.0000
# 6 0.0000 0.0000 0.0000 0.0000 0.0000 -69.4099
#
#
#
# Elastic Compliance Matrix: (Units=1/GPa)
#
#
# Indices 1 2 3 4 5 6 
#
# 1 0.020855 -0.005058 -0.004961 0.000000 0.000000 0.000000
# 2 -0.005058 0.008012 -0.000634 0.000000 0.000000 0.000000
# 3 -0.004961 -0.000634 0.008629 0.000000 0.000000 0.000000
# 4 0.000000 0.000000 0.000000 0.030537 0.000000 0.000000
# 5 0.000000 0.000000 0.000000 0.000000 -0.013446 0.000000
# 6 0.000000 0.000000 0.000000 0.000000 0.000000 -0.014407
#
#
# Mechanical properties :
#
#
# Convention : Reuss Voigt Hill
#
# Bulk Modulus (GPa) = 61.76876 70.23048 65.99962
# Shear Modulus (GPa) = 74.75801 -6.10913 34.32444
#
# Velocity S-wave (km/s) = 5.84892 -1.67200 3.96322
# Velocity P-wave (km/s) = 8.59529 5.33016 7.15156
#
# Compressibility (1/GPa) = 0.01618941
#
# Stress axis : x y z
#
# Youngs Moduli (GPa) = 47.94933 124.81884 115.88941
#
# Poissons Ratio (x) = 0.63128 0.57495
# Poissons Ratio (y) = 0.24251 0.07353
# Poissons Ratio (z) = 0.23789 0.07919
#
# Static dielectric constant tensor:
#      x y z
#    x 3.802230 0.000000 0.000000 
#    y 0.000000 4.222950 0.000000 
#    z 0.000000 0.000000 4.013900 
# 
# 
# High freq. dielectric constant tensor:
#      x y z
#    x 1.849880 0.000000 0.000000 
#    y 0.000000 1.884050 0.000000 
#    z 0.000000 0.000000 1.874480 
# 
# From -- ./inp_files/15204.got.cif
#   From: 2010.06.25/outbox.cif.g09.slc.cpg/sg52_8_cif.got.tgz:15204.got - 2010.06.26 19:32:48.
