data_PCOD8216433
_publ_section_title
;
Structure prediction by ZEFSAII (Michael W. Deem and Ramdas Pophale) SiO2 
 PCOD8216433
Probable space group: P N N A
;
_chemical_formula_sum "Si O2"
_cell_formula_units_Z 60
_cell_length_a 14.490794
_cell_length_b 13.978975
_cell_length_c 16.266278
_cell_angle_alpha 90.000000
_cell_angle_beta 90.000000
_cell_angle_gamma 90.000000
_cell_volume 3295.002141
_symmetry_space_group_name_H-M "P N N A"
_symmetry_group_IT_number 52
_symmetry_cell_setting 'orthorhombic'
loop_
_space_group_symop_operation_xyz
x,y,z
1/2-x,-y,z
x,1/2-y,1/2-z
1/2-x,1/2+y,1/2-z
-x,-y,-z
1/2+x,y,-z
-x,1/2+y,1/2+z
1/2+x,1/2-y,1/2+z
loop_
_atom_site_type_symbol
_atom_site_label
_atom_site_fract_x
_atom_site_fract_y
_atom_site_fract_z
Si Si1 0.488522 0.122832 0.606128
Si Si2 0.835881 0.874249 0.867763
Si Si3 0.634930 0.583164 0.671305
Si Si4 0.484878 0.758715 0.842770
Si Si5 0.092372 0.933993 0.355677
Si Si6 0.548435 0.250000 0.750000
Si Si7 0.368245 0.728071 0.994636
Si Si8 0.300158 0.408526 0.984205
O O1 0.486219 0.197243 0.681844
O O2 0.559606 0.154177 0.535007
O O3 0.386197 0.122050 0.570824
O O4 0.516084 0.016960 0.635349
O O5 0.727093 0.860174 0.852708
O O6 0.887093 0.829731 0.789935
O O7 0.867533 0.983885 0.878342
O O8 0.863282 0.823140 0.951605
O O9 0.546281 0.645836 0.647886
O O10 0.641027 0.558580 0.767696
O O11 0.446573 0.750000 0.750000
O O12 0.545577 0.668218 0.866544
O O13 0.399012 0.762762 0.904401
O O14 0.170254 0.942077 0.424889
O O15 0.268184 0.680964 0.988566
O O16 0.250000 0.500000 0.942745
#
# Coordination Sequence:
#
# PCOD8216433 Si02
#       8
#     8   8   8   8   8   4   8   8
#     4  11  22  40  60  89 129 153 203 242 303 359
#     4  10  22  35  60  91 119 152 200 242 309 359
#     4  10  22  37  59  92 121 154 193 257 302 363
#     4  10  22  39  60  81 119 161 202 248 302 354
#     4  11  20  36  59  93 122 151 189 250 313 358
#     4  10  22  38  60  86 120 164 188 244 294 360
#     4  11  23  39  59  90 118 164 204 244 297 367
#     4  12  23  34  61  91 123 163 193 251 303 360
#
# _framework density 18.209396999999999
#
# number of rings (size 3 to 8) (size 9 to 14) (size 15 to 20)
#    0.000    1.333    4.000    2.000    8.400    0.533 
#    1.200    0.000    0.000    0.000    3.467    0.000 
#    0.000    0.000    0.000    0.000    0.000    0.000 
#
# Total GULP energy -744211.764876 kJ/mol
# GULP energy per Si atom -12403.529415 kJ/mol
# Density = 1.816795 g / cm^3
# Si number density = 18.209397 Si / 1000 Ang^3
#
#
#
# Elastic Constant Matrix: (Units=GPa)
#
#
# Indices 1 2 3 4 5 6 
#
# 1 100.5046 43.0957 46.8026 0.0000 0.0000 0.0000
# 2 43.0957 97.8691 36.8186 0.0000 0.0000 0.0000
# 3 46.8026 36.8186 92.3081 0.0000 0.0000 0.0000
# 4 0.0000 0.0000 0.0000 21.2627 0.0000 0.0000
# 5 0.0000 0.0000 0.0000 0.0000 18.4497 0.0000
# 6 0.0000 0.0000 0.0000 0.0000 0.0000 25.1354
#
#
#
# Elastic Compliance Matrix: (Units=1/GPa)
#
#
# Indices 1 2 3 4 5 6 
#
# 1 0.014368 -0.004219 -0.005602 0.000000 0.000000 0.000000
# 2 -0.004219 0.013261 -0.003150 0.000000 0.000000 0.000000
# 3 -0.005602 -0.003150 0.014930 0.000000 0.000000 0.000000
# 4 0.000000 0.000000 0.000000 0.047031 0.000000 0.000000
# 5 0.000000 0.000000 0.000000 0.000000 0.054201 0.000000
# 6 0.000000 0.000000 0.000000 0.000000 0.000000 0.039785
#
#
# Mechanical properties :
#
#
# Convention : Reuss Voigt Hill
#
# Bulk Modulus (GPa) = 60.18234 60.45729 60.31981
# Shear Modulus (GPa) = 23.24980 23.90055 23.57517
#
# Velocity S-wave (km/s) = 3.57711 3.62683 3.60206
# Velocity P-wave (km/s) = 7.08399 7.12824 7.10615
#
# Compressibility (1/GPa) = 0.01661617
#
# Stress axis : x y z
#
# Youngs Moduli (GPa) = 69.60100 75.41102 66.97934
#
# Poissons Ratio (x) = 0.31818 0.37521
# Poissons Ratio (y) = 0.29366 0.21098
# Poissons Ratio (z) = 0.38989 0.23754
#
# Static dielectric constant tensor:
#      x y z
#    x 3.191530 0.000000 0.000000 
#    y 0.000000 3.434830 0.000000 
#    z 0.000000 0.000000 3.412350 
# 
# 
# High freq. dielectric constant tensor:
#      x y z
#    x 1.693140 0.000000 0.000000 
#    y 0.000000 1.719150 0.000000 
#    z 0.000000 0.000000 1.700920 
# 
# From -- ./inp_files/27424.got.cif
#   From: 2010.06.25/outbox.cif.g09.slc.cpg/sg52_14_cif.got.tgz:27424.got - 2010.06.26 19:32:48.
