data_PCOD8216388
_publ_section_title
;
Structure prediction by ZEFSAII (Michael W. Deem and Ramdas Pophale) SiO2 
 PCOD8216388
Probable space group: P N N A
;
_chemical_formula_sum "Si O2"
_cell_formula_units_Z 56
_cell_length_a 13.741832
_cell_length_b 15.522109
_cell_length_c 11.117748
_cell_angle_alpha 90.000000
_cell_angle_beta 90.000000
_cell_angle_gamma 90.000000
_cell_volume 2371.440265
_symmetry_space_group_name_H-M "P N N A"
_symmetry_group_IT_number 52
_symmetry_cell_setting 'orthorhombic'
loop_
_space_group_symop_operation_xyz
x,y,z
1/2-x,-y,z
x,1/2-y,1/2-z
1/2-x,1/2+y,1/2-z
-x,-y,-z
1/2+x,y,-z
-x,1/2+y,1/2+z
1/2+x,1/2-y,1/2+z
loop_
_atom_site_type_symbol
_atom_site_label
_atom_site_fract_x
_atom_site_fract_y
_atom_site_fract_z
Si Si1 0.849624 0.358851 0.031229
Si Si2 0.310460 0.181574 0.070896
Si Si3 0.670444 0.565634 0.789471
Si Si4 0.465935 0.030258 0.687812
Si Si5 0.335884 0.630976 0.814322
Si Si6 0.539601 0.912069 0.051810
Si Si7 0.881706 0.795184 0.059685
O O1 0.951736 0.403188 0.075744
O O2 0.776257 0.359653 0.144492
O O3 0.871417 0.264690 0.975874
O O4 0.797216 0.410817 0.923811
O O5 0.330557 0.153601 0.209793
O O6 0.349798 0.100582 0.992896
O O7 0.196925 0.198105 0.047894
O O8 0.750000 0.500000 0.734209
O O9 0.565407 0.522049 0.802743
O O10 0.460487 0.089613 0.805375
O O11 0.376146 0.964908 0.671851
O O12 0.399147 0.696712 0.897293
O O13 0.341264 0.652829 0.673942
O O14 0.479818 0.833700 0.993097
O O15 0.500000 0.000000 0.000000
#
# Coordination Sequence:
#
# PCOD8216388 Si02
#       7
#     8   8   8   8   8   8   8
#     4  11  26  45  68 102 140 190 240 292 360 429
#     4  11  25  44  70  96 146 187 232 299 359 420
#     4  12  25  44  70 101 143 189 242 287 357 432
#     4  12  24  43  72 102 140 183 238 298 357 421
#     4  10  21  42  70 101 137 186 230 297 351 425
#     4  12  23  42  68 109 132 179 241 296 353 432
#     4  10  22  41  69 104 140 181 238 287 359 421
#
# _framework density 23.614342000000001
#
# number of rings (size 3 to 8) (size 9 to 14) (size 15 to 20)
#    0.000    0.857    2.857    3.857    2.000    1.714 
#    2.571    0.000    0.000    0.000    0.000    0.000 
#    0.000    0.000    0.000    0.000    0.000    0.000 
#
# Total GULP energy -694184.257152 kJ/mol
# GULP energy per Si atom -12396.147449 kJ/mol
# Density = 2.356059 g / cm^3
# Si number density = 23.614342 Si / 1000 Ang^3
#
#
#
# Elastic Constant Matrix: (Units=GPa)
#
#
# Indices 1 2 3 4 5 6 
#
# 1 74.4454 32.8869 31.5492 0.0000 0.0000 0.0000
# 2 32.8869 103.0615 49.0031 0.0000 0.0000 0.0000
# 3 31.5492 49.0031 145.5471 0.0000 0.0000 0.0000
# 4 0.0000 0.0000 0.0000 47.5473 0.0000 0.0000
# 5 0.0000 0.0000 0.0000 0.0000 35.0425 0.0000
# 6 0.0000 0.0000 0.0000 0.0000 0.0000 39.5269
#
#
#
# Elastic Compliance Matrix: (Units=1/GPa)
#
#
# Indices 1 2 3 4 5 6 
#
# 1 0.016160 -0.004157 -0.002104 0.000000 0.000000 0.000000
# 2 -0.004157 0.012621 -0.003348 0.000000 0.000000 0.000000
# 3 -0.002104 -0.003348 0.008454 0.000000 0.000000 0.000000
# 4 0.000000 0.000000 0.000000 0.021032 0.000000 0.000000
# 5 0.000000 0.000000 0.000000 0.000000 0.028537 0.000000
# 6 0.000000 0.000000 0.000000 0.000000 0.000000 0.025299
#
#
# Mechanical properties :
#
#
# Convention : Reuss Voigt Hill
#
# Bulk Modulus (GPa) = 55.49805 61.10360 58.30083
# Shear Modulus (GPa) = 36.40957 38.39767 37.40362
#
# Velocity S-wave (km/s) = 3.93089 4.03678 3.98419
# Velocity P-wave (km/s) = 6.64495 6.90357 6.77550
#
# Compressibility (1/GPa) = 0.01801865
#
# Stress axis : x y z
#
# Youngs Moduli (GPa) = 61.87997 79.23064 118.28811
#
# Poissons Ratio (x) = 0.32933 0.24882
# Poissons Ratio (y) = 0.25721 0.39608
# Poissons Ratio (z) = 0.13017 0.26530
#
# Static dielectric constant tensor:
#      x y z
#    x 4.027280 0.000000 0.000000 
#    y 0.000000 4.577870 0.000000 
#    z 0.000000 0.000000 4.405360 
# 
# 
# High freq. dielectric constant tensor:
#      x y z
#    x 1.923600 0.000000 0.000000 
#    y 0.000000 1.944850 0.000000 
#    z 0.000000 0.000000 1.942750 
# 
# From -- ./inp_files/19636.got.cif
#   From: 2010.06.25/outbox.cif.g09.slc.cpg/sg52_10_cif.got.tgz:19636.got - 2010.06.26 19:32:48.
