data_PCOD8216713
_publ_section_title
;
Structure prediction by ZEFSAII (Michael W. Deem and Ramdas Pophale) SiO2 
 PCOD8216713
Probable space group: P N N A
;
_chemical_formula_sum "Si O2"
_cell_formula_units_Z 52
_cell_length_a 11.526580
_cell_length_b 25.713585
_cell_length_c 7.994447
_cell_angle_alpha 90.000000
_cell_angle_beta 90.000000
_cell_angle_gamma 90.000000
_cell_volume 2369.471705
_symmetry_space_group_name_H-M "P N N A"
_symmetry_group_IT_number 52
_symmetry_cell_setting 'orthorhombic'
loop_
_space_group_symop_operation_xyz
x,y,z
1/2-x,-y,z
x,1/2-y,1/2-z
1/2-x,1/2+y,1/2-z
-x,-y,-z
1/2+x,y,-z
-x,1/2+y,1/2+z
1/2+x,1/2-y,1/2+z
loop_
_atom_site_type_symbol
_atom_site_label
_atom_site_fract_x
_atom_site_fract_y
_atom_site_fract_z
Si Si1 0.593236 0.464669 0.175780
Si Si2 0.633074 0.250000 0.250000
Si Si3 0.315826 0.611514 0.082544
Si Si4 0.333245 0.454302 0.294892
Si Si5 0.679691 0.563994 0.330265
Si Si6 0.315959 0.331856 0.798991
Si Si7 0.044698 0.285680 0.103049
O O1 0.458583 0.454905 0.209251
O O2 0.621462 0.526859 0.186860
O O3 0.679622 0.436689 0.309302
O O4 0.619711 0.439628 0.993638
O O5 0.710576 0.300752 0.286337
O O6 0.558963 0.239457 0.418466
O O7 0.239335 0.597358 0.245584
O O8 0.406827 0.656429 0.124542
O O9 0.223928 0.633961 0.953962
O O10 0.250000 0.500000 0.230777
O O11 0.355793 0.458737 0.491635
O O12 0.634186 0.623774 0.326107
O O13 0.408145 0.289681 0.861713
O O14 0.100698 0.250000 0.250000
#
# Coordination Sequence:
#
# PCOD8216713 Si02
#       7
#     8   4   8   8   8   8   8
#     4  10  22  46  61  95 143 181 219 289 339 419
#     4  10  24  48  66 100 138 172 234 298 352 426
#     4  10  25  42  67  99 138 180 237 278 358 424
#     4  12  25  38  66 105 134 184 236 278 344 416
#     4  10  23  41  68  95 142 183 227 282 352 420
#     4  10  22  46  67  98 133 179 225 289 356 417
#     4  11  24  47  74 100 136 182 236 296 365 424
#
# _framework density 21.945820999999999
#
# number of rings (size 3 to 8) (size 9 to 14) (size 15 to 20)
#    0.000    1.538    2.308    1.385    8.615    0.615 
#   13.846    0.000    0.000    0.000    0.000    0.000 
#    0.000    0.000    0.000    0.000    0.000    0.000 
#
# Total GULP energy -644384.150300 kJ/mol
# GULP energy per Si atom -12392.002890 kJ/mol
# Density = 2.189587 g / cm^3
# Si number density = 21.945821 Si / 1000 Ang^3
#
#
#
# Elastic Constant Matrix: (Units=GPa)
#
#
# Indices 1 2 3 4 5 6 
#
# 1 116.0178 34.7779 46.2050 0.0000 0.0000 0.0000
# 2 34.7779 124.6321 53.8499 0.0000 0.0000 0.0000
# 3 46.2050 53.8499 85.4165 0.0000 0.0000 0.0000
# 4 0.0000 0.0000 0.0000 39.9241 0.0000 0.0000
# 5 0.0000 0.0000 0.0000 0.0000 22.2006 0.0000
# 6 0.0000 0.0000 0.0000 0.0000 0.0000 34.4909
#
#
#
# Elastic Compliance Matrix: (Units=1/GPa)
#
#
# Indices 1 2 3 4 5 6 
#
# 1 0.011029 -0.000687 -0.005533 0.000000 0.000000 0.000000
# 2 -0.000687 0.011070 -0.006607 0.000000 0.000000 0.000000
# 3 -0.005533 -0.006607 0.018866 0.000000 0.000000 0.000000
# 4 0.000000 0.000000 0.000000 0.025048 0.000000 0.000000
# 5 0.000000 0.000000 0.000000 0.000000 0.045044 0.000000
# 6 0.000000 0.000000 0.000000 0.000000 0.000000 0.028993
#
#
# Mechanical properties :
#
#
# Convention : Reuss Voigt Hill
#
# Bulk Modulus (GPa) = 65.31528 66.19246 65.75387
# Shear Modulus (GPa) = 29.27274 32.07202 30.67238
#
# Velocity S-wave (km/s) = 3.65617 3.82700 3.74256
# Velocity P-wave (km/s) = 6.90291 7.05373 6.97873
#
# Compressibility (1/GPa) = 0.01531035
#
# Stress axis : x y z
#
# Youngs Moduli (GPa) = 90.67194 90.33251 53.00577
#
# Poissons Ratio (x) = 0.06206 0.29327
# Poissons Ratio (y) = 0.06229 0.35024
# Poissons Ratio (z) = 0.50167 0.59687
#
# Static dielectric constant tensor:
#      x y z
#    x 3.855430 0.000000 0.000000 
#    y 0.000000 4.480300 0.000000 
#    z 0.000000 0.000000 3.839740 
# 
# 
# High freq. dielectric constant tensor:
#      x y z
#    x 1.860100 0.000000 0.000000 
#    y 0.000000 1.874190 0.000000 
#    z 0.000000 0.000000 1.848270 
# 
# From -- ./inp_files/9004.got.cif
#   From: 2010.06.25/outbox.cif.g09.slc.cpg/sg52_5_cif.got.tgz:9004.got - 2010.06.26 19:32:48.
