data_PCOD8216015
_publ_section_title
;
Structure prediction by ZEFSAII (Michael W. Deem and Ramdas Pophale) SiO2 
 PCOD8216015
Probable space group: P N N A
;
_chemical_formula_sum "Si O2"
_cell_formula_units_Z 48
_cell_length_a 9.569692
_cell_length_b 16.598333
_cell_length_c 14.728393
_cell_angle_alpha 90.000000
_cell_angle_beta 90.000000
_cell_angle_gamma 90.000000
_cell_volume 2339.471708
_symmetry_space_group_name_H-M "P N N A"
_symmetry_group_IT_number 52
_symmetry_cell_setting 'orthorhombic'
loop_
_space_group_symop_operation_xyz
x,y,z
1/2-x,-y,z
x,1/2-y,1/2-z
1/2-x,1/2+y,1/2-z
-x,-y,-z
1/2+x,y,-z
-x,1/2+y,1/2+z
1/2+x,1/2-y,1/2+z
loop_
_atom_site_type_symbol
_atom_site_label
_atom_site_fract_x
_atom_site_fract_y
_atom_site_fract_z
Si Si1 0.993756 0.304967 0.499069
Si Si2 0.956492 0.690419 0.828369
Si Si3 0.758030 0.405697 0.932924
Si Si4 0.738316 0.094381 0.048640
Si Si5 0.065978 0.153936 0.591833
Si Si6 0.237655 0.845702 0.748036
O O1 0.000333 0.246034 0.413057
O O2 0.095525 0.381023 0.500398
O O3 0.031684 0.249918 0.586957
O O4 0.844693 0.347391 0.504496
O O5 0.905928 0.750000 0.750000
O O6 0.824750 0.632649 0.848058
O O7 0.087610 0.633343 0.798651
O O8 0.750000 0.500000 0.931132
O O9 0.922815 0.390345 0.930537
O O10 0.689421 0.368717 0.022599
O O11 0.749509 0.110329 0.156083
O O12 0.750000 0.000000 0.029067
O O13 0.127244 0.127986 0.689387
O O14 0.234929 0.750000 0.750000
#
# Coordination Sequence:
#
# PCOD8216015 Si02
#       6
#     8   8   8   8   8   8
#     4  11  20  42  64  90 121 169 219 249 307 392
#     4  10  20  41  69  85 122 170 216 257 318 377
#     4  11  24  39  62  97 130 164 207 266 326 374
#     4  12  25  40  64  96 132 167 207 268 326 378
#     4  11  22  40  68  92 126 170 215 260 311 391
#     4  11  21  43  67  94 121 164 219 262 314 382
#
# _framework density 20.517451999999999
#
# number of rings (size 3 to 8) (size 9 to 14) (size 15 to 20)
#    0.000    1.000    5.000    5.000    0.000    2.667 
#    3.000    0.833    0.000    0.000    0.000    0.000 
#    0.000    0.000    0.000    0.000    0.000    0.000 
#
# Total GULP energy -594934.837349 kJ/mol
# GULP energy per Si atom -12394.475778 kJ/mol
# Density = 2.047075 g / cm^3
# Si number density = 20.517452 Si / 1000 Ang^3
#
#
#
# Elastic Constant Matrix: (Units=GPa)
#
#
# Indices 1 2 3 4 5 6 
#
# 1 88.3666 3.0091 31.5724 0.0000 0.0000 0.0000
# 2 3.0091 93.8810 -2.4536 0.0000 0.0000 0.0000
# 3 31.5724 -2.4536 37.9597 0.0000 0.0000 0.0000
# 4 0.0000 0.0000 0.0000 -262.4542 0.0000 0.0000
# 5 0.0000 0.0000 0.0000 0.0000 34.7471 0.0000
# 6 0.0000 0.0000 0.0000 0.0000 0.0000 42.0890
#
#
#
# Elastic Compliance Matrix: (Units=1/GPa)
#
#
# Indices 1 2 3 4 5 6 
#
# 1 0.016172 -0.000871 -0.013507 0.000000 0.000000 0.000000
# 2 -0.000871 0.010717 0.001417 0.000000 0.000000 0.000000
# 3 -0.013507 0.001417 0.037670 0.000000 0.000000 0.000000
# 4 0.000000 0.000000 0.000000 -0.003810 0.000000 0.000000
# 5 0.000000 0.000000 0.000000 0.000000 0.028779 0.000000
# 6 0.000000 0.000000 0.000000 0.000000 0.000000 0.023759
#
#
# Mechanical properties :
#
#
# Convention : Reuss Voigt Hill
#
# Bulk Modulus (GPa) = 25.88238 31.60703 28.74470
# Shear Modulus (GPa) = 32.87565 -24.58500 4.14533
#
# Velocity S-wave (km/s) = 4.00725 -3.46533 1.42295
# Velocity P-wave (km/s) = 5.83549 0.75693 4.09145
#
# Compressibility (1/GPa) = 0.03863632
#
# Stress axis : x y z
#
# Youngs Moduli (GPa) = 61.83469 93.31180 26.54647
#
# Poissons Ratio (x) = 0.08131 0.35857
# Poissons Ratio (y) = 0.05388 -0.03763
# Poissons Ratio (z) = 0.83522 -0.13226
#
# Static dielectric constant tensor:
#      x y z
#    x 4.498740 0.000000 0.000000 
#    y 0.000000 3.732790 0.000000 
#    z 0.000000 0.000000 5.109060 
# 
# 
# High freq. dielectric constant tensor:
#      x y z
#    x 1.819430 0.000000 0.000000 
#    y 0.000000 1.796520 0.000000 
#    z 0.000000 0.000000 1.790900 
# 
# From -- ./inp_files/24722.got.cif
#   From: 2010.06.25/outbox.cif.g09.slc.cpg/sg52_13_cif.got.tgz:24722.got - 2010.06.26 19:32:48.
