data_PCOD8216659
_publ_section_title
;
Structure prediction by ZEFSAII (Michael W. Deem and Ramdas Pophale) SiO2 
 PCOD8216659
Probable space group: P N N A
;
_chemical_formula_sum "Si O2"
_cell_formula_units_Z 44
_cell_length_a 13.321947
_cell_length_b 15.699192
_cell_length_c 9.584908
_cell_angle_alpha 90.000000
_cell_angle_beta 90.000000
_cell_angle_gamma 90.000000
_cell_volume 2004.624118
_symmetry_space_group_name_H-M "P N N A"
_symmetry_group_IT_number 52
_symmetry_cell_setting 'orthorhombic'
loop_
_space_group_symop_operation_xyz
x,y,z
1/2-x,-y,z
x,1/2-y,1/2-z
1/2-x,1/2+y,1/2-z
-x,-y,-z
1/2+x,y,-z
-x,1/2+y,1/2+z
1/2+x,1/2-y,1/2+z
loop_
_atom_site_type_symbol
_atom_site_label
_atom_site_fract_x
_atom_site_fract_y
_atom_site_fract_z
Si Si1 0.578577 0.310267 0.489031
Si Si2 0.910270 0.214906 0.392702
Si Si3 0.211535 0.355265 0.978532
Si Si4 0.250000 0.000000 0.734785
Si Si5 0.914836 0.900347 0.725137
Si Si6 0.950588 0.976100 0.144913
O O1 0.461585 0.288762 0.515642
O O2 0.646094 0.229303 0.448402
O O3 0.620265 0.356342 0.629923
O O4 0.577199 0.375661 0.358009
O O5 0.859273 0.250000 0.250000
O O6 0.828024 0.170331 0.489531
O O7 0.001162 0.153924 0.352508
O O8 0.180795 0.402311 0.122524
O O9 0.202296 0.423381 0.854737
O O10 0.153999 0.971365 0.828368
O O11 0.964125 0.994658 0.743792
O O12 0.000000 0.000000 0.000000
#
# Coordination Sequence:
#
# PCOD8216659 Si02
#       6
#     8   8   8   4   8   8
#     4   9  21  39  69  96 129 173 228 282 324 394
#     4   9  18  36  63  92 123 172 213 271 335 396
#     4  11  22  38  67  99 133 175 222 271 335 417
#     4  12  26  40  70  96 130 188 224 270 352 416
#     4   9  19  43  65  92 136 174 215 278 344 388
#     4  10  22  43  67  96 130 174 227 283 335 398
#
# _framework density 21.949252999999999
#
# number of rings (size 3 to 8) (size 9 to 14) (size 15 to 20)
#    0.000    2.182    1.818    1.636    2.545    0.727 
#    0.000    7.273    0.000    0.000    0.000    0.000 
#    0.000    0.000    0.000    0.000    0.000    0.000 
#
# Total GULP energy -545144.222529 kJ/mol
# GULP energy per Si atom -12389.641421 kJ/mol
# Density = 2.189930 g / cm^3
# Si number density = 21.949253 Si / 1000 Ang^3
#
#
#
# Elastic Constant Matrix: (Units=GPa)
#
#
# Indices 1 2 3 4 5 6 
#
# 1 96.9209 27.0171 61.8786 0.0000 0.0000 0.0000
# 2 27.0171 108.2795 49.5829 0.0000 0.0000 0.0000
# 3 61.8786 49.5829 91.8343 0.0000 0.0000 0.0000
# 4 0.0000 0.0000 0.0000 41.9985 0.0000 0.0000
# 5 0.0000 0.0000 0.0000 0.0000 37.9467 0.0000
# 6 0.0000 0.0000 0.0000 0.0000 0.0000 31.8164
#
#
#
# Elastic Compliance Matrix: (Units=1/GPa)
#
#
# Indices 1 2 3 4 5 6 
#
# 1 0.018273 0.001433 -0.013086 0.000000 0.000000 0.000000
# 2 0.001433 0.012381 -0.007650 0.000000 0.000000 0.000000
# 3 -0.013086 -0.007650 0.023837 0.000000 0.000000 0.000000
# 4 0.000000 0.000000 0.000000 0.023810 0.000000 0.000000
# 5 0.000000 0.000000 0.000000 0.000000 0.026353 0.000000
# 6 0.000000 0.000000 0.000000 0.000000 0.000000 0.031430
#
#
# Mechanical properties :
#
#
# Convention : Reuss Voigt Hill
#
# Bulk Modulus (GPa) = 62.95501 63.77688 63.36594
# Shear Modulus (GPa) = 27.77981 32.92272 30.35126
#
# Velocity S-wave (km/s) = 3.56144 3.87712 3.72263
# Velocity P-wave (km/s) = 6.75693 7.01158 6.88544
#
# Compressibility (1/GPa) = 0.01588436
#
# Stress axis : x y z
#
# Youngs Moduli (GPa) = 54.72524 80.76889 41.95092
#
# Poissons Ratio (x) = -0.11575 0.54898
# Poissons Ratio (y) = -0.07842 0.32094
# Poissons Ratio (z) = 0.71615 0.61791
#
# Static dielectric constant tensor:
#      x y z
#    x 4.028750 0.000000 0.000000 
#    y 0.000000 4.490840 0.000000 
#    z 0.000000 0.000000 4.078950 
# 
# 
# High freq. dielectric constant tensor:
#      x y z
#    x 1.855680 0.000000 0.000000 
#    y 0.000000 1.864780 0.000000 
#    z 0.000000 0.000000 1.846680 
# 
# From -- ./inp_files/10334.got.cif
#   From: 2010.06.25/outbox.cif.g09.slc.cpg/sg52_6_cif.got.tgz:10334.got - 2010.06.26 19:32:48.
