data_PCOD8216643
_publ_section_title
;
Structure prediction by ZEFSAII (Michael W. Deem and Ramdas Pophale) SiO2 
 PCOD8216643
Probable space group: P N N A
;
_chemical_formula_sum "Si O2"
_cell_formula_units_Z 28
_cell_length_a 7.701373
_cell_length_b 13.458768
_cell_length_c 12.280935
_cell_angle_alpha 90.000000
_cell_angle_beta 90.000000
_cell_angle_gamma 90.000000
_cell_volume 1272.931101
_symmetry_space_group_name_H-M "P N N A"
_symmetry_group_IT_number 52
_symmetry_cell_setting 'orthorhombic'
loop_
_space_group_symop_operation_xyz
x,y,z
1/2-x,-y,z
x,1/2-y,1/2-z
1/2-x,1/2+y,1/2-z
-x,-y,-z
1/2+x,y,-z
-x,1/2+y,1/2+z
1/2+x,1/2-y,1/2+z
loop_
_atom_site_type_symbol
_atom_site_label
_atom_site_fract_x
_atom_site_fract_y
_atom_site_fract_z
Si Si1 0.395850 0.583530 0.731651
Si Si2 0.962981 0.759850 0.406080
Si Si3 0.154729 0.205999 0.360350
Si Si4 0.250000 0.000000 0.282248
O O1 0.250000 0.500000 0.729781
O O2 0.357806 0.663239 0.635907
O O3 0.390126 0.640079 0.848633
O O4 0.586392 0.535765 0.710065
O O5 0.962721 0.768489 0.536055
O O6 0.160376 0.740245 0.370598
O O7 0.065876 0.250000 0.250000
O O8 0.178261 0.087730 0.358675
#
# Coordination Sequence:
#
# PCOD8216643 Si02
#       4
#     8   8   8   4
#     4  10  22  44  68 102 135 176 233 270 341 412
#     4  10  23  44  65  99 140 171 222 289 329 400
#     4  11  23  44  66  96 138 174 223 283 336 394
#     4  10  22  42  70  94 136 174 220 286 330 392
#
# _framework density 21.996476000000001
#
# number of rings (size 3 to 8) (size 9 to 14) (size 15 to 20)
#    0.000    1.714    5.714    0.000    6.000    4.571 
#    2.571    2.857    0.000    0.000    0.000    0.000 
#    0.000    0.000    0.000    0.000    0.000    0.000 
#
# Total GULP energy -347136.512554 kJ/mol
# GULP energy per Si atom -12397.732591 kJ/mol
# Density = 2.194641 g / cm^3
# Si number density = 21.996476 Si / 1000 Ang^3
#
#
#
# Elastic Constant Matrix: (Units=GPa)
#
#
# Indices 1 2 3 4 5 6 
#
# 1 67.8369 54.8272 15.8732 0.0000 0.0000 0.0000
# 2 54.8272 131.0595 58.7189 0.0000 0.0000 0.0000
# 3 15.8732 58.7189 163.0443 0.0000 0.0000 0.0000
# 4 0.0000 0.0000 0.0000 17.9211 0.0000 0.0000
# 5 0.0000 0.0000 0.0000 0.0000 33.0371 0.0000
# 6 0.0000 0.0000 0.0000 0.0000 0.0000 35.1829
#
#
#
# Elastic Compliance Matrix: (Units=1/GPa)
#
#
# Indices 1 2 3 4 5 6 
#
# 1 0.022549 -0.010075 0.001433 0.000000 0.000000 0.000000
# 2 -0.010075 0.013600 -0.003917 0.000000 0.000000 0.000000
# 3 0.001433 -0.003917 0.007404 0.000000 0.000000 0.000000
# 4 0.000000 0.000000 0.000000 0.055800 0.000000 0.000000
# 5 0.000000 0.000000 0.000000 0.000000 0.030269 0.000000
# 6 0.000000 0.000000 0.000000 0.000000 0.000000 0.028423
#
#
# Mechanical properties :
#
#
# Convention : Reuss Voigt Hill
#
# Bulk Modulus (GPa) = 54.24384 68.97548 61.60966
# Shear Modulus (GPa) = 26.41198 32.72966 29.57082
#
# Velocity S-wave (km/s) = 3.46892 3.86158 3.67051
# Velocity P-wave (km/s) = 6.38423 7.16296 6.78478
#
# Compressibility (1/GPa) = 0.01843527
#
# Stress axis : x y z
#
# Youngs Moduli (GPa) = 44.34825 73.53009 135.05414
#
# Poissons Ratio (x) = 0.74083 -0.19356
# Poissons Ratio (y) = 0.44682 0.52901
# Poissons Ratio (z) = -0.06356 0.28802
#
# Static dielectric constant tensor:
#      x y z
#    x 3.805650 0.000000 0.000000 
#    y 0.000000 4.112680 0.000000 
#    z 0.000000 0.000000 4.068340 
# 
# 
# High freq. dielectric constant tensor:
#      x y z
#    x 1.855840 0.000000 0.000000 
#    y 0.000000 1.878680 0.000000 
#    z 0.000000 0.000000 1.843660 
# 
# From -- ./inp_files/16342.got.cif
#   From: 2010.06.25/outbox.cif.g09.slc.cpg/sg52_9_cif.got.tgz:16342.got - 2010.06.26 19:32:48.
