data_PCOD8216442
_publ_section_title
;
Structure prediction by ZEFSAII (Michael W. Deem and Ramdas Pophale) SiO2 
 PCOD8216442
Probable space group: P N N A
;
_chemical_formula_sum "Si O2"
_cell_formula_units_Z 32
_cell_length_a 10.701954
_cell_length_b 8.023507
_cell_length_c 16.467496
_cell_angle_alpha 90.000000
_cell_angle_beta 90.000000
_cell_angle_gamma 90.000000
_cell_volume 1414.017819
_symmetry_space_group_name_H-M "P N N A"
_symmetry_group_IT_number 52
_symmetry_cell_setting 'orthorhombic'
loop_
_space_group_symop_operation_xyz
x,y,z
1/2-x,-y,z
x,1/2-y,1/2-z
1/2-x,1/2+y,1/2-z
-x,-y,-z
1/2+x,y,-z
-x,1/2+y,1/2+z
1/2+x,1/2-y,1/2+z
loop_
_atom_site_type_symbol
_atom_site_label
_atom_site_fract_x
_atom_site_fract_y
_atom_site_fract_z
Si Si1 0.010214 0.823715 0.102315
Si Si2 0.265997 0.803155 0.337711
Si Si3 0.110171 0.493621 0.932941
Si Si4 0.508131 0.816739 0.086673
O O1 0.908644 0.676616 0.118777
O O2 0.134047 0.786935 0.152577
O O3 0.044291 0.834333 0.007607
O O4 0.960049 0.006704 0.130326
O O5 0.319781 0.750000 0.250000
O O6 0.361903 0.731837 0.404709
O O7 0.250000 0.000000 0.347417
O O8 0.250000 0.500000 0.970554
O O9 0.090019 0.660953 0.877988
O O10 0.000000 0.500000 0.000000
#
# Coordination Sequence:
#
# PCOD8216442 Si02
#       4
#     8   8   8   8
#     4  10  22  37  61  95 134 173 226 279 340 395
#     4  12  24  42  68 103 142 180 232 293 344 415
#     4  10  22  36  60  94 134 172 220 275 339 397
#     4  10  22  37  61  95 134 173 226 279 340 395
#
# _framework density 22.630548000000001
#
# number of rings (size 3 to 8) (size 9 to 14) (size 15 to 20)
#    0.000    1.500    2.500    2.250   14.000    1.000 
#    0.000    0.000    0.000    1.500    0.000    0.000 
#    0.000    0.000    0.000    0.000    0.000    0.000 
#
# Total GULP energy -396442.641315 kJ/mol
# GULP energy per Si atom -12388.832541 kJ/mol
# Density = 2.257904 g / cm^3
# Si number density = 22.630548 Si / 1000 Ang^3
#
#
#
# Elastic Constant Matrix: (Units=GPa)
#
#
# Indices 1 2 3 4 5 6 
#
# 1 138.1120 56.3371 11.5869 0.0000 0.0000 0.0000
# 2 56.3371 280.1743 3.6620 0.0000 0.0000 0.0000
# 3 11.5869 3.6620 36.5239 0.0000 0.0000 0.0000
# 4 0.0000 0.0000 0.0000 19.9478 0.0000 0.0000
# 5 0.0000 0.0000 0.0000 0.0000 17.4277 0.0000
# 6 0.0000 0.0000 0.0000 0.0000 0.0000 29.3115
#
#
#
# Elastic Compliance Matrix: (Units=1/GPa)
#
#
# Indices 1 2 3 4 5 6 
#
# 1 0.008093 -0.001596 -0.002408 0.000000 0.000000 0.000000
# 2 -0.001596 0.003889 0.000116 0.000000 0.000000 0.000000
# 3 -0.002408 0.000116 0.028131 0.000000 0.000000 0.000000
# 4 0.000000 0.000000 0.000000 0.050131 0.000000 0.000000
# 5 0.000000 0.000000 0.000000 0.000000 0.057380 0.000000
# 6 0.000000 0.000000 0.000000 0.000000 0.000000 0.034116
#
#
# Mechanical properties :
#
#
# Convention : Reuss Voigt Hill
#
# Bulk Modulus (GPa) = 30.92213 66.44246 48.68230
# Shear Modulus (GPa) = 24.96324 38.88569 31.92446
#
# Velocity S-wave (km/s) = 3.32486 4.14971 3.75998
# Velocity P-wave (km/s) = 5.33228 7.23765 6.35676
#
# Compressibility (1/GPa) = 0.03233930
#
# Stress axis : x y z
#
# Youngs Moduli (GPa) = 123.55611 257.16210 35.54742
#
# Poissons Ratio (x) = 0.41042 0.08558
# Poissons Ratio (y) = 0.19719 -0.00414
# Poissons Ratio (z) = 0.29747 -0.02994
#
# Static dielectric constant tensor:
#      x y z
#    x 3.855900 0.000000 0.000000 
#    y 0.000000 6.257210 0.000000 
#    z 0.000000 0.000000 3.464520 
# 
# 
# High freq. dielectric constant tensor:
#      x y z
#    x 1.867550 0.000000 0.000000 
#    y 0.000000 1.944570 0.000000 
#    z 0.000000 0.000000 1.823690 
# 
# From -- ./inp_files/35425.got.cif
#   From: 2010.06.25/outbox.cif.g09.slc.cpg/sg52_18_cif.got.tgz:35425.got - 2010.06.26 19:32:48.
