data_PCOD8216917
_publ_section_title
;
Structure prediction by ZEFSAII (Michael W. Deem and Ramdas Pophale) SiO2 
 PCOD8216917
Probable space group: P N N A
;
_chemical_formula_sum "Si O2"
_cell_formula_units_Z 56
_cell_length_a 11.071184
_cell_length_b 15.507929
_cell_length_c 14.812476
_cell_angle_alpha 90.000000
_cell_angle_beta 90.000000
_cell_angle_gamma 90.000000
_cell_volume 2543.170823
_symmetry_space_group_name_H-M "P N N A"
_symmetry_group_IT_number 52
_symmetry_cell_setting 'orthorhombic'
loop_
_space_group_symop_operation_xyz
x,y,z
1/2-x,-y,z
x,1/2-y,1/2-z
1/2-x,1/2+y,1/2-z
-x,-y,-z
1/2+x,y,-z
-x,1/2+y,1/2+z
1/2+x,1/2-y,1/2+z
loop_
_atom_site_type_symbol
_atom_site_label
_atom_site_fract_x
_atom_site_fract_y
_atom_site_fract_z
Si Si1 0.341390 0.426315 0.478092
Si Si2 0.224650 0.750000 0.750000
Si Si3 0.250000 0.000000 0.505508
Si Si4 0.882967 0.123689 0.628117
Si Si5 0.392372 0.010648 0.205234
Si Si6 0.474515 0.147825 0.852544
Si Si7 0.858311 0.837868 0.408527
Si Si8 0.201487 0.261986 0.416868
O O1 0.250000 0.500000 0.515405
O O2 0.424912 0.461282 0.396733
O O3 0.432423 0.394381 0.553738
O O4 0.263010 0.353948 0.427524
O O5 0.143659 0.813713 0.808168
O O6 0.308323 0.809476 0.688087
O O7 0.157158 0.950050 0.441204
O O8 0.323275 0.936536 0.570961
O O9 0.931434 0.080747 0.720729
O O10 0.777774 0.194732 0.644951
O O11 0.997551 0.173219 0.587113
O O12 0.250000 0.000000 0.219031
O O13 0.465348 0.920950 0.216754
O O14 0.570186 0.224568 0.872122
O O15 0.802812 0.776195 0.483355
#
# Coordination Sequence:
#
# PCOD8216917 Si02
#       8
#     8   4   4   8   8   8   8   8
#     4  11  23  45  70 102 139 184 235 288 362 433
#     4  12  30  46  68 112 144 194 240 300 370 428
#     4  10  24  46  76 106 136 188 242 290 374 424
#     4  11  25  45  75 103 141 183 241 301 350 431
#     4  11  24  43  67 108 133 177 243 289 352 425
#     4  12  26  45  73  99 151 187 234 303 357 434
#     4  11  26  47  69 105 145 186 240 294 363 435
#     4  11  24  45  73 102 139 189 239 293 364 423
#
# _framework density 22.019755
#
# number of rings (size 3 to 8) (size 9 to 14) (size 15 to 20)
#    0.000    0.857    5.000    1.714    6.000    4.000 
#    0.000    0.000    0.000    0.000    0.000    0.000 
#    0.000    0.000    0.000    0.000    0.000    0.000 
#
# Total GULP energy -694566.308407 kJ/mol
# GULP energy per Si atom -12402.969793 kJ/mol
# Density = 2.196964 g / cm^3
# Si number density = 22.019755 Si / 1000 Ang^3
#
#
#
# Elastic Constant Matrix: (Units=GPa)
#
#
# Indices 1 2 3 4 5 6 
#
# 1 113.5479 47.2587 36.4251 0.0000 0.0000 0.0000
# 2 47.2587 117.8752 37.0632 0.0000 0.0000 0.0000
# 3 36.4251 37.0632 80.9093 0.0000 0.0000 0.0000
# 4 0.0000 0.0000 0.0000 32.9451 0.0000 0.0000
# 5 0.0000 0.0000 0.0000 0.0000 22.6089 0.0000
# 6 0.0000 0.0000 0.0000 0.0000 0.0000 37.3715
#
#
#
# Elastic Compliance Matrix: (Units=1/GPa)
#
#
# Indices 1 2 3 4 5 6 
#
# 1 0.011378 -0.003448 -0.003543 0.000000 0.000000 0.000000
# 2 -0.003448 0.010956 -0.003466 0.000000 0.000000 0.000000
# 3 -0.003543 -0.003466 0.015543 0.000000 0.000000 0.000000
# 4 0.000000 0.000000 0.000000 0.030354 0.000000 0.000000
# 5 0.000000 0.000000 0.000000 0.000000 0.044230 0.000000
# 6 0.000000 0.000000 0.000000 0.000000 0.000000 0.026758
#
#
# Mechanical properties :
#
#
# Convention : Reuss Voigt Hill
#
# Bulk Modulus (GPa) = 58.95552 61.53627 60.24590
# Shear Modulus (GPa) = 30.15899 31.35744 30.75821
#
# Velocity S-wave (km/s) = 3.70487 3.77777 3.74150
# Velocity P-wave (km/s) = 6.71814 6.85823 6.78855
#
# Compressibility (1/GPa) = 0.01696194
#
# Stress axis : x y z
#
# Youngs Moduli (GPa) = 87.88547 91.27578 64.33939
#
# Poissons Ratio (x) = 0.31470 0.22796
# Poissons Ratio (y) = 0.30301 0.22303
# Poissons Ratio (z) = 0.31139 0.31641
#
# Static dielectric constant tensor:
#      x y z
#    x 3.877250 0.000000 0.000000 
#    y 0.000000 4.143960 0.000000 
#    z 0.000000 0.000000 3.989680 
# 
# 
# High freq. dielectric constant tensor:
#      x y z
#    x 1.867510 0.000000 0.000000 
#    y 0.000000 1.879360 0.000000 
#    z 0.000000 0.000000 1.863660 
# 
# From -- ./inp_files/26186.got.cif
#   From: 2010.06.25/outbox.cif.g09.slc.cpg/sg52_14_cif.got.tgz:26186.got - 2010.06.26 19:32:48.
