data_PCOD8216182
_publ_section_title
;
Structure prediction by ZEFSAII (Michael W. Deem and Ramdas Pophale) SiO2 
 PCOD8216182
Probable space group: P N N A
;
_chemical_formula_sum "Si O2"
_cell_formula_units_Z 48
_cell_length_a 16.484193
_cell_length_b 15.919332
_cell_length_c 8.532458
_cell_angle_alpha 90.000000
_cell_angle_beta 90.000000
_cell_angle_gamma 90.000000
_cell_volume 2239.064942
_symmetry_space_group_name_H-M "P N N A"
_symmetry_group_IT_number 52
_symmetry_cell_setting 'orthorhombic'
loop_
_space_group_symop_operation_xyz
x,y,z
1/2-x,-y,z
x,1/2-y,1/2-z
1/2-x,1/2+y,1/2-z
-x,-y,-z
1/2+x,y,-z
-x,1/2+y,1/2+z
1/2+x,1/2-y,1/2+z
loop_
_atom_site_type_symbol
_atom_site_label
_atom_site_fract_x
_atom_site_fract_y
_atom_site_fract_z
Si Si1 0.951537 0.746286 0.066826
Si Si2 0.820230 0.159749 0.331557
Si Si3 0.988901 0.416362 0.102312
Si Si4 0.225524 0.251602 0.069695
Si Si5 0.956629 0.583045 0.558639
Si Si6 0.221035 0.088430 0.933029
O O1 0.966389 0.750000 0.250000
O O2 0.856323 0.740809 0.030521
O O3 0.997098 0.826909 0.986387
O O4 0.993210 0.662848 0.004523
O O5 0.838041 0.250000 0.250000
O O6 0.897273 0.097255 0.333893
O O7 0.788071 0.177178 0.509475
O O8 0.748376 0.107593 0.245443
O O9 0.049680 0.421363 0.252123
O O10 0.000000 0.500000 0.000000
O O11 0.203986 0.250000 0.250000
O O12 0.264321 0.160046 0.037147
O O13 0.874603 0.589358 0.459260
O O14 0.000000 0.500000 0.500000
O O15 0.250000 0.000000 0.996652
#
# Coordination Sequence:
#
# PCOD8216182 Si02
#       6
#     8   8   8   8   8   8
#     4  11  22  41  65  91 130 176 218 268 327 385
#     4  10  22  42  65  90 124 169 216 265 324 385
#     4  12  26  42  63  96 133 171 217 268 324 388
#     4  10  21  39  64  92 124 165 215 267 322 381
#     4  11  22  40  65  94 128 167 213 264 322 389
#     4  10  21  38  62  91 123 162 208 260 318 378
#
# _framework density 21.437519999999999
#
# number of rings (size 3 to 8) (size 9 to 14) (size 15 to 20)
#    0.000    1.333    0.000    8.000    0.000    6.000 
#    0.000    0.833    0.000    0.000    0.000    0.000 
#    0.000    0.000    0.000    0.000    0.000    0.000 
#
# Total GULP energy -594780.409340 kJ/mol
# GULP energy per Si atom -12391.258528 kJ/mol
# Density = 2.138873 g / cm^3
# Si number density = 21.437520 Si / 1000 Ang^3
#
#
#
# Elastic Constant Matrix: (Units=GPa)
#
#
# Indices 1 2 3 4 5 6 
#
# 1 91.4526 43.3891 39.6765 0.0000 0.0000 0.0000
# 2 43.3891 167.5507 63.7646 0.0000 0.0000 0.0000
# 3 39.6765 63.7646 152.2186 0.0000 0.0000 0.0000
# 4 0.0000 0.0000 0.0000 33.0624 0.0000 0.0000
# 5 0.0000 0.0000 0.0000 0.0000 33.0861 0.0000
# 6 0.0000 0.0000 0.0000 0.0000 0.0000 31.9893
#
#
#
# Elastic Compliance Matrix: (Units=1/GPa)
#
#
# Indices 1 2 3 4 5 6 
#
# 1 0.013154 -0.002500 -0.002381 0.000000 0.000000 0.000000
# 2 -0.002500 0.007575 -0.002522 0.000000 0.000000 0.000000
# 3 -0.002381 -0.002522 0.008247 0.000000 0.000000 0.000000
# 4 0.000000 0.000000 0.000000 0.030246 0.000000 0.000000
# 5 0.000000 0.000000 0.000000 0.000000 0.030224 0.000000
# 6 0.000000 0.000000 0.000000 0.000000 0.000000 0.031260
#
#
# Mechanical properties :
#
#
# Convention : Reuss Voigt Hill
#
# Bulk Modulus (GPa) = 70.57336 78.32024 74.44680
# Shear Modulus (GPa) = 35.65421 37.25367 36.45394
#
# Velocity S-wave (km/s) = 4.08262 4.17319 4.12815
# Velocity P-wave (km/s) = 7.43073 7.73526 7.58452
#
# Compressibility (1/GPa) = 0.01416965
#
# Stress axis : x y z
#
# Youngs Moduli (GPa) = 76.02297 132.00533 121.26278
#
# Poissons Ratio (x) = 0.33002 0.28877
# Poissons Ratio (y) = 0.19006 0.30579
# Poissons Ratio (z) = 0.18104 0.33288
#
# Static dielectric constant tensor:
#      x y z
#    x 3.941560 0.000000 0.000000 
#    y 0.000000 4.094030 0.000000 
#    z 0.000000 0.000000 3.970430 
# 
# 
# High freq. dielectric constant tensor:
#      x y z
#    x 1.823270 0.000000 0.000000 
#    y 0.000000 1.862960 0.000000 
#    z 0.000000 0.000000 1.841220 
# 
# From -- ./inp_files/10446.got.cif
#   From: 2010.06.25/outbox.cif.g09.slc.cpg/sg52_6_cif.got.tgz:10446.got - 2010.06.26 19:32:48.
