data_PCOD8216226
_publ_section_title
;
Structure prediction by ZEFSAII (Michael W. Deem and Ramdas Pophale) SiO2 
 PCOD8216226
Probable space group: P N N A
;
_chemical_formula_sum "Si O2"
_cell_formula_units_Z 56
_cell_length_a 21.818121
_cell_length_b 8.741972
_cell_length_c 15.163059
_cell_angle_alpha 90.000000
_cell_angle_beta 90.000000
_cell_angle_gamma 90.000000
_cell_volume 2892.101841
_symmetry_space_group_name_H-M "P N N A"
_symmetry_group_IT_number 52
_symmetry_cell_setting 'orthorhombic'
loop_
_space_group_symop_operation_xyz
x,y,z
1/2-x,-y,z
x,1/2-y,1/2-z
1/2-x,1/2+y,1/2-z
-x,-y,-z
1/2+x,y,-z
-x,1/2+y,1/2+z
1/2+x,1/2-y,1/2+z
loop_
_atom_site_type_symbol
_atom_site_label
_atom_site_fract_x
_atom_site_fract_y
_atom_site_fract_z
Si Si1 0.095672 0.242167 0.079065
Si Si2 0.888407 0.007314 0.061562
Si Si3 0.815460 0.731397 0.347555
Si Si4 0.208729 0.746293 0.512799
Si Si5 0.725690 0.172970 0.842297
Si Si6 0.381386 0.507603 0.939160
Si Si7 0.534844 0.737933 0.148601
O O1 0.153505 0.190631 0.137672
O O2 0.038460 0.261833 0.144115
O O3 0.102441 0.404454 0.029354
O O4 0.082288 0.112947 0.006145
O O5 0.941949 0.112647 0.098085
O O6 0.856817 0.920503 0.143808
O O7 0.837468 0.104446 0.009800
O O8 0.787853 0.750000 0.250000
O O9 0.761219 0.714360 0.416610
O O10 0.858756 0.876119 0.364896
O O11 0.238348 0.766599 0.417130
O O12 0.175460 0.900542 0.538680
O O13 0.741958 0.250000 0.750000
O O14 0.750000 0.000000 0.841446
O O15 0.438417 0.413420 0.898965
O O16 0.555966 0.750000 0.250000
#
# Coordination Sequence:
#
# PCOD8216226 Si02
#       7
#     8   8   8   8   8   8   8
#     4  11  22  42  64  87 118 168 208 250 310 370
#     4  10  21  39  63  81 122 164 202 245 313 364
#     4  11  21  34  59  93 126 162 205 247 303 368
#     4  11  21  40  59  88 125 163 200 250 304 374
#     4  12  25  41  66  93 126 162 205 258 314 366
#     4  10  23  37  63  86 123 164 207 247 315 360
#     4  11  23  40  60  90 121 157 212 261 304 366
#
# _framework density 19.363081000000001
#
# number of rings (size 3 to 8) (size 9 to 14) (size 15 to 20)
#    0.000    1.143    4.286    3.000    2.000    4.571 
#    0.000    0.000    0.000    0.857    0.000    0.000 
#    0.000    0.000    0.000    0.000    0.000    0.000 
#
# Total GULP energy -694487.111833 kJ/mol
# GULP energy per Si atom -12401.555568 kJ/mol
# Density = 1.931901 g / cm^3
# Si number density = 19.363081 Si / 1000 Ang^3
#
#
#
# Elastic Constant Matrix: (Units=GPa)
#
#
# Indices 1 2 3 4 5 6 
#
# 1 104.1343 29.7705 26.1633 0.0000 0.0000 0.0000
# 2 29.7705 85.9351 10.2272 0.0000 0.0000 0.0000
# 3 26.1633 10.2272 107.8337 0.0000 0.0000 0.0000
# 4 0.0000 0.0000 0.0000 20.0743 0.0000 0.0000
# 5 0.0000 0.0000 0.0000 0.0000 -9.0091 0.0000
# 6 0.0000 0.0000 0.0000 0.0000 0.0000 8.3034
#
#
#
# Elastic Compliance Matrix: (Units=1/GPa)
#
#
# Indices 1 2 3 4 5 6 
#
# 1 0.011233 -0.003608 -0.002383 0.000000 0.000000 0.000000
# 2 -0.003608 0.012928 -0.000351 0.000000 0.000000 0.000000
# 3 -0.002383 -0.000351 0.009885 0.000000 0.000000 0.000000
# 4 0.000000 0.000000 0.000000 0.049815 0.000000 0.000000
# 5 0.000000 0.000000 0.000000 0.000000 -0.110999 0.000000
# 6 0.000000 0.000000 0.000000 0.000000 0.000000 0.120433
#
#
# Mechanical properties :
#
#
# Convention : Reuss Voigt Hill
#
# Bulk Modulus (GPa) = 46.81064 47.80279 47.30671
# Shear Modulus (GPa) = 44.20851 19.32318 31.76585
#
# Velocity S-wave (km/s) = 4.78340 3.16244 4.05475
# Velocity P-wave (km/s) = 7.39835 6.17057 6.81218
#
# Compressibility (1/GPa) = 0.02136266
#
# Stress axis : x y z
#
# Youngs Moduli (GPa) = 89.02168 77.34959 101.16278
#
# Poissons Ratio (x) = 0.27907 0.24110
# Poissons Ratio (y) = 0.32118 0.03549
# Poissons Ratio (z) = 0.21217 0.02713
#
# Static dielectric constant tensor:
#      x y z
#    x 3.484130 0.000000 0.000000 
#    y 0.000000 3.897890 0.000000 
#    z 0.000000 0.000000 3.480990 
# 
# 
# High freq. dielectric constant tensor:
#      x y z
#    x 1.753270 0.000000 0.000000 
#    y 0.000000 1.768140 0.000000 
#    z 0.000000 0.000000 1.750990 
# 
# From -- ./inp_files/28784.got.cif
#   From: 2010.06.25/outbox.cif.g09.slc.cpg/sg52_15_cif.got.tgz:28784.got - 2010.06.26 19:32:48.
