data_PCOD8216338
_publ_section_title
;
Structure prediction by ZEFSAII (Michael W. Deem and Ramdas Pophale) SiO2 
 PCOD8216338
Probable space group: P N N A
;
_chemical_formula_sum "Si O2"
_cell_formula_units_Z 48
_cell_length_a 14.934120
_cell_length_b 7.913387
_cell_length_c 18.565778
_cell_angle_alpha 90.000000
_cell_angle_beta 90.000000
_cell_angle_gamma 90.000000
_cell_volume 2194.093824
_symmetry_space_group_name_H-M "P N N A"
_symmetry_group_IT_number 52
_symmetry_cell_setting 'orthorhombic'
loop_
_space_group_symop_operation_xyz
x,y,z
1/2-x,-y,z
x,1/2-y,1/2-z
1/2-x,1/2+y,1/2-z
-x,-y,-z
1/2+x,y,-z
-x,1/2+y,1/2+z
1/2+x,1/2-y,1/2+z
loop_
_atom_site_type_symbol
_atom_site_label
_atom_site_fract_x
_atom_site_fract_y
_atom_site_fract_z
Si Si1 0.615994 0.163170 0.966001
Si Si2 0.001640 0.882413 0.190876
Si Si3 0.666530 0.881296 0.186108
Si Si4 0.663281 0.389809 0.691724
Si Si5 0.058839 0.784319 0.037587
Si Si6 0.218009 0.683047 0.955368
O O1 0.632411 0.200314 0.881923
O O2 0.597036 0.968099 0.982299
O O3 0.528273 0.266617 0.990923
O O4 0.700983 0.210789 0.012699
O O5 0.968638 0.750000 0.250000
O O6 0.034456 0.776074 0.121676
O O7 0.083858 0.992372 0.221834
O O8 0.919771 0.003340 0.171060
O O9 0.647415 0.750000 0.250000
O O10 0.681318 0.777565 0.113961
O O11 0.750000 0.000000 0.206493
O O12 0.750000 0.500000 0.674293
O O13 0.688383 0.250000 0.750000
O O14 0.139471 0.658421 0.015400
O O15 0.250000 0.500000 0.930735
#
# Coordination Sequence:
#
# PCOD8216338 Si02
#       6
#     8   8   8   8   8   8
#     4  10  21  41  65  88 119 166 213 257 315 374
#     4  11  24  42  67  94 125 167 213 265 322 382
#     4  12  25  44  67  93 129 169 212 261 320 385
#     4  11  23  39  62  91 128 169 211 261 318 381
#     4  10  21  41  66  90 122 166 211 259 318 374
#     4  12  25  40  64  98 131 166 213 265 313 375
#
# _framework density 21.876913999999999
#
# number of rings (size 3 to 8) (size 9 to 14) (size 15 to 20)
#    0.000    1.000    0.000    9.500    0.000    4.000 
#    0.000    0.000    0.000    0.000    0.000    0.000 
#    0.000    0.000    0.000    0.000    0.000    0.000 
#
# Total GULP energy -595453.521302 kJ/mol
# GULP energy per Si atom -12405.281694 kJ/mol
# Density = 2.182712 g / cm^3
# Si number density = 21.876914 Si / 1000 Ang^3
#
#
#
# Elastic Constant Matrix: (Units=GPa)
#
#
# Indices 1 2 3 4 5 6 
#
# 1 156.7124 39.3626 57.0657 0.0000 0.0000 0.0000
# 2 39.3626 71.4036 61.2959 0.0000 0.0000 0.0000
# 3 57.0657 61.2959 148.8234 0.0000 0.0000 0.0000
# 4 0.0000 0.0000 0.0000 27.9117 0.0000 0.0000
# 5 0.0000 0.0000 0.0000 0.0000 32.0713 0.0000
# 6 0.0000 0.0000 0.0000 0.0000 0.0000 28.9397
#
#
#
# Elastic Compliance Matrix: (Units=1/GPa)
#
#
# Indices 1 2 3 4 5 6 
#
# 1 0.007729 -0.002656 -0.001870 0.000000 0.000000 0.000000
# 2 -0.002656 0.022577 -0.008281 0.000000 0.000000 0.000000
# 3 -0.001870 -0.008281 0.010847 0.000000 0.000000 0.000000
# 4 0.000000 0.000000 0.000000 0.035827 0.000000 0.000000
# 5 0.000000 0.000000 0.000000 0.000000 0.031181 0.000000
# 6 0.000000 0.000000 0.000000 0.000000 0.000000 0.034555
#
#
# Mechanical properties :
#
#
# Convention : Reuss Voigt Hill
#
# Bulk Modulus (GPa) = 64.34587 76.93199 70.63893
# Shear Modulus (GPa) = 28.81704 32.39887 30.60796
#
# Velocity S-wave (km/s) = 3.63331 3.85250 3.74451
# Velocity P-wave (km/s) = 6.86133 7.41830 7.14524
#
# Compressibility (1/GPa) = 0.01554101
#
# Stress axis : x y z
#
# Youngs Moduli (GPa) = 129.38197 44.29225 92.19192
#
# Poissons Ratio (x) = 0.11762 0.17239
# Poissons Ratio (y) = 0.34358 0.76341
# Poissons Ratio (z) = 0.24193 0.36677
#
# Static dielectric constant tensor:
#      x y z
#    x 4.326600 0.000000 0.000000 
#    y 0.000000 3.768000 0.000000 
#    z 0.000000 0.000000 3.978340 
# 
# 
# High freq. dielectric constant tensor:
#      x y z
#    x 1.886000 0.000000 0.000000 
#    y 0.000000 1.840210 0.000000 
#    z 0.000000 0.000000 1.866550 
# 
# From -- ./inp_files/33059.got.cif
#   From: 2010.06.25/outbox.cif.g09.slc.cpg/sg52_17_cif.got.tgz:33059.got - 2010.06.26 19:32:48.
