data_PCOD8216000
_publ_section_title
;
Structure prediction by ZEFSAII (Michael W. Deem and Ramdas Pophale) SiO2 
 PCOD8216000
Probable space group: P N N A
;
_chemical_formula_sum "Si O2"
_cell_formula_units_Z 40
_cell_length_a 8.968255
_cell_length_b 11.093194
_cell_length_c 17.301752
_cell_angle_alpha 90.000000
_cell_angle_beta 90.000000
_cell_angle_gamma 90.000000
_cell_volume 1721.292352
_symmetry_space_group_name_H-M "P N N A"
_symmetry_group_IT_number 52
_symmetry_cell_setting 'orthorhombic'
loop_
_space_group_symop_operation_xyz
x,y,z
1/2-x,-y,z
x,1/2-y,1/2-z
1/2-x,1/2+y,1/2-z
-x,-y,-z
1/2+x,y,-z
-x,1/2+y,1/2+z
1/2+x,1/2-y,1/2+z
loop_
_atom_site_type_symbol
_atom_site_label
_atom_site_fract_x
_atom_site_fract_y
_atom_site_fract_z
Si Si1 0.554456 0.895484 0.055268
Si Si2 0.939823 0.147780 0.654503
Si Si3 0.201930 0.250000 0.250000
Si Si4 0.842479 0.758248 0.466251
Si Si5 0.579939 0.017273 0.793896
Si Si6 0.750000 0.000000 0.544690
O O1 0.723323 0.849416 0.045068
O O2 0.537170 0.953938 0.139392
O O3 0.451415 0.780106 0.036247
O O4 0.500000 0.000000 0.000000
O O5 0.806119 0.243275 0.672083
O O6 0.071926 0.224335 0.615654
O O7 0.980599 0.090083 0.738636
O O8 0.889002 0.038763 0.598349
O O9 0.092452 0.137456 0.256835
O O10 0.778420 0.887299 0.489037
O O11 0.750000 0.000000 0.825413
#
# Coordination Sequence:
#
# PCOD8216000 Si02
#       6
#     8   8   4   8   8   4
#     4  12  27  47  72 108 148 199 247 311 381 456
#     4  11  23  42  72 108 141 191 249 308 375 457
#     4  10  20  40  72  98 138 188 236 292 376 450
#     4  12  27  44  78 105 152 190 256 315 377 460
#     4  10  22  40  72 101 140 188 245 301 371 454
#     4  12  22  48  74 110 138 190 254 308 382 438
#
# _framework density 23.238353
#
# number of rings (size 3 to 8) (size 9 to 14) (size 15 to 20)
#    0.000    0.800    5.000    3.600    5.600    0.000 
#    0.000    3.000    0.000    0.000    0.000    0.000 
#    0.000    0.000    0.000    0.000    0.000    0.000 
#
# Total GULP energy -495630.638087 kJ/mol
# GULP energy per Si atom -12390.765952 kJ/mol
# Density = 2.318546 g / cm^3
# Si number density = 23.238353 Si / 1000 Ang^3
#
#
#
# Elastic Constant Matrix: (Units=GPa)
#
#
# Indices 1 2 3 4 5 6 
#
# 1 92.2813 20.9220 46.4414 0.0000 0.0000 0.0000
# 2 20.9220 95.4824 29.9247 0.0000 0.0000 0.0000
# 3 46.4414 29.9247 123.7185 0.0000 0.0000 0.0000
# 4 0.0000 0.0000 0.0000 43.3137 0.0000 0.0000
# 5 0.0000 0.0000 0.0000 0.0000 39.7605 0.0000
# 6 0.0000 0.0000 0.0000 0.0000 0.0000 37.0757
#
#
#
# Elastic Compliance Matrix: (Units=1/GPa)
#
#
# Indices 1 2 3 4 5 6 
#
# 1 0.013553 -0.001488 -0.004728 0.000000 0.000000 0.000000
# 2 -0.001488 0.011496 -0.002222 0.000000 0.000000 0.000000
# 3 -0.004728 -0.002222 0.010395 0.000000 0.000000 0.000000
# 4 0.000000 0.000000 0.000000 0.023087 0.000000 0.000000
# 5 0.000000 0.000000 0.000000 0.000000 0.025151 0.000000
# 6 0.000000 0.000000 0.000000 0.000000 0.000000 0.026972
#
#
# Mechanical properties :
#
#
# Convention : Reuss Voigt Hill
#
# Bulk Modulus (GPa) = 53.85511 56.22872 55.04191
# Shear Modulus (GPa) = 37.39214 38.30959 37.85087
#
# Velocity S-wave (km/s) = 4.01567 4.06464 4.04023
# Velocity P-wave (km/s) = 6.68777 6.80275 6.74551
#
# Compressibility (1/GPa) = 0.01856834
#
# Stress axis : x y z
#
# Youngs Moduli (GPa) = 73.78438 86.99008 96.20063
#
# Poissons Ratio (x) = 0.12945 0.45480
# Poissons Ratio (y) = 0.10980 0.21375
# Poissons Ratio (z) = 0.34882 0.19329
#
# Static dielectric constant tensor:
#      x y z
#    x 3.978650 0.000000 0.000000 
#    y 0.000000 4.620480 0.000000 
#    z 0.000000 0.000000 3.860590 
# 
# 
# High freq. dielectric constant tensor:
#      x y z
#    x 1.882100 0.000000 0.000000 
#    y 0.000000 1.951380 0.000000 
#    z 0.000000 0.000000 1.912440 
# 
# From -- ./inp_files/30906.got.cif
#   From: 2010.06.25/outbox.cif.g09.slc.cpg/sg52_16_cif.got.tgz:30906.got - 2010.06.26 19:32:48.
