data_PCOD8216405
_publ_section_title
;
Structure prediction by ZEFSAII (Michael W. Deem and Ramdas Pophale) SiO2 
 PCOD8216405
Probable space group: P N N A
;
_chemical_formula_sum "Si O2"
_cell_formula_units_Z 40
_cell_length_a 11.256624
_cell_length_b 9.175635
_cell_length_c 16.118759
_cell_angle_alpha 90.000000
_cell_angle_beta 90.000000
_cell_angle_gamma 90.000000
_cell_volume 1664.852993
_symmetry_space_group_name_H-M "P N N A"
_symmetry_group_IT_number 52
_symmetry_cell_setting 'orthorhombic'
loop_
_space_group_symop_operation_xyz
x,y,z
1/2-x,-y,z
x,1/2-y,1/2-z
1/2-x,1/2+y,1/2-z
-x,-y,-z
1/2+x,y,-z
-x,1/2+y,1/2+z
1/2+x,1/2-y,1/2+z
loop_
_atom_site_type_symbol
_atom_site_label
_atom_site_fract_x
_atom_site_fract_y
_atom_site_fract_z
Si Si1 0.958751 0.089385 0.246659
Si Si2 0.722616 0.655375 0.126432
Si Si3 0.629325 0.080594 0.092309
Si Si4 0.114334 0.988122 0.388612
Si Si5 0.516009 0.774970 0.487873
O O1 0.020236 0.250000 0.250000
O O2 0.824418 0.109072 0.282415
O O3 0.036386 0.987261 0.305386
O O4 0.947084 0.015184 0.156837
O O5 0.750000 0.500000 0.079342
O O6 0.836451 0.760183 0.131637
O O7 0.616240 0.747244 0.082670
O O8 0.545767 0.121187 0.012960
O O9 0.750000 0.000000 0.062846
O O10 0.084722 0.117728 0.452964
O O11 0.250000 0.000000 0.361929
O O12 0.084568 0.835869 0.432013
#
# Coordination Sequence:
#
# PCOD8216405 Si02
#       5
#     8   8   8   8   8
#     4  11  24  42  61  98 138 177 228 282 329 416
#     4  11  23  41  71  99 136 173 227 288 351 403
#     4  12  24  41  69  98 138 179 224 281 350 400
#     4  10  21  43  70  91 133 179 231 275 347 411
#     4  10  22  40  68 102 127 173 233 282 332 422
#
# _framework density 24.026146000000001
#
# number of rings (size 3 to 8) (size 9 to 14) (size 15 to 20)
#    0.000    1.200    2.000    6.000    0.000    4.800 
#    3.600    0.000    0.000    0.000    0.000    0.000 
#    0.000    0.000    0.000    0.000    0.000    0.000 
#
# Total GULP energy -495796.992463 kJ/mol
# GULP energy per Si atom -12394.924812 kJ/mol
# Density = 2.397146 g / cm^3
# Si number density = 24.026146 Si / 1000 Ang^3
#
#
#
# Elastic Constant Matrix: (Units=GPa)
#
#
# Indices 1 2 3 4 5 6 
#
# 1 57.7112 30.2685 1.1109 0.0000 0.0000 0.0000
# 2 30.2685 120.1191 32.6549 0.0000 0.0000 0.0000
# 3 1.1109 32.6549 62.2061 0.0000 0.0000 0.0000
# 4 0.0000 0.0000 0.0000 19.0598 0.0000 0.0000
# 5 0.0000 0.0000 0.0000 0.0000 16.1926 0.0000
# 6 0.0000 0.0000 0.0000 0.0000 0.0000 41.5181
#
#
#
# Elastic Compliance Matrix: (Units=1/GPa)
#
#
# Indices 1 2 3 4 5 6 
#
# 1 0.020353 -0.005867 0.002716 0.000000 0.000000 0.000000
# 2 -0.005867 0.011402 -0.005881 0.000000 0.000000 0.000000
# 3 0.002716 -0.005881 0.019114 0.000000 0.000000 0.000000
# 4 0.000000 0.000000 0.000000 0.052467 0.000000 0.000000
# 5 0.000000 0.000000 0.000000 0.000000 0.061757 0.000000
# 6 0.000000 0.000000 0.000000 0.000000 0.000000 0.024086
#
#
# Mechanical properties :
#
#
# Convention : Reuss Voigt Hill
#
# Bulk Modulus (GPa) = 30.48212 40.90056 35.69134
# Shear Modulus (GPa) = 22.91726 27.08757 25.00242
#
# Velocity S-wave (km/s) = 3.09179 3.36135 3.22939
# Velocity P-wave (km/s) = 5.04581 5.66791 5.36588
#
# Compressibility (1/GPa) = 0.03280612
#
# Stress axis : x y z
#
# Youngs Moduli (GPa) = 49.13393 87.70232 52.31720
#
# Poissons Ratio (x) = 0.51456 -0.14212
# Poissons Ratio (y) = 0.28827 0.30767
# Poissons Ratio (z) = -0.13347 0.51576
#
# Static dielectric constant tensor:
#      x y z
#    x 4.194270 0.000000 0.000000 
#    y 0.000000 4.717260 0.000000 
#    z 0.000000 0.000000 4.205880 
# 
# 
# High freq. dielectric constant tensor:
#      x y z
#    x 1.935740 0.000000 0.000000 
#    y 0.000000 1.968760 0.000000 
#    z 0.000000 0.000000 1.937680 
# 
# From -- ./inp_files/31981.got.cif
#   From: 2010.06.25/outbox.cif.g09.slc.cpg/sg52_16_cif.got.tgz:31981.got - 2010.06.26 19:32:48.
