data_PCOD8216772
_publ_section_title
;
Structure prediction by ZEFSAII (Michael W. Deem and Ramdas Pophale) SiO2 
 PCOD8216772
Probable space group: P N N A
;
_chemical_formula_sum "Si O2"
_cell_formula_units_Z 32
_cell_length_a 9.089370
_cell_length_b 10.139908
_cell_length_c 13.294240
_cell_angle_alpha 90.000000
_cell_angle_beta 90.000000
_cell_angle_gamma 90.000000
_cell_volume 1225.268623
_symmetry_space_group_name_H-M "P N N A"
_symmetry_group_IT_number 52
_symmetry_cell_setting 'orthorhombic'
loop_
_space_group_symop_operation_xyz
x,y,z
1/2-x,-y,z
x,1/2-y,1/2-z
1/2-x,1/2+y,1/2-z
-x,-y,-z
1/2+x,y,-z
-x,1/2+y,1/2+z
1/2+x,1/2-y,1/2+z
loop_
_atom_site_type_symbol
_atom_site_label
_atom_site_fract_x
_atom_site_fract_y
_atom_site_fract_z
Si Si1 0.452734 0.300988 0.134417
Si Si2 0.598559 0.937860 0.346444
Si Si3 0.070111 0.863260 0.878283
Si Si4 0.195508 0.321393 0.484396
O O1 0.464855 0.250000 0.250000
O O2 0.467140 0.460266 0.132623
O O3 0.589792 0.242837 0.070154
O O4 0.291866 0.275001 0.087347
O O5 0.615574 0.912786 0.228641
O O6 0.567008 0.797033 0.396810
O O7 0.750000 0.000000 0.386966
O O8 0.190781 0.916419 0.956659
O O9 0.906390 0.909895 0.909685
#
# Coordination Sequence:
#
# PCOD8216772 Si02
#       4
#     8   8   8   8
#     4  11  24  44  69 100 138 178 228 282 342 400
#     4  11  22  40  70  94 137 177 221 275 346 402
#     4  10  23  42  65  98 132 174 225 277 342 403
#     4  10  23  44  69 100 134 176 233 283 334 416
#
# _framework density 26.116720999999998
#
# number of rings (size 3 to 8) (size 9 to 14) (size 15 to 20)
#    0.000    1.500    2.500    1.500    3.500    7.000 
#    0.000   13.750    0.000    0.000    0.000    0.000 
#    0.000    0.000    0.000    0.000    0.000    0.000 
#
# Total GULP energy -396432.679227 kJ/mol
# GULP energy per Si atom -12388.521226 kJ/mol
# Density = 2.605728 g / cm^3
# Si number density = 26.116721 Si / 1000 Ang^3
#
#
#
# Elastic Constant Matrix: (Units=GPa)
#
#
# Indices 1 2 3 4 5 6 
#
# 1 161.8536 21.4484 51.3220 0.0000 0.0000 0.0000
# 2 21.4484 53.4107 -6.9108 0.0000 0.0000 0.0000
# 3 51.3220 -6.9108 107.5659 0.0000 0.0000 0.0000
# 4 0.0000 0.0000 0.0000 22.2665 0.0000 0.0000
# 5 0.0000 0.0000 0.0000 0.0000 46.2405 0.0000
# 6 0.0000 0.0000 0.0000 0.0000 0.0000 18.4371
#
#
#
# Elastic Compliance Matrix: (Units=1/GPa)
#
#
# Indices 1 2 3 4 5 6 
#
# 1 0.007949 -0.003714 -0.004031 0.000000 0.000000 0.000000
# 2 -0.003714 0.020615 0.003096 0.000000 0.000000 0.000000
# 3 -0.004031 0.003096 0.011419 0.000000 0.000000 0.000000
# 4 0.000000 0.000000 0.000000 0.044910 0.000000 0.000000
# 5 0.000000 0.000000 0.000000 0.000000 0.021626 0.000000
# 6 0.000000 0.000000 0.000000 0.000000 0.000000 0.054238
#
#
# Mechanical properties :
#
#
# Convention : Reuss Voigt Hill
#
# Bulk Modulus (GPa) = 32.58864 50.50548 41.54706
# Shear Modulus (GPa) = 27.73422 34.52021 31.12722
#
# Velocity S-wave (km/s) = 3.26227 3.63956 3.45606
# Velocity P-wave (km/s) = 5.16672 6.08623 5.64523
#
# Compressibility (1/GPa) = 0.03068554
#
# Stress axis : x y z
#
# Youngs Moduli (GPa) = 125.80572 48.50890 87.57422
#
# Poissons Ratio (x) = 0.18014 0.35302
# Poissons Ratio (y) = 0.46719 -0.27115
# Poissons Ratio (z) = 0.50714 -0.15020
#
# Static dielectric constant tensor:
#      x y z
#    x 4.984240 0.000000 0.000000 
#    y 0.000000 4.705580 0.000000 
#    z 0.000000 0.000000 4.999920 
# 
# 
# High freq. dielectric constant tensor:
#      x y z
#    x 2.059940 0.000000 0.000000 
#    y 0.000000 2.043900 0.000000 
#    z 0.000000 0.000000 2.064620 
# 
# From -- ./inp_files/24063.got.cif
#   From: 2010.06.25/outbox.cif.g09.slc.cpg/sg52_13_cif.got.tgz:24063.got - 2010.06.26 19:32:48.
