data_PCOD8216365
_publ_section_title
;
Structure prediction by ZEFSAII (Michael W. Deem and Ramdas Pophale) SiO2 
 PCOD8216365
Probable space group: P N N A
;
_chemical_formula_sum "Si O2"
_cell_formula_units_Z 48
_cell_length_a 11.860979
_cell_length_b 8.389725
_cell_length_c 23.109102
_cell_angle_alpha 90.000000
_cell_angle_beta 90.000000
_cell_angle_gamma 90.000000
_cell_volume 2299.594875
_symmetry_space_group_name_H-M "P N N A"
_symmetry_group_IT_number 52
_symmetry_cell_setting 'orthorhombic'
loop_
_space_group_symop_operation_xyz
x,y,z
1/2-x,-y,z
x,1/2-y,1/2-z
1/2-x,1/2+y,1/2-z
-x,-y,-z
1/2+x,y,-z
-x,1/2+y,1/2+z
1/2+x,1/2-y,1/2+z
loop_
_atom_site_type_symbol
_atom_site_label
_atom_site_fract_x
_atom_site_fract_y
_atom_site_fract_z
Si Si1 0.697592 0.333959 0.145942
Si Si2 0.750000 0.000000 0.836353
Si Si3 0.062289 0.419713 0.423720
Si Si4 0.072979 0.802354 0.827489
Si Si5 0.676797 0.750000 0.750000
Si Si6 0.020166 0.020312 0.729313
Si Si7 0.355385 0.881889 0.957687
O O1 0.750000 0.500000 0.126845
O O2 0.792357 0.218029 0.172194
O O3 0.606928 0.361047 0.197103
O O4 0.649703 0.265980 0.085851
O O5 0.860220 0.001863 0.875542
O O6 0.753576 0.835927 0.798531
O O7 0.140217 0.336312 0.473591
O O8 0.978092 0.296984 0.391995
O O9 0.980395 0.552095 0.449182
O O10 0.011836 0.653020 0.798565
O O11 0.052967 0.975116 0.796047
O O12 0.599630 0.892772 0.724889
O O13 0.250000 0.000000 0.945776
#
# Coordination Sequence:
#
# PCOD8216365 Si02
#       7
#     8   4   8   8   4   8   8
#     4  10  22  40  62  99 135 161 210 273 337 388
#     4  12  26  42  64  96 130 172 220 266 324 392
#     4  11  23  42  68  94 125 171 228 263 316 390
#     4  10  21  42  64  93 134 169 209 267 326 391
#     4  12  26  40  64  88 136 168 216 266 318 400
#     4  10  23  40  61  95 131 171 209 261 333 390
#     4  11  22  42  70  93 122 171 222 272 320 381
#
# _framework density 20.873241
#
# number of rings (size 3 to 8) (size 9 to 14) (size 15 to 20)
#    0.000    1.333    4.167    1.000    2.333    4.000 
#    3.000    5.000    0.000    0.000    0.000    0.000 
#    0.000    0.000    0.000    0.000    0.000    0.000 
#
# Total GULP energy -594696.736782 kJ/mol
# GULP energy per Si atom -12389.515350 kJ/mol
# Density = 2.082573 g / cm^3
# Si number density = 20.873241 Si / 1000 Ang^3
#
#
#
# Elastic Constant Matrix: (Units=GPa)
#
#
# Indices 1 2 3 4 5 6 
#
# 1 80.1677 26.2114 39.8896 0.0000 0.0000 0.0000
# 2 26.2114 62.5147 44.4980 0.0000 0.0000 0.0000
# 3 39.8896 44.4980 130.1176 0.0000 0.0000 0.0000
# 4 0.0000 0.0000 0.0000 32.0304 0.0000 0.0000
# 5 0.0000 0.0000 0.0000 0.0000 29.0897 0.0000
# 6 0.0000 0.0000 0.0000 0.0000 0.0000 35.1833
#
#
#
# Elastic Compliance Matrix: (Units=1/GPa)
#
#
# Indices 1 2 3 4 5 6 
#
# 1 0.015480 -0.004114 -0.003339 0.000000 0.000000 0.000000
# 2 -0.004114 0.022236 -0.006343 0.000000 0.000000 0.000000
# 3 -0.003339 -0.006343 0.010878 0.000000 0.000000 0.000000
# 4 0.000000 0.000000 0.000000 0.031220 0.000000 0.000000
# 5 0.000000 0.000000 0.000000 0.000000 0.034376 0.000000
# 6 0.000000 0.000000 0.000000 0.000000 0.000000 0.028423
#
#
# Mechanical properties :
#
#
# Convention : Reuss Voigt Hill
#
# Bulk Modulus (GPa) = 47.61305 54.88864 51.25085
# Shear Modulus (GPa) = 28.21557 30.07407 29.14482
#
# Velocity S-wave (km/s) = 3.68061 3.79990 3.74073
# Velocity P-wave (km/s) = 6.39708 6.75319 6.57755
#
# Compressibility (1/GPa) = 0.02100264
#
# Stress axis : x y z
#
# Youngs Moduli (GPa) = 64.59831 44.97152 91.92724
#
# Poissons Ratio (x) = 0.18502 0.30692
# Poissons Ratio (y) = 0.26576 0.58311
# Poissons Ratio (z) = 0.21568 0.28526
#
# Static dielectric constant tensor:
#      x y z
#    x 3.978980 0.000000 0.000000 
#    y 0.000000 3.952430 0.000000 
#    z 0.000000 0.000000 4.275660 
# 
# 
# High freq. dielectric constant tensor:
#      x y z
#    x 1.828440 0.000000 0.000000 
#    y 0.000000 1.794910 0.000000 
#    z 0.000000 0.000000 1.827740 
# 
# From -- ./inp_files/40192.got.cif
#   From: 2010.06.25/outbox.cif.g09.slc.cpg/sg52_21_cif.got.tgz:40192.got - 2010.06.26 19:32:48.
