data_PCOD8216864
_publ_section_title
;
Structure prediction by ZEFSAII (Michael W. Deem and Ramdas Pophale) SiO2 
 PCOD8216864
Probable space group: P N N A
;
_chemical_formula_sum "Si O2"
_cell_formula_units_Z 52
_cell_length_a 10.021009
_cell_length_b 16.931381
_cell_length_c 15.239921
_cell_angle_alpha 90.000000
_cell_angle_beta 90.000000
_cell_angle_gamma 90.000000
_cell_volume 2585.750102
_symmetry_space_group_name_H-M "P N N A"
_symmetry_group_IT_number 52
_symmetry_cell_setting 'orthorhombic'
loop_
_space_group_symop_operation_xyz
x,y,z
1/2-x,-y,z
x,1/2-y,1/2-z
1/2-x,1/2+y,1/2-z
-x,-y,-z
1/2+x,y,-z
-x,1/2+y,1/2+z
1/2+x,1/2-y,1/2+z
loop_
_atom_site_type_symbol
_atom_site_label
_atom_site_fract_x
_atom_site_fract_y
_atom_site_fract_z
Si Si1 0.479442 0.764343 0.987440
Si Si2 0.750000 0.000000 0.816220
Si Si3 0.344611 0.869161 0.617716
Si Si4 0.250000 0.000000 0.481972
Si Si5 0.943773 0.347320 0.146136
Si Si6 0.362465 0.750000 0.250000
Si Si7 0.744360 0.665008 0.590377
Si Si8 0.049119 0.985806 0.337239
O O1 0.533511 0.708683 0.063891
O O2 0.364387 0.823314 0.021366
O O3 0.417159 0.710185 0.912190
O O4 0.601380 0.816134 0.951582
O O5 0.754278 0.075170 0.878821
O O6 0.879547 0.997004 0.754467
O O7 0.212577 0.843985 0.671575
O O8 0.442793 0.916686 0.682353
O O9 0.308496 0.926986 0.536588
O O10 0.355218 0.042217 0.416249
O O11 0.039591 0.322367 0.225888
O O12 0.975316 0.437643 0.123552
O O13 0.266332 0.724647 0.328589
#
# Coordination Sequence:
#
# PCOD8216864 Si02
#       8
#     8   4   8   4   8   4   8   8
#     4  11  24  40  68  99 131 174 222 278 324 395
#     4  11  26  46  66  88 127 180 226 268 335 404
#     4  12  21  34  60  96 133 165 213 264 335 393
#     4  11  20  30  56  92 133 170 196 256 323 402
#     4  11  20  40  60  93 133 172 211 269 327 392
#     4  10  24  42  66  88 136 172 212 266 342 396
#     4  11  25  46  69  96 128 178 226 275 335 393
#     4  11  22  35  60  96 130 171 212 263 332 400
#
# _framework density 20.110219000000001
#
# number of rings (size 3 to 8) (size 9 to 14) (size 15 to 20)
#    0.000    0.923    6.154    1.385    2.154    0.615 
#    2.769    0.000    0.000    0.000    0.000    0.000 
#    0.000    0.000    0.000    0.000    0.000    0.000 
#
# Total GULP energy -644853.463420 kJ/mol
# GULP energy per Si atom -12401.028143 kJ/mol
# Density = 2.006445 g / cm^3
# Si number density = 20.110219 Si / 1000 Ang^3
#
#
#
# Elastic Constant Matrix: (Units=GPa)
#
#
# Indices 1 2 3 4 5 6 
#
# 1 148.2645 58.3459 47.4411 0.0000 0.0000 0.0000
# 2 58.3459 116.6823 41.8271 0.0000 0.0000 0.0000
# 3 47.4411 41.8271 65.3539 0.0000 0.0000 0.0000
# 4 0.0000 0.0000 0.0000 30.3617 0.0000 0.0000
# 5 0.0000 0.0000 0.0000 0.0000 18.8840 0.0000
# 6 0.0000 0.0000 0.0000 0.0000 0.0000 36.7931
#
#
#
# Elastic Compliance Matrix: (Units=1/GPa)
#
#
# Indices 1 2 3 4 5 6 
#
# 1 0.009513 -0.002961 -0.005011 0.000000 0.000000 0.000000
# 2 -0.002961 0.012043 -0.005559 0.000000 0.000000 0.000000
# 3 -0.005011 -0.005559 0.022496 0.000000 0.000000 0.000000
# 4 0.000000 0.000000 0.000000 0.032936 0.000000 0.000000
# 5 0.000000 0.000000 0.000000 0.000000 0.052955 0.000000
# 6 0.000000 0.000000 0.000000 0.000000 0.000000 0.027179
#
#
# Mechanical properties :
#
#
# Convention : Reuss Voigt Hill
#
# Bulk Modulus (GPa) = 58.84967 69.50320 64.17643
# Shear Modulus (GPa) = 26.33692 29.38686 27.86189
#
# Velocity S-wave (km/s) = 3.62281 3.82683 3.72621
# Velocity P-wave (km/s) = 6.84300 7.35951 7.10595
#
# Compressibility (1/GPa) = 0.01699245
#
# Stress axis : x y z
#
# Youngs Moduli (GPa) = 105.11749 83.03318 44.45185
#
# Poissons Ratio (x) = 0.24584 0.22274
# Poissons Ratio (y) = 0.31123 0.24709
# Poissons Ratio (z) = 0.52672 0.46155
#
# Static dielectric constant tensor:
#      x y z
#    x 4.012390 0.000000 0.000000 
#    y 0.000000 3.609130 0.000000 
#    z 0.000000 0.000000 3.406530 
# 
# 
# High freq. dielectric constant tensor:
#      x y z
#    x 1.805680 0.000000 0.000000 
#    y 0.000000 1.781630 0.000000 
#    z 0.000000 0.000000 1.754730 
# 
# From -- ./inp_files/31466.got.cif
#   From: 2010.06.25/outbox.cif.g09.slc.cpg/sg52_16_cif.got.tgz:31466.got - 2010.06.26 19:32:48.
