data_PCOD8216599
_publ_section_title
;
Structure prediction by ZEFSAII (Michael W. Deem and Ramdas Pophale) SiO2 
 PCOD8216599
Probable space group: P N N A
;
_chemical_formula_sum "Si O2"
_cell_formula_units_Z 48
_cell_length_a 13.392197
_cell_length_b 8.960116
_cell_length_c 18.167130
_cell_angle_alpha 90.000000
_cell_angle_beta 90.000000
_cell_angle_gamma 90.000000
_cell_volume 2179.976366
_symmetry_space_group_name_H-M "P N N A"
_symmetry_group_IT_number 52
_symmetry_cell_setting 'orthorhombic'
loop_
_space_group_symop_operation_xyz
x,y,z
1/2-x,-y,z
x,1/2-y,1/2-z
1/2-x,1/2+y,1/2-z
-x,-y,-z
1/2+x,y,-z
-x,1/2+y,1/2+z
1/2+x,1/2-y,1/2+z
loop_
_atom_site_type_symbol
_atom_site_label
_atom_site_fract_x
_atom_site_fract_y
_atom_site_fract_z
Si Si1 0.360233 0.533920 0.994263
Si Si2 0.568281 0.238346 0.365882
Si Si3 0.573180 0.796857 0.985221
Si Si4 0.091328 0.224765 0.099468
Si Si5 0.637028 0.467216 0.258824
Si Si6 0.250000 0.500000 0.444607
Si Si7 0.988932 0.250000 0.250000
O O1 0.250000 0.500000 0.972040
O O2 0.388402 0.661516 0.937209
O O3 0.420755 0.379418 0.992378
O O4 0.369306 0.614522 0.072455
O O5 0.463028 0.304127 0.398556
O O6 0.637007 0.373440 0.335060
O O7 0.566359 0.116137 0.300925
O O8 0.676023 0.892010 0.993385
O O9 0.491985 0.853818 0.045634
O O10 0.182293 0.107321 0.105644
O O11 0.056777 0.273402 0.179582
O O12 0.750000 0.500000 0.231636
O O13 0.584196 0.620029 0.273786
#
# Coordination Sequence:
#
# PCOD8216599 Si02
#       7
#     8   8   8   8   8   4   4
#     4  11  21  43  70  99 126 181 241 284 347 416
#     4  10  22  41  66  97 137 177 225 287 345 408
#     4  11  23  44  70 100 138 181 236 296 351 411
#     4  11  25  45  67 100 137 187 231 298 348 414
#     4  11  23  41  66 102 139 182 224 278 355 431
#     4  12  24  44  66 106 140 178 244 286 358 412
#     4  12  24  46  64  96 146 180 230 284 358 418
#
# _framework density 22.018587
#
# number of rings (size 3 to 8) (size 9 to 14) (size 15 to 20)
#    0.000    1.000    1.667    7.000    0.000    2.667 
#    9.000    1.667    0.000    0.000    0.000    0.000 
#    0.000    0.000    0.000    0.000    0.000    0.000 
#
# Total GULP energy -594701.388854 kJ/mol
# GULP energy per Si atom -12389.612268 kJ/mol
# Density = 2.196847 g / cm^3
# Si number density = 22.018587 Si / 1000 Ang^3
#
#
#
# Elastic Constant Matrix: (Units=GPa)
#
#
# Indices 1 2 3 4 5 6 
#
# 1 99.1787 40.7564 31.0861 0.0000 0.0000 0.0000
# 2 40.7564 116.9730 35.2510 0.0000 0.0000 0.0000
# 3 31.0861 35.2510 100.6617 0.0000 0.0000 0.0000
# 4 0.0000 0.0000 0.0000 29.1913 0.0000 0.0000
# 5 0.0000 0.0000 0.0000 0.0000 17.3294 0.0000
# 6 0.0000 0.0000 0.0000 0.0000 0.0000 28.7913
#
#
#
# Elastic Compliance Matrix: (Units=1/GPa)
#
#
# Indices 1 2 3 4 5 6 
#
# 1 0.012338 -0.003522 -0.002577 0.000000 0.000000 0.000000
# 2 -0.003522 0.010563 -0.002611 0.000000 0.000000 0.000000
# 3 -0.002577 -0.002611 0.011644 0.000000 0.000000 0.000000
# 4 0.000000 0.000000 0.000000 0.034257 0.000000 0.000000
# 5 0.000000 0.000000 0.000000 0.000000 0.057705 0.000000
# 6 0.000000 0.000000 0.000000 0.000000 0.000000 0.034733
#
#
# Mechanical properties :
#
#
# Convention : Reuss Voigt Hill
#
# Bulk Modulus (GPa) = 58.39489 59.00006 58.69747
# Shear Modulus (GPa) = 27.11947 29.04374 28.08160
#
# Velocity S-wave (km/s) = 3.51331 3.63582 3.57509
# Velocity P-wave (km/s) = 6.56019 6.66928 6.61496
#
# Compressibility (1/GPa) = 0.01712479
#
# Stress axis : x y z
#
# Youngs Moduli (GPa) = 81.05111 94.66805 85.87757
#
# Poissons Ratio (x) = 0.33345 0.22128
# Poissons Ratio (y) = 0.28549 0.22426
# Poissons Ratio (z) = 0.20884 0.24722
#
# Static dielectric constant tensor:
#      x y z
#    x 4.276360 0.000000 0.000000 
#    y 0.000000 4.489780 0.000000 
#    z 0.000000 0.000000 4.014060 
# 
# 
# High freq. dielectric constant tensor:
#      x y z
#    x 1.863250 0.000000 0.000000 
#    y 0.000000 1.894100 0.000000 
#    z 0.000000 0.000000 1.845870 
# 
# From -- ./inp_files/33096.got.cif
#   From: 2010.06.25/outbox.cif.g09.slc.cpg/sg52_17_cif.got.tgz:33096.got - 2010.06.26 19:32:48.
