data_PCOD8216444
_publ_section_title
;
Structure prediction by ZEFSAII (Michael W. Deem and Ramdas Pophale) SiO2 
 PCOD8216444
Probable space group: P N N A
;
_chemical_formula_sum "Si O2"
_cell_formula_units_Z 44
_cell_length_a 13.496502
_cell_length_b 9.307255
_cell_length_c 16.596367
_cell_angle_alpha 90.000000
_cell_angle_beta 90.000000
_cell_angle_gamma 90.000000
_cell_volume 2084.759042
_symmetry_space_group_name_H-M "P N N A"
_symmetry_group_IT_number 52
_symmetry_cell_setting 'orthorhombic'
loop_
_space_group_symop_operation_xyz
x,y,z
1/2-x,-y,z
x,1/2-y,1/2-z
1/2-x,1/2+y,1/2-z
-x,-y,-z
1/2+x,y,-z
-x,1/2+y,1/2+z
1/2+x,1/2-y,1/2+z
loop_
_atom_site_type_symbol
_atom_site_label
_atom_site_fract_x
_atom_site_fract_y
_atom_site_fract_z
Si Si1 0.250000 0.500000 0.150392
Si Si2 0.643709 0.884133 0.503770
Si Si3 0.986160 0.907010 0.122676
Si Si4 0.447538 0.913501 0.273570
Si Si5 0.048418 0.093957 0.593043
Si Si6 0.348579 0.421701 0.513323
O O1 0.330325 0.578399 0.206648
O O2 0.302084 0.386928 0.090362
O O3 0.526022 0.870855 0.519747
O O4 0.678986 0.740342 0.458294
O O5 0.651334 0.030952 0.448458
O O6 0.077439 0.912648 0.061588
O O7 0.941752 0.746382 0.139213
O O8 0.025853 0.974510 0.204340
O O9 0.894467 0.998333 0.089635
O O10 0.474743 0.750000 0.250000
O O11 0.510132 0.964086 0.350683
O O12 0.250000 0.500000 0.483379
#
# Coordination Sequence:
#
# PCOD8216444 Si02
#       6
#     4   8   8   8   8   8
#     4  10  24  34  60  96 124 164 198 262 316 374
#     4   9  19  36  57  85 121 156 212 243 305 370
#     4  10  22  38  60  89 123 167 210 255 317 367
#     4  11  23  37  61  89 128 163 208 251 322 373
#     4   9  19  38  60  80 120 168 203 252 298 371
#     4  10  22  36  61  89 122 161 209 264 305 372
#
# _framework density 21.105557000000001
#
# number of rings (size 3 to 8) (size 9 to 14) (size 15 to 20)
#    0.000    2.182    0.000    1.636    6.364    5.818 
#    0.000    0.000    2.000    0.000    0.000    0.000 
#    0.000    0.000    0.000    0.000    0.000    0.000 
#
# Total GULP energy -545183.386420 kJ/mol
# GULP energy per Si atom -12390.531510 kJ/mol
# Density = 2.105752 g / cm^3
# Si number density = 21.105557 Si / 1000 Ang^3
#
#
#
# Elastic Constant Matrix: (Units=GPa)
#
#
# Indices 1 2 3 4 5 6 
#
# 1 46.2751 42.2634 22.0163 0.0000 0.0000 0.0000
# 2 42.2634 202.5378 52.4132 0.0000 0.0000 0.0000
# 3 22.0163 52.4132 86.1827 0.0000 0.0000 0.0000
# 4 0.0000 0.0000 0.0000 35.9165 0.0000 0.0000
# 5 0.0000 0.0000 0.0000 0.0000 31.9802 0.0000
# 6 0.0000 0.0000 0.0000 0.0000 0.0000 26.7395
#
#
#
# Elastic Compliance Matrix: (Units=1/GPa)
#
#
# Indices 1 2 3 4 5 6 
#
# 1 0.027960 -0.004730 -0.004266 0.000000 0.000000 0.000000
# 2 -0.004730 0.006660 -0.002842 0.000000 0.000000 0.000000
# 3 -0.004266 -0.002842 0.014421 0.000000 0.000000 0.000000
# 4 0.000000 0.000000 0.000000 0.027842 0.000000 0.000000
# 5 0.000000 0.000000 0.000000 0.000000 0.031269 0.000000
# 6 0.000000 0.000000 0.000000 0.000000 0.000000 0.037398
#
#
# Mechanical properties :
#
#
# Convention : Reuss Voigt Hill
#
# Bulk Modulus (GPa) = 39.42462 63.15350 51.28906
# Shear Modulus (GPa) = 28.14025 33.48076 30.81051
#
# Velocity S-wave (km/s) = 3.65541 3.98722 3.82492
# Velocity P-wave (km/s) = 6.04453 7.15436 6.62273
#
# Compressibility (1/GPa) = 0.02536486
#
# Stress axis : x y z
#
# Youngs Moduli (GPa) = 35.76569 150.15318 69.34190
#
# Poissons Ratio (x) = 0.71029 0.29579
# Poissons Ratio (y) = 0.16919 0.19706
# Poissons Ratio (z) = 0.15257 0.42671
#
# Static dielectric constant tensor:
#      x y z
#    x 3.760310 0.000000 0.000000 
#    y 0.000000 4.320060 0.000000 
#    z 0.000000 0.000000 3.607850 
# 
# 
# High freq. dielectric constant tensor:
#      x y z
#    x 1.813460 0.000000 0.000000 
#    y 0.000000 1.845410 0.000000 
#    z 0.000000 0.000000 1.807560 
# 
# From -- ./inp_files/32987.got.cif
#   From: 2010.06.25/outbox.cif.g09.slc.cpg/sg52_17_cif.got.tgz:32987.got - 2010.06.26 19:32:48.
