data_PCOD8216578
_publ_section_title
;
Structure prediction by ZEFSAII (Michael W. Deem and Ramdas Pophale) SiO2 
 PCOD8216578
Probable space group: P N N A
;
_chemical_formula_sum "Si O2"
_cell_formula_units_Z 32
_cell_length_a 16.837272
_cell_length_b 12.712843
_cell_length_c 6.533032
_cell_angle_alpha 90.000000
_cell_angle_beta 90.000000
_cell_angle_gamma 90.000000
_cell_volume 1398.392857
_symmetry_space_group_name_H-M "P N N A"
_symmetry_group_IT_number 52
_symmetry_cell_setting 'orthorhombic'
loop_
_space_group_symop_operation_xyz
x,y,z
1/2-x,-y,z
x,1/2-y,1/2-z
1/2-x,1/2+y,1/2-z
-x,-y,-z
1/2+x,y,-z
-x,1/2+y,1/2+z
1/2+x,1/2-y,1/2+z
loop_
_atom_site_type_symbol
_atom_site_label
_atom_site_fract_x
_atom_site_fract_y
_atom_site_fract_z
Si Si1 0.144131 0.449863 0.996462
Si Si2 0.627042 0.001516 0.928515
Si Si3 0.795617 0.128800 0.269589
Si Si4 0.479825 0.627079 0.731222
O O1 0.146179 0.573758 0.933715
O O2 0.205919 0.386419 0.850574
O O3 0.055219 0.408370 0.952504
O O4 0.167770 0.438595 0.235455
O O5 0.562312 0.926013 0.823602
O O6 0.690770 0.930019 0.051078
O O7 0.586741 0.091585 0.065951
O O8 0.818265 0.250000 0.250000
O O9 0.492766 0.750000 0.750000
#
# Coordination Sequence:
#
# PCOD8216578 Si02
#       4
#     8   8   8   8
#     4  10  22  41  63  93 130 171 215 264 322 389
#     4  10  23  43  64  98 133 169 215 275 321 385
#     4  10  23  41  64  94 130 166 218 266 318 392
#     4  10  22  41  66  98 128 167 219 268 324 392
#
# _framework density 22.883412
#
# number of rings (size 3 to 8) (size 9 to 14) (size 15 to 20)
#    0.000    2.000    0.000    1.500    3.500    9.000 
#    0.000    7.500    0.000    0.000    0.000    0.000 
#    0.000    0.000    0.000    0.000    0.000    0.000 
#
# Total GULP energy -396486.545241 kJ/mol
# GULP energy per Si atom -12390.204539 kJ/mol
# Density = 2.283133 g / cm^3
# Si number density = 22.883412 Si / 1000 Ang^3
#
#
#
# Elastic Constant Matrix: (Units=GPa)
#
#
# Indices 1 2 3 4 5 6 
#
# 1 66.6098 3.4733 19.1081 0.0000 0.0000 0.0000
# 2 3.4733 76.7710 -15.4579 0.0000 0.0000 0.0000
# 3 19.1081 -15.4579 129.4815 0.0000 0.0000 0.0000
# 4 0.0000 0.0000 0.0000 18.4392 0.0000 0.0000
# 5 0.0000 0.0000 0.0000 0.0000 31.1543 0.0000
# 6 0.0000 0.0000 0.0000 0.0000 0.0000 19.0655
#
#
#
# Elastic Compliance Matrix: (Units=1/GPa)
#
#
# Indices 1 2 3 4 5 6 
#
# 1 0.015786 -0.001212 -0.002474 0.000000 0.000000 0.000000
# 2 -0.001212 0.013440 0.001783 0.000000 0.000000 0.000000
# 3 -0.002474 0.001783 0.008301 0.000000 0.000000 0.000000
# 4 0.000000 0.000000 0.000000 0.054232 0.000000 0.000000
# 5 0.000000 0.000000 0.000000 0.000000 0.032098 0.000000
# 6 0.000000 0.000000 0.000000 0.000000 0.000000 0.052451
#
#
# Mechanical properties :
#
#
# Convention : Reuss Voigt Hill
#
# Bulk Modulus (GPa) = 29.65599 31.90106 30.77852
# Shear Modulus (GPa) = 26.12952 31.44772 28.78862
#
# Velocity S-wave (km/s) = 3.38280 3.71112 3.55076
# Velocity P-wave (km/s) = 5.31465 5.68632 5.50362
#
# Compressibility (1/GPa) = 0.03372001
#
# Stress axis : x y z
#
# Youngs Moduli (GPa) = 63.34802 74.40649 120.46504
#
# Poissons Ratio (x) = 0.09021 0.29807
# Poissons Ratio (y) = 0.07680 -0.21484
# Poissons Ratio (z) = 0.15674 -0.13270
#
# Static dielectric constant tensor:
#      x y z
#    x 4.091360 0.000000 0.000000 
#    y 0.000000 3.878460 0.000000 
#    z 0.000000 0.000000 4.513740 
# 
# 
# High freq. dielectric constant tensor:
#      x y z
#    x 1.907910 0.000000 0.000000 
#    y 0.000000 1.881720 0.000000 
#    z 0.000000 0.000000 1.915010 
# 
# From -- ./inp_files/2988.got.cif
#   From: 2010.06.25/outbox.cif.g09.slc.cpg/sg52_2_cif.got.tgz:2988.got - 2010.06.26 19:32:48.
