data_PCOD8216670
_publ_section_title
;
Structure prediction by ZEFSAII (Michael W. Deem and Ramdas Pophale) SiO2 
 PCOD8216670
Probable space group: P N N A
;
_chemical_formula_sum "Si O2"
_cell_formula_units_Z 28
_cell_length_a 17.141060
_cell_length_b 9.007301
_cell_length_c 7.805095
_cell_angle_alpha 90.000000
_cell_angle_beta 90.000000
_cell_angle_gamma 90.000000
_cell_volume 1205.065199
_symmetry_space_group_name_H-M "P N N A"
_symmetry_group_IT_number 52
_symmetry_cell_setting 'orthorhombic'
loop_
_space_group_symop_operation_xyz
x,y,z
1/2-x,-y,z
x,1/2-y,1/2-z
1/2-x,1/2+y,1/2-z
-x,-y,-z
1/2+x,y,-z
-x,1/2+y,1/2+z
1/2+x,1/2-y,1/2+z
loop_
_atom_site_type_symbol
_atom_site_label
_atom_site_fract_x
_atom_site_fract_y
_atom_site_fract_z
Si Si1 0.250000 0.500000 0.844092
Si Si2 0.153911 0.829545 0.426048
Si Si3 0.896964 0.447328 0.382445
Si Si4 0.933903 0.576327 0.733312
O O1 0.173209 0.486064 0.729487
O O2 0.234963 0.637212 0.974672
O O3 0.175678 0.750000 0.250000
O O4 0.106701 0.726319 0.560499
O O5 0.104281 0.979351 0.387231
O O6 0.892715 0.541198 0.554610
O O7 0.975543 0.471660 0.274897
O O8 0.921098 0.750000 0.750000
#
# Coordination Sequence:
#
# PCOD8216670 Si02
#       4
#     4   8   8   8
#     4  12  24  40  66  92 130 174 214 264 324 388
#     4  10  24  44  64  94 135 171 215 276 330 387
#     4  10  24  44  66  98 133 169 221 274 324 388
#     4  10  22  43  70  96 129 175 220 267 330 395
#
# _framework density 23.235254999999999
#
# number of rings (size 3 to 8) (size 9 to 14) (size 15 to 20)
#    0.000    1.714    0.000    2.571    0.000   14.857 
#    0.000   11.429    0.000    0.000    0.000    0.000 
#    0.000    0.000    0.000    0.000    0.000    0.000 
#
# Total GULP energy -346999.367734 kJ/mol
# GULP energy per Si atom -12392.834562 kJ/mol
# Density = 2.318237 g / cm^3
# Si number density = 23.235255 Si / 1000 Ang^3
#
#
#
# Elastic Constant Matrix: (Units=GPa)
#
#
# Indices 1 2 3 4 5 6 
#
# 1 128.0655 36.2334 78.2173 0.0000 0.0000 0.0000
# 2 36.2334 101.1390 43.5741 0.0000 0.0000 0.0000
# 3 78.2173 43.5741 134.1881 0.0000 0.0000 0.0000
# 4 0.0000 0.0000 0.0000 5.4748 0.0000 0.0000
# 5 0.0000 0.0000 0.0000 0.0000 41.4346 0.0000
# 6 0.0000 0.0000 0.0000 0.0000 0.0000 35.4164
#
#
#
# Elastic Compliance Matrix: (Units=1/GPa)
#
#
# Indices 1 2 3 4 5 6 
#
# 1 0.012327 -0.001535 -0.006687 0.000000 0.000000 0.000000
# 2 -0.001535 0.011687 -0.002900 0.000000 0.000000 0.000000
# 3 -0.006687 -0.002900 0.012292 0.000000 0.000000 0.000000
# 4 0.000000 0.000000 0.000000 0.182656 0.000000 0.000000
# 5 0.000000 0.000000 0.000000 0.000000 0.024134 0.000000
# 6 0.000000 0.000000 0.000000 0.000000 0.000000 0.028235
#
#
# Mechanical properties :
#
#
# Convention : Reuss Voigt Hill
#
# Bulk Modulus (GPa) = 71.11796 75.49358 73.30577
# Shear Modulus (GPa) = 16.76378 30.15635 23.46007
#
# Velocity S-wave (km/s) = 2.68895 3.60651 3.18099
# Velocity P-wave (km/s) = 6.34940 7.06428 6.71636
#
# Compressibility (1/GPa) = 0.01406115
#
# Stress axis : x y z
#
# Youngs Moduli (GPa) = 81.12380 85.56621 81.35652
#
# Poissons Ratio (x) = 0.13137 0.54401
# Poissons Ratio (y) = 0.12455 0.23594
# Poissons Ratio (z) = 0.54245 0.24815
#
# Static dielectric constant tensor:
#      x y z
#    x 4.112270 0.000000 0.000000 
#    y 0.000000 4.355820 0.000000 
#    z 0.000000 0.000000 4.538780 
# 
# 
# High freq. dielectric constant tensor:
#      x y z
#    x 1.908270 0.000000 0.000000 
#    y 0.000000 1.915340 0.000000 
#    z 0.000000 0.000000 1.948050 
# 
# From -- ./inp_files/11318.got.cif
#   From: 2010.06.25/outbox.cif.g09.slc.cpg/sg52_6_cif.got.tgz:11318.got - 2010.06.26 19:32:48.
