data_PCOD8216884
_publ_section_title
;
Structure prediction by ZEFSAII (Michael W. Deem and Ramdas Pophale) SiO2 
 PCOD8216884
Probable space group: P N N A
;
_chemical_formula_sum "Si O2"
_cell_formula_units_Z 40
_cell_length_a 23.568608
_cell_length_b 5.906782
_cell_length_c 12.267191
_cell_angle_alpha 90.000000
_cell_angle_beta 90.000000
_cell_angle_gamma 90.000000
_cell_volume 1707.772450
_symmetry_space_group_name_H-M "P N N A"
_symmetry_group_IT_number 52
_symmetry_cell_setting 'orthorhombic'
loop_
_space_group_symop_operation_xyz
x,y,z
1/2-x,-y,z
x,1/2-y,1/2-z
1/2-x,1/2+y,1/2-z
-x,-y,-z
1/2+x,y,-z
-x,1/2+y,1/2+z
1/2+x,1/2-y,1/2+z
loop_
_atom_site_type_symbol
_atom_site_label
_atom_site_fract_x
_atom_site_fract_y
_atom_site_fract_z
Si Si1 0.013738 0.105297 0.385859
Si Si2 0.916647 0.250000 0.750000
Si Si3 0.277982 0.750000 0.750000
Si Si4 0.391200 0.248546 0.630594
Si Si5 0.189021 0.393671 0.969985
Si Si6 0.111549 0.439709 0.434023
O O1 0.043346 0.932516 0.305594
O O2 0.052510 0.325473 0.399785
O O3 0.000000 0.000000 0.500000
O O4 0.953220 0.165201 0.335425
O O5 0.877114 0.365445 0.656568
O O6 0.250000 0.500000 0.763303
O O7 0.311135 0.770722 0.863584
O O8 0.358852 0.250000 0.750000
O O9 0.395730 0.476465 0.559304
O O10 0.356440 0.088781 0.549580
O O11 0.250000 0.500000 0.002383
O O12 0.164419 0.237338 0.067904
#
# Coordination Sequence:
#
# PCOD8216884 Si02
#       6
#     8   4   4   8   8   8
#     4  12  25  46  70 112 144 191 240 302 376 450
#     4  12  26  45  76 104 150 192 245 312 374 452
#     4  10  24  43  70 106 158 204 247 312 390 460
#     4  12  26  42  72 111 153 190 239 300 374 459
#     4  11  26  42  68 107 147 200 247 305 376 456
#     4  12  25  46  71 108 147 193 250 304 381 446
#
# _framework density 23.422326999999999
#
# number of rings (size 3 to 8) (size 9 to 14) (size 15 to 20)
#    0.000    0.400    4.000    3.600   14.000    0.800 
#    0.000    0.000    0.000    0.000   72.800    0.000 
#    0.000    0.000    0.000    0.000    0.000    0.000 
#
# Total GULP energy -495542.206071 kJ/mol
# GULP energy per Si atom -12388.555152 kJ/mol
# Density = 2.336902 g / cm^3
# Si number density = 23.422327 Si / 1000 Ang^3
#
#
#
# Elastic Constant Matrix: (Units=GPa)
#
#
# Indices 1 2 3 4 5 6 
#
# 1 137.9607 59.0925 35.0482 0.0000 0.0000 0.0000
# 2 59.0925 126.6264 56.3284 0.0000 0.0000 0.0000
# 3 35.0482 56.3284 133.0571 0.0000 0.0000 0.0000
# 4 0.0000 0.0000 0.0000 56.9728 0.0000 0.0000
# 5 0.0000 0.0000 0.0000 0.0000 173.9681 0.0000
# 6 0.0000 0.0000 0.0000 0.0000 0.0000 -2.1803
#
#
#
# Elastic Compliance Matrix: (Units=1/GPa)
#
#
# Indices 1 2 3 4 5 6 
#
# 1 0.009118 -0.003926 -0.000740 0.000000 0.000000 0.000000
# 2 -0.003926 0.011420 -0.003800 0.000000 0.000000 0.000000
# 3 -0.000740 -0.003800 0.009319 0.000000 0.000000 0.000000
# 4 0.000000 0.000000 0.000000 0.017552 0.000000 0.000000
# 5 0.000000 0.000000 0.000000 0.000000 0.005748 0.000000
# 6 0.000000 0.000000 0.000000 0.000000 0.000000 -0.458660
#
#
# Mechanical properties :
#
#
# Convention : Reuss Voigt Hill
#
# Bulk Modulus (GPa) = 77.36945 77.62025 77.49485
# Shear Modulus (GPa) = -13.01197 62.23048 24.60925
#
# Velocity S-wave (km/s) = -2.35954 5.16009 3.24493
# Velocity P-wave (km/s) = 5.06762 8.28936 6.87002
#
# Compressibility (1/GPa) = 0.01292500
#
# Stress axis : x y z
#
# Youngs Moduli (GPa) = 109.67328 87.56600 107.30464
#
# Poissons Ratio (x) = 0.34379 0.07937
# Poissons Ratio (y) = 0.43058 0.40780
# Poissons Ratio (z) = 0.08113 0.33278
#
# Static dielectric constant tensor:
#      x y z
#    x 4.365290 0.000000 0.000000 
#    y 0.000000 4.389940 0.000000 
#    z 0.000000 0.000000 4.770120 
# 
# 
# High freq. dielectric constant tensor:
#      x y z
#    x 1.909450 0.000000 0.000000 
#    y 0.000000 1.942410 0.000000 
#    z 0.000000 0.000000 1.935810 
# 
# From -- ./inp_files/22700.got.cif
#   From: 2010.06.25/outbox.cif.g09.slc.cpg/sg52_12_cif.got.tgz:22700.got - 2010.06.26 19:32:48.
