data_PCOD8216776
_publ_section_title
;
Structure prediction by ZEFSAII (Michael W. Deem and Ramdas Pophale) SiO2 
 PCOD8216776
Probable space group: P N N A
;
_chemical_formula_sum "Si O2"
_cell_formula_units_Z 36
_cell_length_a 13.322662
_cell_length_b 10.056609
_cell_length_c 12.899123
_cell_angle_alpha 90.000000
_cell_angle_beta 90.000000
_cell_angle_gamma 90.000000
_cell_volume 1728.234852
_symmetry_space_group_name_H-M "P N N A"
_symmetry_group_IT_number 52
_symmetry_cell_setting 'orthorhombic'
loop_
_space_group_symop_operation_xyz
x,y,z
1/2-x,-y,z
x,1/2-y,1/2-z
1/2-x,1/2+y,1/2-z
-x,-y,-z
1/2+x,y,-z
-x,1/2+y,1/2+z
1/2+x,1/2-y,1/2+z
loop_
_atom_site_type_symbol
_atom_site_label
_atom_site_fract_x
_atom_site_fract_y
_atom_site_fract_z
Si Si1 0.490357 0.670770 0.573296
Si Si2 0.750000 0.000000 0.328055
Si Si3 0.554915 0.891896 0.428438
Si Si4 0.355604 0.750000 0.750000
Si Si5 0.060789 0.250000 0.250000
Si Si6 0.636993 0.043520 0.902737
O O1 0.558091 0.756929 0.494959
O O2 0.427166 0.762084 0.650595
O O3 0.567112 0.577717 0.637695
O O4 0.407341 0.583757 0.513819
O O5 0.833803 0.057814 0.404983
O O6 0.711543 0.117001 0.252066
O O7 0.503611 0.854888 0.318218
O O8 0.500000 0.000000 0.500000
O O9 0.133557 0.165312 0.176842
O O10 0.750000 0.000000 0.917831
#
# Coordination Sequence:
#
# PCOD8216776 Si02
#       6
#     8   4   8   4   4   8
#     4  10  24  42  66  94 137 168 219 283 336 396
#     4  12  26  40  74 100 134 184 228 282 342 426
#     4  11  23  45  65  98 135 174 223 281 342 399
#     4  12  25  43  68 106 134 176 229 283 344 408
#     4  10  23  45  62  94 138 168 219 289 328 400
#     4  10  23  42  67  93 126 177 217 269 337 409
#
# _framework density 20.830503
#
# number of rings (size 3 to 8) (size 9 to 14) (size 15 to 20)
#    0.000    1.333    2.222    2.000    4.667    2.667 
#    2.000    0.000    0.000    0.000    0.000    0.000 
#    0.000    0.000    0.000    0.000    0.000    0.000 
#
# Total GULP energy -446405.581893 kJ/mol
# GULP energy per Si atom -12400.155053 kJ/mol
# Density = 2.078309 g / cm^3
# Si number density = 20.830503 Si / 1000 Ang^3
#
#
#
# Elastic Constant Matrix: (Units=GPa)
#
#
# Indices 1 2 3 4 5 6 
#
# 1 156.3488 66.0665 54.0456 0.0000 0.0000 0.0000
# 2 66.0665 112.0346 34.0791 0.0000 0.0000 0.0000
# 3 54.0456 34.0791 83.9256 0.0000 0.0000 0.0000
# 4 0.0000 0.0000 0.0000 40.8556 0.0000 0.0000
# 5 0.0000 0.0000 0.0000 0.0000 24.0533 0.0000
# 6 0.0000 0.0000 0.0000 0.0000 0.0000 45.3643
#
#
#
# Elastic Compliance Matrix: (Units=1/GPa)
#
#
# Indices 1 2 3 4 5 6 
#
# 1 0.009831 -0.004417 -0.004537 0.000000 0.000000 0.000000
# 2 -0.004417 0.012168 -0.002097 0.000000 0.000000 0.000000
# 3 -0.004537 -0.002097 0.015688 0.000000 0.000000 0.000000
# 4 0.000000 0.000000 0.000000 0.024476 0.000000 0.000000
# 5 0.000000 0.000000 0.000000 0.000000 0.041574 0.000000
# 6 0.000000 0.000000 0.000000 0.000000 0.000000 0.022044
#
#
# Mechanical properties :
#
#
# Convention : Reuss Voigt Hill
#
# Bulk Modulus (GPa) = 64.16062 73.41016 68.78539
# Shear Modulus (GPa) = 32.66286 35.26250 33.96268
#
# Velocity S-wave (km/s) = 3.96413 4.11887 4.04224
# Velocity P-wave (km/s) = 7.19865 7.61172 7.40806
#
# Compressibility (1/GPa) = 0.01558588
#
# Stress axis : x y z
#
# Youngs Moduli (GPa) = 101.72127 82.18069 63.74115
#
# Poissons Ratio (x) = 0.36300 0.28920
# Poissons Ratio (y) = 0.44931 0.13364
# Poissons Ratio (z) = 0.46152 0.17230
#
# Static dielectric constant tensor:
#      x y z
#    x 3.657360 0.000000 0.000000 
#    y 0.000000 4.078750 0.000000 
#    z 0.000000 0.000000 3.704610 
# 
# 
# High freq. dielectric constant tensor:
#      x y z
#    x 1.808410 0.000000 0.000000 
#    y 0.000000 1.836920 0.000000 
#    z 0.000000 0.000000 1.812450 
# 
# From -- ./inp_files/17796.got.cif
#   From: 2010.06.25/outbox.cif.g09.slc.cpg/sg52_9_cif.got.tgz:17796.got - 2010.06.26 19:32:48.
