data_PCOD8216871
_publ_section_title
;
Structure prediction by ZEFSAII (Michael W. Deem and Ramdas Pophale) SiO2 
 PCOD8216871
Probable space group: P N N A
;
_chemical_formula_sum "Si O2"
_cell_formula_units_Z 48
_cell_length_a 18.757886
_cell_length_b 14.524264
_cell_length_c 8.409768
_cell_angle_alpha 90.000000
_cell_angle_beta 90.000000
_cell_angle_gamma 90.000000
_cell_volume 2291.194940
_symmetry_space_group_name_H-M "P N N A"
_symmetry_group_IT_number 52
_symmetry_cell_setting 'orthorhombic'
loop_
_space_group_symop_operation_xyz
x,y,z
1/2-x,-y,z
x,1/2-y,1/2-z
1/2-x,1/2+y,1/2-z
-x,-y,-z
1/2+x,y,-z
-x,1/2+y,1/2+z
1/2+x,1/2-y,1/2+z
loop_
_atom_site_type_symbol
_atom_site_label
_atom_site_fract_x
_atom_site_fract_y
_atom_site_fract_z
Si Si1 0.391646 0.249930 0.064287
Si Si2 0.949204 0.074047 0.077416
Si Si3 0.679063 0.047822 0.119706
Si Si4 0.383991 0.674633 0.873927
Si Si5 0.770100 0.777376 0.935175
Si Si6 0.988190 0.398912 0.063956
O O1 0.392193 0.250000 0.250000
O O2 0.311422 0.229306 0.005394
O O3 0.447672 0.172474 0.008665
O O4 0.416837 0.349985 0.002507
O O5 0.980690 0.096760 0.248729
O O6 0.870217 0.033620 0.054886
O O7 0.000000 0.000000 0.000000
O O8 0.635451 0.085401 0.270911
O O9 0.750000 0.000000 0.183870
O O10 0.697150 0.121944 0.979747
O O11 0.413506 0.750000 0.750000
O O12 0.311631 0.703716 0.959796
O O13 0.443103 0.658848 0.008316
O O14 0.778837 0.750000 0.750000
O O15 0.000000 0.500000 0.000000
#
# Coordination Sequence:
#
# PCOD8216871 Si02
#       6
#     8   8   8   8   8   8
#     4  11  25  46  67  97 140 178 229 283 339 404
#     4  12  27  43  69 102 136 184 224 287 345 411
#     4  11  23  45  69 100 140 174 233 281 344 412
#     4  10  24  42  70  95 135 179 224 284 344 409
#     4  10  24  43  68  98 133 184 224 278 340 405
#     4  12  25  43  67 100 134 178 229 276 343 406
#
# _framework density 20.949766
#
# number of rings (size 3 to 8) (size 9 to 14) (size 15 to 20)
#    0.000    1.000    3.333    2.000    9.333    1.333 
#    0.000    0.833    0.000    0.000    0.000    0.000 
#    0.000    0.000    0.000    0.000    0.000    0.000 
#
# Total GULP energy -595115.993286 kJ/mol
# GULP energy per Si atom -12398.249860 kJ/mol
# Density = 2.090208 g / cm^3
# Si number density = 20.949766 Si / 1000 Ang^3
#
#
#
# Elastic Constant Matrix: (Units=GPa)
#
#
# Indices 1 2 3 4 5 6 
#
# 1 125.3729 50.4634 58.2755 0.0000 0.0000 0.0000
# 2 50.4634 108.0868 35.6349 0.0000 0.0000 0.0000
# 3 58.2755 35.6349 98.0492 0.0000 0.0000 0.0000
# 4 0.0000 0.0000 0.0000 34.3876 0.0000 0.0000
# 5 0.0000 0.0000 0.0000 0.0000 38.0024 0.0000
# 6 0.0000 0.0000 0.0000 0.0000 0.0000 29.7637
#
#
#
# Elastic Compliance Matrix: (Units=1/GPa)
#
#
# Indices 1 2 3 4 5 6 
#
# 1 0.012236 -0.003767 -0.005904 0.000000 0.000000 0.000000
# 2 -0.003767 0.011671 -0.002003 0.000000 0.000000 0.000000
# 3 -0.005904 -0.002003 0.014436 0.000000 0.000000 0.000000
# 4 0.000000 0.000000 0.000000 0.029080 0.000000 0.000000
# 5 0.000000 0.000000 0.000000 0.000000 0.026314 0.000000
# 6 0.000000 0.000000 0.000000 0.000000 0.000000 0.033598
#
#
# Mechanical properties :
#
#
# Convention : Reuss Voigt Hill
#
# Bulk Modulus (GPa) = 66.68272 68.91737 67.80004
# Shear Modulus (GPa) = 32.11701 32.90642 32.51172
#
# Velocity S-wave (km/s) = 3.91966 3.96754 3.94368
# Velocity P-wave (km/s) = 7.23767 7.34550 7.29179
#
# Compressibility (1/GPa) = 0.01499639
#
# Stress axis : x y z
#
# Youngs Moduli (GPa) = 81.72298 85.68480 69.27194
#
# Poissons Ratio (x) = 0.32273 0.40897
# Poissons Ratio (y) = 0.30781 0.13875
# Poissons Ratio (z) = 0.48248 0.17162
#
# Static dielectric constant tensor:
#      x y z
#    x 1.070900 0.000000 0.000000 
#    y 0.000000 3.923620 0.000000 
#    z 0.000000 0.000000 -1.133530 
# 
# 
# High freq. dielectric constant tensor:
#      x y z
#    x 1.834820 0.000000 0.000000 
#    y 0.000000 1.834290 0.000000 
#    z 0.000000 0.000000 1.820470 
# 
# From -- ./inp_files/12030.got.cif
#   From: 2010.06.25/outbox.cif.g09.slc.cpg/sg52_7_cif.got.tgz:12030.got - 2010.06.26 19:32:48.
