data_PCOD8216177
_publ_section_title
;
Structure prediction by ZEFSAII (Michael W. Deem and Ramdas Pophale) SiO2 
 PCOD8216177
Probable space group: P N N A
;
_chemical_formula_sum "Si O2"
_cell_formula_units_Z 52
_cell_length_a 26.021451
_cell_length_b 10.274211
_cell_length_c 9.272377
_cell_angle_alpha 90.000000
_cell_angle_beta 90.000000
_cell_angle_gamma 90.000000
_cell_volume 2478.968861
_symmetry_space_group_name_H-M "P N N A"
_symmetry_group_IT_number 52
_symmetry_cell_setting 'orthorhombic'
loop_
_space_group_symop_operation_xyz
x,y,z
1/2-x,-y,z
x,1/2-y,1/2-z
1/2-x,1/2+y,1/2-z
-x,-y,-z
1/2+x,y,-z
-x,1/2+y,1/2+z
1/2+x,1/2-y,1/2+z
loop_
_atom_site_type_symbol
_atom_site_label
_atom_site_fract_x
_atom_site_fract_y
_atom_site_fract_z
Si Si1 0.241537 0.750000 0.750000
Si Si2 0.818662 0.909052 0.054945
Si Si3 0.210036 0.102581 0.258099
Si Si4 0.977601 0.643786 0.123508
Si Si5 0.630672 0.347181 0.995006
Si Si6 0.656533 0.568298 0.191351
Si Si7 0.457473 0.359809 0.857534
O O1 0.272409 0.842807 0.856914
O O2 0.204252 0.660295 0.849090
O O3 0.863033 0.803738 0.030813
O O4 0.842088 0.033235 0.137865
O O5 0.799560 0.956961 0.899845
O O6 0.233065 0.250000 0.250000
O O7 0.155187 0.111549 0.341757
O O8 0.250000 0.000000 0.332100
O O9 0.970944 0.750000 0.250000
O O10 0.929983 0.630344 0.010588
O O11 0.981290 0.499244 0.192895
O O12 0.026448 0.675123 0.022655
O O13 0.662487 0.430043 0.112224
O O14 0.604253 0.640428 0.147729
O O15 0.479301 0.250000 0.750000
#
# Coordination Sequence:
#
# PCOD8216177 Si02
#       7
#     4   8   8   8   8   8   8
#     4  12  22  32  64  90 120 168 206 262 300 380
#     4  11  22  37  59  91 119 169 215 250 310 379
#     4  10  23  38  56  84 126 163 209 256 312 378
#     4  10  22  43  70  93 128 168 217 268 325 394
#     4  10  21  38  62  87 120 167 208 261 313 373
#     4  11  21  38  60  89 128 156 211 259 313 372
#     4  10  22  42  65  97 128 163 211 269 328 377
#
# _framework density 20.976462999999999
#
# number of rings (size 3 to 8) (size 9 to 14) (size 15 to 20)
#    0.000    1.538    2.308    3.231    4.308    2.462 
#    0.000    4.615    0.000    0.000    0.000    0.000 
#    0.000    0.000    0.000    0.000    0.000    0.000 
#
# Total GULP energy -644505.109247 kJ/mol
# GULP energy per Si atom -12394.329024 kJ/mol
# Density = 2.092872 g / cm^3
# Si number density = 20.976463 Si / 1000 Ang^3
#
#
#
# Elastic Constant Matrix: (Units=GPa)
#
#
# Indices 1 2 3 4 5 6 
#
# 1 101.8197 33.1042 56.8933 0.0000 0.0000 0.0000
# 2 33.1042 97.0828 38.2179 0.0000 0.0000 0.0000
# 3 56.8933 38.2179 110.6068 0.0000 0.0000 0.0000
# 4 0.0000 0.0000 0.0000 29.7651 0.0000 0.0000
# 5 0.0000 0.0000 0.0000 0.0000 26.5182 0.0000
# 6 0.0000 0.0000 0.0000 0.0000 0.0000 22.2217
#
#
#
# Elastic Compliance Matrix: (Units=1/GPa)
#
#
# Indices 1 2 3 4 5 6 
#
# 1 0.014205 -0.002277 -0.006520 0.000000 0.000000 0.000000
# 2 -0.002277 0.012287 -0.003074 0.000000 0.000000 0.000000
# 3 -0.006520 -0.003074 0.013457 0.000000 0.000000 0.000000
# 4 0.000000 0.000000 0.000000 0.033596 0.000000 0.000000
# 5 0.000000 0.000000 0.000000 0.000000 0.037710 0.000000
# 6 0.000000 0.000000 0.000000 0.000000 0.000000 0.045001
#
#
# Mechanical properties :
#
#
# Convention : Reuss Voigt Hill
#
# Bulk Modulus (GPa) = 61.70363 62.88225 62.29294
# Shear Modulus (GPa) = 26.96867 27.78726 27.37796
#
# Velocity S-wave (km/s) = 3.58950 3.64357 3.61664
# Velocity P-wave (km/s) = 6.83073 6.90966 6.87031
#
# Compressibility (1/GPa) = 0.01620650
#
# Stress axis : x y z
#
# Youngs Moduli (GPa) = 70.39982 81.38559 74.31147
#
# Poissons Ratio (x) = 0.18532 0.48449
# Poissons Ratio (y) = 0.16030 0.22846
# Poissons Ratio (z) = 0.45898 0.25021
#
# Static dielectric constant tensor:
#      x y z
#    x 3.624460 0.000000 0.000000 
#    y 0.000000 4.087770 0.000000 
#    z 0.000000 0.000000 3.757410 
# 
# 
# High freq. dielectric constant tensor:
#      x y z
#    x 1.810670 0.000000 0.000000 
#    y 0.000000 1.832300 0.000000 
#    z 0.000000 0.000000 1.807070 
# 
# From -- ./inp_files/15659.got.cif
#   From: 2010.06.25/outbox.cif.g09.slc.cpg/sg52_8_cif.got.tgz:15659.got - 2010.06.26 19:32:48.
