data_PCOD8216232
_publ_section_title
;
Structure prediction by ZEFSAII (Michael W. Deem and Ramdas Pophale) SiO2 
 PCOD8216232
Probable space group: P N N A
;
_chemical_formula_sum "Si O2"
_cell_formula_units_Z 48
_cell_length_a 27.383695
_cell_length_b 9.369343
_cell_length_c 8.757493
_cell_angle_alpha 90.000000
_cell_angle_beta 90.000000
_cell_angle_gamma 90.000000
_cell_volume 2246.885730
_symmetry_space_group_name_H-M "P N N A"
_symmetry_group_IT_number 52
_symmetry_cell_setting 'orthorhombic'
loop_
_space_group_symop_operation_xyz
x,y,z
1/2-x,-y,z
x,1/2-y,1/2-z
1/2-x,1/2+y,1/2-z
-x,-y,-z
1/2+x,y,-z
-x,1/2+y,1/2+z
1/2+x,1/2-y,1/2+z
loop_
_atom_site_type_symbol
_atom_site_label
_atom_site_fract_x
_atom_site_fract_y
_atom_site_fract_z
Si Si1 0.463784 0.099535 0.816876
Si Si2 0.885637 0.603560 0.192049
Si Si3 0.448156 0.107587 0.168824
Si Si4 0.333900 0.830389 0.398243
Si Si5 0.836925 0.410481 0.716093
Si Si6 0.801249 0.935121 0.070507
O O1 0.476398 0.250000 0.750000
O O2 0.421525 0.027115 0.717044
O O3 0.514014 0.016393 0.796524
O O4 0.444241 0.121318 0.987135
O O5 0.910718 0.750000 0.250000
O O6 0.834531 0.579158 0.280219
O O7 0.876749 0.622418 0.012285
O O8 0.468147 0.250000 0.250000
O O9 0.395092 0.072198 0.238140
O O10 0.356675 0.750000 0.250000
O O11 0.296909 0.720584 0.485445
O O12 0.310110 0.978299 0.333572
O O13 0.818858 0.250000 0.750000
O O14 0.823841 0.448320 0.543118
O O15 0.750000 0.000000 0.125505
#
# Coordination Sequence:
#
# PCOD8216232 Si02
#       6
#     8   8   8   8   8   8
#     4  11  24  40  64  94 126 170 216 264 321 384
#     4  10  21  41  63  91 127 167 212 261 322 383
#     4  10  23  43  60  92 134 166 213 264 320 385
#     4   9  21  40  64  91 124 166 213 254 314 383
#     4  10  21  39  63  93 129 169 208 267 315 377
#     4  10  21  41  64  91 127 164 211 267 318 381
#
# _framework density 21.362901999999998
#
# number of rings (size 3 to 8) (size 9 to 14) (size 15 to 20)
#    0.000    2.000    1.667    0.500    4.667    4.667 
#    3.000   10.833    0.000    0.000    0.000    0.000 
#    0.000    0.000    0.000    0.000    0.000    0.000 
#
# Total GULP energy -594951.661555 kJ/mol
# GULP energy per Si atom -12394.826282 kJ/mol
# Density = 2.131428 g / cm^3
# Si number density = 21.362902 Si / 1000 Ang^3
#
#
#
# Elastic Constant Matrix: (Units=GPa)
#
#
# Indices 1 2 3 4 5 6 
#
# 1 61.0308 26.7769 15.4482 0.0000 0.0000 0.0000
# 2 26.7769 149.0776 42.0893 0.0000 0.0000 0.0000
# 3 15.4482 42.0893 93.4947 0.0000 0.0000 0.0000
# 4 0.0000 0.0000 0.0000 34.7589 0.0000 0.0000
# 5 0.0000 0.0000 0.0000 0.0000 8.7876 0.0000
# 6 0.0000 0.0000 0.0000 0.0000 0.0000 37.4483
#
#
#
# Elastic Compliance Matrix: (Units=1/GPa)
#
#
# Indices 1 2 3 4 5 6 
#
# 1 0.018031 -0.002747 -0.001743 0.000000 0.000000 0.000000
# 2 -0.002747 0.008103 -0.003194 0.000000 0.000000 0.000000
# 3 -0.001743 -0.003194 0.012422 0.000000 0.000000 0.000000
# 4 0.000000 0.000000 0.000000 0.028770 0.000000 0.000000
# 5 0.000000 0.000000 0.000000 0.000000 0.113797 0.000000
# 6 0.000000 0.000000 0.000000 0.000000 0.000000 0.026703
#
#
# Mechanical properties :
#
#
# Convention : Reuss Voigt Hill
#
# Bulk Modulus (GPa) = 43.12379 52.47021 47.79700
# Shear Modulus (GPa) = 21.65227 30.81821 26.23524
#
# Velocity S-wave (km/s) = 3.18708 3.80228 3.50819
# Velocity P-wave (km/s) = 5.81149 6.62504 6.23156
#
# Compressibility (1/GPa) = 0.02318906
#
# Stress axis : x y z
#
# Youngs Moduli (GPa) = 55.45879 123.41065 80.50484
#
# Poissons Ratio (x) = 0.33897 0.14031
# Poissons Ratio (y) = 0.15233 0.25713
# Poissons Ratio (z) = 0.09666 0.39417
#
# Static dielectric constant tensor:
#      x y z
#    x 3.497830 0.000000 0.000000 
#    y 0.000000 4.160290 0.000000 
#    z 0.000000 0.000000 4.030690 
# 
# 
# High freq. dielectric constant tensor:
#      x y z
#    x 1.808160 0.000000 0.000000 
#    y 0.000000 1.855000 0.000000 
#    z 0.000000 0.000000 1.844260 
# 
# From -- ./inp_files/15507.got.cif
#   From: 2010.06.25/outbox.cif.g09.slc.cpg/sg52_8_cif.got.tgz:15507.got - 2010.06.26 19:32:48.
