data_PCOD8216124
_publ_section_title
;
Structure prediction by ZEFSAII (Michael W. Deem and Ramdas Pophale) SiO2 
 PCOD8216124
Probable space group: P N N A
;
_chemical_formula_sum "Si O2"
_cell_formula_units_Z 56
_cell_length_a 22.034361
_cell_length_b 8.540043
_cell_length_c 14.376973
_cell_angle_alpha 90.000000
_cell_angle_beta 90.000000
_cell_angle_gamma 90.000000
_cell_volume 2705.378130
_symmetry_space_group_name_H-M "P N N A"
_symmetry_group_IT_number 52
_symmetry_cell_setting 'orthorhombic'
loop_
_space_group_symop_operation_xyz
x,y,z
1/2-x,-y,z
x,1/2-y,1/2-z
1/2-x,1/2+y,1/2-z
-x,-y,-z
1/2+x,y,-z
-x,1/2+y,1/2+z
1/2+x,1/2-y,1/2+z
loop_
_atom_site_type_symbol
_atom_site_label
_atom_site_fract_x
_atom_site_fract_y
_atom_site_fract_z
Si Si1 0.477177 0.320900 0.847954
Si Si2 0.456141 0.687969 0.847709
Si Si3 0.606371 0.187839 0.844965
Si Si4 0.087182 0.671289 0.343616
Si Si5 0.649864 0.328864 0.458198
Si Si6 0.628095 0.812633 0.041353
Si Si7 0.737902 0.818426 0.352606
O O1 0.456478 0.250000 0.750000
O O2 0.462966 0.503158 0.848400
O O3 0.548263 0.295966 0.867297
O O4 0.439591 0.231884 0.927406
O O5 0.429263 0.750000 0.750000
O O6 0.520309 0.768146 0.866918
O O7 0.409091 0.733830 0.927091
O O8 0.638263 0.250000 0.750000
O O9 0.581779 0.013520 0.827771
O O10 0.654128 0.194038 0.929841
O O11 0.113685 0.750000 0.250000
O O12 0.131646 0.710393 0.429685
O O13 0.642741 0.509588 0.430839
O O14 0.710243 0.267205 0.410785
O O15 0.675313 0.699541 0.091977
O O16 0.732548 0.750000 0.250000
O O17 0.750000 0.000000 0.343431
#
# Coordination Sequence:
#
# PCOD8216124 Si02
#       7
#     8   8   8   8   8   8   8
#     4  11  21  34  56  86 120 155 192 236 286 342
#     4  11  21  34  56  86 120 155 192 236 286 342
#     4  10  21  37  59  86 118 153 190 236 286 339
#     4  10  21  37  59  86 118 153 190 236 286 339
#     4  11  23  40  60  84 116 153 193 237 287 339
#     4  11  23  40  60  84 116 153 193 237 287 339
#     4  12  26  44  65  88 115 148 189 236 284 338
#
# _framework density 20.699508000000002
#
# number of rings (size 3 to 8) (size 9 to 14) (size 15 to 20)
#    0.000    1.143    0.000    9.000    0.000    8.000 
#    0.000    0.714    0.000    0.000    0.000    0.000 
#    0.000    0.000    0.000    0.000    0.000    0.000 
#
# Total GULP energy -694602.673906 kJ/mol
# GULP energy per Si atom -12403.619177 kJ/mol
# Density = 2.065240 g / cm^3
# Si number density = 20.699508 Si / 1000 Ang^3
#
#
#
# Elastic Constant Matrix: (Units=GPa)
#
#
# Indices 1 2 3 4 5 6 
#
# 1 44.9548 -7.1061 35.1714 0.0000 0.0000 0.0000
# 2 -7.1061 55.0659 17.4529 0.0000 0.0000 0.0000
# 3 35.1714 17.4529 128.1028 0.0000 0.0000 0.0000
# 4 0.0000 0.0000 0.0000 29.7216 0.0000 0.0000
# 5 0.0000 0.0000 0.0000 0.0000 21.4968 0.0000
# 6 0.0000 0.0000 0.0000 0.0000 0.0000 40.5584
#
#
#
# Elastic Compliance Matrix: (Units=1/GPa)
#
#
# Indices 1 2 3 4 5 6 
#
# 1 0.030664 0.006924 -0.009362 0.000000 0.000000 0.000000
# 2 0.006924 0.020543 -0.004700 0.000000 0.000000 0.000000
# 3 -0.009362 -0.004700 0.011017 0.000000 0.000000 0.000000
# 4 0.000000 0.000000 0.000000 0.033646 0.000000 0.000000
# 5 0.000000 0.000000 0.000000 0.000000 0.046519 0.000000
# 6 0.000000 0.000000 0.000000 0.000000 0.000000 0.024656
#
#
# Mechanical properties :
#
#
# Convention : Reuss Voigt Hill
#
# Bulk Modulus (GPa) = 20.85568 35.46220 28.15894
# Shear Modulus (GPa) = 25.34173 30.52905 27.93539
#
# Velocity S-wave (km/s) = 3.50275 3.84457 3.67763
# Velocity P-wave (km/s) = 5.14357 6.07262 5.62730
#
# Compressibility (1/GPa) = 0.04794856
#
# Stress axis : x y z
#
# Youngs Moduli (GPa) = 32.61149 48.67768 90.76822
#
# Poissons Ratio (x) = -0.33707 0.84981
# Poissons Ratio (y) = -0.22582 0.42661
# Poissons Ratio (z) = 0.30532 0.22879
#
# Static dielectric constant tensor:
#      x y z
#    x 3.481030 0.000000 0.000000 
#    y 0.000000 3.904610 0.000000 
#    z 0.000000 0.000000 4.054710 
# 
# 
# High freq. dielectric constant tensor:
#      x y z
#    x 1.780370 0.000000 0.000000 
#    y 0.000000 1.828500 0.000000 
#    z 0.000000 0.000000 1.828180 
# 
# From -- ./inp_files/28758.got.cif
#   From: 2010.06.25/outbox.cif.g09.slc.cpg/sg52_15_cif.got.tgz:28758.got - 2010.06.26 19:32:48.
