data_PCOD8216926
_publ_section_title
;
Structure prediction by ZEFSAII (Michael W. Deem and Ramdas Pophale) SiO2 
 PCOD8216926
Probable space group: P N N A
;
_chemical_formula_sum "Si O2"
_cell_formula_units_Z 32
_cell_length_a 5.577257
_cell_length_b 7.668564
_cell_length_c 31.719160
_cell_angle_alpha 90.000000
_cell_angle_beta 90.000000
_cell_angle_gamma 90.000000
_cell_volume 1356.614271
_symmetry_space_group_name_H-M "P N N A"
_symmetry_group_IT_number 52
_symmetry_cell_setting 'orthorhombic'
loop_
_space_group_symop_operation_xyz
x,y,z
1/2-x,-y,z
x,1/2-y,1/2-z
1/2-x,1/2+y,1/2-z
-x,-y,-z
1/2+x,y,-z
-x,1/2+y,1/2+z
1/2+x,1/2-y,1/2+z
loop_
_atom_site_type_symbol
_atom_site_label
_atom_site_fract_x
_atom_site_fract_y
_atom_site_fract_z
Si Si1 0.093401 0.226703 0.831049
Si Si2 0.250000 0.000000 0.121539
Si Si3 0.855852 0.307540 0.411859
Si Si4 0.250000 0.500000 0.974533
Si Si5 0.604137 0.750000 0.250000
Si Si6 0.250000 0.000000 0.294386
O O1 0.273246 0.284268 0.868046
O O2 0.229153 0.186051 0.787944
O O3 0.886511 0.368483 0.824856
O O4 0.968743 0.050853 0.847830
O O5 0.145558 0.158902 0.092449
O O6 0.750000 0.500000 0.421419
O O7 0.771884 0.177304 0.447966
O O8 0.500000 0.500000 0.000000
O O9 0.442506 0.588394 0.236212
#
# Coordination Sequence:
#
# PCOD8216926 Si02
#       6
#     8   4   8   4   4   4
#     4  11  26  44  71 104 144 199 258 317 388 469
#     4  10  24  47  76 107 146 200 253 320 390 478
#     4  10  26  49  79 114 156 205 256 321 401 481
#     4  12  32  53  86 125 162 206 269 336 411 502
#     4  12  28  44  62 104 142 204 254 322 384 454
#     4  12  28  42  64  96 148 198 260 326 381 458
#
# _framework density 23.588134
#
# number of rings (size 3 to 8) (size 9 to 14) (size 15 to 20)
#    0.000    1.000    0.000    3.000   14.000   20.000 
#    0.000    0.000    0.000    0.000    0.000    0.000 
#    0.000    0.000    0.000    0.000    0.000    0.000 
#
# Total GULP energy -396611.154027 kJ/mol
# GULP energy per Si atom -12394.098563 kJ/mol
# Density = 2.353445 g / cm^3
# Si number density = 23.588134 Si / 1000 Ang^3
#
#
#
# Elastic Constant Matrix: (Units=GPa)
#
#
# Indices 1 2 3 4 5 6 
#
# 1 167.1405 50.5406 80.2984 0.0000 0.0000 0.0000
# 2 50.5406 120.6907 65.5281 0.0000 0.0000 0.0000
# 3 80.2984 65.5281 153.4658 0.0000 0.0000 0.0000
# 4 0.0000 0.0000 0.0000 38.9143 0.0000 0.0000
# 5 0.0000 0.0000 0.0000 0.0000 18.1184 0.0000
# 6 0.0000 0.0000 0.0000 0.0000 0.0000 25.1176
#
#
#
# Elastic Compliance Matrix: (Units=1/GPa)
#
#
# Indices 1 2 3 4 5 6 
#
# 1 0.008178 -0.001434 -0.003667 0.000000 0.000000 0.000000
# 2 -0.001434 0.011038 -0.003963 0.000000 0.000000 0.000000
# 3 -0.003667 -0.003963 0.010127 0.000000 0.000000 0.000000
# 4 0.000000 0.000000 0.000000 0.025697 0.000000 0.000000
# 5 0.000000 0.000000 0.000000 0.000000 0.055192 0.000000
# 6 0.000000 0.000000 0.000000 0.000000 0.000000 0.039813
#
#
# Mechanical properties :
#
#
# Convention : Reuss Voigt Hill
#
# Bulk Modulus (GPa) = 89.16018 92.67012 90.91515
# Shear Modulus (GPa) = 29.08489 32.75874 30.92182
#
# Velocity S-wave (km/s) = 3.51526 3.73068 3.62457
# Velocity P-wave (km/s) = 7.37271 7.61113 7.49287
#
# Compressibility (1/GPa) = 0.01121577
#
# Stress axis : x y z
#
# Youngs Moduli (GPa) = 122.27602 90.59950 98.74810
#
# Poissons Ratio (x) = 0.12990 0.36210
# Poissons Ratio (y) = 0.17532 0.39131
# Poissons Ratio (z) = 0.44837 0.35902
#
# Static dielectric constant tensor:
#      x y z
#    x 4.932580 0.000000 0.000000 
#    y 0.000000 5.772730 0.000000 
#    z 0.000000 0.000000 3.695970 
# 
# 
# High freq. dielectric constant tensor:
#      x y z
#    x 1.961090 0.000000 0.000000 
#    y 0.000000 1.938970 0.000000 
#    z 0.000000 0.000000 1.919150 
# 
# From -- ./inp_files/43530.got.cif
#   From: 2010.06.25/outbox.cif.g09.slc.cpg/sg52_22_cif.got.tgz:43530.got - 2010.06.26 19:32:48.
