data_PCOD8216003
_publ_section_title
;
Structure prediction by ZEFSAII (Michael W. Deem and Ramdas Pophale) SiO2 
 PCOD8216003
Probable space group: P N N A
;
_chemical_formula_sum "Si O2"
_cell_formula_units_Z 48
_cell_length_a 8.472867
_cell_length_b 9.517825
_cell_length_c 30.691064
_cell_angle_alpha 90.000000
_cell_angle_beta 90.000000
_cell_angle_gamma 90.000000
_cell_volume 2475.027618
_symmetry_space_group_name_H-M "P N N A"
_symmetry_group_IT_number 52
_symmetry_cell_setting 'orthorhombic'
loop_
_space_group_symop_operation_xyz
x,y,z
1/2-x,-y,z
x,1/2-y,1/2-z
1/2-x,1/2+y,1/2-z
-x,-y,-z
1/2+x,y,-z
-x,1/2+y,1/2+z
1/2+x,1/2-y,1/2+z
loop_
_atom_site_type_symbol
_atom_site_label
_atom_site_fract_x
_atom_site_fract_y
_atom_site_fract_z
Si Si1 0.568313 0.989799 0.351747
Si Si2 0.435654 0.495401 0.451831
Si Si3 0.569688 0.778110 0.880810
Si Si4 0.941541 0.774918 0.885129
Si Si5 0.408409 0.585953 0.238433
Si Si6 0.433451 0.007567 0.821153
O O1 0.536553 0.871030 0.388277
O O2 0.462310 0.944512 0.310723
O O3 0.750000 0.000000 0.337828
O O4 0.519537 0.133081 0.374874
O O5 0.250000 0.500000 0.453395
O O6 0.500000 0.500000 0.500000
O O7 0.489525 0.356436 0.425065
O O8 0.496095 0.633327 0.426553
O O9 0.755027 0.749404 0.883209
O O10 0.527939 0.873472 0.839227
O O11 0.992105 0.852207 0.841041
O O12 0.250000 0.500000 0.247492
O O13 0.382642 0.750000 0.250000
O O14 0.542968 0.519102 0.269379
O O15 0.250000 0.000000 0.832909
#
# Coordination Sequence:
#
# PCOD8216003 Si02
#       6
#     8   8   8   8   8   8
#     4  12  25  40  60  90 121 157 202 261 308 345
#     4   9  20  38  65  94 120 152 195 243 294 361
#     4  10  22  39  64  86 120 162 200 238 300 365
#     4  10  20  41  60  87 120 161 200 240 296 374
#     4  12  26  42  61  85 119 163 210 249 302 361
#     4  11  22  38  60  86 117 154 202 255 297 343
#
# _framework density 19.393723000000001
#
# number of rings (size 3 to 8) (size 9 to 14) (size 15 to 20)
#    0.000    1.333    1.667    5.500    2.333    4.000 
#    0.000    0.833    0.000    0.000    0.000    0.000 
#    0.000    0.000    0.000    0.000    0.000    0.000 
#
# Total GULP energy -595184.923572 kJ/mol
# GULP energy per Si atom -12399.685908 kJ/mol
# Density = 1.934958 g / cm^3
# Si number density = 19.393723 Si / 1000 Ang^3
#
#
#
# Elastic Constant Matrix: (Units=GPa)
#
#
# Indices 1 2 3 4 5 6 
#
# 1 68.7299 37.2231 19.7975 0.0000 0.0000 0.0000
# 2 37.2231 166.1504 58.6374 0.0000 0.0000 0.0000
# 3 19.7975 58.6374 119.9294 0.0000 0.0000 0.0000
# 4 0.0000 0.0000 0.0000 22.7060 0.0000 0.0000
# 5 0.0000 0.0000 0.0000 0.0000 33.5956 0.0000
# 6 0.0000 0.0000 0.0000 0.0000 0.0000 22.8963
#
#
#
# Elastic Compliance Matrix: (Units=1/GPa)
#
#
# Indices 1 2 3 4 5 6 
#
# 1 0.016682 -0.003342 -0.001120 0.000000 0.000000 0.000000
# 2 -0.003342 0.007943 -0.003332 0.000000 0.000000 0.000000
# 3 -0.001120 -0.003332 0.010152 0.000000 0.000000 0.000000
# 4 0.000000 0.000000 0.000000 0.044041 0.000000 0.000000
# 5 0.000000 0.000000 0.000000 0.000000 0.029766 0.000000
# 6 0.000000 0.000000 0.000000 0.000000 0.000000 0.043675
#
#
# Mechanical properties :
#
#
# Convention : Reuss Voigt Hill
#
# Bulk Modulus (GPa) = 52.11069 65.12508 58.61788
# Shear Modulus (GPa) = 28.69524 31.78301 30.23912
#
# Velocity S-wave (km/s) = 3.85075 4.05264 3.95298
# Velocity P-wave (km/s) = 6.83368 7.45331 7.15021
#
# Compressibility (1/GPa) = 0.01918992
#
# Stress axis : x y z
#
# Youngs Moduli (GPa) = 59.94362 125.89158 98.50055
#
# Poissons Ratio (x) = 0.42076 0.11030
# Poissons Ratio (y) = 0.20034 0.32821
# Poissons Ratio (z) = 0.06712 0.41948
#
# Static dielectric constant tensor:
#      x y z
#    x 3.479300 0.000000 0.000000 
#    y 0.000000 3.660060 0.000000 
#    z 0.000000 0.000000 3.174900 
# 
# 
# High freq. dielectric constant tensor:
#      x y z
#    x 1.760260 0.000000 0.000000 
#    y 0.000000 1.765710 0.000000 
#    z 0.000000 0.000000 1.740240 
# 
# From -- ./inp_files/44371.got.cif
#   From: 2010.06.25/outbox.cif.g09.slc.cpg/sg52_23_cif.got.tgz:44371.got - 2010.06.26 19:32:48.
