data_PCOD8216676
_publ_section_title
;
Structure prediction by ZEFSAII (Michael W. Deem and Ramdas Pophale) SiO2 
 PCOD8216676
Probable space group: P N N A
;
_chemical_formula_sum "Si O2"
_cell_formula_units_Z 40
_cell_length_a 16.557475
_cell_length_b 11.693544
_cell_length_c 9.194842
_cell_angle_alpha 90.000000
_cell_angle_beta 90.000000
_cell_angle_gamma 90.000000
_cell_volume 1780.264505
_symmetry_space_group_name_H-M "P N N A"
_symmetry_group_IT_number 52
_symmetry_cell_setting 'orthorhombic'
loop_
_space_group_symop_operation_xyz
x,y,z
1/2-x,-y,z
x,1/2-y,1/2-z
1/2-x,1/2+y,1/2-z
-x,-y,-z
1/2+x,y,-z
-x,1/2+y,1/2+z
1/2+x,1/2-y,1/2+z
loop_
_atom_site_type_symbol
_atom_site_label
_atom_site_fract_x
_atom_site_fract_y
_atom_site_fract_z
Si Si1 0.897440 0.982664 0.314656
Si Si2 0.060448 0.600415 0.328613
Si Si3 0.881291 0.327293 0.960533
Si Si4 0.834835 0.956823 0.017806
Si Si5 0.291205 0.784412 0.588400
O O1 0.840900 0.016417 0.178040
O O2 0.848251 0.895634 0.418287
O O3 0.972603 0.917340 0.241048
O O4 0.920969 0.093405 0.411726
O O5 0.121775 0.608481 0.193450
O O6 0.065256 0.712365 0.434119
O O7 0.088187 0.492005 0.421781
O O8 0.789313 0.301937 0.997228
O O9 0.840935 0.820237 0.020018
O O10 0.750000 0.000000 0.950873
O O11 0.265107 0.750000 0.750000
#
# Coordination Sequence:
#
# PCOD8216676 Si02
#       5
#     8   8   8   8   8
#     4  11  24  45  72  99 134 189 239 281 352 434
#     4  11  26  44  67 104 146 176 225 308 361 411
#     4  11  24  44  69  96 141 184 229 291 356 419
#     4  11  22  43  70 100 139 178 236 292 348 424
#     4  10  22  43  74 100 130 183 244 283 331 438
#
# _framework density 22.468571000000001
#
# number of rings (size 3 to 8) (size 9 to 14) (size 15 to 20)
#    0.000    1.200    2.000    4.200    8.400    1.600 
#    0.000    0.000    0.000    0.000    0.000    0.000 
#    0.000    0.000    0.000    0.000    0.000    0.000 
#
# Total GULP energy -495871.432941 kJ/mol
# GULP energy per Si atom -12396.785824 kJ/mol
# Density = 2.241743 g / cm^3
# Si number density = 22.468571 Si / 1000 Ang^3
#
#
#
# Elastic Constant Matrix: (Units=GPa)
#
#
# Indices 1 2 3 4 5 6 
#
# 1 117.6519 59.3309 43.7747 0.0000 0.0000 0.0000
# 2 59.3309 114.8896 60.6936 0.0000 0.0000 0.0000
# 3 43.7747 60.6936 73.2895 0.0000 0.0000 0.0000
# 4 0.0000 0.0000 0.0000 42.8928 0.0000 0.0000
# 5 0.0000 0.0000 0.0000 0.0000 35.6986 0.0000
# 6 0.0000 0.0000 0.0000 0.0000 0.0000 34.5033
#
#
#
# Elastic Compliance Matrix: (Units=1/GPa)
#
#
# Indices 1 2 3 4 5 6 
#
# 1 0.012010 -0.004289 -0.003622 0.000000 0.000000 0.000000
# 2 -0.004289 0.017005 -0.011521 0.000000 0.000000 0.000000
# 3 -0.003622 -0.011521 0.025348 0.000000 0.000000 0.000000
# 4 0.000000 0.000000 0.000000 0.023314 0.000000 0.000000
# 5 0.000000 0.000000 0.000000 0.000000 0.028012 0.000000
# 6 0.000000 0.000000 0.000000 0.000000 0.000000 0.028983
#
#
# Mechanical properties :
#
#
# Convention : Reuss Voigt Hill
#
# Bulk Modulus (GPa) = 64.51245 70.38103 67.44674
# Shear Modulus (GPa) = 27.97957 32.08773 30.03365
#
# Velocity S-wave (km/s) = 3.53267 3.78314 3.66005
# Velocity P-wave (km/s) = 6.73902 7.10458 6.92421
#
# Compressibility (1/GPa) = 0.01550088
#
# Stress axis : x y z
#
# Youngs Moduli (GPa) = 83.26381 58.80607 39.45035
#
# Poissons Ratio (x) = 0.25222 0.14287
# Poissons Ratio (y) = 0.35712 0.45450
# Poissons Ratio (z) = 0.30154 0.67749
#
# Static dielectric constant tensor:
#      x y z
#    x 3.885590 0.000000 0.000000 
#    y 0.000000 4.191930 0.000000 
#    z 0.000000 0.000000 4.204510 
# 
# 
# High freq. dielectric constant tensor:
#      x y z
#    x 1.882930 0.000000 0.000000 
#    y 0.000000 1.890160 0.000000 
#    z 0.000000 0.000000 1.880240 
# 
# From -- ./inp_files/11633.got.cif
#   From: 2010.06.25/outbox.cif.g09.slc.cpg/sg52_6_cif.got.tgz:11633.got - 2010.06.26 19:32:48.
