data_PCOD8216848
_publ_section_title
;
Structure prediction by ZEFSAII (Michael W. Deem and Ramdas Pophale) SiO2 
 PCOD8216848
Probable space group: P N N A
;
_chemical_formula_sum "Si O2"
_cell_formula_units_Z 28
_cell_length_a 8.939860
_cell_length_b 8.705880
_cell_length_c 16.001102
_cell_angle_alpha 90.000000
_cell_angle_beta 90.000000
_cell_angle_gamma 90.000000
_cell_volume 1245.355342
_symmetry_space_group_name_H-M "P N N A"
_symmetry_group_IT_number 52
_symmetry_cell_setting 'orthorhombic'
loop_
_space_group_symop_operation_xyz
x,y,z
1/2-x,-y,z
x,1/2-y,1/2-z
1/2-x,1/2+y,1/2-z
-x,-y,-z
1/2+x,y,-z
-x,1/2+y,1/2+z
1/2+x,1/2-y,1/2+z
loop_
_atom_site_type_symbol
_atom_site_label
_atom_site_fract_x
_atom_site_fract_y
_atom_site_fract_z
Si Si1 0.406501 0.074955 0.265405
Si Si2 0.076369 0.530249 0.911938
Si Si3 0.504583 0.368906 0.611044
Si Si4 0.250000 0.500000 0.495866
O O1 0.366915 0.250000 0.250000
O O2 0.250000 0.000000 0.289933
O O3 0.516213 0.089538 0.344413
O O4 0.488856 0.981628 0.190747
O O5 0.250000 0.500000 0.923626
O O6 0.029580 0.692200 0.868667
O O7 0.000000 0.500000 0.000000
O O8 0.368288 0.412193 0.551457
O O9 0.663316 0.378498 0.562966
#
# Coordination Sequence:
#
# PCOD8216848 Si02
#       4
#     8   8   8   4
#     4  12  28  47  73 105 147 192 245 305 372 436
#     4  12  28  46  75 107 148 190 245 300 369 442
#     4  11  24  46  73 105 147 187 243 297 366 437
#     4  10  24  40  78 104 140 184 242 292 366 422
#
# _framework density 22.483542
#
# number of rings (size 3 to 8) (size 9 to 14) (size 15 to 20)
#    0.000    0.571    1.429    5.143   14.000    0.000 
#    0.000    0.000    0.000    0.000    0.000    0.000 
#    0.000    0.000    0.000    0.000    0.000    0.000 
#
# Total GULP energy -347181.830371 kJ/mol
# GULP energy per Si atom -12399.351085 kJ/mol
# Density = 2.243237 g / cm^3
# Si number density = 22.483542 Si / 1000 Ang^3
#
#
#
# Elastic Constant Matrix: (Units=GPa)
#
#
# Indices 1 2 3 4 5 6 
#
# 1 184.9688 44.2621 70.1635 0.0000 0.0000 0.0000
# 2 44.2621 124.6174 27.1611 0.0000 0.0000 0.0000
# 3 70.1635 27.1611 147.4522 0.0000 0.0000 0.0000
# 4 0.0000 0.0000 0.0000 32.7596 0.0000 0.0000
# 5 0.0000 0.0000 0.0000 0.0000 10.9614 0.0000
# 6 0.0000 0.0000 0.0000 0.0000 0.0000 35.9953
#
#
#
# Elastic Compliance Matrix: (Units=1/GPa)
#
#
# Indices 1 2 3 4 5 6 
#
# 1 0.006975 -0.001827 -0.002982 0.000000 0.000000 0.000000
# 2 -0.001827 0.008839 -0.000759 0.000000 0.000000 0.000000
# 3 -0.002982 -0.000759 0.008341 0.000000 0.000000 0.000000
# 4 0.000000 0.000000 0.000000 0.030525 0.000000 0.000000
# 5 0.000000 0.000000 0.000000 0.000000 0.091230 0.000000
# 6 0.000000 0.000000 0.000000 0.000000 0.000000 0.027781
#
#
# Mechanical properties :
#
#
# Convention : Reuss Voigt Hill
#
# Bulk Modulus (GPa) = 76.81709 82.24573 79.53141
# Shear Modulus (GPa) = 26.43170 36.97336 31.70253
#
# Velocity S-wave (km/s) = 3.43243 4.05960 3.75911
# Velocity P-wave (km/s) = 7.06745 7.65726 7.36826
#
# Compressibility (1/GPa) = 0.01301794
#
# Stress axis : x y z
#
# Youngs Moduli (GPa) = 143.37211 113.13559 119.89402
#
# Poissons Ratio (x) = 0.20674 0.35756
# Poissons Ratio (y) = 0.26199 0.09096
# Poissons Ratio (z) = 0.42758 0.08583
#
# Static dielectric constant tensor:
#      x y z
#    x 4.450900 0.000000 0.000000 
#    y 0.000000 4.588040 0.000000 
#    z 0.000000 0.000000 4.172910 
# 
# 
# High freq. dielectric constant tensor:
#      x y z
#    x 1.905200 0.000000 0.000000 
#    y 0.000000 1.891260 0.000000 
#    z 0.000000 0.000000 1.898690 
# 
# From -- ./inp_files/30640.got.cif
#   From: 2010.06.25/outbox.cif.g09.slc.cpg/sg52_16_cif.got.tgz:30640.got - 2010.06.26 19:32:48.
