data_PCOD8216289
_publ_section_title
;
Structure prediction by ZEFSAII (Michael W. Deem and Ramdas Pophale) SiO2 
 PCOD8216289
Probable space group: P N N A
;
_chemical_formula_sum "Si O2"
_cell_formula_units_Z 56
_cell_length_a 17.753763
_cell_length_b 22.407891
_cell_length_c 6.101264
_cell_angle_alpha 90.000000
_cell_angle_beta 90.000000
_cell_angle_gamma 90.000000
_cell_volume 2427.231606
_symmetry_space_group_name_H-M "P N N A"
_symmetry_group_IT_number 52
_symmetry_cell_setting 'orthorhombic'
loop_
_space_group_symop_operation_xyz
x,y,z
1/2-x,-y,z
x,1/2-y,1/2-z
1/2-x,1/2+y,1/2-z
-x,-y,-z
1/2+x,y,-z
-x,1/2+y,1/2+z
1/2+x,1/2-y,1/2+z
loop_
_atom_site_type_symbol
_atom_site_label
_atom_site_fract_x
_atom_site_fract_y
_atom_site_fract_z
Si Si1 0.203785 0.819301 0.767442
Si Si2 0.480880 0.685388 0.842649
Si Si3 0.199869 0.915869 0.404270
Si Si4 0.592479 0.619008 0.543841
Si Si5 0.644699 0.036449 0.469224
Si Si6 0.353186 0.873731 0.888264
Si Si7 0.465756 0.608135 0.232725
O O1 0.221234 0.750000 0.750000
O O2 0.195497 0.852195 0.530608
O O3 0.269144 0.849224 0.914355
O O4 0.127633 0.826585 0.906020
O O5 0.502923 0.750000 0.750000
O O6 0.539105 0.640355 0.735533
O O7 0.395106 0.671103 0.778856
O O8 0.487632 0.669657 0.101672
O O9 0.160471 0.916701 0.163220
O O10 0.287085 0.935528 0.382932
O O11 0.153637 0.965142 0.545884
O O12 0.537551 0.583548 0.372503
O O13 0.649282 0.060421 0.220612
O O14 0.564240 0.055315 0.574931
O O15 0.395910 0.873101 0.116307
#
# Coordination Sequence:
#
# PCOD8216289 Si02
#       7
#     8   8   8   8   8   8   8
#     4  11  24  40  63  91 127 164 212 269 324 382
#     4  10  22  39  62  85 126 170 211 257 321 383
#     4  10  22  41  62  95 128 167 214 262 330 383
#     4  11  24  36  59  92 128 167 209 260 317 388
#     4   9  20  41  67  88 128 169 210 271 319 389
#     4   9  20  40  64  95 117 160 217 271 322 378
#     4  10  21  40  63  93 126 166 220 263 316 384
#
# _framework density 23.071553999999999
#
# number of rings (size 3 to 8) (size 9 to 14) (size 15 to 20)
#    0.000    2.000    0.000    2.143    4.000    3.429 
#    0.000   14.286    0.000    0.000    0.000    0.000 
#    0.000    0.000    0.000    0.000    0.000    0.000 
#
# Total GULP energy -693903.945888 kJ/mol
# GULP energy per Si atom -12391.141891 kJ/mol
# Density = 2.301904 g / cm^3
# Si number density = 23.071554 Si / 1000 Ang^3
#
#
#
# Elastic Constant Matrix: (Units=GPa)
#
#
# Indices 1 2 3 4 5 6 
#
# 1 90.1225 3.6393 38.0902 0.0000 0.0000 0.0000
# 2 3.6393 97.4037 22.7334 0.0000 0.0000 0.0000
# 3 38.0902 22.7334 92.5273 0.0000 0.0000 0.0000
# 4 0.0000 0.0000 0.0000 20.1287 0.0000 0.0000
# 5 0.0000 0.0000 0.0000 0.0000 43.4864 0.0000
# 6 0.0000 0.0000 0.0000 0.0000 0.0000 18.9689
#
#
#
# Elastic Compliance Matrix: (Units=1/GPa)
#
#
# Indices 1 2 3 4 5 6 
#
# 1 0.013498 0.000841 -0.005763 0.000000 0.000000 0.000000
# 2 0.000841 0.010943 -0.003035 0.000000 0.000000 0.000000
# 3 -0.005763 -0.003035 0.013926 0.000000 0.000000 0.000000
# 4 0.000000 0.000000 0.000000 0.049680 0.000000 0.000000
# 5 0.000000 0.000000 0.000000 0.000000 0.022996 0.000000
# 6 0.000000 0.000000 0.000000 0.000000 0.000000 0.052718
#
#
# Mechanical properties :
#
#
# Convention : Reuss Voigt Hill
#
# Bulk Modulus (GPa) = 44.53835 45.44215 44.99025
# Shear Modulus (GPa) = 26.71515 30.88949 28.80232
#
# Velocity S-wave (km/s) = 3.40652 3.66301 3.53709
# Velocity P-wave (km/s) = 5.90075 6.13426 6.01864
#
# Compressibility (1/GPa) = 0.02245256
#
# Stress axis : x y z
#
# Youngs Moduli (GPa) = 74.08586 91.37882 71.80941
#
# Poissons Ratio (x) = -0.07683 0.41385
# Poissons Ratio (y) = -0.06229 0.21793
# Poissons Ratio (z) = 0.42697 0.27732
#
# Static dielectric constant tensor:
#      x y z
#    x 4.433090 0.000000 0.000000 
#    y 0.000000 3.792600 0.000000 
#    z 0.000000 0.000000 4.119850 
# 
# 
# High freq. dielectric constant tensor:
#      x y z
#    x 1.935340 0.000000 0.000000 
#    y 0.000000 1.875210 0.000000 
#    z 0.000000 0.000000 1.908250 
# 
# From -- ./inp_files/4517.got.cif
#   From: 2010.06.25/outbox.cif.g09.slc.cpg/sg52_3_cif.got.tgz:4517.got - 2010.06.26 19:32:48.
