data_PCOD8216689
_publ_section_title
;
Structure prediction by ZEFSAII (Michael W. Deem and Ramdas Pophale) SiO2 
 PCOD8216689
Probable space group: P N N A
;
_chemical_formula_sum "Si O2"
_cell_formula_units_Z 28
_cell_length_a 8.798165
_cell_length_b 7.272808
_cell_length_c 17.472620
_cell_angle_alpha 90.000000
_cell_angle_beta 90.000000
_cell_angle_gamma 90.000000
_cell_volume 1118.026910
_symmetry_space_group_name_H-M "P N N A"
_symmetry_group_IT_number 52
_symmetry_cell_setting 'orthorhombic'
loop_
_space_group_symop_operation_xyz
x,y,z
1/2-x,-y,z
x,1/2-y,1/2-z
1/2-x,1/2+y,1/2-z
-x,-y,-z
1/2+x,y,-z
-x,1/2+y,1/2+z
1/2+x,1/2-y,1/2+z
loop_
_atom_site_type_symbol
_atom_site_label
_atom_site_fract_x
_atom_site_fract_y
_atom_site_fract_z
Si Si1 0.674568 0.304298 0.111900
Si Si2 0.923178 0.960367 0.652682
Si Si3 0.638455 0.750000 0.250000
Si Si4 0.875253 0.872821 0.960314
O O1 0.750000 0.500000 0.119705
O O2 0.492383 0.348987 0.117890
O O3 0.750769 0.184826 0.180293
O O4 0.715372 0.220608 0.030375
O O5 0.941324 0.783796 0.595844
O O6 0.024260 0.917016 0.727822
O O7 0.750000 0.000000 0.674713
O O8 0.750000 0.000000 0.916868
O O9 0.000000 0.000000 0.000000
#
# Coordination Sequence:
#
# PCOD8216689 Si02
#       4
#     8   8   4   8
#     4  10  22  44  69  93 133 183 224 267 339 423
#     4  11  24  43  67  98 137 181 227 287 350 407
#     4  10  24  42  68  96 124 178 232 272 330 412
#     4  12  24  39  66 102 137 173 225 285 337 403
#
# _framework density 25.044122000000002
#
# number of rings (size 3 to 8) (size 9 to 14) (size 15 to 20)
#    0.000    1.143    0.000    6.857    0.000   12.571 
#    0.000    0.000    0.000    0.000    0.000    0.000 
#    0.000    0.000    0.000    0.000    0.000    0.000 
#
# Total GULP energy -346899.748987 kJ/mol
# GULP energy per Si atom -12389.276750 kJ/mol
# Density = 2.498712 g / cm^3
# Si number density = 25.044122 Si / 1000 Ang^3
#
#
#
# Elastic Constant Matrix: (Units=GPa)
#
#
# Indices 1 2 3 4 5 6 
#
# 1 150.3029 46.9360 29.4184 0.0000 0.0000 0.0000
# 2 46.9360 77.5025 37.2336 0.0000 0.0000 0.0000
# 3 29.4184 37.2336 111.7452 0.0000 0.0000 0.0000
# 4 0.0000 0.0000 0.0000 35.9573 0.0000 0.0000
# 5 0.0000 0.0000 0.0000 0.0000 37.6380 0.0000
# 6 0.0000 0.0000 0.0000 0.0000 0.0000 54.9716
#
#
#
# Elastic Compliance Matrix: (Units=1/GPa)
#
#
# Indices 1 2 3 4 5 6 
#
# 1 0.008239 -0.004700 -0.000603 0.000000 0.000000 0.000000
# 2 -0.004700 0.018043 -0.004775 0.000000 0.000000 0.000000
# 3 -0.000603 -0.004775 0.010699 0.000000 0.000000 0.000000
# 4 0.000000 0.000000 0.000000 0.027811 0.000000 0.000000
# 5 0.000000 0.000000 0.000000 0.000000 0.026569 0.000000
# 6 0.000000 0.000000 0.000000 0.000000 0.000000 0.018191
#
#
# Mechanical properties :
#
#
# Convention : Reuss Voigt Hill
#
# Bulk Modulus (GPa) = 59.43380 62.96965 61.20173
# Shear Modulus (GPa) = 36.95093 40.77756 38.86425
#
# Velocity S-wave (km/s) = 3.84530 4.03951 3.94360
# Velocity P-wave (km/s) = 6.59532 6.85237 6.72507
#
# Compressibility (1/GPa) = 0.01682544
#
# Stress axis : x y z
#
# Youngs Moduli (GPa) = 121.37531 55.42357 93.47030
#
# Poissons Ratio (x) = 0.26048 0.05636
# Poissons Ratio (y) = 0.57044 0.44628
# Poissons Ratio (z) = 0.07319 0.26463
#
# Static dielectric constant tensor:
#      x y z
#    x 5.573780 0.000000 0.000000 
#    y 0.000000 5.750280 0.000000 
#    z 0.000000 0.000000 2.882070 
# 
# 
# High freq. dielectric constant tensor:
#      x y z
#    x 2.022690 0.000000 0.000000 
#    y 0.000000 1.994550 0.000000 
#    z 0.000000 0.000000 1.977910 
# 
# From -- ./inp_files/30667.got.cif
#   From: 2010.06.25/outbox.cif.g09.slc.cpg/sg52_16_cif.got.tgz:30667.got - 2010.06.26 19:32:48.
