data_PCOD8216373
_publ_section_title
;
Structure prediction by ZEFSAII (Michael W. Deem and Ramdas Pophale) SiO2 
 PCOD8216373
Probable space group: P N N A
;
_chemical_formula_sum "Si O2"
_cell_formula_units_Z 40
_cell_length_a 9.562336
_cell_length_b 8.356694
_cell_length_c 22.186314
_cell_angle_alpha 90.000000
_cell_angle_beta 90.000000
_cell_angle_gamma 90.000000
_cell_volume 1772.897611
_symmetry_space_group_name_H-M "P N N A"
_symmetry_group_IT_number 52
_symmetry_cell_setting 'orthorhombic'
loop_
_space_group_symop_operation_xyz
x,y,z
1/2-x,-y,z
x,1/2-y,1/2-z
1/2-x,1/2+y,1/2-z
-x,-y,-z
1/2+x,y,-z
-x,1/2+y,1/2+z
1/2+x,1/2-y,1/2+z
loop_
_atom_site_type_symbol
_atom_site_label
_atom_site_fract_x
_atom_site_fract_y
_atom_site_fract_z
Si Si1 0.679699 0.845646 0.501017
Si Si2 0.601994 0.531591 0.665857
Si Si3 0.113334 0.598904 0.133352
Si Si4 0.441422 0.859101 0.041029
Si Si5 0.402631 0.566262 0.768024
O O1 0.601688 0.912769 0.561039
O O2 0.561465 0.776544 0.456783
O O3 0.795038 0.709474 0.515967
O O4 0.750000 0.000000 0.468951
O O5 0.750000 0.500000 0.697837
O O6 0.610643 0.715987 0.649264
O O7 0.584199 0.420543 0.607726
O O8 0.481624 0.481128 0.712403
O O9 0.250000 0.500000 0.154630
O O10 0.981048 0.526648 0.169100
O O11 0.500000 0.000000 0.000000
O O12 0.250000 0.500000 0.775245
O O13 0.397280 0.750000 0.750000
#
# Coordination Sequence:
#
# PCOD8216373 Si02
#       5
#     8   8   8   8   8
#     4  11  24  43  67 100 138 182 228 282 341 408
#     4  11  21  41  67  98 128 177 227 275 333 410
#     4  10  21  42  66  94 132 177 224 274 338 409
#     4  12  22  42  69  99 137 180 232 280 336 405
#     4  10  24  43  66  98 135 169 223 286 347 403
#
# _framework density 22.561934000000001
#
# number of rings (size 3 to 8) (size 9 to 14) (size 15 to 20)
#    0.000    1.200    4.000    1.800    0.000    3.200 
#    0.000    1.000    0.000    0.000    0.000    0.000 
#    0.000    0.000    0.000    0.000    0.000    0.000 
#
# Total GULP energy -495823.734029 kJ/mol
# GULP energy per Si atom -12395.593351 kJ/mol
# Density = 2.251058 g / cm^3
# Si number density = 22.561934 Si / 1000 Ang^3
#
#
#
# Elastic Constant Matrix: (Units=GPa)
#
#
# Indices 1 2 3 4 5 6 
#
# 1 180.7944 39.8797 63.8662 0.0000 0.0000 0.0000
# 2 39.8797 61.7780 31.0140 0.0000 0.0000 0.0000
# 3 63.8662 31.0140 66.6820 0.0000 0.0000 0.0000
# 4 0.0000 0.0000 0.0000 24.5292 0.0000 0.0000
# 5 0.0000 0.0000 0.0000 0.0000 27.5816 0.0000
# 6 0.0000 0.0000 0.0000 0.0000 0.0000 47.8284
#
#
#
# Elastic Compliance Matrix: (Units=1/GPa)
#
#
# Indices 1 2 3 4 5 6 
#
# 1 0.008515 -0.001830 -0.007305 0.000000 0.000000 0.000000
# 2 -0.001830 0.021511 -0.008252 0.000000 0.000000 0.000000
# 3 -0.007305 -0.008252 0.025831 0.000000 0.000000 0.000000
# 4 0.000000 0.000000 0.000000 0.040768 0.000000 0.000000
# 5 0.000000 0.000000 0.000000 0.000000 0.036256 0.000000
# 6 0.000000 0.000000 0.000000 0.000000 0.000000 0.020908
#
#
# Mechanical properties :
#
#
# Convention : Reuss Voigt Hill
#
# Bulk Modulus (GPa) = 47.42997 64.30824 55.86911
# Shear Modulus (GPa) = 25.56369 31.62080 28.59225
#
# Velocity S-wave (km/s) = 3.36973 3.74774 3.56375
# Velocity P-wave (km/s) = 6.01729 6.87694 6.46143
#
# Compressibility (1/GPa) = 0.02108371
#
# Stress axis : x y z
#
# Youngs Moduli (GPa) = 117.43851 46.48777 38.71342
#
# Poissons Ratio (x) = 0.08506 0.28278
# Poissons Ratio (y) = 0.21488 0.31948
# Poissons Ratio (z) = 0.85783 0.38363
#
# Static dielectric constant tensor:
#      x y z
#    x 4.361530 0.000000 0.000000 
#    y 0.000000 4.544870 0.000000 
#    z 0.000000 0.000000 4.150050 
# 
# 
# High freq. dielectric constant tensor:
#      x y z
#    x 1.901560 0.000000 0.000000 
#    y 0.000000 1.903860 0.000000 
#    z 0.000000 0.000000 1.873810 
# 
# From -- ./inp_files/39159.got.cif
#   From: 2010.06.25/outbox.cif.g09.slc.cpg/sg52_20_cif.got.tgz:39159.got - 2010.06.26 19:32:48.
