data_PCOD8216053
_publ_section_title
;
Structure prediction by ZEFSAII (Michael W. Deem and Ramdas Pophale) SiO2 
 PCOD8216053
Probable space group: P N N A
;
_chemical_formula_sum "Si O2"
_cell_formula_units_Z 48
_cell_length_a 8.527021
_cell_length_b 19.903549
_cell_length_c 14.964795
_cell_angle_alpha 90.000000
_cell_angle_beta 90.000000
_cell_angle_gamma 90.000000
_cell_volume 2539.794783
_symmetry_space_group_name_H-M "P N N A"
_symmetry_group_IT_number 52
_symmetry_cell_setting 'orthorhombic'
loop_
_space_group_symop_operation_xyz
x,y,z
1/2-x,-y,z
x,1/2-y,1/2-z
1/2-x,1/2+y,1/2-z
-x,-y,-z
1/2+x,y,-z
-x,1/2+y,1/2+z
1/2+x,1/2-y,1/2+z
loop_
_atom_site_type_symbol
_atom_site_label
_atom_site_fract_x
_atom_site_fract_y
_atom_site_fract_z
Si Si1 0.693764 0.924742 0.063945
Si Si2 0.476383 0.706367 0.117544
Si Si3 0.546918 0.174666 0.269400
Si Si4 0.013924 0.860661 0.085829
Si Si5 0.116932 0.790166 0.437497
Si Si6 0.097144 0.660582 0.713492
O O1 0.584551 0.904768 0.149163
O O2 0.831643 0.870422 0.063483
O O3 0.750000 0.000000 0.077017
O O4 0.607657 0.917340 0.968902
O O5 0.299024 0.713118 0.085144
O O6 0.481005 0.653965 0.201096
O O7 0.549208 0.776059 0.153140
O O8 0.584518 0.679654 0.035997
O O9 0.491562 0.250000 0.250000
O O10 0.462002 0.128902 0.192879
O O11 0.478420 0.161221 0.368400
O O12 0.732965 0.167848 0.260427
O O13 0.050689 0.785350 0.056589
#
# Coordination Sequence:
#
# PCOD8216053 Si02
#       6
#     8   8   8   8   8   8
#     4  11  22  37  54  76 109 155 192 225 264 310
#     4  11  21  31  52  79 109 139 173 220 283 336
#     4   9  18  32  50  70 106 137 175 216 272 319
#     4  10  21  33  51  76 106 143 182 223 259 325
#     4  11  21  33  54  81 109 147 170 219 285 337
#     4  10  21  34  50  77 108 144 182 228 265 331
#
# _framework density 18.899165
#
# number of rings (size 3 to 8) (size 9 to 14) (size 15 to 20)
#    0.000    1.667    3.333    2.500    9.333    0.000 
#    0.000    0.000    0.000    0.000    0.000   11.667 
#    0.000    0.000    0.000    0.000    0.000    0.000 
#
# Total GULP energy -594738.047429 kJ/mol
# GULP energy per Si atom -12390.375988 kJ/mol
# Density = 1.885615 g / cm^3
# Si number density = 18.899165 Si / 1000 Ang^3
#
#
#
# Elastic Constant Matrix: (Units=GPa)
#
#
# Indices 1 2 3 4 5 6 
#
# 1 88.8238 16.7574 54.3240 0.0000 0.0000 0.0000
# 2 16.7574 32.2358 20.8273 0.0000 0.0000 0.0000
# 3 54.3240 20.8273 164.8613 0.0000 0.0000 0.0000
# 4 0.0000 0.0000 0.0000 19.5338 0.0000 0.0000
# 5 0.0000 0.0000 0.0000 0.0000 35.5640 0.0000
# 6 0.0000 0.0000 0.0000 0.0000 0.0000 12.8149
#
#
#
# Elastic Compliance Matrix: (Units=1/GPa)
#
#
# Indices 1 2 3 4 5 6 
#
# 1 0.014789 -0.004943 -0.004249 0.000000 0.000000 0.000000
# 2 -0.004943 0.035431 -0.002847 0.000000 0.000000 0.000000
# 3 -0.004249 -0.002847 0.007825 0.000000 0.000000 0.000000
# 4 0.000000 0.000000 0.000000 0.051193 0.000000 0.000000
# 5 0.000000 0.000000 0.000000 0.000000 0.028118 0.000000
# 6 0.000000 0.000000 0.000000 0.000000 0.000000 0.078034
#
#
# Mechanical properties :
#
#
# Convention : Reuss Voigt Hill
#
# Bulk Modulus (GPa) = 29.44008 52.19314 40.81661
# Shear Modulus (GPa) = 19.93689 26.51669 23.22679
#
# Velocity S-wave (km/s) = 3.25146 3.74981 3.50949
# Velocity P-wave (km/s) = 5.45044 6.81357 6.16976
#
# Compressibility (1/GPa) = 0.03396730
#
# Stress axis : x y z
#
# Youngs Moduli (GPa) = 67.61640 28.22424 127.78816
#
# Poissons Ratio (x) = 0.13951 0.54295
# Poissons Ratio (y) = 0.33422 0.36385
# Poissons Ratio (z) = 0.28729 0.08036
#
# Static dielectric constant tensor:
#      x y z
#    x 3.521070 0.000000 0.000000 
#    y 0.000000 2.921010 0.000000 
#    z 0.000000 0.000000 4.260190 
# 
# 
# High freq. dielectric constant tensor:
#      x y z
#    x 1.739540 0.000000 0.000000 
#    y 0.000000 1.656400 0.000000 
#    z 0.000000 0.000000 1.762320 
# 
# From -- ./inp_files/24843.got.cif
#   From: 2010.06.25/outbox.cif.g09.slc.cpg/sg52_13_cif.got.tgz:24843.got - 2010.06.26 19:32:48.
