data_PCOD8216715
_publ_section_title
;
Structure prediction by ZEFSAII (Michael W. Deem and Ramdas Pophale) SiO2 
 PCOD8216715
Probable space group: P N N A
;
_chemical_formula_sum "Si O2"
_cell_formula_units_Z 28
_cell_length_a 13.566962
_cell_length_b 18.190390
_cell_length_c 5.032864
_cell_angle_alpha 90.000000
_cell_angle_beta 90.000000
_cell_angle_gamma 90.000000
_cell_volume 1242.052101
_symmetry_space_group_name_H-M "P N N A"
_symmetry_group_IT_number 52
_symmetry_cell_setting 'orthorhombic'
loop_
_space_group_symop_operation_xyz
x,y,z
1/2-x,-y,z
x,1/2-y,1/2-z
1/2-x,1/2+y,1/2-z
-x,-y,-z
1/2+x,y,-z
-x,1/2+y,1/2+z
1/2+x,1/2-y,1/2+z
loop_
_atom_site_type_symbol
_atom_site_label
_atom_site_fract_x
_atom_site_fract_y
_atom_site_fract_z
Si Si1 0.513169 0.417400 0.907774
Si Si2 0.876829 0.865574 0.090394
Si Si3 0.194362 0.250000 0.250000
Si Si4 0.812867 0.331782 0.147764
O O1 0.579976 0.418537 0.640398
O O2 0.408163 0.381699 0.855583
O O3 0.500000 0.500000 0.000000
O O4 0.561120 0.369823 0.141233
O O5 0.761758 0.878681 0.164642
O O6 0.877995 0.781771 0.978058
O O7 0.261406 0.182389 0.360937
O O8 0.838466 0.250000 0.250000
#
# Coordination Sequence:
#
# PCOD8216715 Si02
#       4
#     8   8   4   8
#     4  12  28  47  71 110 146 196 239 289 370 441
#     4  11  25  47  70 102 146 183 242 299 354 422
#     4  10  22  46  70 110 136 190 240 302 366 398
#     4  10  25  44  74 106 141 186 246 303 357 420
#
# _framework density 22.543339
#
# number of rings (size 3 to 8) (size 9 to 14) (size 15 to 20)
#    0.000    1.143    2.857    0.857   10.000    1.143 
#    5.143    0.000    0.000    0.000    0.000    0.000 
#    0.000    0.000    0.000    0.000    0.000    0.000 
#
# Total GULP energy -346911.045279 kJ/mol
# GULP energy per Si atom -12389.680189 kJ/mol
# Density = 2.249203 g / cm^3
# Si number density = 22.543339 Si / 1000 Ang^3
#
#
#
# Elastic Constant Matrix: (Units=GPa)
#
#
# Indices 1 2 3 4 5 6 
#
# 1 178.7098 100.7504 83.2929 0.0000 0.0000 0.0000
# 2 100.7504 92.8455 38.3149 0.0000 0.0000 0.0000
# 3 83.2929 38.3149 148.5805 0.0000 0.0000 0.0000
# 4 0.0000 0.0000 0.0000 36.7108 0.0000 0.0000
# 5 0.0000 0.0000 0.0000 0.0000 35.4879 0.0000
# 6 0.0000 0.0000 0.0000 0.0000 0.0000 11.3038
#
#
#
# Elastic Compliance Matrix: (Units=1/GPa)
#
#
# Indices 1 2 3 4 5 6 
#
# 1 0.017770 -0.016979 -0.005583 0.000000 0.000000 0.000000
# 2 -0.016979 0.028276 0.002227 0.000000 0.000000 0.000000
# 3 -0.005583 0.002227 0.009286 0.000000 0.000000 0.000000
# 4 0.000000 0.000000 0.000000 0.027240 0.000000 0.000000
# 5 0.000000 0.000000 0.000000 0.000000 0.028179 0.000000
# 6 0.000000 0.000000 0.000000 0.000000 0.000000 0.088466
#
#
# Mechanical properties :
#
#
# Convention : Reuss Voigt Hill
#
# Bulk Modulus (GPa) = 68.20787 96.09470 82.15128
# Shear Modulus (GPa) = 20.42686 29.88566 25.15626
#
# Velocity S-wave (km/s) = 3.01344 3.64496 3.34414
# Velocity P-wave (km/s) = 6.51381 7.77390 7.17159
#
# Compressibility (1/GPa) = 0.01466107
#
# Stress axis : x y z
#
# Youngs Moduli (GPa) = 56.27433 35.36534 107.68706
#
# Poissons Ratio (x) = 0.60047 0.60125
# Poissons Ratio (y) = 0.95548 -0.23977
# Poissons Ratio (z) = 0.31420 -0.07874
#
# Static dielectric constant tensor:
#      x y z
#    x 4.208460 0.000000 0.000000 
#    y 0.000000 3.641440 0.000000 
#    z 0.000000 0.000000 4.617740 
# 
# 
# High freq. dielectric constant tensor:
#      x y z
#    x 1.888820 0.000000 0.000000 
#    y 0.000000 1.861340 0.000000 
#    z 0.000000 0.000000 1.918500 
# 
# From -- ./inp_files/927.got.cif
#   From: 2010.06.25/outbox.cif.g09.slc.cpg/sg52_1_cif.got.tgz:927.got - 2010.06.26 19:32:48.
