data_PCOD8216314
_publ_section_title
;
Structure prediction by ZEFSAII (Michael W. Deem and Ramdas Pophale) SiO2 
 PCOD8216314
Probable space group: P N N A
;
_chemical_formula_sum "Si O2"
_cell_formula_units_Z 60
_cell_length_a 28.881612
_cell_length_b 11.258134
_cell_length_c 8.408017
_cell_angle_alpha 90.000000
_cell_angle_beta 90.000000
_cell_angle_gamma 90.000000
_cell_volume 2733.892440
_symmetry_space_group_name_H-M "P N N A"
_symmetry_group_IT_number 52
_symmetry_cell_setting 'orthorhombic'
loop_
_space_group_symop_operation_xyz
x,y,z
1/2-x,-y,z
x,1/2-y,1/2-z
1/2-x,1/2+y,1/2-z
-x,-y,-z
1/2+x,y,-z
-x,1/2+y,1/2+z
1/2+x,1/2-y,1/2+z
loop_
_atom_site_type_symbol
_atom_site_label
_atom_site_fract_x
_atom_site_fract_y
_atom_site_fract_z
Si Si1 0.062996 0.559043 0.118765
Si Si2 0.162577 0.271126 0.072382
Si Si3 0.054651 0.210654 0.424390
Si Si4 0.003644 0.250000 0.750000
Si Si5 0.694531 0.505251 0.095465
Si Si6 0.377293 0.302053 0.920511
Si Si7 0.197770 0.035651 0.945880
Si Si8 0.354869 0.131525 0.171048
O O1 0.044776 0.429772 0.074912
O O2 0.111714 0.556512 0.214065
O O3 0.026603 0.631740 0.224358
O O4 0.076414 0.619101 0.948956
O O5 0.180499 0.250000 0.250000
O O6 0.107787 0.250951 0.061492
O O7 0.174764 0.401385 0.013455
O O8 0.189618 0.175491 0.965557
O O9 0.035057 0.250000 0.250000
O O10 0.031899 0.268223 0.583694
O O11 0.750000 0.500000 0.080848
O O12 0.670957 0.627785 0.034884
O O13 0.675029 0.495246 0.275704
O O14 0.374475 0.250000 0.750000
O O15 0.385123 0.187059 0.030022
O O16 0.250000 0.000000 0.925317
O O17 0.180655 0.962278 0.098448
O O18 0.331191 0.250000 0.250000
#
# Coordination Sequence:
#
# PCOD8216314 Si02
#       8
#     8   8   8   4   8   8   8   8
#     4  11  23  49  68 103 144 174 236 294 352 438
#     4  11  25  45  66  96 137 184 233 283 352 430
#     4  11  26  47  73 104 143 186 235 291 362 435
#     4  12  26  46  74 108 136 188 232 304 364 430
#     4  11  25  41  66  98 138 184 235 290 342 412
#     4  11  21  40  70  98 133 183 232 283 351 415
#     4  11  25  41  63 101 139 183 235 288 340 414
#     4  10  21  40  67  92 133 181 222 287 346 408
#
# _framework density 21.946729000000001
#
# number of rings (size 3 to 8) (size 9 to 14) (size 15 to 20)
#    0.000    1.067    4.667    2.400    5.600    2.133 
#    2.400    0.000    0.000    0.000    0.000    0.000 
#    0.000    0.000    0.000    0.000    0.000    0.000 
#
# Total GULP energy -743386.192288 kJ/mol
# GULP energy per Si atom -12389.769871 kJ/mol
# Density = 2.189678 g / cm^3
# Si number density = 21.946729 Si / 1000 Ang^3
#
#
#
# Elastic Constant Matrix: (Units=GPa)
#
#
# Indices 1 2 3 4 5 6 
#
# 1 63.8829 26.8273 47.4374 0.0000 0.0000 0.0000
# 2 26.8273 108.3233 41.8080 0.0000 0.0000 0.0000
# 3 47.4374 41.8080 116.1240 0.0000 0.0000 0.0000
# 4 0.0000 0.0000 0.0000 34.6153 0.0000 0.0000
# 5 0.0000 0.0000 0.0000 0.0000 33.3345 0.0000
# 6 0.0000 0.0000 0.0000 0.0000 0.0000 25.2185
#
#
#
# Elastic Compliance Matrix: (Units=1/GPa)
#
#
# Indices 1 2 3 4 5 6 
#
# 1 0.022996 -0.002403 -0.008529 0.000000 0.000000 0.000000
# 2 -0.002403 0.010973 -0.002969 0.000000 0.000000 0.000000
# 3 -0.008529 -0.002969 0.013164 0.000000 0.000000 0.000000
# 4 0.000000 0.000000 0.000000 0.028889 0.000000 0.000000
# 5 0.000000 0.000000 0.000000 0.000000 0.029999 0.000000
# 6 0.000000 0.000000 0.000000 0.000000 0.000000 0.039653
#
#
# Mechanical properties :
#
#
# Convention : Reuss Voigt Hill
#
# Bulk Modulus (GPa) = 51.72934 57.83059 54.77996
# Shear Modulus (GPa) = 27.79013 30.11749 28.95381
#
# Velocity S-wave (km/s) = 3.56231 3.70848 3.63613
# Velocity P-wave (km/s) = 6.36723 6.68915 6.53017
#
# Compressibility (1/GPa) = 0.01933139
#
# Stress axis : x y z
#
# Youngs Moduli (GPa) = 43.48553 91.13585 75.96293
#
# Poissons Ratio (x) = 0.21904 0.64787
# Poissons Ratio (y) = 0.10452 0.22550
# Poissons Ratio (z) = 0.37088 0.27055
#
# Static dielectric constant tensor:
#      x y z
#    x 3.834480 0.000000 0.000000 
#    y 0.000000 4.085980 0.000000 
#    z 0.000000 0.000000 5.204760 
# 
# 
# High freq. dielectric constant tensor:
#      x y z
#    x 1.842450 0.000000 0.000000 
#    y 0.000000 1.868760 0.000000 
#    z 0.000000 0.000000 1.886610 
# 
# From -- ./inp_files/15703.got.cif
#   From: 2010.06.25/outbox.cif.g09.slc.cpg/sg52_8_cif.got.tgz:15703.got - 2010.06.26 19:32:48.
