data_PCOD8216644
_publ_section_title
;
Structure prediction by ZEFSAII (Michael W. Deem and Ramdas Pophale) SiO2 
 PCOD8216644
Probable space group: P N N A
;
_chemical_formula_sum "Si O2"
_cell_formula_units_Z 40
_cell_length_a 13.980225
_cell_length_b 7.313174
_cell_length_c 16.281032
_cell_angle_alpha 90.000000
_cell_angle_beta 90.000000
_cell_angle_gamma 90.000000
_cell_volume 1664.569748
_symmetry_space_group_name_H-M "P N N A"
_symmetry_group_IT_number 52
_symmetry_cell_setting 'orthorhombic'
loop_
_space_group_symop_operation_xyz
x,y,z
1/2-x,-y,z
x,1/2-y,1/2-z
1/2-x,1/2+y,1/2-z
-x,-y,-z
1/2+x,y,-z
-x,1/2+y,1/2+z
1/2+x,1/2-y,1/2+z
loop_
_atom_site_type_symbol
_atom_site_label
_atom_site_fract_x
_atom_site_fract_y
_atom_site_fract_z
Si Si1 0.003256 0.432523 0.283305
Si Si2 0.961454 0.375571 0.881211
Si Si3 0.138316 0.959598 0.540098
Si Si4 0.856532 0.459958 0.411782
Si Si5 0.861290 0.509861 0.592734
O O1 0.952110 0.250000 0.250000
O O2 0.047394 0.558623 0.212543
O O3 0.088559 0.352358 0.343226
O O4 0.923907 0.536695 0.339344
O O5 0.921603 0.170932 0.883383
O O6 0.073809 0.401355 0.906084
O O7 0.894423 0.487140 0.945323
O O8 0.121515 0.752423 0.570228
O O9 0.250000 0.000000 0.549592
O O10 0.750000 0.500000 0.382240
O O11 0.876753 0.567639 0.497802
O O12 0.750000 0.500000 0.612365
#
# Coordination Sequence:
#
# PCOD8216644 Si02
#       5
#     8   8   8   8   8
#     4  12  24  41  65 101 141 173 225 294 350 416
#     4  10  23  43  64 101 140 173 231 289 350 416
#     4  10  22  42  70  99 133 185 231 282 351 422
#     4  10  23  44  66 100 135 179 234 281 344 425
#     4  10  24  45  69  96 131 186 235 281 352 422
#
# _framework density 24.030232999999999
#
# number of rings (size 3 to 8) (size 9 to 14) (size 15 to 20)
#    0.000    1.600    2.000    1.200    2.800    8.000 
#    0.000    0.000    0.000    0.000    0.000    0.000 
#    0.000    0.000    0.000    0.000    0.000    0.000 
#
# Total GULP energy -495645.238237 kJ/mol
# GULP energy per Si atom -12391.130956 kJ/mol
# Density = 2.397554 g / cm^3
# Si number density = 24.030233 Si / 1000 Ang^3
#
#
#
# Elastic Constant Matrix: (Units=GPa)
#
#
# Indices 1 2 3 4 5 6 
#
# 1 186.0839 23.0324 68.9086 0.0000 0.0000 0.0000
# 2 23.0324 32.5192 17.3269 0.0000 0.0000 0.0000
# 3 68.9086 17.3269 145.3736 0.0000 0.0000 0.0000
# 4 0.0000 0.0000 0.0000 18.3825 0.0000 0.0000
# 5 0.0000 0.0000 0.0000 0.0000 23.5972 0.0000
# 6 0.0000 0.0000 0.0000 0.0000 0.0000 37.7870
#
#
#
# Elastic Compliance Matrix: (Units=1/GPa)
#
#
# Indices 1 2 3 4 5 6 
#
# 1 0.006840 -0.003328 -0.002845 0.000000 0.000000 0.000000
# 2 -0.003328 0.034456 -0.002529 0.000000 0.000000 0.000000
# 3 -0.002845 -0.002529 0.008529 0.000000 0.000000 0.000000
# 4 0.000000 0.000000 0.000000 0.054400 0.000000 0.000000
# 5 0.000000 0.000000 0.000000 0.000000 0.042378 0.000000
# 6 0.000000 0.000000 0.000000 0.000000 0.000000 0.026464
#
#
# Mechanical properties :
#
#
# Convention : Reuss Voigt Hill
#
# Bulk Modulus (GPa) = 30.84599 64.72361 47.78480
# Shear Modulus (GPa) = 24.84128 32.93392 28.88760
#
# Velocity S-wave (km/s) = 3.21869 3.70607 3.47094
# Velocity P-wave (km/s) = 5.16502 6.73097 5.99931
#
# Compressibility (1/GPa) = 0.03241912
#
# Stress axis : x y z
#
# Youngs Moduli (GPa) = 146.20931 29.02255 117.24726
#
# Poissons Ratio (x) = 0.09659 0.33361
# Poissons Ratio (y) = 0.48661 0.29654
# Poissons Ratio (z) = 0.41601 0.07340
#
# Static dielectric constant tensor:
#      x y z
#    x 4.390000 0.000000 0.000000 
#    y 0.000000 4.318890 0.000000 
#    z 0.000000 0.000000 4.825790 
# 
# 
# High freq. dielectric constant tensor:
#      x y z
#    x 1.955790 0.000000 0.000000 
#    y 0.000000 1.945380 0.000000 
#    z 0.000000 0.000000 1.966480 
# 
# From -- ./inp_files/26877.got.cif
#   From: 2010.06.25/outbox.cif.g09.slc.cpg/sg52_14_cif.got.tgz:26877.got - 2010.06.26 19:32:48.
