data_PCOD8216744
_publ_section_title
;
Structure prediction by ZEFSAII (Michael W. Deem and Ramdas Pophale) SiO2 
 PCOD8216744
Probable space group: P N N A
;
_chemical_formula_sum "Si O2"
_cell_formula_units_Z 52
_cell_length_a 21.041380
_cell_length_b 8.026916
_cell_length_c 14.060256
_cell_angle_alpha 90.000000
_cell_angle_beta 90.000000
_cell_angle_gamma 90.000000
_cell_volume 2374.740538
_symmetry_space_group_name_H-M "P N N A"
_symmetry_group_IT_number 52
_symmetry_cell_setting 'orthorhombic'
loop_
_space_group_symop_operation_xyz
x,y,z
1/2-x,-y,z
x,1/2-y,1/2-z
1/2-x,1/2+y,1/2-z
-x,-y,-z
1/2+x,y,-z
-x,1/2+y,1/2+z
1/2+x,1/2-y,1/2+z
loop_
_atom_site_type_symbol
_atom_site_label
_atom_site_fract_x
_atom_site_fract_y
_atom_site_fract_z
Si Si1 0.931470 0.750000 0.250000
Si Si2 0.750000 0.500000 0.785373
Si Si3 0.930387 0.425097 0.990075
Si Si4 0.126814 0.590437 0.808811
Si Si5 0.750000 0.000000 0.392285
Si Si6 0.523013 0.605167 0.593255
Si Si7 0.630667 0.410655 0.682461
Si Si8 0.179609 0.165353 0.442874
O O1 0.888021 0.588475 0.236078
O O2 0.969243 0.702922 0.346560
O O3 0.686356 0.533242 0.722453
O O4 0.768018 0.649921 0.857587
O O5 0.909920 0.389203 0.095211
O O6 0.929057 0.247380 0.939777
O O7 0.880421 0.539553 0.932742
O O8 0.000000 0.500000 0.000000
O O9 0.104268 0.750000 0.750000
O O10 0.202207 0.600893 0.825993
O O11 0.713364 0.138532 0.456227
O O12 0.500000 0.500000 0.500000
O O13 0.562296 0.496288 0.669931
O O14 0.621070 0.250000 0.750000
O O15 0.651766 0.349841 0.575481
#
# Coordination Sequence:
#
# PCOD8216744 Si02
#       8
#     4   4   8   8   4   8   8   8
#     4  12  28  46  72 106 144 186 240 296 356 428
#     4   9  20  36  60  99 134 168 218 273 346 418
#     4  11  22  43  67  90 132 180 222 278 348 409
#     4  11  25  46  70 101 136 183 234 296 347 425
#     4   9  22  42  68  91 130 186 230 281 366 404
#     4  12  27  43  69 102 135 186 234 288 357 429
#     4  10  23  40  67 101 139 176 225 287 344 429
#     4   9  20  40  66  92 134 178 221 281 344 420
#
# _framework density 21.897127999999999
#
# number of rings (size 3 to 8) (size 9 to 14) (size 15 to 20)
#    0.000    1.538    1.538    1.846    7.538    8.000 
#    0.000    0.000    0.000    0.000    0.000    0.000 
#    0.000    0.000    0.000    0.000    0.000    0.000 
#
# Total GULP energy -644182.384036 kJ/mol
# GULP energy per Si atom -12388.122770 kJ/mol
# Density = 2.184729 g / cm^3
# Si number density = 21.897128 Si / 1000 Ang^3
#
#
#
# Elastic Constant Matrix: (Units=GPa)
#
#
# Indices 1 2 3 4 5 6 
#
# 1 128.8368 50.2373 40.0119 0.0000 0.0000 0.0000
# 2 50.2373 115.9922 42.8466 0.0000 0.0000 0.0000
# 3 40.0119 42.8466 92.3333 0.0000 0.0000 0.0000
# 4 0.0000 0.0000 0.0000 36.2647 0.0000 0.0000
# 5 0.0000 0.0000 0.0000 0.0000 9.2014 0.0000
# 6 0.0000 0.0000 0.0000 0.0000 0.0000 22.3304
#
#
#
# Elastic Compliance Matrix: (Units=1/GPa)
#
#
# Indices 1 2 3 4 5 6 
#
# 1 0.009895 -0.003261 -0.002775 0.000000 0.000000 0.000000
# 2 -0.003261 0.011479 -0.003914 0.000000 0.000000 0.000000
# 3 -0.002775 -0.003914 0.013849 0.000000 0.000000 0.000000
# 4 0.000000 0.000000 0.000000 0.027575 0.000000 0.000000
# 5 0.000000 0.000000 0.000000 0.000000 0.108679 0.000000
# 6 0.000000 0.000000 0.000000 0.000000 0.000000 0.044782
#
#
# Mechanical properties :
#
#
# Convention : Reuss Voigt Hill
#
# Bulk Modulus (GPa) = 65.25495 67.03929 66.14712
# Shear Modulus (GPa) = 20.72399 27.16372 23.94386
#
# Velocity S-wave (km/s) = 3.07974 3.52592 3.31035
# Velocity P-wave (km/s) = 6.52011 6.87446 6.69962
#
# Compressibility (1/GPa) = 0.01532451
#
# Stress axis : x y z
#
# Youngs Moduli (GPa) = 101.06201 87.11390 72.20734
#
# Poissons Ratio (x) = 0.28404 0.20036
# Poissons Ratio (y) = 0.32952 0.28261
# Poissons Ratio (z) = 0.28043 0.34096
#
# Static dielectric constant tensor:
#      x y z
#    x 4.080750 0.000000 0.000000 
#    y 0.000000 3.729370 0.000000 
#    z 0.000000 0.000000 4.068710 
# 
# 
# High freq. dielectric constant tensor:
#      x y z
#    x 1.870450 0.000000 0.000000 
#    y 0.000000 1.847660 0.000000 
#    z 0.000000 0.000000 1.867080 
# 
# From -- ./inp_files/28721.got.cif
#   From: 2010.06.25/outbox.cif.g09.slc.cpg/sg52_15_cif.got.tgz:28721.got - 2010.06.26 19:32:48.
