data_PCOD8216349
_publ_section_title
;
Structure prediction by ZEFSAII (Michael W. Deem and Ramdas Pophale) SiO2 
 PCOD8216349
Probable space group: P N N A
;
_chemical_formula_sum "Si O2"
_cell_formula_units_Z 48
_cell_length_a 8.009093
_cell_length_b 9.558986
_cell_length_c 30.762130
_cell_angle_alpha 90.000000
_cell_angle_beta 90.000000
_cell_angle_gamma 90.000000
_cell_volume 2355.112000
_symmetry_space_group_name_H-M "P N N A"
_symmetry_group_IT_number 52
_symmetry_cell_setting 'orthorhombic'
loop_
_space_group_symop_operation_xyz
x,y,z
1/2-x,-y,z
x,1/2-y,1/2-z
1/2-x,1/2+y,1/2-z
-x,-y,-z
1/2+x,y,-z
-x,1/2+y,1/2+z
1/2+x,1/2-y,1/2+z
loop_
_atom_site_type_symbol
_atom_site_label
_atom_site_fract_x
_atom_site_fract_y
_atom_site_fract_z
Si Si1 0.250000 0.500000 0.390906
Si Si2 0.331070 0.728644 0.166532
Si Si3 0.750000 0.500000 0.214074
Si Si4 0.041116 0.750000 0.750000
Si Si5 0.437662 0.550006 0.546269
Si Si6 0.250000 0.500000 0.000204
Si Si7 0.026262 0.942818 0.347997
Si Si8 0.511234 0.643297 0.945589
O O1 0.279497 0.639751 0.362918
O O2 0.420058 0.487817 0.418577
O O3 0.423478 0.784737 0.209204
O O4 0.169608 0.637246 0.179000
O O5 0.449242 0.610373 0.143814
O O6 0.847623 0.388783 0.243791
O O7 0.632004 0.412520 0.181931
O O8 0.250000 0.500000 0.558890
O O9 0.500000 0.500000 0.500000
O O10 0.421785 0.714675 0.542203
O O11 0.303273 0.372394 0.032941
O O12 0.402274 0.523495 0.967652
O O13 0.014112 0.869505 0.394190
#
# Coordination Sequence:
#
# PCOD8216349 Si02
#       8
#     4   8   4   4   8   4   8   8
#     4  12  26  44  70 100 140 184 232 288 348 426
#     4  10  23  43  67  97 130 180 223 277 354 423
#     4  10  23  42  68 103 132 172 221 286 340 415
#     4  10  24  44  68 100 138 172 222 286 350 422
#     4  12  26  43  66  95 139 188 231 284 357 413
#     4  10  23  34  64  91 122 164 225 280 332 385
#     4  10  21  41  69  90 130 176 225 275 339 410
#     4  11  22  41  61  94 125 174 224 284 330 408
#
# _framework density 20.381195999999999
#
# number of rings (size 3 to 8) (size 9 to 14) (size 15 to 20)
#    0.000    1.333    2.500    2.500    0.000   10.000 
#    1.500    0.000    0.000    0.000    0.000    0.000 
#    0.000    0.000    0.000    0.000    0.000    0.000 
#
# Total GULP energy -594721.065796 kJ/mol
# GULP energy per Si atom -12390.022204 kJ/mol
# Density = 2.033481 g / cm^3
# Si number density = 20.381196 Si / 1000 Ang^3
#
#
#
# Elastic Constant Matrix: (Units=GPa)
#
#
# Indices 1 2 3 4 5 6 
#
# 1 141.3975 43.3934 67.8217 0.0000 0.0000 0.0000
# 2 43.3934 104.5388 50.2218 0.0000 0.0000 0.0000
# 3 67.8217 50.2218 123.7820 0.0000 0.0000 0.0000
# 4 0.0000 0.0000 0.0000 28.1528 0.0000 0.0000
# 5 0.0000 0.0000 0.0000 0.0000 34.9850 0.0000
# 6 0.0000 0.0000 0.0000 0.0000 0.0000 34.8609
#
#
#
# Elastic Compliance Matrix: (Units=1/GPa)
#
#
# Indices 1 2 3 4 5 6 
#
# 1 0.009877 -0.001863 -0.004656 0.000000 0.000000 0.000000
# 2 -0.001863 0.012233 -0.003942 0.000000 0.000000 0.000000
# 3 -0.004656 -0.003942 0.012229 0.000000 0.000000 0.000000
# 4 0.000000 0.000000 0.000000 0.035520 0.000000 0.000000
# 5 0.000000 0.000000 0.000000 0.000000 0.028584 0.000000
# 6 0.000000 0.000000 0.000000 0.000000 0.000000 0.028685
#
#
# Mechanical properties :
#
#
# Convention : Reuss Voigt Hill
#
# Bulk Modulus (GPa) = 74.53453 76.95468 75.74460
# Shear Modulus (GPa) = 32.78153 33.48517 33.13335
#
# Velocity S-wave (km/s) = 4.01486 4.05772 4.03635
# Velocity P-wave (km/s) = 7.62508 7.73260 7.67903
#
# Compressibility (1/GPa) = 0.01341660
#
# Stress axis : x y z
#
# Youngs Moduli (GPa) = 101.24234 81.74428 81.77064
#
# Poissons Ratio (x) = 0.15231 0.38072
# Poissons Ratio (y) = 0.18864 0.32238
# Poissons Ratio (z) = 0.47138 0.32228
#
# Static dielectric constant tensor:
#      x y z
#    x 4.070380 0.000000 0.000000 
#    y 0.000000 3.788540 0.000000 
#    z 0.000000 0.000000 3.648100 
# 
# 
# High freq. dielectric constant tensor:
#      x y z
#    x 1.812750 0.000000 0.000000 
#    y 0.000000 1.798870 0.000000 
#    z 0.000000 0.000000 1.794710 
# 
# From -- ./inp_files/44480.got.cif
#   From: 2010.06.25/outbox.cif.g09.slc.cpg/sg52_23_cif.got.tgz:44480.got - 2010.06.26 19:32:48.
