data_PCOD8216376
_publ_section_title
;
Structure prediction by ZEFSAII (Michael W. Deem and Ramdas Pophale) SiO2 
 PCOD8216376
Probable space group: P N N A
;
_chemical_formula_sum "Si O2"
_cell_formula_units_Z 32
_cell_length_a 9.380639
_cell_length_b 21.418156
_cell_length_c 6.896111
_cell_angle_alpha 90.000000
_cell_angle_beta 90.000000
_cell_angle_gamma 90.000000
_cell_volume 1385.538965
_symmetry_space_group_name_H-M "P N N A"
_symmetry_group_IT_number 52
_symmetry_cell_setting 'orthorhombic'
loop_
_space_group_symop_operation_xyz
x,y,z
1/2-x,-y,z
x,1/2-y,1/2-z
1/2-x,1/2+y,1/2-z
-x,-y,-z
1/2+x,y,-z
-x,1/2+y,1/2+z
1/2+x,1/2-y,1/2+z
loop_
_atom_site_type_symbol
_atom_site_label
_atom_site_fract_x
_atom_site_fract_y
_atom_site_fract_z
Si Si1 0.823857 0.663253 0.078218
Si Si2 0.082036 0.744335 0.023796
Si Si3 0.248466 0.428346 0.256902
Si Si4 0.972923 0.623559 0.455257
O O1 0.968259 0.689923 0.987526
O O2 0.854996 0.634549 0.288453
O O3 0.719376 0.723022 0.097552
O O4 0.753668 0.611708 0.939382
O O5 0.122477 0.750000 0.250000
O O6 0.024960 0.811063 0.950080
O O7 0.250000 0.500000 0.193522
O O8 0.391002 0.413729 0.376888
O O9 0.105648 0.415928 0.379897
#
# Coordination Sequence:
#
# PCOD8216376 Si02
#       4
#     8   8   8   8
#     4  11  23  45  68 103 139 180 226 293 358 412
#     4  10  21  42  67 103 136 169 232 286 356 410
#     4  12  27  47  69 102 145 192 241 282 343 429
#     4  11  26  45  70 105 138 184 239 292 355 411
#
# _framework density 23.095704000000001
#
# number of rings (size 3 to 8) (size 9 to 14) (size 15 to 20)
#    0.000    1.000    5.000    2.250    3.500    2.000 
#    0.000    0.000    0.000    0.000    0.000    0.000 
#    0.000    0.000    0.000    0.000    0.000    0.000 
#
# Total GULP energy -396882.348319 kJ/mol
# GULP energy per Si atom -12402.573385 kJ/mol
# Density = 2.304314 g / cm^3
# Si number density = 23.095704 Si / 1000 Ang^3
#
#
#
# Elastic Constant Matrix: (Units=GPa)
#
#
# Indices 1 2 3 4 5 6 
#
# 1 96.0231 29.3556 27.9159 0.0000 0.0000 0.0000
# 2 29.3556 135.2376 35.3266 0.0000 0.0000 0.0000
# 3 27.9159 35.3266 65.8043 0.0000 0.0000 0.0000
# 4 0.0000 0.0000 0.0000 15.8266 0.0000 0.0000
# 5 0.0000 0.0000 0.0000 0.0000 37.7883 0.0000
# 6 0.0000 0.0000 0.0000 0.0000 0.0000 30.5816
#
#
#
# Elastic Compliance Matrix: (Units=1/GPa)
#
#
# Indices 1 2 3 4 5 6 
#
# 1 0.012135 -0.001500 -0.004343 0.000000 0.000000 0.000000
# 2 -0.001500 0.008786 -0.004080 0.000000 0.000000 0.000000
# 3 -0.004343 -0.004080 0.019229 0.000000 0.000000 0.000000
# 4 0.000000 0.000000 0.000000 0.063185 0.000000 0.000000
# 5 0.000000 0.000000 0.000000 0.000000 0.026463 0.000000
# 6 0.000000 0.000000 0.000000 0.000000 0.000000 0.032699
#
#
# Mechanical properties :
#
#
# Convention : Reuss Voigt Hill
#
# Bulk Modulus (GPa) = 49.25035 53.58458 51.41747
# Shear Modulus (GPa) = 26.43935 30.47042 28.45489
#
# Velocity S-wave (km/s) = 3.38712 3.63617 3.51385
# Velocity P-wave (km/s) = 6.05537 6.39378 6.22688
#
# Compressibility (1/GPa) = 0.02030442
#
# Stress axis : x y z
#
# Youngs Moduli (GPa) = 82.40474 113.82005 52.00343
#
# Poissons Ratio (x) = 0.17070 0.22585
# Poissons Ratio (y) = 0.12358 0.21219
# Poissons Ratio (z) = 0.35788 0.46443
#
# Static dielectric constant tensor:
#      x y z
#    x 4.275040 0.000000 0.000000 
#    y 0.000000 4.249610 0.000000 
#    z 0.000000 0.000000 3.994120 
# 
# 
# High freq. dielectric constant tensor:
#      x y z
#    x 1.929030 0.000000 0.000000 
#    y 0.000000 1.903450 0.000000 
#    z 0.000000 0.000000 1.909830 
# 
# From -- ./inp_files/7222.got.cif
#   From: 2010.06.25/outbox.cif.g09.slc.cpg/sg52_4_cif.got.tgz:7222.got - 2010.06.26 19:32:48.
