data_PCOD8216330
_publ_section_title
;
Structure prediction by ZEFSAII (Michael W. Deem and Ramdas Pophale) SiO2 
 PCOD8216330
Probable space group: P N N A
;
_chemical_formula_sum "Si O2"
_cell_formula_units_Z 64
_cell_length_a 9.495647
_cell_length_b 12.183702
_cell_length_c 27.099262
_cell_angle_alpha 90.000000
_cell_angle_beta 90.000000
_cell_angle_gamma 90.000000
_cell_volume 3135.171433
_symmetry_space_group_name_H-M "P N N A"
_symmetry_group_IT_number 52
_symmetry_cell_setting 'orthorhombic'
loop_
_space_group_symop_operation_xyz
x,y,z
1/2-x,-y,z
x,1/2-y,1/2-z
1/2-x,1/2+y,1/2-z
-x,-y,-z
1/2+x,y,-z
-x,1/2+y,1/2+z
1/2+x,1/2-y,1/2+z
loop_
_atom_site_type_symbol
_atom_site_label
_atom_site_fract_x
_atom_site_fract_y
_atom_site_fract_z
Si Si1 0.949017 0.704236 0.196869
Si Si2 0.907953 0.458099 0.953359
Si Si3 0.872759 0.258953 0.193525
Si Si4 0.055188 0.411602 0.355703
Si Si5 0.361897 0.144679 0.137915
Si Si6 0.522345 0.108213 0.967596
Si Si7 0.320450 0.288739 0.466892
Si Si8 0.913333 0.486460 0.144220
O O1 0.999711 0.750000 0.250000
O O2 0.793521 0.747565 0.186398
O O3 0.950397 0.572478 0.188563
O O4 0.054977 0.749942 0.156158
O O5 0.750000 0.500000 0.956346
O O6 0.877427 0.329690 0.951807
O O7 0.987913 0.496835 0.903492
O O8 0.000000 0.500000 0.000000
O O9 0.917934 0.250000 0.250000
O O10 0.939511 0.365767 0.167084
O O11 0.927667 0.146580 0.170862
O O12 0.197582 0.341428 0.347865
O O13 0.076076 0.535610 0.336129
O O14 0.011422 0.425219 0.411796
O O15 0.369518 0.133034 0.078418
O O16 0.657016 0.186853 0.977476
O O17 0.391832 0.184853 0.981167
O O18 0.500000 0.000000 0.000000
O O19 0.750000 0.500000 0.128034
#
# Coordination Sequence:
#
# PCOD8216330 Si02
#       8
#     8   8   8   8   8   8   8   8
#     4  10  22  42  68  92 123 164 212 268 329 381
#     4  12  26  43  65  93 127 175 220 269 321 385
#     4  10  24  42  65  96 129 165 211 271 324 385
#     4  10  23  40  62  91 128 165 208 259 320 381
#     4  10  21  41  62  90 126 163 205 263 316 380
#     4  11  22  40  62  91 126 168 204 260 320 381
#     4  11  23  40  62  87 129 163 213 263 315 378
#     4  10  23  43  65  95 132 168 216 270 326 388
#
# _framework density 20.413557000000001
#
# number of rings (size 3 to 8) (size 9 to 14) (size 15 to 20)
#    0.000    1.500    2.500    1.500    7.000    2.000 
#    2.250    0.000    0.000    0.000    0.000    0.000 
#    0.000    0.000    0.000    0.000    0.000    0.000 
#
# Total GULP energy -793021.626658 kJ/mol
# GULP energy per Si atom -12390.962917 kJ/mol
# Density = 2.036710 g / cm^3
# Si number density = 20.413557 Si / 1000 Ang^3
#
#
#
# Elastic Constant Matrix: (Units=GPa)
#
#
# Indices 1 2 3 4 5 6 
#
# 1 65.3968 16.4057 34.4978 0.0000 0.0000 0.0000
# 2 16.4057 63.9558 14.9735 0.0000 0.0000 0.0000
# 3 34.4978 14.9735 80.0012 0.0000 0.0000 0.0000
# 4 0.0000 0.0000 0.0000 35.5799 0.0000 0.0000
# 5 0.0000 0.0000 0.0000 0.0000 27.1063 0.0000
# 6 0.0000 0.0000 0.0000 0.0000 0.0000 40.6988
#
#
#
# Elastic Compliance Matrix: (Units=1/GPa)
#
#
# Indices 1 2 3 4 5 6 
#
# 1 0.020449 -0.003327 -0.008195 0.000000 0.000000 0.000000
# 2 -0.003327 0.016894 -0.001727 0.000000 0.000000 0.000000
# 3 -0.008195 -0.001727 0.016357 0.000000 0.000000 0.000000
# 4 0.000000 0.000000 0.000000 0.028106 0.000000 0.000000
# 5 0.000000 0.000000 0.000000 0.000000 0.036892 0.000000
# 6 0.000000 0.000000 0.000000 0.000000 0.000000 0.024571
#
#
# Mechanical properties :
#
#
# Convention : Reuss Voigt Hill
#
# Bulk Modulus (GPa) = 36.76364 37.90089 37.33227
# Shear Modulus (GPa) = 27.95895 30.24212 29.10053
#
# Velocity S-wave (km/s) = 3.70486 3.85317 3.77974
# Velocity P-wave (km/s) = 6.02908 6.19699 6.11361
#
# Compressibility (1/GPa) = 0.02720079
#
# Stress axis : x y z
#
# Youngs Moduli (GPa) = 48.90218 59.19405 61.13573
#
# Poissons Ratio (x) = 0.19693 0.50102
# Poissons Ratio (y) = 0.16269 0.10560
# Poissons Ratio (z) = 0.40077 0.10225
#
# Static dielectric constant tensor:
#      x y z
#    x 3.782700 0.000000 0.000000 
#    y 0.000000 3.678140 0.000000 
#    z 0.000000 0.000000 3.730770 
# 
# 
# High freq. dielectric constant tensor:
#      x y z
#    x 1.800220 0.000000 0.000000 
#    y 0.000000 1.809910 0.000000 
#    z 0.000000 0.000000 1.792620 
# 
# From -- ./inp_files/44593.got.cif
#   From: 2010.06.25/outbox.cif.g09.slc.cpg/sg52_23_cif.got.tgz:44593.got - 2010.06.26 19:32:48.
