data_PCOD8216296
_publ_section_title
;
Structure prediction by ZEFSAII (Michael W. Deem and Ramdas Pophale) SiO2 
 PCOD8216296
Probable space group: P N N A
;
_chemical_formula_sum "Si O2"
_cell_formula_units_Z 32
_cell_length_a 16.989809
_cell_length_b 15.304339
_cell_length_c 5.192097
_cell_angle_alpha 90.000000
_cell_angle_beta 90.000000
_cell_angle_gamma 90.000000
_cell_volume 1350.037621
_symmetry_space_group_name_H-M "P N N A"
_symmetry_group_IT_number 52
_symmetry_cell_setting 'orthorhombic'
loop_
_space_group_symop_operation_xyz
x,y,z
1/2-x,-y,z
x,1/2-y,1/2-z
1/2-x,1/2+y,1/2-z
-x,-y,-z
1/2+x,y,-z
-x,1/2+y,1/2+z
1/2+x,1/2-y,1/2+z
loop_
_atom_site_type_symbol
_atom_site_label
_atom_site_fract_x
_atom_site_fract_y
_atom_site_fract_z
Si Si1 0.351681 0.157421 0.876686
Si Si2 0.396899 0.848088 0.506894
Si Si3 0.533892 0.347182 0.510235
Si Si4 0.228080 0.597466 0.102595
O O1 0.331502 0.250000 0.750000
O O2 0.440746 0.152124 0.971181
O O3 0.333172 0.091429 0.638860
O O4 0.301805 0.144104 0.137228
O O5 0.431162 0.750353 0.498746
O O6 0.428870 0.898267 0.253454
O O7 0.302725 0.848886 0.507884
O O8 0.434430 0.896476 0.755571
O O9 0.250000 0.500000 0.183813
#
# Coordination Sequence:
#
# PCOD8216296 Si02
#       4
#     8   8   8   8
#     4  12  25  44  76 103 134 184 249 298 340 418
#     4  10  21  40  64  96 139 172 227 294 343 410
#     4  10  21  40  67 101 130 170 239 301 337 389
#     4  12  28  46  67 106 151 190 225 289 373 430
#
# _framework density 23.703043999999998
#
# number of rings (size 3 to 8) (size 9 to 14) (size 15 to 20)
#    0.000    1.000    2.500    4.500   14.000    0.000 
#    0.000    7.500    0.000    0.000    0.000    0.000 
#    0.000    0.000    0.000    0.000    0.000    0.000 
#
# Total GULP energy -396548.622615 kJ/mol
# GULP energy per Si atom -12392.144457 kJ/mol
# Density = 2.364909 g / cm^3
# Si number density = 23.703044 Si / 1000 Ang^3
#
#
#
# Elastic Constant Matrix: (Units=GPa)
#
#
# Indices 1 2 3 4 5 6 
#
# 1 168.5310 35.4201 92.4753 0.0000 0.0000 0.0000
# 2 35.4201 14.5162 20.0215 0.0000 0.0000 0.0000
# 3 92.4753 20.0215 278.1144 0.0000 0.0000 0.0000
# 4 0.0000 0.0000 0.0000 18.5290 0.0000 0.0000
# 5 0.0000 0.0000 0.0000 0.0000 61.8028 0.0000
# 6 0.0000 0.0000 0.0000 0.0000 0.0000 13.8615
#
#
#
# Elastic Compliance Matrix: (Units=1/GPa)
#
#
# Indices 1 2 3 4 5 6 
#
# 1 0.013421 -0.029525 -0.002337 0.000000 0.000000 0.000000
# 2 -0.029525 0.141434 -0.000365 0.000000 0.000000 0.000000
# 3 -0.002337 -0.000365 0.004399 0.000000 0.000000 0.000000
# 4 0.000000 0.000000 0.000000 0.053969 0.000000 0.000000
# 5 0.000000 0.000000 0.000000 0.000000 0.016180 0.000000
# 6 0.000000 0.000000 0.000000 0.000000 0.000000 0.072142
#
#
# Mechanical properties :
#
#
# Convention : Reuss Voigt Hill
#
# Bulk Modulus (GPa) = 10.54845 84.11060 47.32952
# Shear Modulus (GPa) = 12.57545 39.72165 26.14855
#
# Velocity S-wave (km/s) = 2.30585 4.09810 3.32501
# Velocity P-wave (km/s) = 3.39841 7.61280 5.89508
#
# Compressibility (1/GPa) = 0.09480066
#
# Stress axis : x y z
#
# Youngs Moduli (GPa) = 74.50823 7.07044 227.32335
#
# Poissons Ratio (x) = 0.20876 0.53130
# Poissons Ratio (y) = 2.19986 0.08287
# Poissons Ratio (z) = 0.17414 0.00258
#
# Static dielectric constant tensor:
#      x y z
#    x 4.316800 0.000000 0.000000 
#    y 0.000000 3.786540 0.000000 
#    z 0.000000 0.000000 18.252780 
# 
# 
# High freq. dielectric constant tensor:
#      x y z
#    x 1.949350 0.000000 0.000000 
#    y 0.000000 1.888030 0.000000 
#    z 0.000000 0.000000 1.985660 
# 
# From -- ./inp_files/1917.got.cif
#   From: 2010.06.25/outbox.cif.g09.slc.cpg/sg52_1_cif.got.tgz:1917.got - 2010.06.26 19:32:48.
