data_PCOD8216088
_publ_section_title
;
Structure prediction by ZEFSAII (Michael W. Deem and Ramdas Pophale) SiO2 
 PCOD8216088
Probable space group: P N N A
;
_chemical_formula_sum "Si O2"
_cell_formula_units_Z 32
_cell_length_a 13.445357
_cell_length_b 4.962311
_cell_length_c 26.197909
_cell_angle_alpha 90.000000
_cell_angle_beta 90.000000
_cell_angle_gamma 90.000000
_cell_volume 1747.925613
_symmetry_space_group_name_H-M "P N N A"
_symmetry_group_IT_number 52
_symmetry_cell_setting 'orthorhombic'
loop_
_space_group_symop_operation_xyz
x,y,z
1/2-x,-y,z
x,1/2-y,1/2-z
1/2-x,1/2+y,1/2-z
-x,-y,-z
1/2+x,y,-z
-x,1/2+y,1/2+z
1/2+x,1/2-y,1/2+z
loop_
_atom_site_type_symbol
_atom_site_label
_atom_site_fract_x
_atom_site_fract_y
_atom_site_fract_z
Si Si1 0.440681 0.442319 0.397745
Si Si2 0.461754 0.036724 0.557662
Si Si3 0.180908 0.744261 0.308685
Si Si4 0.750000 0.000000 0.961625
Si Si5 0.250000 0.000000 0.527227
O O1 0.477176 0.749227 0.407060
O O2 0.418552 0.327845 0.340725
O O3 0.339649 0.385181 0.428274
O O4 0.528761 0.256188 0.417804
O O5 0.500000 0.000000 0.500000
O O6 0.344321 0.108174 0.559638
O O7 0.250000 0.500000 0.321366
O O8 0.146662 0.750000 0.250000
O O9 0.250000 0.000000 0.324179
O O10 0.709112 0.249903 0.994309
#
# Coordination Sequence:
#
# PCOD8216088 Si02
#       5
#     8   8   8   4   4
#     4  12  22  35  56  81 110 152 185 218 277 341
#     4  12  23  37  52  80 109 151 193 225 271 327
#     4  10  21  36  56  84 115 144 180 229 285 344
#     4  12  20  32  56  77 110 149 184 218 270 326
#     4  12  24  36  52  75 114 149 188 240 258 314
#
# _framework density 18.307414000000001
#
# number of rings (size 3 to 8) (size 9 to 14) (size 15 to 20)
#    0.000    0.500    6.250    3.750    1.750    0.000 
#    0.000    0.000    0.000    0.000    0.000    3.500 
#    0.000    0.000    0.000    0.000    0.000    0.000 
#
# Total GULP energy -396498.435701 kJ/mol
# GULP energy per Si atom -12390.576116 kJ/mol
# Density = 1.826575 g / cm^3
# Si number density = 18.307414 Si / 1000 Ang^3
#
#
#
# Elastic Constant Matrix: (Units=GPa)
#
#
# Indices 1 2 3 4 5 6 
#
# 1 100.0585 14.3454 35.5740 0.0000 0.0000 0.0000
# 2 14.3454 111.1536 27.8681 0.0000 0.0000 0.0000
# 3 35.5740 27.8681 78.0160 0.0000 0.0000 0.0000
# 4 0.0000 0.0000 0.0000 31.2618 0.0000 0.0000
# 5 0.0000 0.0000 0.0000 0.0000 22.2577 0.0000
# 6 0.0000 0.0000 0.0000 0.0000 0.0000 42.2182
#
#
#
# Elastic Compliance Matrix: (Units=1/GPa)
#
#
# Indices 1 2 3 4 5 6 
#
# 1 0.011932 -0.000193 -0.005372 0.000000 0.000000 0.000000
# 2 -0.000193 0.009885 -0.003443 0.000000 0.000000 0.000000
# 3 -0.005372 -0.003443 0.016497 0.000000 0.000000 0.000000
# 4 0.000000 0.000000 0.000000 0.031988 0.000000 0.000000
# 5 0.000000 0.000000 0.000000 0.000000 0.044928 0.000000
# 6 0.000000 0.000000 0.000000 0.000000 0.000000 0.023686
#
#
# Mechanical properties :
#
#
# Convention : Reuss Voigt Hill
#
# Bulk Modulus (GPa) = 49.26555 49.42258 49.34407
# Shear Modulus (GPa) = 30.54417 33.24357 31.89387
#
# Velocity S-wave (km/s) = 4.08904 4.26591 4.17841
# Velocity P-wave (km/s) = 7.01871 7.16369 7.09157
#
# Compressibility (1/GPa) = 0.02029816
#
# Stress axis : x y z
#
# Youngs Moduli (GPa) = 83.81086 101.16682 60.61674
#
# Poissons Ratio (x) = 0.01954 0.32561
# Poissons Ratio (y) = 0.01619 0.20869
# Poissons Ratio (z) = 0.45020 0.34830
#
# Static dielectric constant tensor:
#      x y z
#    x 3.550210 0.000000 0.000000 
#    y 0.000000 3.510390 0.000000 
#    z 0.000000 0.000000 2.608930 
# 
# 
# High freq. dielectric constant tensor:
#      x y z
#    x 1.694440 0.000000 0.000000 
#    y 0.000000 1.735330 0.000000 
#    z 0.000000 0.000000 1.677550 
# 
# From -- ./inp_files/39867.got.cif
#   From: 2010.06.25/outbox.cif.g09.slc.cpg/sg52_20_cif.got.tgz:39867.got - 2010.06.26 19:32:48.
