data_PCOD8216002
_publ_section_title
;
Structure prediction by ZEFSAII (Michael W. Deem and Ramdas Pophale) SiO2 
 PCOD8216002
Probable space group: P N N A
;
_chemical_formula_sum "Si O2"
_cell_formula_units_Z 40
_cell_length_a 17.620477
_cell_length_b 8.851136
_cell_length_c 11.873411
_cell_angle_alpha 90.000000
_cell_angle_beta 90.000000
_cell_angle_gamma 90.000000
_cell_volume 1851.791883
_symmetry_space_group_name_H-M "P N N A"
_symmetry_group_IT_number 52
_symmetry_cell_setting 'orthorhombic'
loop_
_space_group_symop_operation_xyz
x,y,z
1/2-x,-y,z
x,1/2-y,1/2-z
1/2-x,1/2+y,1/2-z
-x,-y,-z
1/2+x,y,-z
-x,1/2+y,1/2+z
1/2+x,1/2-y,1/2+z
loop_
_atom_site_type_symbol
_atom_site_label
_atom_site_fract_x
_atom_site_fract_y
_atom_site_fract_z
Si Si1 0.834556 0.523338 0.315738
Si Si2 0.370651 0.652276 0.903756
Si Si3 0.038661 0.652213 0.140071
Si Si4 0.898282 0.833335 0.644553
Si Si5 0.538792 0.645277 0.442938
O O1 0.750000 0.500000 0.364206
O O2 0.828076 0.533313 0.178393
O O3 0.867951 0.679626 0.357327
O O4 0.892598 0.394767 0.357137
O O5 0.457723 0.597816 0.908242
O O6 0.343221 0.659104 0.034141
O O7 0.025714 0.750000 0.250000
O O8 0.086241 0.506705 0.176411
O O9 0.077085 0.751843 0.040961
O O10 0.856415 0.750000 0.750000
O O11 0.974826 0.736704 0.624422
O O12 0.500000 0.500000 0.500000
#
# Coordination Sequence:
#
# PCOD8216002 Si02
#       5
#     8   8   8   8   8
#     4  11  22  39  62  90 129 173 205 260 329 385
#     4  10  20  41  56  88 132 163 207 265 310 378
#     4  11  20  36  62  94 128 161 211 276 320 372
#     4  11  22  35  64  96 122 165 211 269 329 374
#     4  11  19  37  63  91 128 166 213 269 322 378
#
# _framework density 21.6007
#
# number of rings (size 3 to 8) (size 9 to 14) (size 15 to 20)
#    0.000    1.200    6.000    4.800    0.000    0.000 
#   18.000    0.000    0.000    2.400    0.000    0.000 
#    0.000    0.000    0.000    0.000    0.000    0.000 
#
# Total GULP energy -495659.474416 kJ/mol
# GULP energy per Si atom -12391.486860 kJ/mol
# Density = 2.155154 g / cm^3
# Si number density = 21.600700 Si / 1000 Ang^3
#
#
#
# Elastic Constant Matrix: (Units=GPa)
#
#
# Indices 1 2 3 4 5 6 
#
# 1 52.9468 8.6250 9.6152 0.0000 0.0000 0.0000
# 2 8.6250 97.3964 30.8832 0.0000 0.0000 0.0000
# 3 9.6152 30.8832 144.2451 0.0000 0.0000 0.0000
# 4 0.0000 0.0000 0.0000 39.8215 0.0000 0.0000
# 5 0.0000 0.0000 0.0000 0.0000 0.7345 0.0000
# 6 0.0000 0.0000 0.0000 0.0000 0.0000 -0.8857
#
#
#
# Elastic Compliance Matrix: (Units=1/GPa)
#
#
# Indices 1 2 3 4 5 6 
#
# 1 0.019293 -0.001395 -0.000987 0.000000 0.000000 0.000000
# 2 -0.001395 0.011116 -0.002287 0.000000 0.000000 0.000000
# 3 -0.000987 -0.002287 0.007488 0.000000 0.000000 0.000000
# 4 0.000000 0.000000 0.000000 0.025112 0.000000 0.000000
# 5 0.000000 0.000000 0.000000 0.000000 1.361386 0.000000
# 6 0.000000 0.000000 0.000000 0.000000 0.000000 -1.129031
#
#
# Mechanical properties :
#
#
# Convention : Reuss Voigt Hill
#
# Bulk Modulus (GPa) = 35.01626 43.64835 39.33230
# Shear Modulus (GPa) = 15.91227 24.29840 20.10533
#
# Velocity S-wave (km/s) = 2.71708 3.35758 3.05417
# Velocity P-wave (km/s) = 5.10777 5.93985 5.53946
#
# Compressibility (1/GPa) = 0.02855816
#
# Stress axis : x y z
#
# Youngs Moduli (GPa) = 51.83097 89.95990 133.54521
#
# Poissons Ratio (x) = 0.12554 0.13185
# Poissons Ratio (y) = 0.07233 0.30541
# Poissons Ratio (z) = 0.05117 0.20573
#
# Static dielectric constant tensor:
#      x y z
#    x 3.235260 0.000000 0.000000 
#    y 0.000000 4.059870 0.000000 
#    z 0.000000 0.000000 4.559400 
# 
# 
# High freq. dielectric constant tensor:
#      x y z
#    x 1.773930 0.000000 0.000000 
#    y 0.000000 1.859900 0.000000 
#    z 0.000000 0.000000 1.871090 
# 
# From -- ./inp_files/20290.got.cif
#   From: 2010.06.25/outbox.cif.g09.slc.cpg/sg52_11_cif.got.tgz:20290.got - 2010.06.26 19:32:48.
