data_PCOD8216653
_publ_section_title
;
Structure prediction by ZEFSAII (Michael W. Deem and Ramdas Pophale) SiO2 
 PCOD8216653
Probable space group: P N N A
;
_chemical_formula_sum "Si O2"
_cell_formula_units_Z 40
_cell_length_a 5.580530
_cell_length_b 11.082866
_cell_length_c 30.716630
_cell_angle_alpha 90.000000
_cell_angle_beta 90.000000
_cell_angle_gamma 90.000000
_cell_volume 1899.770309
_symmetry_space_group_name_H-M "P N N A"
_symmetry_group_IT_number 52
_symmetry_cell_setting 'orthorhombic'
loop_
_space_group_symop_operation_xyz
x,y,z
1/2-x,-y,z
x,1/2-y,1/2-z
1/2-x,1/2+y,1/2-z
-x,-y,-z
1/2+x,y,-z
-x,1/2+y,1/2+z
1/2+x,1/2-y,1/2+z
loop_
_atom_site_type_symbol
_atom_site_label
_atom_site_fract_x
_atom_site_fract_y
_atom_site_fract_z
Si Si1 0.288855 0.639720 0.824230
Si Si2 0.593795 0.165457 0.822776
Si Si3 0.274053 0.361722 0.025463
Si Si4 0.612023 0.750000 0.750000
Si Si5 0.039475 0.718253 0.394233
Si Si6 0.250000 0.500000 0.630051
O O1 0.250000 0.500000 0.822638
O O2 0.455550 0.676959 0.784336
O O3 0.403074 0.671207 0.871208
O O4 0.035996 0.705437 0.820514
O O5 0.728256 0.152083 0.776487
O O6 0.771929 0.160546 0.862580
O O7 0.423612 0.054428 0.833066
O O8 0.250000 0.500000 0.041809
O O9 0.317329 0.267406 0.064182
O O10 0.512025 0.337325 0.995884
O O11 0.856169 0.604801 0.401846
#
# Coordination Sequence:
#
# PCOD8216653 Si02
#       6
#     8   8   8   4   8   4
#     4  10  23  41  62  94 125 171 221 276 336 399
#     4  10  22  43  62  91 128 171 223 271 335 393
#     4  10  24  43  71 108 140 176 220 280 346 414
#     4  10  22  44  56  96 124 172 218 282 334 394
#     4  10  23  41  70  93 133 175 218 273 336 407
#     4  10  22  44  66  94 124 182 226 272 330 414
#
# _framework density 21.055177
#
# number of rings (size 3 to 8) (size 9 to 14) (size 15 to 20)
#    0.000    2.000    0.000    1.200    8.400    3.200 
#   43.200    1.000    0.000    0.000    0.000    0.000 
#    0.000    0.000    0.000    0.000    0.000    0.000 
#
# Total GULP energy -495528.223580 kJ/mol
# GULP energy per Si atom -12388.205589 kJ/mol
# Density = 2.100725 g / cm^3
# Si number density = 21.055177 Si / 1000 Ang^3
#
#
#
# Elastic Constant Matrix: (Units=GPa)
#
#
# Indices 1 2 3 4 5 6 
#
# 1 92.7467 24.6712 24.2004 0.0000 0.0000 0.0000
# 2 24.6712 120.4494 33.8062 0.0000 0.0000 0.0000
# 3 24.2004 33.8062 87.2185 0.0000 0.0000 0.0000
# 4 0.0000 0.0000 0.0000 1.1596 0.0000 0.0000
# 5 0.0000 0.0000 0.0000 0.0000 -32.2131 0.0000
# 6 0.0000 0.0000 0.0000 0.0000 0.0000 5.6219
#
#
#
# Elastic Compliance Matrix: (Units=1/GPa)
#
#
# Indices 1 2 3 4 5 6 
#
# 1 0.011926 -0.001699 -0.002651 0.000000 0.000000 0.000000
# 2 -0.001699 0.009558 -0.003233 0.000000 0.000000 0.000000
# 3 -0.002651 -0.003233 0.013454 0.000000 0.000000 0.000000
# 4 0.000000 0.000000 0.000000 0.862376 0.000000 0.000000
# 5 0.000000 0.000000 0.000000 0.000000 -0.031043 0.000000
# 6 0.000000 0.000000 0.000000 0.000000 0.000000 0.177876
#
#
# Mechanical properties :
#
#
# Convention : Reuss Voigt Hill
#
# Bulk Modulus (GPa) = 50.57585 51.75227 51.16406
# Shear Modulus (GPa) = 4.69086 9.42946 7.06016
#
# Velocity S-wave (km/s) = 1.49423 2.11853 1.83315
# Velocity P-wave (km/s) = 5.20094 5.53326 5.36967
#
# Compressibility (1/GPa) = 0.01977228
#
# Stress axis : x y z
#
# Youngs Moduli (GPa) = 83.85368 104.62824 74.32673
#
# Poissons Ratio (x) = 0.17774 0.19700
# Poissons Ratio (y) = 0.14245 0.24032
# Poissons Ratio (z) = 0.22226 0.33829
#
# Static dielectric constant tensor:
#      x y z
#    x 4.714160 0.000000 0.000000 
#    y 0.000000 3.499210 0.000000 
#    z 0.000000 0.000000 3.891960 
# 
# 
# High freq. dielectric constant tensor:
#      x y z
#    x 1.852980 0.000000 0.000000 
#    y 0.000000 1.823380 0.000000 
#    z 0.000000 0.000000 1.803510 
# 
# From -- ./inp_files/43688.got.cif
#   From: 2010.06.25/outbox.cif.g09.slc.cpg/sg52_22_cif.got.tgz:43688.got - 2010.06.26 19:32:48.
