data_PCOD8216169
_publ_section_title
;
Structure prediction by ZEFSAII (Michael W. Deem and Ramdas Pophale) SiO2 
 PCOD8216169
Probable space group: P N N A
;
_chemical_formula_sum "Si O2"
_cell_formula_units_Z 40
_cell_length_a 27.558024
_cell_length_b 11.210039
_cell_length_c 5.192562
_cell_angle_alpha 90.000000
_cell_angle_beta 90.000000
_cell_angle_gamma 90.000000
_cell_volume 1604.120128
_symmetry_space_group_name_H-M "P N N A"
_symmetry_group_IT_number 52
_symmetry_cell_setting 'orthorhombic'
loop_
_space_group_symop_operation_xyz
x,y,z
1/2-x,-y,z
x,1/2-y,1/2-z
1/2-x,1/2+y,1/2-z
-x,-y,-z
1/2+x,y,-z
-x,1/2+y,1/2+z
1/2+x,1/2-y,1/2+z
loop_
_atom_site_type_symbol
_atom_site_label
_atom_site_fract_x
_atom_site_fract_y
_atom_site_fract_z
Si Si1 0.237616 0.872396 0.902909
Si Si2 0.630290 0.919495 0.991368
Si Si3 0.464827 0.823925 0.498457
Si Si4 0.072487 0.588587 0.990794
Si Si5 0.660714 0.176607 0.986031
O O1 0.237054 0.750000 0.750000
O O2 0.283869 0.860437 0.093642
O O3 0.250000 0.000000 0.752005
O O4 0.185914 0.878139 0.042899
O O5 0.601612 0.872108 0.744362
O O6 0.604563 0.868949 0.247528
O O7 0.627142 0.061741 0.015758
O O8 0.449435 0.750000 0.750000
O O9 0.522299 0.841769 0.488291
O O10 0.436411 0.947648 0.508008
O O11 0.448319 0.750000 0.250000
O O12 0.659322 0.250000 0.250000
O O13 0.638325 0.250000 0.750000
#
# Coordination Sequence:
#
# PCOD8216169 Si02
#       5
#     8   8   8   8   8
#     4   9  21  41  65  95 134 179 221 268 326 385
#     4  11  23  39  63  94 129 164 211 273 325 379
#     4  11  24  44  67  89 125 170 208 260 329 394
#     4  11  25  42  63  97 127 160 215 267 322 391
#     4  10  21  38  60  89 127 171 217 262 318 386
#
# _framework density 24.935787999999999
#
# number of rings (size 3 to 8) (size 9 to 14) (size 15 to 20)
#    0.000    1.600    0.000    3.600    0.000   13.600 
#    0.000   11.000    0.000    0.000    0.000    0.000 
#    0.000    0.000    0.000    0.000    0.000    0.000 
#
# Total GULP energy -495746.958239 kJ/mol
# GULP energy per Si atom -12393.673956 kJ/mol
# Density = 2.487903 g / cm^3
# Si number density = 24.935788 Si / 1000 Ang^3
#
#
#
# Elastic Constant Matrix: (Units=GPa)
#
#
# Indices 1 2 3 4 5 6 
#
# 1 112.3133 6.3803 16.9578 0.0000 0.0000 0.0000
# 2 6.3803 117.5487 13.8271 0.0000 0.0000 0.0000
# 3 16.9578 13.8271 166.6215 0.0000 0.0000 0.0000
# 4 0.0000 0.0000 0.0000 -95.7891 0.0000 0.0000
# 5 0.0000 0.0000 0.0000 0.0000 22.6280 0.0000
# 6 0.0000 0.0000 0.0000 0.0000 0.0000 12.7300
#
#
#
# Elastic Compliance Matrix: (Units=1/GPa)
#
#
# Indices 1 2 3 4 5 6 
#
# 1 0.009060 -0.000387 -0.000890 0.000000 0.000000 0.000000
# 2 -0.000387 0.008608 -0.000675 0.000000 0.000000 0.000000
# 3 -0.000890 -0.000675 0.006148 0.000000 0.000000 0.000000
# 4 0.000000 0.000000 0.000000 -0.010440 0.000000 0.000000
# 5 0.000000 0.000000 0.000000 0.000000 0.044193 0.000000
# 6 0.000000 0.000000 0.000000 0.000000 0.000000 0.078554
#
#
# Mechanical properties :
#
#
# Convention : Reuss Voigt Hill
#
# Bulk Modulus (GPa) = 50.22128 52.31265 51.26697
# Shear Modulus (GPa) = 34.09133 11.86833 22.97983
#
# Velocity S-wave (km/s) = 3.70153 2.18401 3.03901
# Velocity P-wave (km/s) = 6.20100 5.23301 5.73745
#
# Compressibility (1/GPa) = 0.01991188
#
# Stress axis : x y z
#
# Youngs Moduli (GPa) = 110.37496 116.17766 162.64905
#
# Poissons Ratio (x) = 0.04497 0.14475
# Poissons Ratio (y) = 0.04272 0.10977
# Poissons Ratio (z) = 0.09823 0.07841
#
# Static dielectric constant tensor:
#      x y z
#    x 4.957620 0.000000 0.000000 
#    y 0.000000 4.823800 0.000000 
#    z 0.000000 0.000000 4.107050 
# 
# 
# High freq. dielectric constant tensor:
#      x y z
#    x 2.023860 0.000000 0.000000 
#    y 0.000000 2.019780 0.000000 
#    z 0.000000 0.000000 1.959750 
# 
# From -- ./inp_files/5594.got.cif
#   From: 2010.06.25/outbox.cif.g09.slc.cpg/sg52_3_cif.got.tgz:5594.got - 2010.06.26 19:32:48.
