data_PCOD8216771
_publ_section_title
;
Structure prediction by ZEFSAII (Michael W. Deem and Ramdas Pophale) SiO2 
 PCOD8216771
Probable space group: P N N A
;
_chemical_formula_sum "Si O2"
_cell_formula_units_Z 48
_cell_length_a 14.585688
_cell_length_b 18.051967
_cell_length_c 8.699253
_cell_angle_alpha 90.000000
_cell_angle_beta 90.000000
_cell_angle_gamma 90.000000
_cell_volume 2290.516433
_symmetry_space_group_name_H-M "P N N A"
_symmetry_group_IT_number 52
_symmetry_cell_setting 'orthorhombic'
loop_
_space_group_symop_operation_xyz
x,y,z
1/2-x,-y,z
x,1/2-y,1/2-z
1/2-x,1/2+y,1/2-z
-x,-y,-z
1/2+x,y,-z
-x,1/2+y,1/2+z
1/2+x,1/2-y,1/2+z
loop_
_atom_site_type_symbol
_atom_site_label
_atom_site_fract_x
_atom_site_fract_y
_atom_site_fract_z
Si Si1 0.623021 0.675400 0.185063
Si Si2 0.593403 0.822310 0.667311
Si Si3 0.299433 0.665982 0.205498
Si Si4 0.962472 0.562963 0.293265
Si Si5 0.282855 0.578883 0.899627
Si Si6 0.034648 0.402863 0.357223
O O1 0.668618 0.750000 0.250000
O O2 0.697078 0.610148 0.197288
O O3 0.532342 0.658274 0.284558
O O4 0.598078 0.693866 0.011256
O O5 0.552071 0.750000 0.750000
O O6 0.691841 0.842706 0.743395
O O7 0.527402 0.891619 0.681345
O O8 0.329697 0.750000 0.250000
O O9 0.360446 0.611328 0.308092
O O10 0.313914 0.639384 0.027854
O O11 0.861225 0.564169 0.224491
O O12 0.966976 0.600555 0.459603
O O13 0.001597 0.480912 0.293062
O O14 0.250000 0.500000 0.973274
#
# Coordination Sequence:
#
# PCOD8216771 Si02
#       6
#     8   8   8   8   8   8
#     4  11  23  41  68  95 131 172 216 271 326 389
#     4  10  23  42  65  96 129 168 218 268 327 392
#     4  10  24  43  66  97 127 166 220 270 329 389
#     4  11  25  41  63  96 133 174 216 268 326 391
#     4  11  24  44  68  99 131 175 223 274 330 397
#     4  11  24  41  64  96 134 171 217 268 328 385
#
# _framework density 20.955973
#
# number of rings (size 3 to 8) (size 9 to 14) (size 15 to 20)
#    0.000    1.333    1.667    2.500    4.667    8.667 
#    0.000    0.000    0.000    0.000    0.000    0.000 
#    0.000    0.000    0.000    0.000    0.000    0.000 
#
# Total GULP energy -595204.194946 kJ/mol
# GULP energy per Si atom -12400.087395 kJ/mol
# Density = 2.090828 g / cm^3
# Si number density = 20.955973 Si / 1000 Ang^3
#
#
#
# Elastic Constant Matrix: (Units=GPa)
#
#
# Indices 1 2 3 4 5 6 
#
# 1 80.7089 44.9032 36.4895 0.0000 0.0000 0.0000
# 2 44.9032 111.9458 63.8691 0.0000 0.0000 0.0000
# 3 36.4895 63.8691 95.4723 0.0000 0.0000 0.0000
# 4 0.0000 0.0000 0.0000 35.3323 0.0000 0.0000
# 5 0.0000 0.0000 0.0000 0.0000 27.4362 0.0000
# 6 0.0000 0.0000 0.0000 0.0000 0.0000 37.4945
#
#
#
# Elastic Compliance Matrix: (Units=1/GPa)
#
#
# Indices 1 2 3 4 5 6 
#
# 1 0.016476 -0.004878 -0.003034 0.000000 0.000000 0.000000
# 2 -0.004878 0.015891 -0.008767 0.000000 0.000000 0.000000
# 3 -0.003034 -0.008767 0.017498 0.000000 0.000000 0.000000
# 4 0.000000 0.000000 0.000000 0.028303 0.000000 0.000000
# 5 0.000000 0.000000 0.000000 0.000000 0.036448 0.000000
# 6 0.000000 0.000000 0.000000 0.000000 0.000000 0.026671
#
#
# Mechanical properties :
#
#
# Convention : Reuss Voigt Hill
#
# Bulk Modulus (GPa) = 60.57357 64.29450 62.43404
# Shear Modulus (GPa) = 27.75529 29.57694 28.66612
#
# Velocity S-wave (km/s) = 3.64326 3.76092 3.70255
# Velocity P-wave (km/s) = 6.83123 7.04320 6.93802
#
# Compressibility (1/GPa) = 0.01650885
#
# Stress axis : x y z
#
# Youngs Moduli (GPa) = 60.69572 62.92848 57.14789
#
# Poissons Ratio (x) = 0.30695 0.17338
# Poissons Ratio (y) = 0.29605 0.50099
# Poissons Ratio (z) = 0.18414 0.55167
#
# Static dielectric constant tensor:
#      x y z
#    x 3.836710 0.000000 0.000000 
#    y 0.000000 3.905400 0.000000 
#    z 0.000000 0.000000 3.689480 
# 
# 
# High freq. dielectric constant tensor:
#      x y z
#    x 1.825570 0.000000 0.000000 
#    y 0.000000 1.833520 0.000000 
#    z 0.000000 0.000000 1.818160 
# 
# From -- ./inp_files/10477.got.cif
#   From: 2010.06.25/outbox.cif.g09.slc.cpg/sg52_6_cif.got.tgz:10477.got - 2010.06.26 19:32:48.
