data_PCOD8216019
_publ_section_title
;
Structure prediction by ZEFSAII (Michael W. Deem and Ramdas Pophale) SiO2 
 PCOD8216019
Probable space group: P N N A
;
_chemical_formula_sum "Si O2"
_cell_formula_units_Z 28
_cell_length_a 5.242071
_cell_length_b 13.037931
_cell_length_c 17.971407
_cell_angle_alpha 90.000000
_cell_angle_beta 90.000000
_cell_angle_gamma 90.000000
_cell_volume 1228.269470
_symmetry_space_group_name_H-M "P N N A"
_symmetry_group_IT_number 52
_symmetry_cell_setting 'orthorhombic'
loop_
_space_group_symop_operation_xyz
x,y,z
1/2-x,-y,z
x,1/2-y,1/2-z
1/2-x,1/2+y,1/2-z
-x,-y,-z
1/2+x,y,-z
-x,1/2+y,1/2+z
1/2+x,1/2-y,1/2+z
loop_
_atom_site_type_symbol
_atom_site_label
_atom_site_fract_x
_atom_site_fract_y
_atom_site_fract_z
Si Si1 0.007073 0.870793 0.764185
Si Si2 0.750000 0.500000 0.859093
Si Si3 0.056102 0.824596 0.452283
Si Si4 0.512391 0.674678 0.680428
O O1 0.054022 0.750000 0.750000
O O2 0.773250 0.891924 0.821219
O O3 0.276475 0.902971 0.802793
O O4 0.945698 0.929760 0.687850
O O5 0.944204 0.431877 0.908000
O O6 0.341845 0.817809 0.484801
O O7 0.985315 0.732753 0.396957
O O8 0.559519 0.750000 0.750000
#
# Coordination Sequence:
#
# PCOD8216019 Si02
#       4
#     8   4   8   8
#     4  10  21  38  65  88 129 173 232 273 309 388
#     4  12  24  42  68 104 144 176 216 288 342 410
#     4  12  26  41  63 103 148 178 206 272 361 428
#     4  10  20  42  62  84 132 178 232 260 306 408
#
# _framework density 22.796302000000001
#
# number of rings (size 3 to 8) (size 9 to 14) (size 15 to 20)
#    0.000    1.143    5.714    2.571    4.000    3.429 
#    0.000    0.000    0.000    0.000    0.000   20.000 
#    0.000    0.000    0.000    0.000    0.000    0.000 
#
# Total GULP energy -346969.594932 kJ/mol
# GULP energy per Si atom -12391.771248 kJ/mol
# Density = 2.274442 g / cm^3
# Si number density = 22.796302 Si / 1000 Ang^3
#
#
#
# Elastic Constant Matrix: (Units=GPa)
#
#
# Indices 1 2 3 4 5 6 
#
# 1 120.4448 -65.3557 -3.4098 0.0000 0.0000 0.0000
# 2 -65.3557 -27.3720 1.8894 0.0000 0.0000 0.0000
# 3 -3.4098 1.8894 90.0909 0.0000 0.0000 0.0000
# 4 0.0000 0.0000 0.0000 39.1222 0.0000 0.0000
# 5 0.0000 0.0000 0.0000 0.0000 49.9971 0.0000
# 6 0.0000 0.0000 0.0000 0.0000 0.0000 3.9756
#
#
#
# Elastic Compliance Matrix: (Units=1/GPa)
#
#
# Indices 1 2 3 4 5 6 
#
# 1 0.003626 -0.008635 0.000318 0.000000 0.000000 0.000000
# 2 -0.008635 -0.015915 0.000007 0.000000 0.000000 0.000000
# 3 0.000318 0.000007 0.011112 0.000000 0.000000 0.000000
# 4 0.000000 0.000000 0.000000 0.025561 0.000000 0.000000
# 5 0.000000 0.000000 0.000000 0.000000 0.020001 0.000000
# 6 0.000000 0.000000 0.000000 0.000000 0.000000 0.251534
#
#
# Mechanical properties :
#
#
# Convention : Reuss Voigt Hill
#
# Bulk Modulus (GPa) = -56.18840 5.49018 -25.34911
# Shear Modulus (GPa) = 16.30750 35.28830 25.79790
#
# Velocity S-wave (km/s) = 2.67752 3.93871 3.36768
# Velocity P-wave (km/s) = 3.89137 4.80606 1.99442
#
# Compressibility (1/GPa) = -0.01779727
#
# Stress axis : x y z
#
# Youngs Moduli (GPa) = 275.79796 -62.83525 89.99444
#
# Poissons Ratio (x) = -0.54261 -0.02865
# Poissons Ratio (y) = 2.38162 -0.00062
# Poissons Ratio (z) = -0.08779 0.00044
#
# Static dielectric constant tensor:
#      x y z
#    x 5.485340 0.000000 0.000000 
#    y 0.000000 4.016290 0.000000 
#    z 0.000000 0.000000 3.914850 
# 
# 
# High freq. dielectric constant tensor:
#      x y z
#    x 1.936380 0.000000 0.000000 
#    y 0.000000 1.880750 0.000000 
#    z 0.000000 0.000000 1.870630 
# 
# From -- ./inp_files/23437.got.cif
#   From: 2010.06.25/outbox.cif.g09.slc.cpg/sg52_12_cif.got.tgz:23437.got - 2010.06.26 19:32:48.
