data_PCOD8216751
_publ_section_title
;
Structure prediction by ZEFSAII (Michael W. Deem and Ramdas Pophale) SiO2 
 PCOD8216751
Probable space group: P N N A
;
_chemical_formula_sum "Si O2"
_cell_formula_units_Z 32
_cell_length_a 10.419990
_cell_length_b 8.621246
_cell_length_c 15.759022
_cell_angle_alpha 90.000000
_cell_angle_beta 90.000000
_cell_angle_gamma 90.000000
_cell_volume 1415.684905
_symmetry_space_group_name_H-M "P N N A"
_symmetry_group_IT_number 52
_symmetry_cell_setting 'orthorhombic'
loop_
_space_group_symop_operation_xyz
x,y,z
1/2-x,-y,z
x,1/2-y,1/2-z
1/2-x,1/2+y,1/2-z
-x,-y,-z
1/2+x,y,-z
-x,1/2+y,1/2+z
1/2+x,1/2-y,1/2+z
loop_
_atom_site_type_symbol
_atom_site_label
_atom_site_fract_x
_atom_site_fract_y
_atom_site_fract_z
Si Si1 0.614183 0.939351 0.442005
Si Si2 0.120031 0.432220 0.753829
Si Si3 0.628989 0.899861 0.003992
Si Si4 0.136363 0.606898 0.312674
O O1 0.612446 0.752078 0.437948
O O2 0.750000 0.000000 0.479101
O O3 0.500000 0.000000 0.500000
O O4 0.594702 0.006999 0.348447
O O5 0.250000 0.500000 0.714225
O O6 0.137134 0.250000 0.750000
O O7 0.000145 0.484155 0.694795
O O8 0.661144 0.840010 0.908791
O O9 0.750000 0.000000 0.037767
O O10 0.500000 0.000000 0.000000
O O11 0.250000 0.500000 0.278985
O O12 0.127480 0.750000 0.250000
#
# Coordination Sequence:
#
# PCOD8216751 Si02
#       4
#     8   8   8   8
#     4  11  23  41  67  97 129 172 221 272 326 391
#     4  10  23  41  63  95 129 167 215 268 324 389
#     4  11  25  43  65  96 134 174 218 273 333 394
#     4  10  23  41  63  92 126 163 209 263 319 384
#
# _framework density 22.603899999999999
#
# number of rings (size 3 to 8) (size 9 to 14) (size 15 to 20)
#    0.000    1.500    0.000    4.500    0.000   18.000 
#    0.000    0.000    0.000    0.000    0.000    0.000 
#    0.000    0.000    0.000    0.000    0.000    0.000 
#
# Total GULP energy -396815.250973 kJ/mol
# GULP energy per Si atom -12400.476593 kJ/mol
# Density = 2.255245 g / cm^3
# Si number density = 22.603900 Si / 1000 Ang^3
#
#
#
# Elastic Constant Matrix: (Units=GPa)
#
#
# Indices 1 2 3 4 5 6 
#
# 1 179.9109 56.3523 -1.9708 0.0000 0.0000 0.0000
# 2 56.3523 160.8172 38.4122 0.0000 0.0000 0.0000
# 3 -1.9708 38.4122 79.8626 0.0000 0.0000 0.0000
# 4 0.0000 0.0000 0.0000 42.2860 0.0000 0.0000
# 5 0.0000 0.0000 0.0000 0.0000 -39.3498 0.0000
# 6 0.0000 0.0000 0.0000 0.0000 0.0000 45.4127
#
#
#
# Elastic Compliance Matrix: (Units=1/GPa)
#
#
# Indices 1 2 3 4 5 6 
#
# 1 0.006378 -0.002567 0.001392 0.000000 0.000000 0.000000
# 2 -0.002567 0.008059 -0.003939 0.000000 0.000000 0.000000
# 3 0.001392 -0.003939 0.014451 0.000000 0.000000 0.000000
# 4 0.000000 0.000000 0.000000 0.023648 0.000000 0.000000
# 5 0.000000 0.000000 0.000000 0.000000 -0.025413 0.000000
# 6 0.000000 0.000000 0.000000 0.000000 0.000000 0.022020
#
#
# Mechanical properties :
#
#
# Convention : Reuss Voigt Hill
#
# Bulk Modulus (GPa) = 53.59636 67.35313 60.47474
# Shear Modulus (GPa) = 76.22944 31.52293 53.87619
#
# Velocity S-wave (km/s) = 5.81354 3.73846 4.88740
# Velocity P-wave (km/s) = 8.29612 6.96395 7.65905
#
# Compressibility (1/GPa) = 0.01865798
#
# Stress axis : x y z
#
# Youngs Moduli (GPa) = 156.79589 124.08721 69.20096
#
# Poissons Ratio (x) = 0.31858 -0.09634
# Poissons Ratio (y) = 0.40255 0.27262
# Poissons Ratio (z) = -0.21830 0.48884
#
# Static dielectric constant tensor:
#      x y z
#    x 5.052170 0.000000 0.000000 
#    y 0.000000 4.109300 0.000000 
#    z 0.000000 0.000000 4.035060 
# 
# 
# High freq. dielectric constant tensor:
#      x y z
#    x 1.918740 0.000000 0.000000 
#    y 0.000000 1.887180 0.000000 
#    z 0.000000 0.000000 1.893830 
# 
# From -- ./inp_files/25592.got.cif
#   From: 2010.06.25/outbox.cif.g09.slc.cpg/sg52_13_cif.got.tgz:25592.got - 2010.06.26 19:32:48.
