data_PCOD8216508
_publ_section_title
;
Structure prediction by ZEFSAII (Michael W. Deem and Ramdas Pophale) SiO2 
 PCOD8216508
Probable space group: P N N A
;
_chemical_formula_sum "Si O2"
_cell_formula_units_Z 32
_cell_length_a 7.901173
_cell_length_b 7.989542
_cell_length_c 21.222265
_cell_angle_alpha 90.000000
_cell_angle_beta 90.000000
_cell_angle_gamma 90.000000
_cell_volume 1339.692692
_symmetry_space_group_name_H-M "P N N A"
_symmetry_group_IT_number 52
_symmetry_cell_setting 'orthorhombic'
loop_
_space_group_symop_operation_xyz
x,y,z
1/2-x,-y,z
x,1/2-y,1/2-z
1/2-x,1/2+y,1/2-z
-x,-y,-z
1/2+x,y,-z
-x,1/2+y,1/2+z
1/2+x,1/2-y,1/2+z
loop_
_atom_site_type_symbol
_atom_site_label
_atom_site_fract_x
_atom_site_fract_y
_atom_site_fract_z
Si Si1 0.159584 0.821370 0.539664
Si Si2 0.395396 0.750000 0.250000
Si Si3 0.250000 0.000000 0.154493
Si Si4 0.051610 0.469828 0.143822
Si Si5 0.515969 0.202491 0.085795
O O1 0.091710 0.770247 0.472381
O O2 0.290314 0.674902 0.563002
O O3 0.005780 0.840577 0.589153
O O4 0.250000 0.000000 0.532094
O O5 0.279503 0.836737 0.196812
O O6 0.502079 0.609817 0.211966
O O7 0.080872 0.960854 0.112797
O O8 0.250000 0.500000 0.139931
O O9 0.963893 0.650339 0.137994
#
# Coordination Sequence:
#
# PCOD8216508 Si02
#       5
#     8   4   4   8   8
#     4  10  22  39  67  99 132 173 216 281 346 420
#     4  12  24  42  64  94 124 182 228 274 332 406
#     4  12  24  40  68  94 134 176 230 288 332 422
#     4  11  20  41  67  91 129 174 225 268 334 408
#     4  11  22  40  65  99 132 173 221 280 352 405
#
# _framework density 23.886074000000001
#
# number of rings (size 3 to 8) (size 9 to 14) (size 15 to 20)
#    0.000    1.000    3.750    5.250    0.000    1.000 
#    0.000    8.750    0.000    0.000    0.000    0.000 
#    0.000    0.000    0.000    0.000    0.000    0.000 
#
# Total GULP energy -396553.418184 kJ/mol
# GULP energy per Si atom -12392.294318 kJ/mol
# Density = 2.383171 g / cm^3
# Si number density = 23.886074 Si / 1000 Ang^3
#
#
#
# Elastic Constant Matrix: (Units=GPa)
#
#
# Indices 1 2 3 4 5 6 
#
# 1 88.3151 34.3452 42.9892 0.0000 0.0000 0.0000
# 2 34.3452 83.0668 47.4184 0.0000 0.0000 0.0000
# 3 42.9892 47.4184 131.8649 0.0000 0.0000 0.0000
# 4 0.0000 0.0000 0.0000 20.8785 0.0000 0.0000
# 5 0.0000 0.0000 0.0000 0.0000 10.0681 0.0000
# 6 0.0000 0.0000 0.0000 0.0000 0.0000 28.1782
#
#
#
# Elastic Compliance Matrix: (Units=1/GPa)
#
#
# Indices 1 2 3 4 5 6 
#
# 1 0.014514 -0.004152 -0.003239 0.000000 0.000000 0.000000
# 2 -0.004152 0.016336 -0.004521 0.000000 0.000000 0.000000
# 3 -0.003239 -0.004521 0.010265 0.000000 0.000000 0.000000
# 4 0.000000 0.000000 0.000000 0.047896 0.000000 0.000000
# 5 0.000000 0.000000 0.000000 0.000000 0.099324 0.000000
# 6 0.000000 0.000000 0.000000 0.000000 0.000000 0.035488
#
#
# Mechanical properties :
#
#
# Convention : Reuss Voigt Hill
#
# Bulk Modulus (GPa) = 57.83050 61.41695 59.62372
# Shear Modulus (GPa) = 19.73079 23.72455 21.72767
#
# Velocity S-wave (km/s) = 2.87720 3.15499 3.01929
# Velocity P-wave (km/s) = 5.94149 6.24821 6.09678
#
# Compressibility (1/GPa) = 0.01729191
#
# Stress axis : x y z
#
# Youngs Moduli (GPa) = 68.89702 61.21443 97.41871
#
# Poissons Ratio (x) = 0.25419 0.31550
# Poissons Ratio (y) = 0.28609 0.44040
# Poissons Ratio (z) = 0.22313 0.27673
#
# Static dielectric constant tensor:
#      x y z
#    x 4.495590 0.000000 0.000000 
#    y 0.000000 4.529650 0.000000 
#    z 0.000000 0.000000 4.664060 
# 
# 
# High freq. dielectric constant tensor:
#      x y z
#    x 1.927490 0.000000 0.000000 
#    y 0.000000 1.940860 0.000000 
#    z 0.000000 0.000000 1.951330 
# 
# From -- ./inp_files/35500.got.cif
#   From: 2010.06.25/outbox.cif.g09.slc.cpg/sg52_18_cif.got.tgz:35500.got - 2010.06.26 19:32:48.
