data_PCOD8216973
_publ_section_title
;
Structure prediction by ZEFSAII (Michael W. Deem and Ramdas Pophale) SiO2 
 PCOD8216973
Probable space group: P N N A
;
_chemical_formula_sum "Si O2"
_cell_formula_units_Z 20
_cell_length_a 17.998027
_cell_length_b 7.588950
_cell_length_c 5.057612
_cell_angle_alpha 90.000000
_cell_angle_beta 90.000000
_cell_angle_gamma 90.000000
_cell_volume 690.799635
_symmetry_space_group_name_H-M "P N N A"
_symmetry_group_IT_number 52
_symmetry_cell_setting 'orthorhombic'
loop_
_space_group_symop_operation_xyz
x,y,z
1/2-x,-y,z
x,1/2-y,1/2-z
1/2-x,1/2+y,1/2-z
-x,-y,-z
1/2+x,y,-z
-x,1/2+y,1/2+z
1/2+x,1/2-y,1/2+z
loop_
_atom_site_type_symbol
_atom_site_label
_atom_site_fract_x
_atom_site_fract_y
_atom_site_fract_z
Si Si1 0.766258 0.250000 0.250000
Si Si2 0.996913 0.250000 0.750000
Si Si3 0.165346 0.250000 0.250000
Si Si4 0.899730 0.467298 0.092402
O O1 0.716612 0.297312 0.500958
O O2 0.819050 0.420571 0.206712
O O3 0.943871 0.209991 0.497159
O O4 0.050996 0.418856 0.699895
O O5 0.112679 0.086101 0.328831
#
# Coordination Sequence:
#
# PCOD8216973 Si02
#       4
#     4   4   4   8
#     4  12  29  51  80 115 155 202 254 316 382 454
#     4  10  26  48  76 110 150 200 252 312 376 448
#     4  12  29  51  80 115 155 202 254 316 382 454
#     4  11  27  48  76 110 153 197 254 312 378 449
#
# _framework density 28.951955000000002
#
# number of rings (size 3 to 8) (size 9 to 14) (size 15 to 20)
#    0.000    0.800    0.000    3.600    0.000   32.000 
#    0.000    0.000    0.000    0.000    0.000    0.000 
#    0.000    0.000    0.000    0.000    0.000    0.000 
#
# Total GULP energy -248049.478318 kJ/mol
# GULP energy per Si atom -12402.473916 kJ/mol
# Density = 2.888606 g / cm^3
# Si number density = 28.951955 Si / 1000 Ang^3
#
#
#
# Elastic Constant Matrix: (Units=GPa)
#
#
# Indices 1 2 3 4 5 6 
#
# 1 183.4298 46.8522 62.5219 0.0000 0.0000 0.0000
# 2 46.8522 147.0500 55.5586 0.0000 0.0000 0.0000
# 3 62.5219 55.5586 154.0123 0.0000 0.0000 0.0000
# 4 0.0000 0.0000 0.0000 55.5505 0.0000 0.0000
# 5 0.0000 0.0000 0.0000 0.0000 29.0323 0.0000
# 6 0.0000 0.0000 0.0000 0.0000 0.0000 110.7758
#
#
#
# Elastic Compliance Matrix: (Units=1/GPa)
#
#
# Indices 1 2 3 4 5 6 
#
# 1 0.006519 -0.001247 -0.002196 0.000000 0.000000 0.000000
# 2 -0.001247 0.008112 -0.002420 0.000000 0.000000 0.000000
# 3 -0.002196 -0.002420 0.008258 0.000000 0.000000 0.000000
# 4 0.000000 0.000000 0.000000 0.018002 0.000000 0.000000
# 5 0.000000 0.000000 0.000000 0.000000 0.034444 0.000000
# 6 0.000000 0.000000 0.000000 0.000000 0.000000 0.009027
#
#
# Mechanical properties :
#
#
# Convention : Reuss Voigt Hill
#
# Bulk Modulus (GPa) = 89.59547 90.48419 90.03983
# Shear Modulus (GPa) = 50.09525 60.37567 55.23546
#
# Velocity S-wave (km/s) = 4.16419 4.57154 4.37261
# Velocity P-wave (km/s) = 7.35758 7.69327 7.52730
#
# Compressibility (1/GPa) = 0.01116128
#
# Stress axis : x y z
#
# Youngs Moduli (GPa) = 153.40031 123.27225 121.09932
#
# Poissons Ratio (x) = 0.15374 0.26599
# Poissons Ratio (y) = 0.19131 0.29307
# Poissons Ratio (z) = 0.33694 0.29833
#
# Static dielectric constant tensor:
#      x y z
#    x 5.748070 0.000000 0.000000 
#    y 0.000000 5.421930 0.000000 
#    z 0.000000 0.000000 3.982030 
# 
# 
# High freq. dielectric constant tensor:
#      x y z
#    x 2.207840 0.000000 0.000000 
#    y 0.000000 2.191540 0.000000 
#    z 0.000000 0.000000 2.159540 
# 
# From -- ./inp_files/2736.got.cif
#   From: 2010.06.25/outbox.cif.g09.slc.cpg/sg52_2_cif.got.tgz:2736.got - 2010.06.26 19:32:48.
