data_PCOD8216545
_publ_section_title
;
Structure prediction by ZEFSAII (Michael W. Deem and Ramdas Pophale) SiO2 
 PCOD8216545
Probable space group: P N N A
;
_chemical_formula_sum "Si O2"
_cell_formula_units_Z 60
_cell_length_a 20.483246
_cell_length_b 9.104053
_cell_length_c 16.585256
_cell_angle_alpha 90.000000
_cell_angle_beta 90.000000
_cell_angle_gamma 90.000000
_cell_volume 3092.827780
_symmetry_space_group_name_H-M "P N N A"
_symmetry_group_IT_number 52
_symmetry_cell_setting 'orthorhombic'
loop_
_space_group_symop_operation_xyz
x,y,z
1/2-x,-y,z
x,1/2-y,1/2-z
1/2-x,1/2+y,1/2-z
-x,-y,-z
1/2+x,y,-z
-x,1/2+y,1/2+z
1/2+x,1/2-y,1/2+z
loop_
_atom_site_type_symbol
_atom_site_label
_atom_site_fract_x
_atom_site_fract_y
_atom_site_fract_z
Si Si1 0.108154 0.268363 0.621169
Si Si2 0.255675 0.331134 0.595874
Si Si3 0.066734 0.400043 0.205483
Si Si4 0.835343 0.250000 0.250000
Si Si5 0.064724 0.087498 0.481831
Si Si6 0.809061 0.101083 0.517357
Si Si7 0.689635 0.901820 0.704781
Si Si8 0.573740 0.481841 0.246682
O O1 0.184170 0.261344 0.600303
O O2 0.069174 0.233525 0.538053
O O3 0.087443 0.424741 0.661378
O O4 0.089842 0.144080 0.684342
O O5 0.250000 0.500000 0.571128
O O6 0.288833 0.311980 0.681660
O O7 0.301694 0.254419 0.529503
O O8 0.083302 0.250000 0.250000
O O9 0.064958 0.362910 0.110691
O O10 0.122908 0.515760 0.225393
O O11 0.000850 0.470112 0.239416
O O12 0.881064 0.382425 0.221513
O O13 0.123520 0.978071 0.504346
O O14 0.000000 0.000000 0.500000
O O15 0.803921 0.135682 0.611187
O O16 0.750000 0.000000 0.487655
O O17 0.690812 0.750000 0.750000
O O18 0.750000 0.000000 0.734501
#
# Coordination Sequence:
#
# PCOD8216545 Si02
#       8
#     8   8   8   4   8   8   8   8
#     4  11  23  41  64  95 128 172 217 274 313 398
#     4  12  25  40  63  97 135 169 216 266 327 381
#     4  11  24  42  66  94 129 175 217 273 330 391
#     4  12  24  38  60  96 132 176 218 252 328 396
#     4  11  22  41  69  94 125 176 224 263 330 400
#     4  10  22  40  65  88 123 166 210 261 324 393
#     4  10  23  43  66  93 120 161 217 272 336 392
#     4  11  23  39  66  92 134 170 221 266 325 385
#
# _framework density 19.399722000000001
#
# number of rings (size 3 to 8) (size 9 to 14) (size 15 to 20)
#    0.000    1.067    4.667    2.000    1.867    0.533 
#    2.400    0.667    0.000    0.000    0.000    0.000 
#    0.000    0.000    0.000    0.000    0.000    0.000 
#
# Total GULP energy -744172.595047 kJ/mol
# GULP energy per Si atom -12402.876584 kJ/mol
# Density = 1.935557 g / cm^3
# Si number density = 19.399722 Si / 1000 Ang^3
#
#
#
# Elastic Constant Matrix: (Units=GPa)
#
#
# Indices 1 2 3 4 5 6 
#
# 1 119.8520 27.1666 38.5261 0.0000 0.0000 0.0000
# 2 27.1666 104.1807 52.7281 0.0000 0.0000 0.0000
# 3 38.5261 52.7281 91.9133 0.0000 0.0000 0.0000
# 4 0.0000 0.0000 0.0000 43.4585 0.0000 0.0000
# 5 0.0000 0.0000 0.0000 0.0000 32.6593 0.0000
# 6 0.0000 0.0000 0.0000 0.0000 0.0000 33.8322
#
#
#
# Elastic Compliance Matrix: (Units=1/GPa)
#
#
# Indices 1 2 3 4 5 6 
#
# 1 0.009675 -0.000663 -0.003675 0.000000 0.000000 0.000000
# 2 -0.000663 0.013571 -0.007508 0.000000 0.000000 0.000000
# 3 -0.003675 -0.007508 0.016727 0.000000 0.000000 0.000000
# 4 0.000000 0.000000 0.000000 0.023010 0.000000 0.000000
# 5 0.000000 0.000000 0.000000 0.000000 0.030619 0.000000
# 6 0.000000 0.000000 0.000000 0.000000 0.000000 0.029558
#
#
# Mechanical properties :
#
#
# Convention : Reuss Voigt Hill
#
# Bulk Modulus (GPa) = 61.41595 61.42084 61.41839
# Shear Modulus (GPa) = 32.83425 35.15835 33.99630
#
# Velocity S-wave (km/s) = 4.11848 4.26174 4.19072
# Velocity P-wave (km/s) = 7.37175 7.47971 7.42593
#
# Compressibility (1/GPa) = 0.01628242
#
# Stress axis : x y z
#
# Youngs Moduli (GPa) = 103.35648 73.68464 59.78274
#
# Poissons Ratio (x) = 0.04884 0.21971
# Poissons Ratio (y) = 0.06851 0.44883
# Poissons Ratio (z) = 0.37985 0.55320
#
# Static dielectric constant tensor:
#      x y z
#    x 3.739210 0.000000 0.000000 
#    y 0.000000 3.618550 0.000000 
#    z 0.000000 0.000000 4.062800 
# 
# 
# High freq. dielectric constant tensor:
#      x y z
#    x 1.771190 0.000000 0.000000 
#    y 0.000000 1.754390 0.000000 
#    z 0.000000 0.000000 1.757190 
# 
# From -- ./inp_files/33767.got.cif
#   From: 2010.06.25/outbox.cif.g09.slc.cpg/sg52_17_cif.got.tgz:33767.got - 2010.06.26 19:32:48.
