data_PCOD8216999
_publ_section_title
;
Structure prediction by ZEFSAII (Michael W. Deem and Ramdas Pophale) SiO2 
 PCOD8216999
Probable space group: P N N A
;
_chemical_formula_sum "Si O2"
_cell_formula_units_Z 48
_cell_length_a 9.172170
_cell_length_b 22.383254
_cell_length_c 10.481494
_cell_angle_alpha 90.000000
_cell_angle_beta 90.000000
_cell_angle_gamma 90.000000
_cell_volume 2151.882276
_symmetry_space_group_name_H-M "P N N A"
_symmetry_group_IT_number 52
_symmetry_cell_setting 'orthorhombic'
loop_
_space_group_symop_operation_xyz
x,y,z
1/2-x,-y,z
x,1/2-y,1/2-z
1/2-x,1/2+y,1/2-z
-x,-y,-z
1/2+x,y,-z
-x,1/2+y,1/2+z
1/2+x,1/2-y,1/2+z
loop_
_atom_site_type_symbol
_atom_site_label
_atom_site_fract_x
_atom_site_fract_y
_atom_site_fract_z
Si Si1 0.603714 0.970702 0.607866
Si Si2 0.109272 0.853569 0.534272
Si Si3 0.862547 0.049660 0.288467
Si Si4 0.683897 0.308082 0.837337
Si Si5 0.029472 0.066581 0.040046
Si Si6 0.681142 0.906945 0.844864
O O1 0.557943 0.903563 0.567228
O O2 0.637689 0.964396 0.759611
O O3 0.750000 0.000000 0.543012
O O4 0.466870 0.017652 0.601788
O O5 0.204238 0.892519 0.638381
O O6 0.208250 0.803991 0.461302
O O7 0.975221 0.822433 0.606614
O O8 0.957737 0.078189 0.177385
O O9 0.750000 0.000000 0.237277
O O10 0.676548 0.250000 0.750000
O O11 0.749435 0.357198 0.744354
O O12 0.200992 0.077103 0.046417
O O13 0.960112 0.110625 0.931152
O O14 0.000000 0.000000 0.000000
#
# Coordination Sequence:
#
# PCOD8216999 Si02
#       6
#     8   8   8   8   8   8
#     4  11  19  37  61  96 143 172 208 259 326 398
#     4  11  23  43  69  98 129 167 218 274 334 394
#     4  12  21  33  60 103 138 178 212 255 318 406
#     4  11  26  50  71  91 126 167 226 292 335 373
#     4  12  21  36  59  94 143 181 210 250 315 399
#     4  11  23  40  59  93 134 179 219 264 313 384
#
# _framework density 22.306052999999999
#
# number of rings (size 3 to 8) (size 9 to 14) (size 15 to 20)
#    0.000    0.667    5.000    4.500    0.000    1.333 
#    0.000    0.833    0.000    0.000    0.000    0.000 
#    0.000    0.000    0.000    0.000    0.000    0.000 
#
# Total GULP energy -594736.677159 kJ/mol
# GULP energy per Si atom -12390.347441 kJ/mol
# Density = 2.225528 g / cm^3
# Si number density = 22.306053 Si / 1000 Ang^3
#
#
#
# Elastic Constant Matrix: (Units=GPa)
#
#
# Indices 1 2 3 4 5 6 
#
# 1 102.7021 44.4667 29.9095 0.0000 0.0000 0.0000
# 2 44.4667 80.8189 38.3821 0.0000 0.0000 0.0000
# 3 29.9095 38.3821 86.1662 0.0000 0.0000 0.0000
# 4 0.0000 0.0000 0.0000 41.6033 0.0000 0.0000
# 5 0.0000 0.0000 0.0000 0.0000 56.0517 0.0000
# 6 0.0000 0.0000 0.0000 0.0000 0.0000 26.5103
#
#
#
# Elastic Compliance Matrix: (Units=1/GPa)
#
#
# Indices 1 2 3 4 5 6 
#
# 1 0.012970 -0.006339 -0.001678 0.000000 0.000000 0.000000
# 2 -0.006339 0.018791 -0.006170 0.000000 0.000000 0.000000
# 3 -0.001678 -0.006170 0.014937 0.000000 0.000000 0.000000
# 4 0.000000 0.000000 0.000000 0.024037 0.000000 0.000000
# 5 0.000000 0.000000 0.000000 0.000000 0.017841 0.000000
# 6 0.000000 0.000000 0.000000 0.000000 0.000000 0.037721
#
#
# Mechanical properties :
#
#
# Convention : Reuss Voigt Hill
#
# Bulk Modulus (GPa) = 54.57664 55.02266 54.79965
# Shear Modulus (GPa) = 31.09844 35.29499 33.19672
#
# Velocity S-wave (km/s) = 3.73791 3.98214 3.86195
# Velocity P-wave (km/s) = 6.56884 6.77229 6.67134
#
# Compressibility (1/GPa) = 0.01832286
#
# Stress axis : x y z
#
# Youngs Moduli (GPa) = 77.09872 53.21574 66.95004
#
# Poissons Ratio (x) = 0.33735 0.11237
# Poissons Ratio (y) = 0.48874 0.41309
# Poissons Ratio (z) = 0.12941 0.32834
#
# Static dielectric constant tensor:
#      x y z
#    x 4.279340 0.000000 0.000000 
#    y 0.000000 3.738320 0.000000 
#    z 0.000000 0.000000 4.906000 
# 
# 
# High freq. dielectric constant tensor:
#      x y z
#    x 1.879920 0.000000 0.000000 
#    y 0.000000 1.821400 0.000000 
#    z 0.000000 0.000000 1.919290 
# 
# From -- ./inp_files/17055.got.cif
#   From: 2010.06.25/outbox.cif.g09.slc.cpg/sg52_9_cif.got.tgz:17055.got - 2010.06.26 19:32:48.
