data_PCOD8216960
_publ_section_title
;
Structure prediction by ZEFSAII (Michael W. Deem and Ramdas Pophale) SiO2 
 PCOD8216960
Probable space group: P N N A
;
_chemical_formula_sum "Si O2"
_cell_formula_units_Z 36
_cell_length_a 8.136980
_cell_length_b 19.140319
_cell_length_c 9.925595
_cell_angle_alpha 90.000000
_cell_angle_beta 90.000000
_cell_angle_gamma 90.000000
_cell_volume 1545.855767
_symmetry_space_group_name_H-M "P N N A"
_symmetry_group_IT_number 52
_symmetry_cell_setting 'orthorhombic'
loop_
_space_group_symop_operation_xyz
x,y,z
1/2-x,-y,z
x,1/2-y,1/2-z
1/2-x,1/2+y,1/2-z
-x,-y,-z
1/2+x,y,-z
-x,1/2+y,1/2+z
1/2+x,1/2-y,1/2+z
loop_
_atom_site_type_symbol
_atom_site_label
_atom_site_fract_x
_atom_site_fract_y
_atom_site_fract_z
Si Si1 0.332238 0.750000 0.750000
Si Si2 0.731020 0.075581 0.440140
Si Si3 0.073576 0.641068 0.152937
Si Si4 0.133156 0.619525 0.664508
Si Si5 0.265416 0.919983 0.113521
O O1 0.457166 0.709682 0.851241
O O2 0.211421 0.697425 0.670545
O O3 0.541039 0.078727 0.399778
O O4 0.776040 0.138407 0.545972
O O5 0.840131 0.080565 0.305345
O O6 0.750000 0.000000 0.509086
O O7 0.134296 0.626999 0.304683
O O8 0.224747 0.579649 0.544214
O O9 0.939666 0.617249 0.636900
O O10 0.250000 0.000000 0.164480
#
# Coordination Sequence:
#
# PCOD8216960 Si02
#       5
#     4   8   8   8   8
#     4  10  26  46  62  96 130 176 226 256 330 394
#     4  11  21  39  63  96 128 168 213 266 327 380
#     4  11  24  40  65  92 131 170 213 270 315 391
#     4  11  24  41  67  94 135 176 215 275 323 398
#     4  12  24  44  70 103 131 171 222 279 340 385
#
# _framework density 23.288072
#
# number of rings (size 3 to 8) (size 9 to 14) (size 15 to 20)
#    0.000    0.889    0.000    8.000    0.000    8.000 
#    0.000    0.000    0.000    0.000    0.000    0.000 
#    0.000    0.000    0.000    0.000    0.000    0.000 
#
# Total GULP energy -446187.277104 kJ/mol
# GULP energy per Si atom -12394.091031 kJ/mol
# Density = 2.323507 g / cm^3
# Si number density = 23.288072 Si / 1000 Ang^3
#
#
#
# Elastic Constant Matrix: (Units=GPa)
#
#
# Indices 1 2 3 4 5 6 
#
# 1 124.6210 54.6788 28.2028 0.0000 0.0000 0.0000
# 2 54.6788 121.9013 27.9880 0.0000 0.0000 0.0000
# 3 28.2028 27.9880 115.7557 0.0000 0.0000 0.0000
# 4 0.0000 0.0000 0.0000 25.1701 0.0000 0.0000
# 5 0.0000 0.0000 0.0000 0.0000 42.1478 0.0000
# 6 0.0000 0.0000 0.0000 0.0000 0.0000 42.2040
#
#
#
# Elastic Compliance Matrix: (Units=1/GPa)
#
#
# Indices 1 2 3 4 5 6 
#
# 1 0.010219 -0.004248 -0.001463 0.000000 0.000000 0.000000
# 2 -0.004248 0.010451 -0.001492 0.000000 0.000000 0.000000
# 3 -0.001463 -0.001492 0.009356 0.000000 0.000000 0.000000
# 4 0.000000 0.000000 0.000000 0.039730 0.000000 0.000000
# 5 0.000000 0.000000 0.000000 0.000000 0.023726 0.000000
# 6 0.000000 0.000000 0.000000 0.000000 0.000000 0.023694
#
#
# Mechanical properties :
#
#
# Convention : Reuss Voigt Hill
#
# Bulk Modulus (GPa) = 64.01575 64.89079 64.45327
# Shear Modulus (GPa) = 36.55262 38.66495 37.60879
#
# Velocity S-wave (km/s) = 3.96610 4.07909 4.02299
# Velocity P-wave (km/s) = 6.96574 7.07885 7.02252
#
# Compressibility (1/GPa) = 0.01562116
#
# Stress axis : x y z
#
# Youngs Moduli (GPa) = 97.85503 95.68152 106.88331
#
# Poissons Ratio (x) = 0.40645 0.15634
# Poissons Ratio (y) = 0.41569 0.15947
# Poissons Ratio (z) = 0.14313 0.14276
#
# Static dielectric constant tensor:
#      x y z
#    x 4.393290 0.000000 0.000000 
#    y 0.000000 4.051460 0.000000 
#    z 0.000000 0.000000 4.386820 
# 
# 
# High freq. dielectric constant tensor:
#      x y z
#    x 1.939830 0.000000 0.000000 
#    y 0.000000 1.906710 0.000000 
#    z 0.000000 0.000000 1.924620 
# 
# From -- ./inp_files/7282.got.cif
#   From: 2010.06.25/outbox.cif.g09.slc.cpg/sg52_4_cif.got.tgz:7282.got - 2010.06.26 19:32:48.
