data_PCOD8216076
_publ_section_title
;
Structure prediction by ZEFSAII (Michael W. Deem and Ramdas Pophale) SiO2 
 PCOD8216076
Probable space group: P N N A
;
_chemical_formula_sum "Si O2"
_cell_formula_units_Z 56
_cell_length_a 20.474629
_cell_length_b 14.101219
_cell_length_c 9.709437
_cell_angle_alpha 90.000000
_cell_angle_beta 90.000000
_cell_angle_gamma 90.000000
_cell_volume 2803.281731
_symmetry_space_group_name_H-M "P N N A"
_symmetry_group_IT_number 52
_symmetry_cell_setting 'orthorhombic'
loop_
_space_group_symop_operation_xyz
x,y,z
1/2-x,-y,z
x,1/2-y,1/2-z
1/2-x,1/2+y,1/2-z
-x,-y,-z
1/2+x,y,-z
-x,1/2+y,1/2+z
1/2+x,1/2-y,1/2+z
loop_
_atom_site_type_symbol
_atom_site_label
_atom_site_fract_x
_atom_site_fract_y
_atom_site_fract_z
Si Si1 0.826265 0.500387 0.753983
Si Si2 0.671495 0.698729 0.881581
Si Si3 0.809103 0.834976 0.546744
Si Si4 0.376020 0.693096 0.623617
Si Si5 0.875595 0.312283 0.359514
Si Si6 0.745820 0.392076 0.241329
Si Si7 0.576767 0.498828 0.491201
O O1 0.750000 0.500000 0.701200
O O2 0.839152 0.413742 0.859588
O O3 0.840224 0.593826 0.842628
O O4 0.877867 0.498003 0.627854
O O5 0.640755 0.750000 0.750000
O O6 0.748721 0.722733 0.888138
O O7 0.635763 0.743272 0.011805
O O8 0.867913 0.763767 0.506515
O O9 0.778789 0.891421 0.416189
O O10 0.410621 0.750000 0.750000
O O11 0.302768 0.665905 0.662944
O O12 0.414425 0.598776 0.590122
O O13 0.918619 0.250000 0.250000
O O14 0.813387 0.339387 0.265507
O O15 0.908425 0.409934 0.400077
O O16 0.750000 0.500000 0.293373
O O17 0.500000 0.500000 0.500000
#
# Coordination Sequence:
#
# PCOD8216076 Si02
#       7
#     8   8   8   8   8   8   8
#     4  10  24  40  68  99 135 174 219 280 347 405
#     4  11  20  35  61 103 136 168 212 272 342 399
#     4  10  21  35  60 105 134 164 212 275 338 400
#     4  10  22  39  64  92 129 169 218 275 333 389
#     4  12  23  40  68  97 134 179 222 276 342 406
#     4  11  18  33  65  97 135 167 211 275 331 392
#     4  12  28  48  64  93 134 180 234 279 332 399
#
# _framework density 19.976586000000001
#
# number of rings (size 3 to 8) (size 9 to 14) (size 15 to 20)
#    0.000    1.143    5.714    1.714    6.000    0.000 
#    5.143    0.000    0.000    4.286    0.000    0.000 
#    0.000    0.000    0.000    0.000    0.000    0.000 
#
# Total GULP energy -693855.762255 kJ/mol
# GULP energy per Si atom -12390.281469 kJ/mol
# Density = 1.993112 g / cm^3
# Si number density = 19.976586 Si / 1000 Ang^3
#
#
#
# Elastic Constant Matrix: (Units=GPa)
#
#
# Indices 1 2 3 4 5 6 
#
# 1 90.5366 49.1963 44.7689 0.0000 0.0000 0.0000
# 2 49.1963 162.0075 74.3382 0.0000 0.0000 0.0000
# 3 44.7689 74.3382 124.2094 0.0000 0.0000 0.0000
# 4 0.0000 0.0000 0.0000 49.9705 0.0000 0.0000
# 5 0.0000 0.0000 0.0000 0.0000 -5.1038 0.0000
# 6 0.0000 0.0000 0.0000 0.0000 0.0000 -46.8855
#
#
#
# Elastic Compliance Matrix: (Units=1/GPa)
#
#
# Indices 1 2 3 4 5 6 
#
# 1 0.014259 -0.002718 -0.003513 0.000000 0.000000 0.000000
# 2 -0.002718 0.009028 -0.004423 0.000000 0.000000 0.000000
# 3 -0.003513 -0.004423 0.011964 0.000000 0.000000 0.000000
# 4 0.000000 0.000000 0.000000 0.020012 0.000000 0.000000
# 5 0.000000 0.000000 0.000000 0.000000 -0.195934 0.000000
# 6 0.000000 0.000000 0.000000 0.000000 0.000000 -0.021329
#
#
# Mechanical properties :
#
#
# Convention : Reuss Voigt Hill
#
# Bulk Modulus (GPa) = 71.72096 79.26224 75.49160
# Shear Modulus (GPa) = -36.75288 13.49292 -11.62998
#
# Velocity S-wave (km/s) = -4.29394 2.60174 -2.41546
# Velocity P-wave (km/s) = 3.37588 6.98492 5.48569
#
# Compressibility (1/GPa) = 0.01394293
#
# Stress axis : x y z
#
# Youngs Moduli (GPa) = 70.12987 110.77115 83.58258
#
# Poissons Ratio (x) = 0.30111 0.29359
# Poissons Ratio (y) = 0.19063 0.36970
# Poissons Ratio (z) = 0.24634 0.48996
#
# Static dielectric constant tensor:
#      x y z
#    x 3.164160 0.000000 0.000000 
#    y 0.000000 4.093840 0.000000 
#    z 0.000000 0.000000 3.825660 
# 
# 
# High freq. dielectric constant tensor:
#      x y z
#    x 1.718000 0.000000 0.000000 
#    y 0.000000 1.811460 0.000000 
#    z 0.000000 0.000000 1.790640 
# 
# From -- ./inp_files/13462.got.cif
#   From: 2010.06.25/outbox.cif.g09.slc.cpg/sg52_7_cif.got.tgz:13462.got - 2010.06.26 19:32:48.
