data_PCOD8216422
_publ_section_title
;
Structure prediction by ZEFSAII (Michael W. Deem and Ramdas Pophale) SiO2 
 PCOD8216422
Probable space group: P N N A
;
_chemical_formula_sum "Si O2"
_cell_formula_units_Z 24
_cell_length_a 9.887901
_cell_length_b 7.284313
_cell_length_c 16.558242
_cell_angle_alpha 90.000000
_cell_angle_beta 90.000000
_cell_angle_gamma 90.000000
_cell_volume 1192.633307
_symmetry_space_group_name_H-M "P N N A"
_symmetry_group_IT_number 52
_symmetry_cell_setting 'orthorhombic'
loop_
_space_group_symop_operation_xyz
x,y,z
1/2-x,-y,z
x,1/2-y,1/2-z
1/2-x,1/2+y,1/2-z
-x,-y,-z
1/2+x,y,-z
-x,1/2+y,1/2+z
1/2+x,1/2-y,1/2+z
loop_
_atom_site_type_symbol
_atom_site_label
_atom_site_fract_x
_atom_site_fract_y
_atom_site_fract_z
Si Si1 0.250000 0.500000 0.833888
Si Si2 0.641623 0.155759 0.069053
Si Si3 0.891485 0.927996 0.889310
Si Si4 0.453793 0.250000 0.750000
O O1 0.313699 0.655068 0.890733
O O2 0.363034 0.424375 0.773205
O O3 0.750000 0.000000 0.092850
O O4 0.492766 0.099452 0.098932
O O5 0.635394 0.181176 0.972571
O O6 0.952611 0.786169 0.826546
O O7 0.750000 0.000000 0.854238
#
# Coordination Sequence:
#
# PCOD8216422 Si02
#       4
#     4   8   8   4
#     4  12  24  42  74  94 126 180 226 262 314 404
#     4  10  21  46  69  92 127 180 224 258 314 403
#     4  10  23  43  64  95 140 164 210 282 329 380
#     4  12  24  40  64 104 132 166 218 276 334 374
#
# _framework density 20.123536000000001
#
# number of rings (size 3 to 8) (size 9 to 14) (size 15 to 20)
#    0.000    1.333    3.333    2.000    0.000    4.000 
#    3.000    0.000    0.000    0.000    0.000    0.000 
#    0.000    0.000    0.000    0.000    0.000    0.000 
#
# Total GULP energy -297693.600437 kJ/mol
# GULP energy per Si atom -12403.900018 kJ/mol
# Density = 2.007773 g / cm^3
# Si number density = 20.123536 Si / 1000 Ang^3
#
#
#
# Elastic Constant Matrix: (Units=GPa)
#
#
# Indices 1 2 3 4 5 6 
#
# 1 157.8637 55.4642 48.4380 0.0000 0.0000 0.0000
# 2 55.4642 117.3127 54.9461 0.0000 0.0000 0.0000
# 3 48.4380 54.9461 96.6186 0.0000 0.0000 0.0000
# 4 0.0000 0.0000 0.0000 16.5766 0.0000 0.0000
# 5 0.0000 0.0000 0.0000 0.0000 22.1392 0.0000
# 6 0.0000 0.0000 0.0000 0.0000 0.0000 39.1241
#
#
#
# Elastic Compliance Matrix: (Units=1/GPa)
#
#
# Indices 1 2 3 4 5 6 
#
# 1 0.008031 -0.002605 -0.002545 0.000000 0.000000 0.000000
# 2 -0.002605 0.012464 -0.005782 0.000000 0.000000 0.000000
# 3 -0.002545 -0.005782 0.014914 0.000000 0.000000 0.000000
# 4 0.000000 0.000000 0.000000 0.060326 0.000000 0.000000
# 5 0.000000 0.000000 0.000000 0.000000 0.045169 0.000000
# 6 0.000000 0.000000 0.000000 0.000000 0.000000 0.025560
#
#
# Mechanical properties :
#
#
# Convention : Reuss Voigt Hill
#
# Bulk Modulus (GPa) = 73.82773 76.61018 75.21895
# Shear Modulus (GPa) = 25.92798 29.76441 27.84620
#
# Velocity S-wave (km/s) = 3.59338 3.85006 3.72393
# Velocity P-wave (km/s) = 7.34734 7.61029 7.47997
#
# Compressibility (1/GPa) = 0.01354505
#
# Stress axis : x y z
#
# Youngs Moduli (GPa) = 124.52411 80.23057 67.05124
#
# Poissons Ratio (x) = 0.20900 0.17062
# Poissons Ratio (y) = 0.32438 0.38771
# Poissons Ratio (z) = 0.31686 0.46391
#
# Static dielectric constant tensor:
#      x y z
#    x 3.961640 0.000000 0.000000 
#    y 0.000000 3.560620 0.000000 
#    z 0.000000 0.000000 3.825040 
# 
# 
# High freq. dielectric constant tensor:
#      x y z
#    x 1.803490 0.000000 0.000000 
#    y 0.000000 1.761670 0.000000 
#    z 0.000000 0.000000 1.802730 
# 
# From -- ./inp_files/23940.got.cif
#   From: 2010.06.25/outbox.cif.g09.slc.cpg/sg52_12_cif.got.tgz:23940.got - 2010.06.26 19:32:48.
