data_PCOD8216589
_publ_section_title
;
Structure prediction by ZEFSAII (Michael W. Deem and Ramdas Pophale) SiO2 
 PCOD8216589
Probable space group: P N N A
;
_chemical_formula_sum "Si O2"
_cell_formula_units_Z 40
_cell_length_a 15.828581
_cell_length_b 21.780949
_cell_length_c 5.002313
_cell_angle_alpha 90.000000
_cell_angle_beta 90.000000
_cell_angle_gamma 90.000000
_cell_volume 1724.605011
_symmetry_space_group_name_H-M "P N N A"
_symmetry_group_IT_number 52
_symmetry_cell_setting 'orthorhombic'
loop_
_space_group_symop_operation_xyz
x,y,z
1/2-x,-y,z
x,1/2-y,1/2-z
1/2-x,1/2+y,1/2-z
-x,-y,-z
1/2+x,y,-z
-x,1/2+y,1/2+z
1/2+x,1/2-y,1/2+z
loop_
_atom_site_type_symbol
_atom_site_label
_atom_site_fract_x
_atom_site_fract_y
_atom_site_fract_z
Si Si1 0.750000 0.000000 0.199706
Si Si2 0.551217 0.366760 0.593200
Si Si3 0.167033 0.837862 0.457204
Si Si4 0.619155 0.911317 0.041803
Si Si5 0.554854 0.750000 0.250000
Si Si6 0.337338 0.617785 0.907038
O O1 0.674655 0.973294 0.008997
O O2 0.790821 0.947753 0.384715
O O3 0.482098 0.418403 0.499963
O O4 0.504335 0.301600 0.619737
O O5 0.624101 0.361419 0.374437
O O6 0.589856 0.387254 0.874151
O O7 0.129521 0.889770 0.652559
O O8 0.116198 0.775204 0.514654
O O9 0.267807 0.831047 0.509373
O O10 0.154508 0.858602 0.152490
#
# Coordination Sequence:
#
# PCOD8216589 Si02
#       6
#     4   8   8   8   4   8
#     4  10  24  44  68  92 140 188 214 274 340 386
#     4  11  24  41  65 100 130 164 226 281 325 393
#     4  10  22  41  65  92 126 172 217 256 324 410
#     4  10  22  41  65  95 128 171 221 264 323 395
#     4  10  24  44  68  90 134 176 206 280 346 376
#     4  11  24  42  65  98 131 168 226 272 323 404
#
# _framework density 23.193718000000001
#
# number of rings (size 3 to 8) (size 9 to 14) (size 15 to 20)
#    0.000    1.600    0.000    4.800    0.000   17.600 
#    0.000    0.000    0.000    0.000    0.000    0.000 
#    0.000    0.000    0.000    0.000    0.000    0.000 
#
# Total GULP energy -495886.389624 kJ/mol
# GULP energy per Si atom -12397.159741 kJ/mol
# Density = 2.314093 g / cm^3
# Si number density = 23.193718 Si / 1000 Ang^3
#
#
#
# Elastic Constant Matrix: (Units=GPa)
#
#
# Indices 1 2 3 4 5 6 
#
# 1 143.2320 63.0768 30.5833 0.0000 0.0000 0.0000
# 2 63.0768 110.1492 32.7284 0.0000 0.0000 0.0000
# 3 30.5833 32.7284 85.7290 0.0000 0.0000 0.0000
# 4 0.0000 0.0000 0.0000 21.1941 0.0000 0.0000
# 5 0.0000 0.0000 0.0000 0.0000 43.2135 0.0000
# 6 0.0000 0.0000 0.0000 0.0000 0.0000 56.5912
#
#
#
# Elastic Compliance Matrix: (Units=1/GPa)
#
#
# Indices 1 2 3 4 5 6 
#
# 1 0.009500 -0.005000 -0.001480 0.000000 0.000000 0.000000
# 2 -0.005000 0.012872 -0.003130 0.000000 0.000000 0.000000
# 3 -0.001480 -0.003130 0.013388 0.000000 0.000000 0.000000
# 4 0.000000 0.000000 0.000000 0.047183 0.000000 0.000000
# 5 0.000000 0.000000 0.000000 0.000000 0.023141 0.000000
# 6 0.000000 0.000000 0.000000 0.000000 0.000000 0.017671
#
#
# Mechanical properties :
#
#
# Convention : Reuss Voigt Hill
#
# Bulk Modulus (GPa) = 60.46569 65.76524 63.11546
# Shear Modulus (GPa) = 33.67277 38.38121 36.02699
#
# Velocity S-wave (km/s) = 3.81439 4.07235 3.94548
# Velocity P-wave (km/s) = 6.74729 7.10833 6.93016
#
# Compressibility (1/GPa) = 0.01653830
#
# Stress axis : x y z
#
# Youngs Moduli (GPa) = 105.26631 77.68757 74.69541
#
# Poissons Ratio (x) = 0.38846 0.11055
# Poissons Ratio (y) = 0.52636 0.23382
# Poissons Ratio (z) = 0.15580 0.24319
#
# Static dielectric constant tensor:
#      x y z
#    x 4.823410 0.000000 0.000000 
#    y 0.000000 4.079440 0.000000 
#    z 0.000000 0.000000 4.028070 
# 
# 
# High freq. dielectric constant tensor:
#      x y z
#    x 1.942780 0.000000 0.000000 
#    y 0.000000 1.888740 0.000000 
#    z 0.000000 0.000000 1.917920 
# 
# From -- ./inp_files/2298.got.cif
#   From: 2010.06.25/outbox.cif.g09.slc.cpg/sg52_2_cif.got.tgz:2298.got - 2010.06.26 19:32:48.
