data_PCOD8216611
_publ_section_title
;
Structure prediction by ZEFSAII (Michael W. Deem and Ramdas Pophale) SiO2 
 PCOD8216611
Probable space group: P N N A
;
_chemical_formula_sum "Si O2"
_cell_formula_units_Z 48
_cell_length_a 12.841183
_cell_length_b 26.230092
_cell_length_c 6.462749
_cell_angle_alpha 90.000000
_cell_angle_beta 90.000000
_cell_angle_gamma 90.000000
_cell_volume 2176.818091
_symmetry_space_group_name_H-M "P N N A"
_symmetry_group_IT_number 52
_symmetry_cell_setting 'orthorhombic'
loop_
_space_group_symop_operation_xyz
x,y,z
1/2-x,-y,z
x,1/2-y,1/2-z
1/2-x,1/2+y,1/2-z
-x,-y,-z
1/2+x,y,-z
-x,1/2+y,1/2+z
1/2+x,1/2-y,1/2+z
loop_
_atom_site_type_symbol
_atom_site_label
_atom_site_fract_x
_atom_site_fract_y
_atom_site_fract_z
Si Si1 0.844564 0.969868 0.983105
Si Si2 0.521092 0.857179 0.407151
Si Si3 0.798932 0.296946 0.898158
Si Si4 0.666887 0.143542 0.900876
Si Si5 0.040824 0.970183 0.692208
Si Si6 0.617256 0.302088 0.201374
O O1 0.811714 0.911377 0.003070
O O2 0.947670 0.969047 0.851592
O O3 0.750000 0.000000 0.871283
O O4 0.863343 0.999464 0.202135
O O5 0.612066 0.815483 0.439672
O O6 0.446434 0.848374 0.208695
O O7 0.571473 0.913391 0.385649
O O8 0.451363 0.849200 0.614758
O O9 0.833272 0.250000 0.750000
O O10 0.762573 0.344363 0.753258
O O11 0.700821 0.281559 0.035784
O O12 0.674498 0.181175 0.091844
O O13 0.000000 0.000000 0.500000
O O14 0.551146 0.250000 0.250000
#
# Coordination Sequence:
#
# PCOD8216611 Si02
#       6
#     8   8   8   8   8   8
#     4  10  23  40  65  95 127 170 212 263 326 376
#     4  10  24  40  65  93 129 170 214 267 328 384
#     4  11  23  42  63 101 127 168 225 265 324 396
#     4  10  23  43  64  93 134 169 215 270 324 386
#     4  10  22  42  62  94 129 163 218 265 312 395
#     4  11  22  42  65  91 132 171 209 271 323 386
#
# _framework density 22.050533000000001
#
# number of rings (size 3 to 8) (size 9 to 14) (size 15 to 20)
#    0.000    1.667    1.667    1.500    4.667    2.000 
#    3.000    0.000    0.000    0.000    0.000    0.000 
#    0.000    0.000    0.000    0.000    0.000    0.000 
#
# Total GULP energy -594650.055811 kJ/mol
# GULP energy per Si atom -12388.542829 kJ/mol
# Density = 2.200035 g / cm^3
# Si number density = 22.050533 Si / 1000 Ang^3
#
#
#
# Elastic Constant Matrix: (Units=GPa)
#
#
# Indices 1 2 3 4 5 6 
#
# 1 68.1038 40.4318 6.7569 0.0000 0.0000 0.0000
# 2 40.4318 173.9168 53.8774 0.0000 0.0000 0.0000
# 3 6.7569 53.8774 84.2426 0.0000 0.0000 0.0000
# 4 0.0000 0.0000 0.0000 41.9969 0.0000 0.0000
# 5 0.0000 0.0000 0.0000 0.0000 2.6808 0.0000
# 6 0.0000 0.0000 0.0000 0.0000 0.0000 28.3481
#
#
#
# Elastic Compliance Matrix: (Units=1/GPa)
#
#
# Indices 1 2 3 4 5 6 
#
# 1 0.017179 -0.004448 0.001467 0.000000 0.000000 0.000000
# 2 -0.004448 0.008322 -0.004966 0.000000 0.000000 0.000000
# 3 0.001467 -0.004966 0.014929 0.000000 0.000000 0.000000
# 4 0.000000 0.000000 0.000000 0.023811 0.000000 0.000000
# 5 0.000000 0.000000 0.000000 0.000000 0.373024 0.000000
# 6 0.000000 0.000000 0.000000 0.000000 0.000000 0.035276
#
#
# Mechanical properties :
#
#
# Convention : Reuss Voigt Hill
#
# Bulk Modulus (GPa) = 40.75681 58.71058 49.73370
# Shear Modulus (GPa) = 10.06820 29.61831 19.84325
#
# Velocity S-wave (km/s) = 2.13913 3.66895 3.00309
# Velocity P-wave (km/s) = 4.96232 6.68068 5.88456
#
# Compressibility (1/GPa) = 0.02453578
#
# Stress axis : x y z
#
# Youngs Moduli (GPa) = 58.21171 120.15934 66.98528
#
# Poissons Ratio (x) = 0.53448 -0.09826
# Poissons Ratio (y) = 0.25893 0.33263
# Poissons Ratio (z) = -0.08539 0.59668
#
# Static dielectric constant tensor:
#      x y z
#    x 3.877360 0.000000 0.000000 
#    y 0.000000 4.323450 0.000000 
#    z 0.000000 0.000000 4.246070 
# 
# 
# High freq. dielectric constant tensor:
#      x y z
#    x 1.853830 0.000000 0.000000 
#    y 0.000000 1.878920 0.000000 
#    z 0.000000 0.000000 1.867320 
# 
# From -- ./inp_files/2439.got.cif
#   From: 2010.06.25/outbox.cif.g09.slc.cpg/sg52_2_cif.got.tgz:2439.got - 2010.06.26 19:32:48.
