data_PCOD8216231
_publ_section_title
;
Structure prediction by ZEFSAII (Michael W. Deem and Ramdas Pophale) SiO2 
 PCOD8216231
Probable space group: P N N A
;
_chemical_formula_sum "Si O2"
_cell_formula_units_Z 36
_cell_length_a 10.261218
_cell_length_b 22.948211
_cell_length_c 6.866297
_cell_angle_alpha 90.000000
_cell_angle_beta 90.000000
_cell_angle_gamma 90.000000
_cell_volume 1616.852243
_symmetry_space_group_name_H-M "P N N A"
_symmetry_group_IT_number 52
_symmetry_cell_setting 'orthorhombic'
loop_
_space_group_symop_operation_xyz
x,y,z
1/2-x,-y,z
x,1/2-y,1/2-z
1/2-x,1/2+y,1/2-z
-x,-y,-z
1/2+x,y,-z
-x,1/2+y,1/2+z
1/2+x,1/2-y,1/2+z
loop_
_atom_site_type_symbol
_atom_site_label
_atom_site_fract_x
_atom_site_fract_y
_atom_site_fract_z
Si Si1 0.621658 0.687467 0.833865
Si Si2 0.325422 0.929091 0.830744
Si Si3 0.750000 0.500000 0.970631
Si Si4 0.612404 0.567203 0.638219
Si Si5 0.327624 0.810781 0.657926
O O1 0.662737 0.750000 0.750000
O O2 0.627290 0.636614 0.672541
O O3 0.475790 0.691838 0.924763
O O4 0.726749 0.670357 0.993940
O O5 0.319620 0.952929 0.610015
O O6 0.463994 0.947434 0.925055
O O7 0.318941 0.859183 0.826113
O O8 0.206581 0.952949 0.962289
O O9 0.644348 0.532211 0.835671
O O10 0.284143 0.750000 0.750000
#
# Coordination Sequence:
#
# PCOD8216231 Si02
#       5
#     8   8   4   8   8
#     4  10  21  39  63  93 128 166 211 262 319 379
#     4  11  25  43  66  97 130 170 217 266 321 382
#     4  12  24  44  68  92 130 176 214 268 310 390
#     4  11  25  43  66  97 130 170 217 266 321 382
#     4  10  21  39  63  93 128 166 211 262 319 379
#
# _framework density 22.265487
#
# number of rings (size 3 to 8) (size 9 to 14) (size 15 to 20)
#    0.000    1.333    2.222    2.667    0.000    8.000 
#    0.000    0.000    0.000    0.000    0.000    0.000 
#    0.000    0.000    0.000    0.000    0.000    0.000 
#
# Total GULP energy -446451.540476 kJ/mol
# GULP energy per Si atom -12401.431680 kJ/mol
# Density = 2.221481 g / cm^3
# Si number density = 22.265487 Si / 1000 Ang^3
#
#
#
# Elastic Constant Matrix: (Units=GPa)
#
#
# Indices 1 2 3 4 5 6 
#
# 1 173.3431 19.9792 65.1306 0.0000 0.0000 0.0000
# 2 19.9792 81.4044 2.2404 0.0000 0.0000 0.0000
# 3 65.1306 2.2404 89.7126 0.0000 0.0000 0.0000
# 4 0.0000 0.0000 0.0000 28.8405 0.0000 0.0000
# 5 0.0000 0.0000 0.0000 0.0000 39.3200 0.0000
# 6 0.0000 0.0000 0.0000 0.0000 0.0000 21.1284
#
#
#
# Elastic Compliance Matrix: (Units=1/GPa)
#
#
# Indices 1 2 3 4 5 6 
#
# 1 0.008202 -0.001850 -0.005909 0.000000 0.000000 0.000000
# 2 -0.001850 0.012710 0.001026 0.000000 0.000000 0.000000
# 3 -0.005909 0.001026 0.015411 0.000000 0.000000 0.000000
# 4 0.000000 0.000000 0.000000 0.034673 0.000000 0.000000
# 5 0.000000 0.000000 0.000000 0.000000 0.025432 0.000000
# 6 0.000000 0.000000 0.000000 0.000000 0.000000 0.047330
#
#
# Mechanical properties :
#
#
# Convention : Reuss Voigt Hill
#
# Bulk Modulus (GPa) = 43.75002 57.68450 50.71726
# Shear Modulus (GPa) = 30.33178 34.99844 32.66511
#
# Velocity S-wave (km/s) = 3.69491 3.96898 3.83439
# Velocity P-wave (km/s) = 6.15590 6.85329 6.51393
#
# Compressibility (1/GPa) = 0.02285713
#
# Stress axis : x y z
#
# Youngs Moduli (GPa) = 121.91831 78.67654 64.89027
#
# Poissons Ratio (x) = 0.14559 0.38341
# Poissons Ratio (y) = 0.22561 -0.06658
# Poissons Ratio (z) = 0.72036 -0.08072
#
# Static dielectric constant tensor:
#      x y z
#    x 4.037380 0.000000 0.000000 
#    y 0.000000 4.278120 0.000000 
#    z 0.000000 0.000000 3.550040 
# 
# 
# High freq. dielectric constant tensor:
#      x y z
#    x 1.885530 0.000000 0.000000 
#    y 0.000000 1.913910 0.000000 
#    z 0.000000 0.000000 1.842570 
# 
# From -- ./inp_files/1271.got.cif
#   From: 2010.06.25/outbox.cif.g09.slc.cpg/sg52_1_cif.got.tgz:1271.got - 2010.06.26 19:32:48.
