data_PCOD8216127
_publ_section_title
;
Structure prediction by ZEFSAII (Michael W. Deem and Ramdas Pophale) SiO2 
 PCOD8216127
Probable space group: P N N A
;
_chemical_formula_sum "Si O2"
_cell_formula_units_Z 60
_cell_length_a 14.700783
_cell_length_b 17.173934
_cell_length_c 11.619565
_cell_angle_alpha 90.000000
_cell_angle_beta 90.000000
_cell_angle_gamma 90.000000
_cell_volume 2933.594794
_symmetry_space_group_name_H-M "P N N A"
_symmetry_group_IT_number 52
_symmetry_cell_setting 'orthorhombic'
loop_
_space_group_symop_operation_xyz
x,y,z
1/2-x,-y,z
x,1/2-y,1/2-z
1/2-x,1/2+y,1/2-z
-x,-y,-z
1/2+x,y,-z
-x,1/2+y,1/2+z
1/2+x,1/2-y,1/2+z
loop_
_atom_site_type_symbol
_atom_site_label
_atom_site_fract_x
_atom_site_fract_y
_atom_site_fract_z
Si Si1 0.346360 0.523855 0.891498
Si Si2 0.063479 0.636662 0.642940
Si Si3 0.151794 0.023195 0.871278
Si Si4 0.049772 0.323786 0.922767
Si Si5 0.116971 0.327492 0.484532
Si Si6 0.313950 0.226211 0.031364
Si Si7 0.567070 0.750000 0.750000
Si Si8 0.400570 0.354341 0.903472
O O1 0.250000 0.500000 0.947770
O O2 0.330719 0.548686 0.759823
O O3 0.390662 0.599849 0.947072
O O4 0.406909 0.447695 0.914997
O O5 0.074998 0.543803 0.630130
O O6 0.139646 0.670327 0.560098
O O7 0.091755 0.667154 0.769474
O O8 0.960453 0.663624 0.613807
O O9 0.112443 0.093675 0.943812
O O10 0.250000 0.000000 0.924447
O O11 0.103467 0.242713 0.925090
O O12 0.993714 0.322009 0.801892
O O13 0.985854 0.316775 0.033594
O O14 0.215504 0.307044 0.431526
O O15 0.371308 0.218164 0.147806
O O16 0.313937 0.312849 0.969499
#
# Coordination Sequence:
#
# PCOD8216127 Si02
#       8
#     8   8   8   8   8   8   4   8
#     4  10  21  37  59  92 124 162 210 264 304 364
#     4  11  22  42  64  90 128 163 209 261 314 376
#     4  10  21  39  61  91 128 162 210 258 314 366
#     4  11  22  39  65  89 126 166 213 253 320 375
#     4  12  23  39  65  95 122 169 207 262 319 375
#     4  11  23  40  64  92 127 163 209 264 308 385
#     4  10  22  42  58  94 128 166 208 266 318 372
#     4  10  22  41  62  89 124 167 206 258 309 377
#
# _framework density 20.452722000000001
#
# number of rings (size 3 to 8) (size 9 to 14) (size 15 to 20)
#    0.000    1.333    4.000    2.800    0.000    1.067 
#    4.800    0.000    0.000    0.800    0.000    0.000 
#    0.000    0.000    0.000    0.000    0.000    0.000 
#
# Total GULP energy -743390.111774 kJ/mol
# GULP energy per Si atom -12389.835196 kJ/mol
# Density = 2.040617 g / cm^3
# Si number density = 20.452722 Si / 1000 Ang^3
#
#
#
# Elastic Constant Matrix: (Units=GPa)
#
#
# Indices 1 2 3 4 5 6 
#
# 1 111.7150 31.4055 25.8685 0.0000 0.0000 0.0000
# 2 31.4055 114.0775 29.2808 0.0000 0.0000 0.0000
# 3 25.8685 29.2808 91.1180 0.0000 0.0000 0.0000
# 4 0.0000 0.0000 0.0000 26.6741 0.0000 0.0000
# 5 0.0000 0.0000 0.0000 0.0000 15.0971 0.0000
# 6 0.0000 0.0000 0.0000 0.0000 0.0000 37.3348
#
#
#
# Elastic Compliance Matrix: (Units=1/GPa)
#
#
# Indices 1 2 3 4 5 6 
#
# 1 0.010073 -0.002222 -0.002146 0.000000 0.000000 0.000000
# 2 -0.002222 0.010044 -0.002597 0.000000 0.000000 0.000000
# 3 -0.002146 -0.002597 0.012418 0.000000 0.000000 0.000000
# 4 0.000000 0.000000 0.000000 0.037490 0.000000 0.000000
# 5 0.000000 0.000000 0.000000 0.000000 0.066238 0.000000
# 6 0.000000 0.000000 0.000000 0.000000 0.000000 0.026785
#
#
# Mechanical properties :
#
#
# Convention : Reuss Voigt Hill
#
# Bulk Modulus (GPa) = 53.74560 54.44667 54.09613
# Shear Modulus (GPa) = 27.29568 31.17826 29.23697
#
# Velocity S-wave (km/s) = 3.65715 3.90860 3.78496
# Velocity P-wave (km/s) = 6.64590 6.85916 6.75337
#
# Compressibility (1/GPa) = 0.01860617
#
# Stress axis : x y z
#
# Youngs Moduli (GPa) = 99.27601 99.55878 80.52575
#
# Poissons Ratio (x) = 0.22126 0.17277
# Poissons Ratio (y) = 0.22063 0.20911
# Poissons Ratio (z) = 0.21300 0.25854
#
# Static dielectric constant tensor:
#      x y z
#    x 3.860080 0.000000 0.000000 
#    y 0.000000 3.893010 0.000000 
#    z 0.000000 0.000000 3.579680 
# 
# 
# High freq. dielectric constant tensor:
#      x y z
#    x 1.799290 0.000000 0.000000 
#    y 0.000000 1.812100 0.000000 
#    z 0.000000 0.000000 1.782080 
# 
# From -- ./inp_files/19829.got.cif
#   From: 2010.06.25/outbox.cif.g09.slc.cpg/sg52_10_cif.got.tgz:19829.got - 2010.06.26 19:32:48.
