data_PCOD8216977
_publ_section_title
;
Structure prediction by ZEFSAII (Michael W. Deem and Ramdas Pophale) SiO2 
 PCOD8216977
Probable space group: P N N A
;
_chemical_formula_sum "Si O2"
_cell_formula_units_Z 48
_cell_length_a 22.391587
_cell_length_b 12.851487
_cell_length_c 7.473835
_cell_angle_alpha 90.000000
_cell_angle_beta 90.000000
_cell_angle_gamma 90.000000
_cell_volume 2150.709543
_symmetry_space_group_name_H-M "P N N A"
_symmetry_group_IT_number 52
_symmetry_cell_setting 'orthorhombic'
loop_
_space_group_symop_operation_xyz
x,y,z
1/2-x,-y,z
x,1/2-y,1/2-z
1/2-x,1/2+y,1/2-z
-x,-y,-z
1/2+x,y,-z
-x,1/2+y,1/2+z
1/2+x,1/2-y,1/2+z
loop_
_atom_site_type_symbol
_atom_site_label
_atom_site_fract_x
_atom_site_fract_y
_atom_site_fract_z
Si Si1 0.007965 0.826137 0.901584
Si Si2 0.847997 0.870584 0.220331
Si Si3 0.858695 0.063068 0.614412
Si Si4 0.372502 0.644414 0.334288
Si Si5 0.250000 0.000000 0.566517
Si Si6 0.074912 0.750000 0.250000
Si Si7 0.051882 0.990797 0.651738
O O1 0.032881 0.750000 0.750000
O O2 0.937095 0.823594 0.908762
O O3 0.028729 0.558051 0.660865
O O4 0.032243 0.782055 0.087739
O O5 0.839334 0.750000 0.250000
O O6 0.795107 0.931624 0.318458
O O7 0.914477 0.902168 0.292597
O O8 0.837453 0.894507 0.010057
O O9 0.879929 0.153177 0.744338
O O10 0.897233 0.081295 0.434523
O O11 0.873323 0.947726 0.689877
O O12 0.788981 0.074066 0.564879
O O13 0.343949 0.750000 0.250000
O O14 0.000000 0.000000 0.500000
#
# Coordination Sequence:
#
# PCOD8216977 Si02
#       7
#     8   8   8   8   4   4   8
#     4  11  24  40  68 110 156 186 232 289 367 453
#     4  11  26  46  73 103 140 193 247 305 375 437
#     4  11  24  46  71 101 143 187 250 301 363 435
#     4  11  24  43  72 110 144 190 239 300 369 450
#     4  10  26  54  68  98 136 188 254 316 356 412
#     4  12  26  42  72 112 146 202 232 294 378 454
#     4  11  22  43  70 106 149 189 232 302 365 447
#
# _framework density 22.318214999999999
#
# number of rings (size 3 to 8) (size 9 to 14) (size 15 to 20)
#    0.000    1.000    3.333    3.000    5.833    2.000 
#   13.500    0.000    0.000    0.000    0.000    0.000 
#    0.000    0.000    0.000    0.000    0.000    0.000 
#
# Total GULP energy -594796.128214 kJ/mol
# GULP energy per Si atom -12391.586004 kJ/mol
# Density = 2.226742 g / cm^3
# Si number density = 22.318215 Si / 1000 Ang^3
#
#
#
# Elastic Constant Matrix: (Units=GPa)
#
#
# Indices 1 2 3 4 5 6 
#
# 1 112.9091 35.4940 52.0462 0.0000 0.0000 0.0000
# 2 35.4940 124.1730 39.0950 0.0000 0.0000 0.0000
# 3 52.0462 39.0950 142.9665 0.0000 0.0000 0.0000
# 4 0.0000 0.0000 0.0000 41.5444 0.0000 0.0000
# 5 0.0000 0.0000 0.0000 0.0000 28.2774 0.0000
# 6 0.0000 0.0000 0.0000 0.0000 0.0000 25.2603
#
#
#
# Elastic Compliance Matrix: (Units=1/GPa)
#
#
# Indices 1 2 3 4 5 6 
#
# 1 0.011114 -0.002082 -0.003477 0.000000 0.000000 0.000000
# 2 -0.002082 0.009202 -0.001758 0.000000 0.000000 0.000000
# 3 -0.003477 -0.001758 0.008741 0.000000 0.000000 0.000000
# 4 0.000000 0.000000 0.000000 0.024071 0.000000 0.000000
# 5 0.000000 0.000000 0.000000 0.000000 0.035364 0.000000
# 6 0.000000 0.000000 0.000000 0.000000 0.000000 0.039588
#
#
# Mechanical properties :
#
#
# Convention : Reuss Voigt Hill
#
# Bulk Modulus (GPa) = 69.33483 70.36875 69.85179
# Shear Modulus (GPa) = 33.89347 35.91065 34.90206
#
# Velocity S-wave (km/s) = 3.90121 4.01562 3.95883
# Velocity P-wave (km/s) = 7.17123 7.28687 7.22928
#
# Compressibility (1/GPa) = 0.01442277
#
# Stress axis : x y z
#
# Youngs Moduli (GPa) = 89.97848 108.67116 114.40243
#
# Poissons Ratio (x) = 0.22628 0.39772
# Poissons Ratio (y) = 0.18736 0.20116
# Poissons Ratio (z) = 0.31281 0.19108
#
# Static dielectric constant tensor:
#      x y z
#    x 4.062750 0.000000 0.000000 
#    y 0.000000 4.178510 0.000000 
#    z 0.000000 0.000000 4.378300 
# 
# 
# High freq. dielectric constant tensor:
#      x y z
#    x 1.866010 0.000000 0.000000 
#    y 0.000000 1.879400 0.000000 
#    z 0.000000 0.000000 1.895470 
# 
# From -- ./inp_files/14293.got.cif
#   From: 2010.06.25/outbox.cif.g09.slc.cpg/sg52_8_cif.got.tgz:14293.got - 2010.06.26 19:32:48.
