data_PCOD8216484
_publ_section_title
;
Structure prediction by ZEFSAII (Michael W. Deem and Ramdas Pophale) SiO2 
 PCOD8216484
Probable space group: P N N A
;
_chemical_formula_sum "Si O2"
_cell_formula_units_Z 44
_cell_length_a 17.015813
_cell_length_b 9.530610
_cell_length_c 14.929465
_cell_angle_alpha 90.000000
_cell_angle_beta 90.000000
_cell_angle_gamma 90.000000
_cell_volume 2421.127426
_symmetry_space_group_name_H-M "P N N A"
_symmetry_group_IT_number 52
_symmetry_cell_setting 'orthorhombic'
loop_
_space_group_symop_operation_xyz
x,y,z
1/2-x,-y,z
x,1/2-y,1/2-z
1/2-x,1/2+y,1/2-z
-x,-y,-z
1/2+x,y,-z
-x,1/2+y,1/2+z
1/2+x,1/2-y,1/2+z
loop_
_atom_site_type_symbol
_atom_site_label
_atom_site_fract_x
_atom_site_fract_y
_atom_site_fract_z
Si Si1 0.710661 0.793881 0.434915
Si Si2 0.876591 0.760238 0.020617
Si Si3 0.250000 0.000000 0.719447
Si Si4 0.623010 0.967169 0.135232
Si Si5 0.984616 0.740971 0.653176
Si Si6 0.429310 0.023357 0.565311
O O1 0.784652 0.768435 0.500450
O O2 0.677853 0.640116 0.417598
O O3 0.645076 0.894971 0.480497
O O4 0.738674 0.861912 0.341071
O O5 0.902966 0.634619 0.088654
O O6 0.894409 0.902996 0.070918
O O7 0.921300 0.761785 0.925770
O O8 0.170223 0.018719 0.777010
O O9 0.538895 0.897259 0.154875
O O10 0.941833 0.750000 0.750000
O O11 0.041253 0.878977 0.646750
O O12 0.500000 0.000000 0.500000
#
# Coordination Sequence:
#
# PCOD8216484 Si02
#       6
#     8   8   4   8   8   8
#     4  11  20  34  54  86 118 148 186 238 289 361
#     4  11  20  36  57  82 114 155 190 236 296 348
#     4  12  20  32  56  86 118 144 184 234 306 356
#     4  11  22  34  55  86 120 145 186 238 305 351
#     4  10  22  39  56  79 114 156 198 239 284 346
#     4   9  19  35  57  81 111 151 192 231 288 351
#
# _framework density 18.173352999999999
#
# number of rings (size 3 to 8) (size 9 to 14) (size 15 to 20)
#    0.000    1.455    3.636    3.273    0.000    0.000 
#    0.000    0.000    0.000    8.727    0.000    0.000 
#    0.000    0.000    0.000    0.000    0.000    0.000 
#
# Total GULP energy -545096.557829 kJ/mol
# GULP energy per Si atom -12388.558132 kJ/mol
# Density = 1.813199 g / cm^3
# Si number density = 18.173353 Si / 1000 Ang^3
#
#
#
# Elastic Constant Matrix: (Units=GPa)
#
#
# Indices 1 2 3 4 5 6 
#
# 1 122.0495 41.5330 58.4243 0.0000 0.0000 0.0000
# 2 41.5330 141.7214 42.9708 0.0000 0.0000 0.0000
# 3 58.4243 42.9708 85.5964 0.0000 0.0000 0.0000
# 4 0.0000 0.0000 0.0000 20.3277 0.0000 0.0000
# 5 0.0000 0.0000 0.0000 0.0000 33.6130 0.0000
# 6 0.0000 0.0000 0.0000 0.0000 0.0000 30.2571
#
#
#
# Elastic Compliance Matrix: (Units=1/GPa)
#
#
# Indices 1 2 3 4 5 6 
#
# 1 0.012356 -0.001255 -0.007804 0.000000 0.000000 0.000000
# 2 -0.001255 0.008450 -0.003386 0.000000 0.000000 0.000000
# 3 -0.007804 -0.003386 0.018709 0.000000 0.000000 0.000000
# 4 0.000000 0.000000 0.000000 0.049194 0.000000 0.000000
# 5 0.000000 0.000000 0.000000 0.000000 0.029750 0.000000
# 6 0.000000 0.000000 0.000000 0.000000 0.000000 0.033050
#
#
# Mechanical properties :
#
#
# Convention : Reuss Voigt Hill
#
# Bulk Modulus (GPa) = 68.36816 70.58040 69.47428
# Shear Modulus (GPa) = 27.58257 30.60217 29.09237
#
# Velocity S-wave (km/s) = 3.90005 4.10799 4.00537
# Velocity P-wave (km/s) = 7.61461 7.83724 7.72673
#
# Compressibility (1/GPa) = 0.01462669
#
# Stress axis : x y z
#
# Youngs Moduli (GPa) = 80.93220 118.33718 53.45069
#
# Poissons Ratio (x) = 0.14851 0.41711
# Poissons Ratio (y) = 0.10157 0.18097
# Poissons Ratio (z) = 0.63157 0.40065
#
# Static dielectric constant tensor:
#      x y z
#    x 3.803740 0.000000 0.000000 
#    y 0.000000 3.981710 0.000000 
#    z 0.000000 0.000000 3.128260 
# 
# 
# High freq. dielectric constant tensor:
#      x y z
#    x 1.713490 0.000000 0.000000 
#    y 0.000000 1.726640 0.000000 
#    z 0.000000 0.000000 1.659400 
# 
# From -- ./inp_files/27980.got.cif
#   From: 2010.06.25/outbox.cif.g09.slc.cpg/sg52_14_cif.got.tgz:27980.got - 2010.06.26 19:32:48.
