data_PCOD8216513
_publ_section_title
;
Structure prediction by ZEFSAII (Michael W. Deem and Ramdas Pophale) SiO2 
 PCOD8216513
Probable space group: P N N A
;
_chemical_formula_sum "Si O2"
_cell_formula_units_Z 64
_cell_length_a 13.838152
_cell_length_b 12.588701
_cell_length_c 16.259832
_cell_angle_alpha 90.000000
_cell_angle_beta 90.000000
_cell_angle_gamma 90.000000
_cell_volume 2832.533593
_symmetry_space_group_name_H-M "P N N A"
_symmetry_group_IT_number 52
_symmetry_cell_setting 'orthorhombic'
loop_
_space_group_symop_operation_xyz
x,y,z
1/2-x,-y,z
x,1/2-y,1/2-z
1/2-x,1/2+y,1/2-z
-x,-y,-z
1/2+x,y,-z
-x,1/2+y,1/2+z
1/2+x,1/2-y,1/2+z
loop_
_atom_site_type_symbol
_atom_site_label
_atom_site_fract_x
_atom_site_fract_y
_atom_site_fract_z
Si Si1 0.957003 0.531055 0.175852
Si Si2 0.160837 0.885856 0.910269
Si Si3 0.465882 0.726709 0.933381
Si Si4 0.447369 0.296263 0.834494
Si Si5 0.138408 0.501599 0.292720
Si Si6 0.628328 0.286471 0.606899
Si Si7 0.864726 0.899714 0.164361
Si Si8 0.162974 0.681106 0.416240
O O1 0.953773 0.603709 0.094038
O O2 0.914633 0.416348 0.149039
O O3 0.881554 0.581487 0.239492
O O4 0.062835 0.510737 0.217094
O O5 0.091807 0.783308 0.904069
O O6 0.252720 0.873568 0.850840
O O7 0.104201 0.993648 0.886005
O O8 0.193466 0.892152 0.005393
O O9 0.430571 0.801289 0.859952
O O10 0.580984 0.736777 0.942841
O O11 0.408387 0.765564 0.013689
O O12 0.405816 0.250000 0.750000
O O13 0.565008 0.291743 0.835974
O O14 0.250000 0.500000 0.260815
O O15 0.114998 0.405277 0.356026
O O16 0.122402 0.608639 0.343815
O O17 0.741033 0.254907 0.611961
#
# Coordination Sequence:
#
# PCOD8216513 Si02
#       8
#     8   8   8   8   8   8   8   8
#     4  12  26  45  64 102 135 189 223 282 340 411
#     4  11  23  42  71 101 131 175 221 283 339 407
#     4  12  25  42  70  97 140 171 225 282 343 410
#     4  12  24  45  69  93 137 184 236 270 338 415
#     4  10  22  39  70 104 137 169 227 286 348 398
#     4  11  23  44  68  99 132 183 225 284 333 409
#     4  11  23  42  67 102 137 165 217 282 350 397
#     4  11  23  40  68 106 133 169 225 283 347 400
#
# _framework density 22.594612999999999
#
# number of rings (size 3 to 8) (size 9 to 14) (size 15 to 20)
#    0.000    0.750    6.250    1.125    3.500    3.500 
#    0.000    0.000    0.000    0.000    0.000    0.000 
#    0.000    0.000    0.000    0.000    0.000    0.000 
#
# Total GULP energy -793176.633904 kJ/mol
# GULP energy per Si atom -12393.384905 kJ/mol
# Density = 2.254319 g / cm^3
# Si number density = 22.594613 Si / 1000 Ang^3
#
#
#
# Elastic Constant Matrix: (Units=GPa)
#
#
# Indices 1 2 3 4 5 6 
#
# 1 73.6021 33.5136 0.0706 0.0000 0.0000 0.0000
# 2 33.5136 130.6593 28.3409 0.0000 0.0000 0.0000
# 3 0.0706 28.3409 48.3224 0.0000 0.0000 0.0000
# 4 0.0000 0.0000 0.0000 30.3147 0.0000 0.0000
# 5 0.0000 0.0000 0.0000 0.0000 31.7730 0.0000
# 6 0.0000 0.0000 0.0000 0.0000 0.0000 19.6918
#
#
#
# Elastic Compliance Matrix: (Units=1/GPa)
#
#
# Indices 1 2 3 4 5 6 
#
# 1 0.015680 -0.004602 0.002676 0.000000 0.000000 0.000000
# 2 -0.004602 0.010120 -0.005929 0.000000 0.000000 0.000000
# 3 0.002676 -0.005929 0.024168 0.000000 0.000000 0.000000
# 4 0.000000 0.000000 0.000000 0.032987 0.000000 0.000000
# 5 0.000000 0.000000 0.000000 0.000000 0.031473 0.000000
# 6 0.000000 0.000000 0.000000 0.000000 0.000000 0.050783
#
#
# Mechanical properties :
#
#
# Convention : Reuss Voigt Hill
#
# Bulk Modulus (GPa) = 29.19033 41.82602 35.50817
# Shear Modulus (GPa) = 25.99585 29.06648 27.53116
#
# Velocity S-wave (km/s) = 3.39563 3.59058 3.49447
# Velocity P-wave (km/s) = 5.32174 5.97841 5.65961
#
# Compressibility (1/GPa) = 0.03425792
#
# Stress axis : x y z
#
# Youngs Moduli (GPa) = 63.77728 98.81514 41.37785
#
# Poissons Ratio (x) = 0.45477 -0.11074
# Poissons Ratio (y) = 0.29352 0.24531
# Poissons Ratio (z) = -0.17069 0.58583
#
# Static dielectric constant tensor:
#      x y z
#    x 4.146880 0.000000 0.000000 
#    y 0.000000 3.951980 0.000000 
#    z 0.000000 0.000000 3.980210 
# 
# 
# High freq. dielectric constant tensor:
#      x y z
#    x 1.897260 0.000000 0.000000 
#    y 0.000000 1.876700 0.000000 
#    z 0.000000 0.000000 1.881830 
# 
# From -- ./inp_files/33287.got.cif
#   From: 2010.06.25/outbox.cif.g09.slc.cpg/sg52_17_cif.got.tgz:33287.got - 2010.06.26 19:32:48.
