data_PCOD8216358
_publ_section_title
;
Structure prediction by ZEFSAII (Michael W. Deem and Ramdas Pophale) SiO2 
 PCOD8216358
Probable space group: P N N A
;
_chemical_formula_sum "Si O2"
_cell_formula_units_Z 64
_cell_length_a 8.612976
_cell_length_b 27.964577
_cell_length_c 11.005356
_cell_angle_alpha 90.000000
_cell_angle_beta 90.000000
_cell_angle_gamma 90.000000
_cell_volume 2650.730573
_symmetry_space_group_name_H-M "P N N A"
_symmetry_group_IT_number 52
_symmetry_cell_setting 'orthorhombic'
loop_
_space_group_symop_operation_xyz
x,y,z
1/2-x,-y,z
x,1/2-y,1/2-z
1/2-x,1/2+y,1/2-z
-x,-y,-z
1/2+x,y,-z
-x,1/2+y,1/2+z
1/2+x,1/2-y,1/2+z
loop_
_atom_site_type_symbol
_atom_site_label
_atom_site_fract_x
_atom_site_fract_y
_atom_site_fract_z
Si Si1 0.432326 0.172918 0.460586
Si Si2 0.869229 0.840356 0.937530
Si Si3 0.669321 0.584548 0.112808
Si Si4 0.833209 0.548336 0.897752
Si Si5 0.870699 0.385638 0.741621
Si Si6 0.309494 0.390841 0.620291
Si Si7 0.381882 0.033255 0.068829
Si Si8 0.339868 0.736281 0.109385
O O1 0.348681 0.135682 0.548799
O O2 0.482588 0.143852 0.335672
O O3 0.334664 0.218433 0.412508
O O4 0.565767 0.192959 0.547976
O O5 0.718288 0.850537 0.852552
O O6 0.884662 0.784215 0.960630
O O7 0.024087 0.864165 0.884356
O O8 0.833114 0.858182 0.074096
O O9 0.518199 0.549989 0.118056
O O10 0.733271 0.593394 0.245954
O O11 0.800608 0.555430 0.040949
O O12 0.750000 0.500000 0.852097
O O13 0.767016 0.592525 0.822023
O O14 0.954711 0.429508 0.668235
O O15 0.299188 0.436907 0.535830
O O16 0.250000 0.000000 0.132115
O O17 0.500000 0.000000 0.000000
O O18 0.375230 0.750000 0.250000
#
# Coordination Sequence:
#
# PCOD8216358 Si02
#       8
#     8   8   8   8   8   8   8   8
#     4  11  24  46  70 109 135 194 238 292 372 429
#     4  11  22  45  69 103 136 193 227 297 369 423
#     4  11  24  45  66  97 140 182 230 297 359 426
#     4  11  23  42  69  98 132 184 237 287 354 428
#     4  10  21  41  72  94 143 182 227 288 361 420
#     4  11  24  44  70  98 149 183 235 298 370 428
#     4  11  24  43  68 105 138 189 244 291 360 436
#     4  12  24  45  76 102 149 182 248 302 356 445
#
# _framework density 24.144289000000001
#
# number of rings (size 3 to 8) (size 9 to 14) (size 15 to 20)
#    0.000    1.000    2.500    5.250    1.750    0.500 
#   20.250    0.625    0.000    0.000    0.000    0.000 
#    0.000    0.000    0.000    0.000    0.000    0.000 
#
# Total GULP energy -793049.682068 kJ/mol
# GULP energy per Si atom -12391.401282 kJ/mol
# Density = 2.408934 g / cm^3
# Si number density = 24.144289 Si / 1000 Ang^3
#
#
#
# Elastic Constant Matrix: (Units=GPa)
#
#
# Indices 1 2 3 4 5 6 
#
# 1 33.8721 9.6598 7.4943 0.0000 0.0000 0.0000
# 2 9.6598 116.7656 31.1454 0.0000 0.0000 0.0000
# 3 7.4943 31.1454 143.0387 0.0000 0.0000 0.0000
# 4 0.0000 0.0000 0.0000 33.9679 0.0000 0.0000
# 5 0.0000 0.0000 0.0000 0.0000 24.2233 0.0000
# 6 0.0000 0.0000 0.0000 0.0000 0.0000 36.0232
#
#
#
# Elastic Compliance Matrix: (Units=1/GPa)
#
#
# Indices 1 2 3 4 5 6 
#
# 1 0.030401 -0.002219 -0.001110 0.000000 0.000000 0.000000
# 2 -0.002219 0.009254 -0.001899 0.000000 0.000000 0.000000
# 3 -0.001110 -0.001899 0.007463 0.000000 0.000000 0.000000
# 4 0.000000 0.000000 0.000000 0.029440 0.000000 0.000000
# 5 0.000000 0.000000 0.000000 0.000000 0.041282 0.000000
# 6 0.000000 0.000000 0.000000 0.000000 0.000000 0.027760
#
#
# Mechanical properties :
#
#
# Convention : Reuss Voigt Hill
#
# Bulk Modulus (GPa) = 27.27532 43.36394 35.31963
# Shear Modulus (GPa) = 29.71309 35.20136 32.45722
#
# Velocity S-wave (km/s) = 3.51186 3.82246 3.67045
# Velocity P-wave (km/s) = 5.26930 6.12217 5.71168
#
# Compressibility (1/GPa) = 0.03666318
#
# Stress axis : x y z
#
# Youngs Moduli (GPa) = 32.89341 108.05897 133.99995
#
# Poissons Ratio (x) = 0.23979 0.14869
# Poissons Ratio (y) = 0.07299 0.25443
# Poissons Ratio (z) = 0.03650 0.20518
#
# Static dielectric constant tensor:
#      x y z
#    x 4.062490 0.000000 0.000000 
#    y 0.000000 4.543990 0.000000 
#    z 0.000000 0.000000 4.652540 
# 
# 
# High freq. dielectric constant tensor:
#      x y z
#    x 1.935990 0.000000 0.000000 
#    y 0.000000 1.969090 0.000000 
#    z 0.000000 0.000000 1.973680 
# 
# From -- ./inp_files/17246.got.cif
#   From: 2010.06.25/outbox.cif.g09.slc.cpg/sg52_9_cif.got.tgz:17246.got - 2010.06.26 19:32:48.
