data_PCOD8216497
_publ_section_title
;
Structure prediction by ZEFSAII (Michael W. Deem and Ramdas Pophale) SiO2 
 PCOD8216497
Probable space group: P N N A
;
_chemical_formula_sum "Si O2"
_cell_formula_units_Z 40
_cell_length_a 27.936295
_cell_length_b 6.304074
_cell_length_c 11.442599
_cell_angle_alpha 90.000000
_cell_angle_beta 90.000000
_cell_angle_gamma 90.000000
_cell_volume 2015.184384
_symmetry_space_group_name_H-M "P N N A"
_symmetry_group_IT_number 52
_symmetry_cell_setting 'orthorhombic'
loop_
_space_group_symop_operation_xyz
x,y,z
1/2-x,-y,z
x,1/2-y,1/2-z
1/2-x,1/2+y,1/2-z
-x,-y,-z
1/2+x,y,-z
-x,1/2+y,1/2+z
1/2+x,1/2-y,1/2+z
loop_
_atom_site_type_symbol
_atom_site_label
_atom_site_fract_x
_atom_site_fract_y
_atom_site_fract_z
Si Si1 0.879597 0.365092 0.369442
Si Si2 0.629949 0.135184 0.630725
Si Si3 0.446847 0.488336 0.954505
Si Si4 0.420381 0.750000 0.750000
Si Si5 0.697326 0.008657 0.957914
Si Si6 0.326464 0.250000 0.250000
O O1 0.863839 0.250000 0.250000
O O2 0.924698 0.246837 0.432268
O O3 0.889217 0.609911 0.339390
O O4 0.835790 0.364847 0.459359
O O5 0.613401 0.250000 0.750000
O O6 0.674152 0.259242 0.567366
O O7 0.585962 0.127217 0.540916
O O8 0.641950 0.894315 0.663631
O O9 0.452180 0.594431 0.827411
O O10 0.500000 0.500000 0.000000
O O11 0.750000 0.000000 0.016482
O O12 0.705462 0.897646 0.832228
#
# Coordination Sequence:
#
# PCOD8216497 Si02
#       6
#     8   8   8   4   8   4
#     4  10  22  44  64  90 127 165 211 261 308 366
#     4  10  22  40  61  91 127 163 206 261 307 373
#     4  11  23  41  66  92 122 165 208 256 316 372
#     4  10  22  43  64  86 130 164 206 261 310 372
#     4  11  23  40  65  91 125 170 209 259 317 373
#     4  10  22  39  62  92 130 160 210 261 310 378
#
# _framework density 19.849298999999998
#
# number of rings (size 3 to 8) (size 9 to 14) (size 15 to 20)
#    0.000    1.600    4.000    0.000    4.200    4.000 
#    1.800    0.000    0.000    0.000    0.000    0.000 
#    0.000    0.000    0.000    0.000    0.000    0.000 
#
# Total GULP energy -495691.487508 kJ/mol
# GULP energy per Si atom -12392.287188 kJ/mol
# Density = 1.980412 g / cm^3
# Si number density = 19.849299 Si / 1000 Ang^3
#
#
#
# Elastic Constant Matrix: (Units=GPa)
#
#
# Indices 1 2 3 4 5 6 
#
# 1 153.6583 57.0400 56.1148 0.0000 0.0000 0.0000
# 2 57.0400 107.2143 35.2529 0.0000 0.0000 0.0000
# 3 56.1148 35.2529 91.0110 0.0000 0.0000 0.0000
# 4 0.0000 0.0000 0.0000 43.6070 0.0000 0.0000
# 5 0.0000 0.0000 0.0000 0.0000 20.9985 0.0000
# 6 0.0000 0.0000 0.0000 0.0000 0.0000 21.7381
#
#
#
# Elastic Compliance Matrix: (Units=1/GPa)
#
#
# Indices 1 2 3 4 5 6 
#
# 1 0.009457 -0.003569 -0.004449 0.000000 0.000000 0.000000
# 2 -0.003569 0.012035 -0.002461 0.000000 0.000000 0.000000
# 3 -0.004449 -0.002461 0.014684 0.000000 0.000000 0.000000
# 4 0.000000 0.000000 0.000000 0.022932 0.000000 0.000000
# 5 0.000000 0.000000 0.000000 0.000000 0.047623 0.000000
# 6 0.000000 0.000000 0.000000 0.000000 0.000000 0.046002
#
#
# Mechanical properties :
#
#
# Convention : Reuss Voigt Hill
#
# Bulk Modulus (GPa) = 65.70853 72.07765 68.89309
# Shear Modulus (GPa) = 27.96983 30.83377 29.40180
#
# Velocity S-wave (km/s) = 3.75788 3.94559 3.85288
# Velocity P-wave (km/s) = 7.21141 7.55964 7.38758
#
# Compressibility (1/GPa) = 0.01521872
#
# Stress axis : x y z
#
# Youngs Moduli (GPa) = 105.73770 83.09063 68.10087
#
# Poissons Ratio (x) = 0.29652 0.30297
# Poissons Ratio (y) = 0.37735 0.16762
# Poissons Ratio (z) = 0.47041 0.20452
#
# Static dielectric constant tensor:
#      x y z
#    x 3.245300 0.000000 0.000000 
#    y 0.000000 3.858690 0.000000 
#    z 0.000000 0.000000 3.876030 
# 
# 
# High freq. dielectric constant tensor:
#      x y z
#    x 1.739210 0.000000 0.000000 
#    y 0.000000 1.784010 0.000000 
#    z 0.000000 0.000000 1.795140 
# 
# From -- ./inp_files/22657.got.cif
#   From: 2010.06.25/outbox.cif.g09.slc.cpg/sg52_12_cif.got.tgz:22657.got - 2010.06.26 19:32:48.
