data_PCOD8216880
_publ_section_title
;
Structure prediction by ZEFSAII (Michael W. Deem and Ramdas Pophale) SiO2 
 PCOD8216880
Probable space group: P N N A
;
_chemical_formula_sum "Si O2"
_cell_formula_units_Z 44
_cell_length_a 18.421823
_cell_length_b 18.925878
_cell_length_c 5.131454
_cell_angle_alpha 90.000000
_cell_angle_beta 90.000000
_cell_angle_gamma 90.000000
_cell_volume 1789.077202
_symmetry_space_group_name_H-M "P N N A"
_symmetry_group_IT_number 52
_symmetry_cell_setting 'orthorhombic'
loop_
_space_group_symop_operation_xyz
x,y,z
1/2-x,-y,z
x,1/2-y,1/2-z
1/2-x,1/2+y,1/2-z
-x,-y,-z
1/2+x,y,-z
-x,1/2+y,1/2+z
1/2+x,1/2-y,1/2+z
loop_
_atom_site_type_symbol
_atom_site_label
_atom_site_fract_x
_atom_site_fract_y
_atom_site_fract_z
Si Si1 0.589717 0.378438 0.796693
Si Si2 0.330726 0.902994 0.806441
Si Si3 0.384143 0.477441 0.379766
Si Si4 0.561909 0.845661 0.129654
Si Si5 0.312517 0.115990 0.501249
Si Si6 0.355214 0.250000 0.250000
O O1 0.652918 0.362097 0.579935
O O2 0.570174 0.462188 0.771190
O O3 0.519124 0.331252 0.736376
O O4 0.619402 0.365924 0.086158
O O5 0.247580 0.894972 0.722795
O O6 0.349331 0.986734 0.856425
O O7 0.438041 0.411721 0.427738
O O8 0.317066 0.450253 0.197433
O O9 0.610107 0.872098 0.366814
O O10 0.592439 0.775320 0.988923
O O11 0.300483 0.187992 0.337041
#
# Coordination Sequence:
#
# PCOD8216880 Si02
#       6
#     8   8   8   8   8   4
#     4  10  24  43  67 104 144 177 225 295 371 424
#     4  10  25  43  64 106 144 181 232 293 373 427
#     4   9  23  38  68 103 141 177 235 290 367 430
#     4  11  23  43  71  96 140 186 240 297 351 434
#     4  11  24  44  70 100 148 192 247 300 358 447
#     4  10  26  44  70 102 130 198 262 288 356 436
#
# _framework density 24.593686000000002
#
# number of rings (size 3 to 8) (size 9 to 14) (size 15 to 20)
#    1.091    0.727    0.000    2.182   10.182    5.818 
#    0.000    1.818    0.000    0.000    0.000    0.000 
#    0.000    0.000    0.000    0.000    0.000    0.000 
#
# Total GULP energy -545269.334216 kJ/mol
# GULP energy per Si atom -12392.484869 kJ/mol
# Density = 2.453771 g / cm^3
# Si number density = 24.593686 Si / 1000 Ang^3
#
#
#
# Elastic Constant Matrix: (Units=GPa)
#
#
# Indices 1 2 3 4 5 6 
#
# 1 112.7322 21.3855 39.9283 0.0000 0.0000 0.0000
# 2 21.3855 63.8471 17.8098 0.0000 0.0000 0.0000
# 3 39.9283 17.8098 139.8136 0.0000 0.0000 0.0000
# 4 0.0000 0.0000 0.0000 26.6602 0.0000 0.0000
# 5 0.0000 0.0000 0.0000 0.0000 43.6132 0.0000
# 6 0.0000 0.0000 0.0000 0.0000 0.0000 8.6625
#
#
#
# Elastic Compliance Matrix: (Units=1/GPa)
#
#
# Indices 1 2 3 4 5 6 
#
# 1 0.010308 -0.002728 -0.002596 0.000000 0.000000 0.000000
# 2 -0.002728 0.016962 -0.001381 0.000000 0.000000 0.000000
# 3 -0.002596 -0.001381 0.008070 0.000000 0.000000 0.000000
# 4 0.000000 0.000000 0.000000 0.037509 0.000000 0.000000
# 5 0.000000 0.000000 0.000000 0.000000 0.022929 0.000000
# 6 0.000000 0.000000 0.000000 0.000000 0.000000 0.115440
#
#
# Mechanical properties :
#
#
# Convention : Reuss Voigt Hill
#
# Bulk Modulus (GPa) = 45.60555 52.73781 49.17168
# Shear Modulus (GPa) = 21.55752 31.60514 26.58133
#
# Velocity S-wave (km/s) = 2.96387 3.58871 3.29115
# Velocity P-wave (km/s) = 5.50423 6.21787 5.87190
#
# Compressibility (1/GPa) = 0.02192716
#
# Stress axis : x y z
#
# Youngs Moduli (GPa) = 97.01512 58.95661 123.91938
#
# Poissons Ratio (x) = 0.16086 0.32171
# Poissons Ratio (y) = 0.26469 0.17119
# Poissons Ratio (z) = 0.25186 0.08145
#
# Static dielectric constant tensor:
#      x y z
#    x 3.864120 0.000000 0.000000 
#    y 0.000000 4.384150 0.000000 
#    z 0.000000 0.000000 4.531000 
# 
# 
# High freq. dielectric constant tensor:
#      x y z
#    x 1.946610 0.000000 0.000000 
#    y 0.000000 1.961220 0.000000 
#    z 0.000000 0.000000 1.994110 
# 
# From -- ./inp_files/3413.got.cif
#   From: 2010.06.25/outbox.cif.g09.slc.cpg/sg52_2_cif.got.tgz:3413.got - 2010.06.26 19:32:48.
