data_PCOD8216630
_publ_section_title
;
Structure prediction by ZEFSAII (Michael W. Deem and Ramdas Pophale) SiO2 
 PCOD8216630
Probable space group: P N N A
;
_chemical_formula_sum "Si O2"
_cell_formula_units_Z 56
_cell_length_a 10.991200
_cell_length_b 12.050978
_cell_length_c 19.973004
_cell_angle_alpha 90.000000
_cell_angle_beta 90.000000
_cell_angle_gamma 90.000000
_cell_volume 2645.518441
_symmetry_space_group_name_H-M "P N N A"
_symmetry_group_IT_number 52
_symmetry_cell_setting 'orthorhombic'
loop_
_space_group_symop_operation_xyz
x,y,z
1/2-x,-y,z
x,1/2-y,1/2-z
1/2-x,1/2+y,1/2-z
-x,-y,-z
1/2+x,y,-z
-x,1/2+y,1/2+z
1/2+x,1/2-y,1/2+z
loop_
_atom_site_type_symbol
_atom_site_label
_atom_site_fract_x
_atom_site_fract_y
_atom_site_fract_z
Si Si1 0.930232 0.725691 0.579344
Si Si2 0.430627 0.166561 0.688359
Si Si3 0.387240 0.017303 0.115169
Si Si4 0.709973 0.879643 0.612108
Si Si5 0.335469 0.831478 0.691011
Si Si6 0.433452 0.463276 0.230224
Si Si7 0.989928 0.757756 0.071016
O O1 0.951214 0.596155 0.594401
O O2 0.807751 0.780735 0.609323
O O3 0.045748 0.777677 0.616521
O O4 0.927426 0.749316 0.500817
O O5 0.434512 0.250000 0.750000
O O6 0.296601 0.110981 0.677465
O O7 0.545455 0.085099 0.700308
O O8 0.250000 0.000000 0.090271
O O9 0.391153 0.038485 0.194044
O O10 0.450926 0.120913 0.079411
O O11 0.671105 0.897899 0.689809
O O12 0.591056 0.838644 0.572657
O O13 0.750000 0.000000 0.581784
O O14 0.302139 0.750000 0.750000
O O15 0.433194 0.913111 0.721985
O O16 0.386448 0.766272 0.626160
#
# Coordination Sequence:
#
# PCOD8216630 Si02
#       7
#     8   8   8   8   8   8   8
#     4  12  26  45  67 103 140 176 234 274 350 409
#     4  11  23  40  66  97 137 179 222 285 331 419
#     4  12  24  43  72 101 139 177 229 289 344 404
#     4  11  24  45  69  99 133 179 228 283 342 407
#     4  10  22  42  67  94 136 181 232 276 342 412
#     4  11  22  42  67 104 131 176 232 285 349 399
#     4  11  26  46  69  99 139 180 228 282 344 422
#
# _framework density 21.167873
#
# number of rings (size 3 to 8) (size 9 to 14) (size 15 to 20)
#    0.000    0.857    5.714    1.286    2.000    0.571 
#    2.571    0.714    0.000    0.000    0.000    0.000 
#    0.000    0.000    0.000    0.000    0.000    0.000 
#
# Total GULP energy -694103.605988 kJ/mol
# GULP energy per Si atom -12394.707250 kJ/mol
# Density = 2.111969 g / cm^3
# Si number density = 21.167873 Si / 1000 Ang^3
#
#
#
# Elastic Constant Matrix: (Units=GPa)
#
#
# Indices 1 2 3 4 5 6 
#
# 1 85.7874 12.7487 25.0658 0.0000 0.0000 0.0000
# 2 12.7487 82.6710 15.7382 0.0000 0.0000 0.0000
# 3 25.0658 15.7382 114.1576 0.0000 0.0000 0.0000
# 4 0.0000 0.0000 0.0000 61.4030 0.0000 0.0000
# 5 0.0000 0.0000 0.0000 0.0000 28.5406 0.0000
# 6 0.0000 0.0000 0.0000 0.0000 0.0000 36.5781
#
#
#
# Elastic Compliance Matrix: (Units=1/GPa)
#
#
# Indices 1 2 3 4 5 6 
#
# 1 0.012625 -0.001457 -0.002571 0.000000 0.000000 0.000000
# 2 -0.001457 0.012590 -0.001416 0.000000 0.000000 0.000000
# 3 -0.002571 -0.001416 0.009520 0.000000 0.000000 0.000000
# 4 0.000000 0.000000 0.000000 0.016286 0.000000 0.000000
# 5 0.000000 0.000000 0.000000 0.000000 0.035038 0.000000
# 6 0.000000 0.000000 0.000000 0.000000 0.000000 0.027339
#
#
# Mechanical properties :
#
#
# Convention : Reuss Voigt Hill
#
# Bulk Modulus (GPa) = 41.93563 43.30236 42.61900
# Shear Modulus (GPa) = 37.81177 40.57522 39.19350
#
# Velocity S-wave (km/s) = 4.23103 4.38291 4.30764
# Velocity P-wave (km/s) = 6.61232 6.79075 6.70213
#
# Compressibility (1/GPa) = 0.02384607
#
# Stress axis : x y z
#
# Youngs Moduli (GPa) = 79.21085 79.42558 105.04709
#
# Poissons Ratio (x) = 0.11575 0.27008
# Poissons Ratio (y) = 0.11544 0.14872
# Poissons Ratio (z) = 0.20366 0.11245
#
# Static dielectric constant tensor:
#      x y z
#    x 4.011420 0.000000 0.000000 
#    y 0.000000 3.909910 0.000000 
#    z 0.000000 0.000000 3.630900 
# 
# 
# High freq. dielectric constant tensor:
#      x y z
#    x 1.844380 0.000000 0.000000 
#    y 0.000000 1.836950 0.000000 
#    z 0.000000 0.000000 1.819040 
# 
# From -- ./inp_files/36824.got.cif
#   From: 2010.06.25/outbox.cif.g09.slc.cpg/sg52_19_cif.got.tgz:36824.got - 2010.06.26 19:32:48.
