data_PCOD8216315
_publ_section_title
;
Structure prediction by ZEFSAII (Michael W. Deem and Ramdas Pophale) SiO2 
 PCOD8216315
Probable space group: P N N A
;
_chemical_formula_sum "Si O2"
_cell_formula_units_Z 56
_cell_length_a 8.985612
_cell_length_b 16.426552
_cell_length_c 18.625537
_cell_angle_alpha 90.000000
_cell_angle_beta 90.000000
_cell_angle_gamma 90.000000
_cell_volume 2749.178112
_symmetry_space_group_name_H-M "P N N A"
_symmetry_group_IT_number 52
_symmetry_cell_setting 'orthorhombic'
loop_
_space_group_symop_operation_xyz
x,y,z
1/2-x,-y,z
x,1/2-y,1/2-z
1/2-x,1/2+y,1/2-z
-x,-y,-z
1/2+x,y,-z
-x,1/2+y,1/2+z
1/2+x,1/2-y,1/2+z
loop_
_atom_site_type_symbol
_atom_site_label
_atom_site_fract_x
_atom_site_fract_y
_atom_site_fract_z
Si Si1 0.284575 0.273480 0.176684
Si Si2 0.085475 0.466490 0.067343
Si Si3 0.610753 0.552110 0.793328
Si Si4 0.759689 0.191466 0.064571
Si Si5 0.377026 0.444938 0.464232
Si Si6 0.927319 0.774420 0.553359
Si Si7 0.024733 0.144393 0.834484
O O1 0.196244 0.250000 0.250000
O O2 0.314924 0.369302 0.168491
O O3 0.188262 0.238304 0.111259
O O4 0.442147 0.227789 0.183697
O O5 0.250000 0.500000 0.061440
O O6 0.024118 0.500264 0.144673
O O7 0.073799 0.370468 0.061279
O O8 0.000000 0.500000 0.000000
O O9 0.750000 0.500000 0.761185
O O10 0.494048 0.579491 0.731109
O O11 0.695417 0.166856 0.143915
O O12 0.906763 0.245654 0.071508
O O13 0.797251 0.108334 0.024941
O O14 0.629719 0.243088 0.023865
O O15 0.250000 0.500000 0.427650
O O16 0.500000 0.500000 0.500000
O O17 0.450759 0.389898 0.405395
#
# Coordination Sequence:
#
# PCOD8216315 Si02
#       7
#     8   8   8   8   8   8   8
#     4  10  21  40  67  94 126 173 224 272 337 414
#     4  11  23  40  70 103 131 171 223 287 339 402
#     4  10  21  43  69  99 129 172 231 270 350 408
#     4  12  24  39  65  99 132 180 226 277 347 404
#     4  12  22  38  60  92 129 168 225 274 330 395
#     4  12  21  41  66  97 136 169 229 276 332 410
#     4  11  23  41  66  93 132 181 217 278 332 416
#
# _framework density 20.369724999999999
#
# number of rings (size 3 to 8) (size 9 to 14) (size 15 to 20)
#    0.000    0.857    7.143    1.286    2.000    0.000 
#    0.000    2.143    3.143    0.000    0.000    0.000 
#    0.000    0.000    0.000    0.000    0.000    0.000 
#
# Total GULP energy -694103.025641 kJ/mol
# GULP energy per Si atom -12394.696886 kJ/mol
# Density = 2.032336 g / cm^3
# Si number density = 20.369725 Si / 1000 Ang^3
#
#
#
# Elastic Constant Matrix: (Units=GPa)
#
#
# Indices 1 2 3 4 5 6 
#
# 1 100.5398 41.2472 42.6640 0.0000 0.0000 0.0000
# 2 41.2472 126.1238 35.2117 0.0000 0.0000 0.0000
# 3 42.6640 35.2117 117.8673 0.0000 0.0000 0.0000
# 4 0.0000 0.0000 0.0000 35.8650 0.0000 0.0000
# 5 0.0000 0.0000 0.0000 0.0000 33.2195 0.0000
# 6 0.0000 0.0000 0.0000 0.0000 0.0000 31.8916
#
#
#
# Elastic Compliance Matrix: (Units=1/GPa)
#
#
# Indices 1 2 3 4 5 6 
#
# 1 0.012809 -0.003158 -0.003693 0.000000 0.000000 0.000000
# 2 -0.003158 0.009429 -0.001674 0.000000 0.000000 0.000000
# 3 -0.003693 -0.001674 0.010321 0.000000 0.000000 0.000000
# 4 0.000000 0.000000 0.000000 0.027882 0.000000 0.000000
# 5 0.000000 0.000000 0.000000 0.000000 0.030103 0.000000
# 6 0.000000 0.000000 0.000000 0.000000 0.000000 0.031356
#
#
# Mechanical properties :
#
#
# Convention : Reuss Voigt Hill
#
# Bulk Modulus (GPa) = 64.47745 64.75294 64.61519
# Shear Modulus (GPa) = 34.69354 35.22244 34.95799
#
# Velocity S-wave (km/s) = 4.13145 4.16282 4.14717
# Velocity P-wave (km/s) = 7.38111 7.41372 7.39744
#
# Compressibility (1/GPa) = 0.01550930
#
# Stress axis : x y z
#
# Youngs Moduli (GPa) = 78.06990 106.05849 96.89127
#
# Poissons Ratio (x) = 0.33493 0.35782
# Poissons Ratio (y) = 0.24654 0.16216
# Poissons Ratio (z) = 0.28831 0.17751
#
# Static dielectric constant tensor:
#      x y z
#    x 3.579850 0.000000 0.000000 
#    y 0.000000 3.964340 0.000000 
#    z 0.000000 0.000000 4.453690 
# 
# 
# High freq. dielectric constant tensor:
#      x y z
#    x 1.776580 0.000000 0.000000 
#    y 0.000000 1.816070 0.000000 
#    z 0.000000 0.000000 1.797620 
# 
# From -- ./inp_files/36017.got.cif
#   From: 2010.06.25/outbox.cif.g09.slc.cpg/sg52_19_cif.got.tgz:36017.got - 2010.06.26 19:32:48.
