data_PCOD8216529
_publ_section_title
;
Structure prediction by ZEFSAII (Michael W. Deem and Ramdas Pophale) SiO2 
 PCOD8216529
Probable space group: P N N A
;
_chemical_formula_sum "Si O2"
_cell_formula_units_Z 32
_cell_length_a 12.095462
_cell_length_b 4.920698
_cell_length_c 25.940872
_cell_angle_alpha 90.000000
_cell_angle_beta 90.000000
_cell_angle_gamma 90.000000
_cell_volume 1543.951820
_symmetry_space_group_name_H-M "P N N A"
_symmetry_group_IT_number 52
_symmetry_cell_setting 'orthorhombic'
loop_
_space_group_symop_operation_xyz
x,y,z
1/2-x,-y,z
x,1/2-y,1/2-z
1/2-x,1/2+y,1/2-z
-x,-y,-z
1/2+x,y,-z
-x,1/2+y,1/2+z
1/2+x,1/2-y,1/2+z
loop_
_atom_site_type_symbol
_atom_site_label
_atom_site_fract_x
_atom_site_fract_y
_atom_site_fract_z
Si Si1 0.679003 0.245707 0.471036
Si Si2 0.999614 0.381222 0.610700
Si Si3 0.622613 0.001592 0.214504
Si Si4 0.631895 0.384375 0.917498
O O1 0.750000 0.500000 0.492051
O O2 0.594838 0.389618 0.432174
O O3 0.621249 0.102612 0.520338
O O4 0.750000 0.000000 0.444107
O O5 0.895132 0.575075 0.598330
O O6 0.047507 0.481882 0.664471
O O7 0.958793 0.071223 0.610680
O O8 0.593750 0.250000 0.250000
O O9 0.750000 0.000000 0.196591
O O10 0.591001 0.750000 0.250000
O O11 0.750000 0.500000 0.899071
#
# Coordination Sequence:
#
# PCOD8216529 Si02
#       4
#     8   8   8   8
#     4  11  22  37  58  91 127 156 196 245 297 360
#     4  12  22  38  64  86 116 161 203 240 298 362
#     4  10  22  40  62  90 119 145 185 247 311 364
#     4  11  23  39  57  85 123 162 202 244 286 342
#
# _framework density 20.726037000000002
#
# number of rings (size 3 to 8) (size 9 to 14) (size 15 to 20)
#    0.000    1.000    0.000    9.000    0.000    3.000 
#    0.000    0.000    0.000   15.000    0.000    0.000 
#    0.000    0.000    0.000    0.000    0.000    0.000 
#
# Total GULP energy -396720.003853 kJ/mol
# GULP energy per Si atom -12397.500120 kJ/mol
# Density = 2.067886 g / cm^3
# Si number density = 20.726037 Si / 1000 Ang^3
#
#
#
# Elastic Constant Matrix: (Units=GPa)
#
#
# Indices 1 2 3 4 5 6 
#
# 1 83.7234 34.7212 56.1200 0.0000 0.0000 0.0000
# 2 34.7212 133.2897 32.9702 0.0000 0.0000 0.0000
# 3 56.1200 32.9702 108.8837 0.0000 0.0000 0.0000
# 4 0.0000 0.0000 0.0000 30.5673 0.0000 0.0000
# 5 0.0000 0.0000 0.0000 0.0000 30.4638 0.0000
# 6 0.0000 0.0000 0.0000 0.0000 0.0000 51.3239
#
#
#
# Elastic Compliance Matrix: (Units=1/GPa)
#
#
# Indices 1 2 3 4 5 6 
#
# 1 0.019139 -0.002752 -0.009031 0.000000 0.000000 0.000000
# 2 -0.002752 0.008505 -0.001157 0.000000 0.000000 0.000000
# 3 -0.009031 -0.001157 0.014189 0.000000 0.000000 0.000000
# 4 0.000000 0.000000 0.000000 0.032715 0.000000 0.000000
# 5 0.000000 0.000000 0.000000 0.000000 0.032826 0.000000
# 6 0.000000 0.000000 0.000000 0.000000 0.000000 0.019484
#
#
# Mechanical properties :
#
#
# Convention : Reuss Voigt Hill
#
# Bulk Modulus (GPa) = 62.68218 63.72441 63.20329
# Shear Modulus (GPa) = 31.63430 35.94336 33.78883
#
# Velocity S-wave (km/s) = 3.91104 4.16891 4.04203
# Velocity P-wave (km/s) = 7.12066 7.34751 7.23497
#
# Compressibility (1/GPa) = 0.01595350
#
# Stress axis : x y z
#
# Youngs Moduli (GPa) = 52.24973 117.57102 70.47558
#
# Poissons Ratio (x) = 0.32351 0.63648
# Poissons Ratio (y) = 0.14377 0.08156
# Poissons Ratio (z) = 0.47188 0.13606
#
# Static dielectric constant tensor:
#      x y z
#    x 3.757880 0.000000 0.000000 
#    y 0.000000 3.968130 0.000000 
#    z 0.000000 0.000000 3.428220 
# 
# 
# High freq. dielectric constant tensor:
#      x y z
#    x 1.805790 0.000000 0.000000 
#    y 0.000000 1.839490 0.000000 
#    z 0.000000 0.000000 1.786950 
# 
# From -- ./inp_files/36440.got.cif
#   From: 2010.06.25/outbox.cif.g09.slc.cpg/sg52_19_cif.got.tgz:36440.got - 2010.06.26 19:32:48.
