data_PCOD8216138
_publ_section_title
;
Structure prediction by ZEFSAII (Michael W. Deem and Ramdas Pophale) SiO2 
 PCOD8216138
Probable space group: P N N A
;
_chemical_formula_sum "Si O2"
_cell_formula_units_Z 48
_cell_length_a 10.418424
_cell_length_b 20.430464
_cell_length_c 9.427130
_cell_angle_alpha 90.000000
_cell_angle_beta 90.000000
_cell_angle_gamma 90.000000
_cell_volume 2006.595131
_symmetry_space_group_name_H-M "P N N A"
_symmetry_group_IT_number 52
_symmetry_cell_setting 'orthorhombic'
loop_
_space_group_symop_operation_xyz
x,y,z
1/2-x,-y,z
x,1/2-y,1/2-z
1/2-x,1/2+y,1/2-z
-x,-y,-z
1/2+x,y,-z
-x,1/2+y,1/2+z
1/2+x,1/2-y,1/2+z
loop_
_atom_site_type_symbol
_atom_site_label
_atom_site_fract_x
_atom_site_fract_y
_atom_site_fract_z
Si Si1 0.316636 0.117835 0.056238
Si Si2 0.841783 0.238170 0.479923
Si Si3 0.414454 0.888569 0.854896
Si Si4 0.644154 0.250000 0.250000
Si Si5 0.723780 0.362501 0.838883
Si Si6 0.450478 0.750000 0.250000
Si Si7 0.381144 0.540478 0.938030
O O1 0.465831 0.095037 0.038219
O O2 0.279294 0.091280 0.213817
O O3 0.303235 0.196281 0.060956
O O4 0.220856 0.093218 0.932412
O O5 0.732012 0.216948 0.369408
O O6 0.843339 0.177688 0.590319
O O7 0.972768 0.250315 0.397417
O O8 0.434677 0.811052 0.815572
O O9 0.420379 0.932787 0.715562
O O10 0.629677 0.315513 0.752369
O O11 0.642276 0.400875 0.953695
O O12 0.250000 0.500000 0.926044
O O13 0.500000 0.500000 0.000000
#
# Coordination Sequence:
#
# PCOD8216138 Si02
#       7
#     8   8   8   4   8   4   8
#     4  11  24  41  70 111 146 190 233 315 398 457
#     4  10  21  37  62 107 155 185 226 295 395 463
#     4  11  25  47  72 108 155 192 258 312 388 463
#     4   9  20  37  64 106 142 194 226 312 384 436
#     4  12  24  44  70 112 152 195 254 316 382 466
#     4  11  24  37  70 110 154 192 236 320 394 440
#     4  12  30  53  79 107 149 214 271 313 370 461
#
# _framework density 23.921116999999999
#
# number of rings (size 3 to 8) (size 9 to 14) (size 15 to 20)
#    0.000    1.000    3.333    2.000    9.333    1.333 
#    0.000    4.167    0.000    0.000    0.000    0.000 
#    0.000    0.000    0.000    0.000    0.000    0.000 
#
# Total GULP energy -594854.088536 kJ/mol
# GULP energy per Si atom -12392.793511 kJ/mol
# Density = 2.386667 g / cm^3
# Si number density = 23.921117 Si / 1000 Ang^3
#
#
#
# Elastic Constant Matrix: (Units=GPa)
#
#
# Indices 1 2 3 4 5 6 
#
# 1 163.4785 40.9442 67.6056 0.0000 0.0000 0.0000
# 2 40.9442 59.6329 30.7926 0.0000 0.0000 0.0000
# 3 67.6056 30.7926 129.8487 0.0000 0.0000 0.0000
# 4 0.0000 0.0000 0.0000 35.4802 0.0000 0.0000
# 5 0.0000 0.0000 0.0000 0.0000 37.8854 0.0000
# 6 0.0000 0.0000 0.0000 0.0000 0.0000 16.2969
#
#
#
# Elastic Compliance Matrix: (Units=1/GPa)
#
#
# Indices 1 2 3 4 5 6 
#
# 1 0.008590 -0.004089 -0.003502 0.000000 0.000000 0.000000
# 2 -0.004089 0.021056 -0.002864 0.000000 0.000000 0.000000
# 3 -0.003502 -0.002864 0.010204 0.000000 0.000000 0.000000
# 4 0.000000 0.000000 0.000000 0.028185 0.000000 0.000000
# 5 0.000000 0.000000 0.000000 0.000000 0.026395 0.000000
# 6 0.000000 0.000000 0.000000 0.000000 0.000000 0.061361
#
#
# Mechanical properties :
#
#
# Convention : Reuss Voigt Hill
#
# Bulk Modulus (GPa) = 52.80414 70.18276 61.49345
# Shear Modulus (GPa) = 27.32013 32.17368 29.74691
#
# Velocity S-wave (km/s) = 3.38315 3.67139 3.53021
# Velocity P-wave (km/s) = 6.11418 6.88296 6.50993
#
# Compressibility (1/GPa) = 0.01893791
#
# Stress axis : x y z
#
# Youngs Moduli (GPa) = 116.42023 47.49268 98.00018
#
# Poissons Ratio (x) = 0.19420 0.34324
# Poissons Ratio (y) = 0.47605 0.28070
# Poissons Ratio (z) = 0.40776 0.13603
#
# Static dielectric constant tensor:
#      x y z
#    x 4.352100 0.000000 0.000000 
#    y 0.000000 3.933360 0.000000 
#    z 0.000000 0.000000 4.545360 
# 
# 
# High freq. dielectric constant tensor:
#      x y z
#    x 1.961890 0.000000 0.000000 
#    y 0.000000 1.906790 0.000000 
#    z 0.000000 0.000000 1.970870 
# 
# From -- ./inp_files/8891.got.cif
#   From: 2010.06.25/outbox.cif.g09.slc.cpg/sg52_5_cif.got.tgz:8891.got - 2010.06.26 19:32:48.
