data_PCOD8216310
_publ_section_title
;
Structure prediction by ZEFSAII (Michael W. Deem and Ramdas Pophale) SiO2 
 PCOD8216310
Probable space group: P N N A
;
_chemical_formula_sum "Si O2"
_cell_formula_units_Z 36
_cell_length_a 14.619695
_cell_length_b 14.074887
_cell_length_c 7.709813
_cell_angle_alpha 90.000000
_cell_angle_beta 90.000000
_cell_angle_gamma 90.000000
_cell_volume 1586.452501
_symmetry_space_group_name_H-M "P N N A"
_symmetry_group_IT_number 52
_symmetry_cell_setting 'orthorhombic'
loop_
_space_group_symop_operation_xyz
x,y,z
1/2-x,-y,z
x,1/2-y,1/2-z
1/2-x,1/2+y,1/2-z
-x,-y,-z
1/2+x,y,-z
-x,1/2+y,1/2+z
1/2+x,1/2-y,1/2+z
loop_
_atom_site_type_symbol
_atom_site_label
_atom_site_fract_x
_atom_site_fract_y
_atom_site_fract_z
Si Si1 0.520931 0.184314 0.414624
Si Si2 0.733233 0.106616 0.931262
Si Si3 0.386988 0.750000 0.250000
Si Si4 0.342042 0.230112 0.559846
Si Si5 0.192113 0.091688 0.675459
O O1 0.537647 0.250000 0.250000
O O2 0.550425 0.242025 0.582830
O O3 0.412676 0.164580 0.447742
O O4 0.586366 0.091152 0.392734
O O5 0.674502 0.156102 0.780465
O O6 0.750000 0.000000 0.863316
O O7 0.825712 0.169604 0.959646
O O8 0.684134 0.101623 0.117965
O O9 0.384023 0.250000 0.750000
O O10 0.243326 0.179983 0.582979
O O11 0.250000 0.000000 0.621501
#
# Coordination Sequence:
#
# PCOD8216310 Si02
#       5
#     8   8   4   8   8
#     4  12  23  40  67  96 132 175 218 275 328 386
#     4  10  22  43  69  96 132 175 220 276 338 394
#     4  12  22  42  68  94 126 178 214 276 322 402
#     4  10  21  40  66  96 131 175 223 272 332 394
#     4  10  21  42  68  96 134 175 218 274 331 392
#
# _framework density 22.692138
#
# number of rings (size 3 to 8) (size 9 to 14) (size 15 to 20)
#    0.000    1.333    5.556    0.667    1.556    1.778 
#    0.000    3.333    0.000    0.000    0.000    0.000 
#    0.000    0.000    0.000    0.000    0.000    0.000 
#
# Total GULP energy -446079.326764 kJ/mol
# GULP energy per Si atom -12391.092410 kJ/mol
# Density = 2.264049 g / cm^3
# Si number density = 22.692138 Si / 1000 Ang^3
#
#
#
# Elastic Constant Matrix: (Units=GPa)
#
#
# Indices 1 2 3 4 5 6 
#
# 1 86.2933 12.8892 20.0546 0.0000 0.0000 0.0000
# 2 12.8892 99.5625 12.7301 0.0000 0.0000 0.0000
# 3 20.0546 12.7301 90.5065 0.0000 0.0000 0.0000
# 4 0.0000 0.0000 0.0000 30.2826 0.0000 0.0000
# 5 0.0000 0.0000 0.0000 0.0000 20.0065 0.0000
# 6 0.0000 0.0000 0.0000 0.0000 0.0000 26.9029
#
#
#
# Elastic Compliance Matrix: (Units=1/GPa)
#
#
# Indices 1 2 3 4 5 6 
#
# 1 0.012374 -0.001274 -0.002563 0.000000 0.000000 0.000000
# 2 -0.001274 0.010359 -0.001175 0.000000 0.000000 0.000000
# 3 -0.002563 -0.001175 0.011782 0.000000 0.000000 0.000000
# 4 0.000000 0.000000 0.000000 0.033022 0.000000 0.000000
# 5 0.000000 0.000000 0.000000 0.000000 0.049984 0.000000
# 6 0.000000 0.000000 0.000000 0.000000 0.000000 0.037171
#
#
# Mechanical properties :
#
#
# Convention : Reuss Voigt Hill
#
# Bulk Modulus (GPa) = 40.82955 40.85668 40.84311
# Shear Modulus (GPa) = 28.92189 30.81762 29.86975
#
# Velocity S-wave (km/s) = 3.57393 3.68920 3.63203
# Velocity P-wave (km/s) = 5.92136 6.01588 5.96881
#
# Compressibility (1/GPa) = 0.02449207
#
# Stress axis : x y z
#
# Youngs Moduli (GPa) = 80.81272 96.53339 84.87519
#
# Poissons Ratio (x) = 0.12301 0.21751
# Poissons Ratio (y) = 0.10298 0.09970
# Poissons Ratio (z) = 0.20710 0.11340
#
# Static dielectric constant tensor:
#      x y z
#    x 4.067460 0.000000 0.000000 
#    y 0.000000 3.901010 0.000000 
#    z 0.000000 0.000000 4.203630 
# 
# 
# High freq. dielectric constant tensor:
#      x y z
#    x 1.887080 0.000000 0.000000 
#    y 0.000000 1.860500 0.000000 
#    z 0.000000 0.000000 1.913520 
# 
# From -- ./inp_files/9887.got.cif
#   From: 2010.06.25/outbox.cif.g09.slc.cpg/sg52_5_cif.got.tgz:9887.got - 2010.06.26 19:32:48.
