data_PCOD8216419
_publ_section_title
;
Structure prediction by ZEFSAII (Michael W. Deem and Ramdas Pophale) SiO2 
 PCOD8216419
Probable space group: P N N A
;
_chemical_formula_sum "Si O2"
_cell_formula_units_Z 60
_cell_length_a 11.141865
_cell_length_b 28.830609
_cell_length_c 8.864343
_cell_angle_alpha 90.000000
_cell_angle_beta 90.000000
_cell_angle_gamma 90.000000
_cell_volume 2847.464122
_symmetry_space_group_name_H-M "P N N A"
_symmetry_group_IT_number 52
_symmetry_cell_setting 'orthorhombic'
loop_
_space_group_symop_operation_xyz
x,y,z
1/2-x,-y,z
x,1/2-y,1/2-z
1/2-x,1/2+y,1/2-z
-x,-y,-z
1/2+x,y,-z
-x,1/2+y,1/2+z
1/2+x,1/2-y,1/2+z
loop_
_atom_site_type_symbol
_atom_site_label
_atom_site_fract_x
_atom_site_fract_y
_atom_site_fract_z
Si Si1 0.168663 0.650313 0.698999
Si Si2 0.250000 0.500000 0.761265
Si Si3 0.255264 0.086726 0.260324
Si Si4 0.037945 0.368113 0.063904
Si Si5 0.406669 0.041692 0.491977
Si Si6 0.051013 0.861385 0.098158
Si Si7 0.890237 0.802104 0.295438
Si Si8 0.657235 0.425633 0.436293
O O1 0.247447 0.690281 0.778583
O O2 0.252393 0.605969 0.663439
O O3 0.056600 0.643037 0.807377
O O4 0.113051 0.665756 0.539799
O O5 0.345756 0.526030 0.653987
O O6 0.323513 0.462546 0.860346
O O7 0.160740 0.113692 0.364114
O O8 0.315626 0.043305 0.349447
O O9 0.351097 0.126740 0.223509
O O10 0.202821 0.066313 0.106034
O O11 0.063453 0.323157 0.956302
O O12 0.981616 0.410951 0.972607
O O13 0.500000 0.000000 0.500000
O O14 0.950284 0.828299 0.158807
O O15 0.979367 0.907838 0.047940
O O16 0.923694 0.750000 0.250000
#
# Coordination Sequence:
#
# PCOD8216419 Si02
#       8
#     8   4   8   8   8   8   8   8
#     4  10  22  44  69  95 131 180 223 278 348 417
#     4  12  24  38  62 102 140 176 236 294 330 404
#     4  11  23  42  68  98 133 192 232 282 351 426
#     4  12  23  44  71  99 137 184 230 282 361 408
#     4  12  25  40  62 100 142 186 235 289 337 419
#     4  10  21  45  70  95 131 178 233 278 352 415
#     4  11  26  44  71 103 136 172 226 291 353 425
#     4  10  22  41  67  95 138 183 233 284 343 404
#
# _framework density 21.071380999999999
#
# number of rings (size 3 to 8) (size 9 to 14) (size 15 to 20)
#    0.000    1.067    4.000    2.400    3.733    2.667 
#    0.000    2.667    0.000    0.000    0.000    0.000 
#    0.000    0.000    0.000    0.000    0.000    0.000 
#
# Total GULP energy -743486.687707 kJ/mol
# GULP energy per Si atom -12391.444795 kJ/mol
# Density = 2.102342 g / cm^3
# Si number density = 21.071381 Si / 1000 Ang^3
#
#
#
# Elastic Constant Matrix: (Units=GPa)
#
#
# Indices 1 2 3 4 5 6 
#
# 1 106.9244 21.6812 44.1348 0.0000 0.0000 0.0000
# 2 21.6812 67.0100 54.2128 0.0000 0.0000 0.0000
# 3 44.1348 54.2128 117.3668 0.0000 0.0000 0.0000
# 4 0.0000 0.0000 0.0000 31.2252 0.0000 0.0000
# 5 0.0000 0.0000 0.0000 0.0000 31.4342 0.0000
# 6 0.0000 0.0000 0.0000 0.0000 0.0000 18.2060
#
#
#
# Elastic Compliance Matrix: (Units=1/GPa)
#
#
# Indices 1 2 3 4 5 6 
#
# 1 0.011076 -0.000342 -0.004007 0.000000 0.000000 0.000000
# 2 -0.000342 0.023838 -0.010882 0.000000 0.000000 0.000000
# 3 -0.004007 -0.010882 0.015054 0.000000 0.000000 0.000000
# 4 0.000000 0.000000 0.000000 0.032025 0.000000 0.000000
# 5 0.000000 0.000000 0.000000 0.000000 0.031813 0.000000
# 6 0.000000 0.000000 0.000000 0.000000 0.000000 0.054927
#
#
# Mechanical properties :
#
#
# Convention : Reuss Voigt Hill
#
# Bulk Modulus (GPa) = 51.26914 59.03988 55.15451
# Shear Modulus (GPa) = 24.30767 27.59122 25.94945
#
# Velocity S-wave (km/s) = 3.40013 3.62251 3.51308
# Velocity P-wave (km/s) = 6.30861 6.75104 6.53357
#
# Compressibility (1/GPa) = 0.01950491
#
# Stress axis : x y z
#
# Youngs Moduli (GPa) = 90.28791 41.95000 66.42833
#
# Poissons Ratio (x) = 0.01434 0.26618
# Poissons Ratio (y) = 0.03086 0.72290
# Poissons Ratio (z) = 0.36179 0.45652
#
# Static dielectric constant tensor:
#      x y z
#    x 4.179280 0.000000 0.000000 
#    y 0.000000 7.188870 0.000000 
#    z 0.000000 0.000000 3.923150 
# 
# 
# High freq. dielectric constant tensor:
#      x y z
#    x 1.847450 0.000000 0.000000 
#    y 0.000000 1.785980 0.000000 
#    z 0.000000 0.000000 1.840200 
# 
# From -- ./inp_files/9032.got.cif
#   From: 2010.06.25/outbox.cif.g09.slc.cpg/sg52_5_cif.got.tgz:9032.got - 2010.06.26 19:32:48.
