data_PCOD8216923
_publ_section_title
;
Structure prediction by ZEFSAII (Michael W. Deem and Ramdas Pophale) SiO2 
 PCOD8216923
Probable space group: P N N A
;
_chemical_formula_sum "Si O2"
_cell_formula_units_Z 32
_cell_length_a 11.887698
_cell_length_b 16.165330
_cell_length_c 7.703568
_cell_angle_alpha 90.000000
_cell_angle_beta 90.000000
_cell_angle_gamma 90.000000
_cell_volume 1480.383578
_symmetry_space_group_name_H-M "P N N A"
_symmetry_group_IT_number 52
_symmetry_cell_setting 'orthorhombic'
loop_
_space_group_symop_operation_xyz
x,y,z
1/2-x,-y,z
x,1/2-y,1/2-z
1/2-x,1/2+y,1/2-z
-x,-y,-z
1/2+x,y,-z
-x,1/2+y,1/2+z
1/2+x,1/2-y,1/2+z
loop_
_atom_site_type_symbol
_atom_site_label
_atom_site_fract_x
_atom_site_fract_y
_atom_site_fract_z
Si Si1 0.268759 0.750000 0.250000
Si Si2 0.381260 0.121045 0.082474
Si Si3 0.057522 0.259548 0.946813
Si Si4 0.534476 0.437733 0.144171
Si Si5 0.250000 0.500000 0.672964
O O1 0.194921 0.832454 0.225800
O O2 0.339308 0.755473 0.424251
O O3 0.463933 0.191067 0.998806
O O4 0.455943 0.053655 0.185426
O O5 0.309618 0.071570 0.940637
O O6 0.102844 0.250000 0.750000
O O7 0.008751 0.351408 0.951946
O O8 0.662388 0.452168 0.204647
O O9 0.500000 0.500000 0.000000
#
# Coordination Sequence:
#
# PCOD8216923 Si02
#       5
#     4   8   8   8   4
#     4  12  24  44  80  96 142 198 228 306 362 430
#     4  11  24  49  68 108 143 185 247 295 363 445
#     4  10  24  47  69 105 143 186 250 292 361 446
#     4  11  26  45  67 107 143 185 243 302 356 447
#     4  12  28  42  80 102 150 194 234 316 378 416
#
# _framework density 21.616019000000001
#
# number of rings (size 3 to 8) (size 9 to 14) (size 15 to 20)
#    0.000    1.000    3.750    3.750   10.500    0.000 
#    2.250    0.000    0.000    0.000    0.000    0.000 
#    0.000    0.000    0.000    0.000    0.000    0.000 
#
# Total GULP energy -396649.341956 kJ/mol
# GULP energy per Si atom -12395.291936 kJ/mol
# Density = 2.156682 g / cm^3
# Si number density = 21.616019 Si / 1000 Ang^3
#
#
#
# Elastic Constant Matrix: (Units=GPa)
#
#
# Indices 1 2 3 4 5 6 
#
# 1 136.4122 43.2933 66.3539 0.0000 0.0000 0.0000
# 2 43.2933 120.0512 59.7102 0.0000 0.0000 0.0000
# 3 66.3539 59.7102 85.2128 0.0000 0.0000 0.0000
# 4 0.0000 0.0000 0.0000 34.7763 0.0000 0.0000
# 5 0.0000 0.0000 0.0000 0.0000 102.5528 0.0000
# 6 0.0000 0.0000 0.0000 0.0000 0.0000 34.2290
#
#
#
# Elastic Compliance Matrix: (Units=1/GPa)
#
#
# Indices 1 2 3 4 5 6 
#
# 1 0.011819 0.000484 -0.009542 0.000000 0.000000 0.000000
# 2 0.000484 0.012806 -0.009350 0.000000 0.000000 0.000000
# 3 -0.009542 -0.009350 0.025717 0.000000 0.000000 0.000000
# 4 0.000000 0.000000 0.000000 0.028755 0.000000 0.000000
# 5 0.000000 0.000000 0.000000 0.000000 0.009751 0.000000
# 6 0.000000 0.000000 0.000000 0.000000 0.000000 0.029215
#
#
# Mechanical properties :
#
#
# Convention : Reuss Voigt Hill
#
# Bulk Modulus (GPa) = 73.93550 75.59900 74.76725
# Shear Modulus (GPa) = 31.37007 45.79955 38.58481
#
# Velocity S-wave (km/s) = 3.81365 4.60801 4.22952
# Velocity P-wave (km/s) = 7.32599 7.95998 7.64956
#
# Compressibility (1/GPa) = 0.01352530
#
# Stress axis : x y z
#
# Youngs Moduli (GPa) = 84.61232 78.09011 38.88437
#
# Poissons Ratio (x) = -0.03779 0.37104
# Poissons Ratio (y) = -0.04094 0.36357
# Poissons Ratio (z) = 0.80737 0.73014
#
# Static dielectric constant tensor:
#      x y z
#    x 4.495030 0.000000 0.000000 
#    y 0.000000 -1.398440 0.000000 
#    z 0.000000 0.000000 3.717890 
# 
# 
# High freq. dielectric constant tensor:
#      x y z
#    x 1.858320 0.000000 0.000000 
#    y 0.000000 1.863240 0.000000 
#    z 0.000000 0.000000 1.843780 
# 
# From -- ./inp_files/8249.got.cif
#   From: 2010.06.25/outbox.cif.g09.slc.cpg/sg52_5_cif.got.tgz:8249.got - 2010.06.26 19:32:48.
