data_PCOD8216557
_publ_section_title
;
Structure prediction by ZEFSAII (Michael W. Deem and Ramdas Pophale) SiO2 
 PCOD8216557
Probable space group: P N N A
;
_chemical_formula_sum "Si O2"
_cell_formula_units_Z 32
_cell_length_a 21.037943
_cell_length_b 7.915510
_cell_length_c 8.439308
_cell_angle_alpha 90.000000
_cell_angle_beta 90.000000
_cell_angle_gamma 90.000000
_cell_volume 1405.364611
_symmetry_space_group_name_H-M "P N N A"
_symmetry_group_IT_number 52
_symmetry_cell_setting 'orthorhombic'
loop_
_space_group_symop_operation_xyz
x,y,z
1/2-x,-y,z
x,1/2-y,1/2-z
1/2-x,1/2+y,1/2-z
-x,-y,-z
1/2+x,y,-z
-x,1/2+y,1/2+z
1/2+x,1/2-y,1/2+z
loop_
_atom_site_type_symbol
_atom_site_label
_atom_site_fract_x
_atom_site_fract_y
_atom_site_fract_z
Si Si1 0.750000 0.000000 0.468541
Si Si2 0.185548 0.750000 0.750000
Si Si3 0.463266 0.440964 0.266211
Si Si4 0.129360 0.342021 0.089920
Si Si5 0.904539 0.964029 0.100681
O O1 0.734227 0.833526 0.370178
O O2 0.812919 0.970879 0.570503
O O3 0.144547 0.604400 0.662150
O O4 0.441616 0.250000 0.250000
O O5 0.436347 0.553355 0.119958
O O6 0.539678 0.459529 0.268108
O O7 0.433256 0.499560 0.429700
O O8 0.148022 0.250000 0.250000
O O9 0.124863 0.223520 0.931692
#
# Coordination Sequence:
#
# PCOD8216557 Si02
#       5
#     4   4   8   8   8
#     4  12  26  44  68  92 134 178 220 266 320 404
#     4  12  26  42  66  96 130 176 222 270 334 402
#     4  10  22  40  67  95 134 169 216 274 335 393
#     4  10  24  44  66  96 130 174 224 272 330 393
#     4  10  24  40  64  99 132 168 217 274 336 395
#
# _framework density 22.769891999999999
#
# number of rings (size 3 to 8) (size 9 to 14) (size 15 to 20)
#    0.000    1.500    0.000    3.000   12.250    6.000 
#    0.000    0.000    0.000    0.000    0.000    0.000 
#    0.000    0.000    0.000    0.000    0.000    0.000 
#
# Total GULP energy -396629.963514 kJ/mol
# GULP energy per Si atom -12394.686360 kJ/mol
# Density = 2.271807 g / cm^3
# Si number density = 22.769892 Si / 1000 Ang^3
#
#
#
# Elastic Constant Matrix: (Units=GPa)
#
#
# Indices 1 2 3 4 5 6 
#
# 1 129.3946 49.4846 42.0456 0.0000 0.0000 0.0000
# 2 49.4846 135.4874 35.8666 0.0000 0.0000 0.0000
# 3 42.0456 35.8666 62.5970 0.0000 0.0000 0.0000
# 4 0.0000 0.0000 0.0000 48.1407 0.0000 0.0000
# 5 0.0000 0.0000 0.0000 0.0000 -7.6882 0.0000
# 6 0.0000 0.0000 0.0000 0.0000 0.0000 60.3406
#
#
#
# Elastic Compliance Matrix: (Units=1/GPa)
#
#
# Indices 1 2 3 4 5 6 
#
# 1 0.010467 -0.002312 -0.005705 0.000000 0.000000 0.000000
# 2 -0.002312 0.009211 -0.003725 0.000000 0.000000 0.000000
# 3 -0.005705 -0.003725 0.021942 0.000000 0.000000 0.000000
# 4 0.000000 0.000000 0.000000 0.020772 0.000000 0.000000
# 5 0.000000 0.000000 0.000000 0.000000 -0.130070 0.000000
# 6 0.000000 0.000000 0.000000 0.000000 0.000000 0.016573
#
#
# Mechanical properties :
#
#
# Convention : Reuss Voigt Hill
#
# Bulk Modulus (GPa) = 55.14296 64.69696 59.91996
# Shear Modulus (GPa) = -231.74389 33.49744 -99.12322
#
# Velocity S-wave (km/s) = -10.09938 3.83969 -6.60508
# Velocity P-wave (km/s) = 10.57007 6.93777 5.63887
#
# Compressibility (1/GPa) = 0.01813468
#
# Stress axis : x y z
#
# Youngs Moduli (GPa) = 95.54282 108.56192 45.57570
#
# Poissons Ratio (x) = 0.25104 0.26002
# Poissons Ratio (y) = 0.22093 0.16975
# Poissons Ratio (z) = 0.54510 0.40436
#
# Static dielectric constant tensor:
#      x y z
#    x 4.146560 0.000000 0.000000 
#    y 0.000000 4.575370 0.000000 
#    z 0.000000 0.000000 4.151680 
# 
# 
# High freq. dielectric constant tensor:
#      x y z
#    x 1.902100 0.000000 0.000000 
#    y 0.000000 1.914590 0.000000 
#    z 0.000000 0.000000 1.897410 
# 
# From -- ./inp_files/12840.got.cif
#   From: 2010.06.25/outbox.cif.g09.slc.cpg/sg52_7_cif.got.tgz:12840.got - 2010.06.26 19:32:48.
