data_PCOD8216285
_publ_section_title
;
Structure prediction by ZEFSAII (Michael W. Deem and Ramdas Pophale) SiO2 
 PCOD8216285
Probable space group: P N N A
;
_chemical_formula_sum "Si O2"
_cell_formula_units_Z 40
_cell_length_a 10.049600
_cell_length_b 28.798810
_cell_length_c 6.375959
_cell_angle_alpha 90.000000
_cell_angle_beta 90.000000
_cell_angle_gamma 90.000000
_cell_volume 1845.307872
_symmetry_space_group_name_H-M "P N N A"
_symmetry_group_IT_number 52
_symmetry_cell_setting 'orthorhombic'
loop_
_space_group_symop_operation_xyz
x,y,z
1/2-x,-y,z
x,1/2-y,1/2-z
1/2-x,1/2+y,1/2-z
-x,-y,-z
1/2+x,y,-z
-x,1/2+y,1/2+z
1/2+x,1/2-y,1/2+z
loop_
_atom_site_type_symbol
_atom_site_label
_atom_site_fract_x
_atom_site_fract_y
_atom_site_fract_z
Si Si1 0.300473 0.624746 0.510877
Si Si2 0.071965 0.332534 0.130434
Si Si3 0.294478 0.200035 0.672906
Si Si4 0.705217 0.548015 0.794059
Si Si5 0.573827 0.076391 0.387780
O O1 0.398469 0.656563 0.372972
O O2 0.213507 0.659739 0.651387
O O3 0.210757 0.592477 0.359515
O O4 0.384808 0.589974 0.653242
O O5 0.949543 0.296691 0.108173
O O6 0.204536 0.311811 0.026893
O O7 0.024196 0.378717 0.013509
O O8 0.245538 0.250000 0.750000
O O9 0.750000 0.500000 0.680021
O O10 0.553617 0.542565 0.873808
O O11 0.802289 0.553017 0.994313
#
# Coordination Sequence:
#
# PCOD8216285 Si02
#       5
#     8   8   8   8   8
#     4  10  22  40  66  91 124 168 210 260 319 366
#     4  10  22  43  62  91 124 162 208 257 315 373
#     4  11  25  41  65  93 125 164 210 263 317 378
#     4  11  23  39  63  95 128 167 214 260 310 376
#     4  10  21  40  63  89 126 166 205 259 312 368
#
# _framework density 21.676597000000001
#
# number of rings (size 3 to 8) (size 9 to 14) (size 15 to 20)
#    0.000    1.600    0.000    5.400    2.800    4.800 
#    0.000    0.000    0.000    0.000    0.000    0.000 
#    0.000    0.000    0.000    0.000    0.000    0.000 
#
# Total GULP energy -496055.283034 kJ/mol
# GULP energy per Si atom -12401.382076 kJ/mol
# Density = 2.162726 g / cm^3
# Si number density = 21.676597 Si / 1000 Ang^3
#
#
#
# Elastic Constant Matrix: (Units=GPa)
#
#
# Indices 1 2 3 4 5 6 
#
# 1 142.7011 26.0393 50.3136 0.0000 0.0000 0.0000
# 2 26.0393 86.1104 20.7177 0.0000 0.0000 0.0000
# 3 50.3136 20.7177 109.1413 0.0000 0.0000 0.0000
# 4 0.0000 0.0000 0.0000 20.6181 0.0000 0.0000
# 5 0.0000 0.0000 0.0000 0.0000 13.0392 0.0000
# 6 0.0000 0.0000 0.0000 0.0000 0.0000 25.5537
#
#
#
# Elastic Compliance Matrix: (Units=1/GPa)
#
#
# Indices 1 2 3 4 5 6 
#
# 1 0.008606 -0.001727 -0.003640 0.000000 0.000000 0.000000
# 2 -0.001727 0.012515 -0.001580 0.000000 0.000000 0.000000
# 3 -0.003640 -0.001580 0.011140 0.000000 0.000000 0.000000
# 4 0.000000 0.000000 0.000000 0.048501 0.000000 0.000000
# 5 0.000000 0.000000 0.000000 0.000000 0.076692 0.000000
# 6 0.000000 0.000000 0.000000 0.000000 0.000000 0.039133
#
#
# Mechanical properties :
#
#
# Convention : Reuss Voigt Hill
#
# Bulk Modulus (GPa) = 54.43841 59.12156 56.77999
# Shear Modulus (GPa) = 23.08376 27.90100 25.49238
#
# Velocity S-wave (km/s) = 3.26685 3.59158 3.43305
# Velocity P-wave (km/s) = 6.27679 6.67329 6.47808
#
# Compressibility (1/GPa) = 0.01836938
#
# Stress axis : x y z
#
# Youngs Moduli (GPa) = 116.19840 79.90272 89.76578
#
# Poissons Ratio (x) = 0.13797 0.32671
# Poissons Ratio (y) = 0.20065 0.14180
# Poissons Ratio (z) = 0.42291 0.12622
#
# Static dielectric constant tensor:
#      x y z
#    x 3.725100 0.000000 0.000000 
#    y 0.000000 3.980670 0.000000 
#    z 0.000000 0.000000 3.916990 
# 
# 
# High freq. dielectric constant tensor:
#      x y z
#    x 1.856980 0.000000 0.000000 
#    y 0.000000 1.846870 0.000000 
#    z 0.000000 0.000000 1.848510 
# 
# From -- ./inp_files/1494.got.cif
#   From: 2010.06.25/outbox.cif.g09.slc.cpg/sg52_1_cif.got.tgz:1494.got - 2010.06.26 19:32:48.
