data_PCOD8216535
_publ_section_title
;
Structure prediction by ZEFSAII (Michael W. Deem and Ramdas Pophale) SiO2 
 PCOD8216535
Probable space group: P N N A
;
_chemical_formula_sum "Si O2"
_cell_formula_units_Z 32
_cell_length_a 10.474668
_cell_length_b 8.507766
_cell_length_c 16.070831
_cell_angle_alpha 90.000000
_cell_angle_beta 90.000000
_cell_angle_gamma 90.000000
_cell_volume 1432.168565
_symmetry_space_group_name_H-M "P N N A"
_symmetry_group_IT_number 52
_symmetry_cell_setting 'orthorhombic'
loop_
_space_group_symop_operation_xyz
x,y,z
1/2-x,-y,z
x,1/2-y,1/2-z
1/2-x,1/2+y,1/2-z
-x,-y,-z
1/2+x,y,-z
-x,1/2+y,1/2+z
1/2+x,1/2-y,1/2+z
loop_
_atom_site_type_symbol
_atom_site_label
_atom_site_fract_x
_atom_site_fract_y
_atom_site_fract_z
Si Si1 0.196865 0.824843 0.662549
Si Si2 0.580797 0.328165 0.407662
Si Si3 0.070927 0.750000 0.250000
Si Si4 0.250000 0.000000 0.182760
Si Si5 0.974475 0.836618 0.906183
O O1 0.232314 0.750000 0.750000
O O2 0.271348 0.722105 0.592993
O O3 0.044553 0.806424 0.643470
O O4 0.250000 0.000000 0.659389
O O5 0.511229 0.229253 0.334216
O O6 0.524754 0.285740 0.497742
O O7 0.564051 0.512353 0.390385
O O8 0.156935 0.594957 0.257164
O O9 0.168685 0.122376 0.125469
#
# Coordination Sequence:
#
# PCOD8216535 Si02
#       5
#     8   8   4   4   8
#     4  12  26  43  69 100 135 181 232 292 345 411
#     4  10  22  43  67  97 131 179 225 285 343 415
#     4  10  22  40  62  98 132 178 224 286 336 408
#     4  10  24  42  68 100 132 184 230 282 348 420
#     4  10  24  42  70  97 134 180 230 279 351 418
#
# _framework density 22.34374
#
# number of rings (size 3 to 8) (size 9 to 14) (size 15 to 20)
#    0.000    1.500    1.250    2.250   15.750    1.000 
#    2.250    0.000    0.000    0.000    0.000    0.000 
#    0.000    0.000    0.000    0.000    0.000    0.000 
#
# Total GULP energy -396689.155999 kJ/mol
# GULP energy per Si atom -12396.536125 kJ/mol
# Density = 2.229288 g / cm^3
# Si number density = 22.343740 Si / 1000 Ang^3
#
#
#
# Elastic Constant Matrix: (Units=GPa)
#
#
# Indices 1 2 3 4 5 6 
#
# 1 125.9921 50.2637 51.0397 0.0000 0.0000 0.0000
# 2 50.2637 63.1437 57.4112 0.0000 0.0000 0.0000
# 3 51.0397 57.4112 131.8912 0.0000 0.0000 0.0000
# 4 0.0000 0.0000 0.0000 33.6359 0.0000 0.0000
# 5 0.0000 0.0000 0.0000 0.0000 23.7883 0.0000
# 6 0.0000 0.0000 0.0000 0.0000 0.0000 55.6512
#
#
#
# Elastic Compliance Matrix: (Units=1/GPa)
#
#
# Indices 1 2 3 4 5 6 
#
# 1 0.011679 -0.008585 -0.000782 0.000000 0.000000 0.000000
# 2 -0.008585 0.032521 -0.010834 0.000000 0.000000 0.000000
# 3 -0.000782 -0.010834 0.012601 0.000000 0.000000 0.000000
# 4 0.000000 0.000000 0.000000 0.029730 0.000000 0.000000
# 5 0.000000 0.000000 0.000000 0.000000 0.042037 0.000000
# 6 0.000000 0.000000 0.000000 0.000000 0.000000 0.017969
#
#
# Mechanical properties :
#
#
# Convention : Reuss Voigt Hill
#
# Bulk Modulus (GPa) = 60.98415 70.93958 65.96186
# Shear Modulus (GPa) = 25.98657 33.43591 29.71124
#
# Velocity S-wave (km/s) = 3.41403 3.87257 3.65051
# Velocity P-wave (km/s) = 6.54933 7.19819 6.88141
#
# Compressibility (1/GPa) = 0.01639770
#
# Stress axis : x y z
#
# Youngs Moduli (GPa) = 85.62341 30.74902 79.36048
#
# Poissons Ratio (x) = 0.26399 0.06210
# Poissons Ratio (y) = 0.73511 0.85979
# Poissons Ratio (z) = 0.06700 0.33313
#
# Static dielectric constant tensor:
#      x y z
#    x 4.254740 0.000000 0.000000 
#    y 0.000000 3.804110 0.000000 
#    z 0.000000 0.000000 4.207610 
# 
# 
# High freq. dielectric constant tensor:
#      x y z
#    x 1.893990 0.000000 0.000000 
#    y 0.000000 1.860200 0.000000 
#    z 0.000000 0.000000 1.878860 
# 
# From -- ./inp_files/25532.got.cif
#   From: 2010.06.25/outbox.cif.g09.slc.cpg/sg52_13_cif.got.tgz:25532.got - 2010.06.26 19:32:48.
