data_PCOD8216854
_publ_section_title
;
Structure prediction by ZEFSAII (Michael W. Deem and Ramdas Pophale) SiO2 
 PCOD8216854
Probable space group: P N N A
;
_chemical_formula_sum "Si O2"
_cell_formula_units_Z 28
_cell_length_a 11.150654
_cell_length_b 4.936444
_cell_length_c 24.059827
_cell_angle_alpha 90.000000
_cell_angle_beta 90.000000
_cell_angle_gamma 90.000000
_cell_volume 1324.363049
_symmetry_space_group_name_H-M "P N N A"
_symmetry_group_IT_number 52
_symmetry_cell_setting 'orthorhombic'
loop_
_space_group_symop_operation_xyz
x,y,z
1/2-x,-y,z
x,1/2-y,1/2-z
1/2-x,1/2+y,1/2-z
-x,-y,-z
1/2+x,y,-z
-x,1/2+y,1/2+z
1/2+x,1/2-y,1/2+z
loop_
_atom_site_type_symbol
_atom_site_label
_atom_site_fract_x
_atom_site_fract_y
_atom_site_fract_z
Si Si1 0.750000 0.000000 0.016064
Si Si2 0.618833 0.516557 0.377785
Si Si3 0.829029 0.250000 0.750000
Si Si4 0.750000 0.000000 0.561019
Si Si5 0.965145 0.477312 0.854818
O O1 0.717049 0.248134 0.977127
O O2 0.637692 0.919718 0.056273
O O3 0.750000 0.500000 0.347802
O O4 0.524064 0.723890 0.350292
O O5 0.571747 0.214813 0.372552
O O6 0.750000 0.500000 0.724901
O O7 0.911073 0.388334 0.796215
O O8 0.636226 0.949722 0.599228
#
# Coordination Sequence:
#
# PCOD8216854 Si02
#       5
#     4   8   4   4   8
#     4  10  24  42  63 102 141 176 228 262 340 392
#     4  10  24  45  65  97 140 182 218 277 322 405
#     4  12  26  46  70 104 134 172 222 294 352 402
#     4  12  24  38  67 108 129 184 220 274 344 400
#     4  12  24  43  71  97 139 171 229 278 342 394
#
# _framework density 21.142237999999999
#
# number of rings (size 3 to 8) (size 9 to 14) (size 15 to 20)
#    0.857    0.000    1.429    6.000    2.000    6.857 
#    0.000    2.857    0.000    0.000    0.000    0.000 
#    0.000    0.000    0.000    0.000    0.000    0.000 
#
# Total GULP energy -347100.472893 kJ/mol
# GULP energy per Si atom -12396.445460 kJ/mol
# Density = 2.109412 g / cm^3
# Si number density = 21.142238 Si / 1000 Ang^3
#
#
#
# Elastic Constant Matrix: (Units=GPa)
#
#
# Indices 1 2 3 4 5 6 
#
# 1 114.1362 26.1142 31.8317 0.0000 0.0000 0.0000
# 2 26.1142 103.7270 26.9818 0.0000 0.0000 0.0000
# 3 31.8317 26.9818 114.4054 0.0000 0.0000 0.0000
# 4 0.0000 0.0000 0.0000 36.0478 0.0000 0.0000
# 5 0.0000 0.0000 0.0000 0.0000 -35.3261 0.0000
# 6 0.0000 0.0000 0.0000 0.0000 0.0000 46.8756
#
#
#
# Elastic Compliance Matrix: (Units=1/GPa)
#
#
# Indices 1 2 3 4 5 6 
#
# 1 0.009831 -0.001879 -0.002292 0.000000 0.000000 0.000000
# 2 -0.001879 0.010630 -0.001984 0.000000 0.000000 0.000000
# 3 -0.002292 -0.001984 0.009847 0.000000 0.000000 0.000000
# 4 0.000000 0.000000 0.000000 0.027741 0.000000 0.000000
# 5 0.000000 0.000000 0.000000 0.000000 -0.028308 0.000000
# 6 0.000000 0.000000 0.000000 0.000000 0.000000 0.021333
#
#
# Mechanical properties :
#
#
# Convention : Reuss Voigt Hill
#
# Bulk Modulus (GPa) = 55.56550 55.79156 55.67853
# Shear Modulus (GPa) = 72.06437 26.00885 49.03661
#
# Velocity S-wave (km/s) = 5.84461 3.51120 4.82121
# Velocity P-wave (km/s) = 8.47849 6.54859 7.57525
#
# Compressibility (1/GPa) = 0.01799678
#
# Stress axis : x y z
#
# Youngs Moduli (GPa) = 101.72359 94.07500 101.55818
#
# Poissons Ratio (x) = 0.17674 0.23278
# Poissons Ratio (y) = 0.19111 0.20152
# Poissons Ratio (z) = 0.23316 0.18667
#
# Static dielectric constant tensor:
#      x y z
#    x 3.839020 0.000000 0.000000 
#    y 0.000000 3.820730 0.000000 
#    z 0.000000 0.000000 3.679580 
# 
# 
# High freq. dielectric constant tensor:
#      x y z
#    x 1.837310 0.000000 0.000000 
#    y 0.000000 1.847020 0.000000 
#    z 0.000000 0.000000 1.817710 
# 
# From -- ./inp_files/41982.got.cif
#   From: 2010.06.25/outbox.cif.g09.slc.cpg/sg52_21_cif.got.tgz:41982.got - 2010.06.26 19:32:48.
