data_PCOD8216166
_publ_section_title
;
Structure prediction by ZEFSAII (Michael W. Deem and Ramdas Pophale) SiO2 
 PCOD8216166
Probable space group: P N N A
;
_chemical_formula_sum "Si O2"
_cell_formula_units_Z 40
_cell_length_a 16.136985
_cell_length_b 11.126442
_cell_length_c 9.716912
_cell_angle_alpha 90.000000
_cell_angle_beta 90.000000
_cell_angle_gamma 90.000000
_cell_volume 1744.644611
_symmetry_space_group_name_H-M "P N N A"
_symmetry_group_IT_number 52
_symmetry_cell_setting 'orthorhombic'
loop_
_space_group_symop_operation_xyz
x,y,z
1/2-x,-y,z
x,1/2-y,1/2-z
1/2-x,1/2+y,1/2-z
-x,-y,-z
1/2+x,y,-z
-x,1/2+y,1/2+z
1/2+x,1/2-y,1/2+z
loop_
_atom_site_type_symbol
_atom_site_label
_atom_site_fract_x
_atom_site_fract_y
_atom_site_fract_z
Si Si1 0.579729 0.612525 0.271418
Si Si2 0.583287 0.003256 0.674900
Si Si3 0.189340 0.607108 0.972508
Si Si4 0.672075 0.263281 0.905315
Si Si5 0.847054 0.504754 0.535439
O O1 0.547220 0.750000 0.250000
O O2 0.513045 0.517278 0.213186
O O3 0.665151 0.600448 0.187001
O O4 0.600275 0.576099 0.428468
O O5 0.609289 0.125523 0.595291
O O6 0.634585 0.962798 0.809503
O O7 0.604648 0.898371 0.564383
O O8 0.250000 0.500000 0.017691
O O9 0.244088 0.725108 0.002290
O O10 0.704430 0.250000 0.750000
O O11 0.624388 0.145821 0.964905
O O12 0.750000 0.500000 0.503586
#
# Coordination Sequence:
#
# PCOD8216166 Si02
#       5
#     8   8   8   8   8
#     4  12  24  37  55  87 125 157 192 247 312 370
#     4  10  21  39  61  84 114 154 201 252 304 363
#     4  10  21  38  60  83 113 152 198 249 302 359
#     4   9  18  37  62  86 110 151 207 255 299 365
#     4  11  21  37  61  86 116 158 204 249 302 369
#
# _framework density 22.927303999999999
#
# number of rings (size 3 to 8) (size 9 to 14) (size 15 to 20)
#    0.000    1.600    0.000    7.800    0.000    0.000 
#    0.000    3.000    0.000    9.600    0.000    0.000 
#    0.000    0.000    0.000    0.000    0.000    0.000 
#
# Total GULP energy -495620.255455 kJ/mol
# GULP energy per Si atom -12390.506386 kJ/mol
# Density = 2.287512 g / cm^3
# Si number density = 22.927304 Si / 1000 Ang^3
#
#
#
# Elastic Constant Matrix: (Units=GPa)
#
#
# Indices 1 2 3 4 5 6 
#
# 1 61.0394 -2.4727 11.4810 0.0000 0.0000 0.0000
# 2 -2.4727 57.6991 29.4790 0.0000 0.0000 0.0000
# 3 11.4810 29.4790 98.3375 0.0000 0.0000 0.0000
# 4 0.0000 0.0000 0.0000 33.8817 0.0000 0.0000
# 5 0.0000 0.0000 0.0000 0.0000 32.1765 0.0000
# 6 0.0000 0.0000 0.0000 0.0000 0.0000 21.9170
#
#
#
# Elastic Compliance Matrix: (Units=1/GPa)
#
#
# Indices 1 2 3 4 5 6 
#
# 1 0.016954 0.002052 -0.002595 0.000000 0.000000 0.000000
# 2 0.002052 0.020714 -0.006449 0.000000 0.000000 0.000000
# 3 -0.002595 -0.006449 0.012405 0.000000 0.000000 0.000000
# 4 0.000000 0.000000 0.000000 0.029514 0.000000 0.000000
# 5 0.000000 0.000000 0.000000 0.000000 0.031079 0.000000
# 6 0.000000 0.000000 0.000000 0.000000 0.000000 0.045627
#
#
# Mechanical properties :
#
#
# Convention : Reuss Voigt Hill
#
# Bulk Modulus (GPa) = 27.70829 32.67230 30.19030
# Shear Modulus (GPa) = 27.42637 29.50097 28.46367
#
# Velocity S-wave (km/s) = 3.46241 3.59098 3.52728
# Velocity P-wave (km/s) = 5.30056 5.61024 5.45760
#
# Compressibility (1/GPa) = 0.03609029
#
# Stress axis : x y z
#
# Youngs Moduli (GPa) = 58.98311 48.27616 80.61094
#
# Poissons Ratio (x) = -0.09907 0.20915
# Poissons Ratio (y) = -0.12104 0.51987
# Poissons Ratio (z) = 0.15304 0.31134
#
# Static dielectric constant tensor:
#      x y z
#    x 4.027310 0.000000 0.000000 
#    y 0.000000 4.326700 0.000000 
#    z 0.000000 0.000000 4.016840 
# 
# 
# High freq. dielectric constant tensor:
#      x y z
#    x 1.896670 0.000000 0.000000 
#    y 0.000000 1.892540 0.000000 
#    z 0.000000 0.000000 1.900670 
# 
# From -- ./inp_files/11634.got.cif
#   From: 2010.06.25/outbox.cif.g09.slc.cpg/sg52_6_cif.got.tgz:11634.got - 2010.06.26 19:32:48.
