data_PCOD8216179
_publ_section_title
;
Structure prediction by ZEFSAII (Michael W. Deem and Ramdas Pophale) SiO2 
 PCOD8216179
Probable space group: P N N A
;
_chemical_formula_sum "Si O2"
_cell_formula_units_Z 32
_cell_length_a 5.027901
_cell_length_b 16.839109
_cell_length_c 15.593146
_cell_angle_alpha 90.000000
_cell_angle_beta 90.000000
_cell_angle_gamma 90.000000
_cell_volume 1320.199522
_symmetry_space_group_name_H-M "P N N A"
_symmetry_group_IT_number 52
_symmetry_cell_setting 'orthorhombic'
loop_
_space_group_symop_operation_xyz
x,y,z
1/2-x,-y,z
x,1/2-y,1/2-z
1/2-x,1/2+y,1/2-z
-x,-y,-z
1/2+x,y,-z
-x,1/2+y,1/2+z
1/2+x,1/2-y,1/2+z
loop_
_atom_site_type_symbol
_atom_site_label
_atom_site_fract_x
_atom_site_fract_y
_atom_site_fract_z
Si Si1 0.353798 0.920660 0.056994
Si Si2 0.007999 0.055144 0.699952
Si Si3 0.604142 0.179100 0.441780
Si Si4 0.874919 0.306041 0.678596
O O1 0.343034 0.842445 0.114933
O O2 0.250000 0.000000 0.108538
O O3 0.655757 0.920405 0.025211
O O4 0.051812 0.096977 0.608070
O O5 0.017246 0.121359 0.774038
O O6 0.250000 0.000000 0.724531
O O7 0.750000 0.000000 0.695506
O O8 0.401069 0.183013 0.521374
O O9 0.579083 0.254050 0.377592
O O10 0.732604 0.250000 0.750000
#
# Coordination Sequence:
#
# PCOD8216179 Si02
#       4
#     8   8   8   8
#     4  10  21  38  62  89 118 156 201 251 302 357
#     4  11  25  43  66  95 129 170 213 263 319 378
#     4  11  24  43  68  95 127 169 215 265 317 376
#     4  10  23  42  64  93 129 167 208 257 317 379
#
# _framework density 24.238761
#
# number of rings (size 3 to 8) (size 9 to 14) (size 15 to 20)
#    0.000    1.500    0.000    3.750    0.000   10.000 
#    0.000   13.750    0.000    0.000    0.000    0.000 
#    0.000    0.000    0.000    0.000    0.000    0.000 
#
# Total GULP energy -396675.627725 kJ/mol
# GULP energy per Si atom -12396.113366 kJ/mol
# Density = 2.418359 g / cm^3
# Si number density = 24.238761 Si / 1000 Ang^3
#
#
#
# Elastic Constant Matrix: (Units=GPa)
#
#
# Indices 1 2 3 4 5 6 
#
# 1 79.0616 29.0031 7.8734 0.0000 0.0000 0.0000
# 2 29.0031 163.5065 51.6541 0.0000 0.0000 0.0000
# 3 7.8734 51.6541 81.3117 0.0000 0.0000 0.0000
# 4 0.0000 0.0000 0.0000 65.5601 0.0000 0.0000
# 5 0.0000 0.0000 0.0000 0.0000 6.6607 0.0000
# 6 0.0000 0.0000 0.0000 0.0000 0.0000 31.0416
#
#
#
# Elastic Compliance Matrix: (Units=1/GPa)
#
#
# Indices 1 2 3 4 5 6 
#
# 1 0.013533 -0.002485 0.000268 0.000000 0.000000 0.000000
# 2 -0.002485 0.008108 -0.004910 0.000000 0.000000 0.000000
# 3 0.000268 -0.004910 0.015391 0.000000 0.000000 0.000000
# 4 0.000000 0.000000 0.000000 0.015253 0.000000 0.000000
# 5 0.000000 0.000000 0.000000 0.000000 0.150135 0.000000
# 6 0.000000 0.000000 0.000000 0.000000 0.000000 0.032215
#
#
# Mechanical properties :
#
#
# Convention : Reuss Voigt Hill
#
# Bulk Modulus (GPa) = 43.90025 55.66013 49.78019
# Shear Modulus (GPa) = 19.49446 36.34242 27.91844
#
# Velocity S-wave (km/s) = 2.83904 3.87635 3.39751
# Velocity P-wave (km/s) = 5.37566 6.56109 5.99773
#
# Compressibility (1/GPa) = 0.02277891
#
# Stress axis : x y z
#
# Youngs Moduli (GPa) = 73.89137 123.33541 64.97095
#
# Poissons Ratio (x) = 0.30654 -0.01744
# Poissons Ratio (y) = 0.18365 0.31901
# Poissons Ratio (z) = -0.01983 0.60558
#
# Static dielectric constant tensor:
#      x y z
#    x 3.754380 0.000000 0.000000 
#    y 0.000000 5.054230 0.000000 
#    z 0.000000 0.000000 4.546310 
# 
# 
# High freq. dielectric constant tensor:
#      x y z
#    x 1.939070 0.000000 0.000000 
#    y 0.000000 1.992710 0.000000 
#    z 0.000000 0.000000 1.971560 
# 
# From -- ./inp_files/23467.got.cif
#   From: 2010.06.25/outbox.cif.g09.slc.cpg/sg52_12_cif.got.tgz:23467.got - 2010.06.26 19:32:48.
