data_PCOD8216223
_publ_section_title
;
Structure prediction by ZEFSAII (Michael W. Deem and Ramdas Pophale) SiO2 
 PCOD8216223
Probable space group: P N N A
;
_chemical_formula_sum "Si O2"
_cell_formula_units_Z 36
_cell_length_a 13.837035
_cell_length_b 5.312131
_cell_length_c 24.103576
_cell_angle_alpha 90.000000
_cell_angle_beta 90.000000
_cell_angle_gamma 90.000000
_cell_volume 1771.712687
_symmetry_space_group_name_H-M "P N N A"
_symmetry_group_IT_number 52
_symmetry_cell_setting 'orthorhombic'
loop_
_space_group_symop_operation_xyz
x,y,z
1/2-x,-y,z
x,1/2-y,1/2-z
1/2-x,1/2+y,1/2-z
-x,-y,-z
1/2+x,y,-z
-x,1/2+y,1/2+z
1/2+x,1/2-y,1/2+z
loop_
_atom_site_type_symbol
_atom_site_label
_atom_site_fract_x
_atom_site_fract_y
_atom_site_fract_z
Si Si1 0.750000 0.000000 0.895195
Si Si2 0.659747 0.864469 0.695214
Si Si3 0.864000 0.999098 0.279750
Si Si4 0.457334 0.966705 0.060596
Si Si5 0.505932 0.018276 0.377448
O O1 0.707469 0.790118 0.854984
O O2 0.840428 0.923988 0.935485
O O3 0.608260 0.750000 0.750000
O O4 0.579318 0.040244 0.667055
O O5 0.750000 0.000000 0.723840
O O6 0.905667 0.750000 0.250000
O O7 0.893903 0.988485 0.344223
O O8 0.750000 0.000000 0.277609
O O9 0.905402 0.250000 0.250000
O O10 0.508001 0.708627 0.079442
O O11 0.491278 0.206968 0.096015
O O12 0.500000 0.000000 0.000000
#
# Coordination Sequence:
#
# PCOD8216223 Si02
#       5
#     4   8   8   8   8
#     4  10  22  40  58  86 126 160 194 258 302 356
#     4  11  20  33  58  90 128 158 193 230 307 384
#     4  10  21  39  62  90 126 162 197 246 304 361
#     4  11  24  43  63  86 119 163 209 260 306 349
#     4  11  23  40  62  91 124 159 205 253 300 367
#
# _framework density 20.319324000000002
#
# number of rings (size 3 to 8) (size 9 to 14) (size 15 to 20)
#    0.000    1.333    3.333    2.667    0.000    2.667 
#    4.000    0.000    0.000    0.000    0.000    0.000 
#    0.000    0.000    0.000    0.000    0.000    0.000 
#
# Total GULP energy -446000.398345 kJ/mol
# GULP energy per Si atom -12388.899954 kJ/mol
# Density = 2.027308 g / cm^3
# Si number density = 20.319324 Si / 1000 Ang^3
#
#
#
# Elastic Constant Matrix: (Units=GPa)
#
#
# Indices 1 2 3 4 5 6 
#
# 1 39.7254 24.0698 44.3498 0.0000 0.0000 0.0000
# 2 24.0698 122.7798 29.9096 0.0000 0.0000 0.0000
# 3 44.3498 29.9096 119.6753 0.0000 0.0000 0.0000
# 4 0.0000 0.0000 0.0000 39.6245 0.0000 0.0000
# 5 0.0000 0.0000 0.0000 0.0000 32.3926 0.0000
# 6 0.0000 0.0000 0.0000 0.0000 0.0000 14.3728
#
#
#
# Elastic Compliance Matrix: (Units=1/GPa)
#
#
# Indices 1 2 3 4 5 6 
#
# 1 0.045814 -0.005160 -0.015688 0.000000 0.000000 0.000000
# 2 -0.005160 0.009254 -0.000401 0.000000 0.000000 0.000000
# 3 -0.015688 -0.000401 0.014270 0.000000 0.000000 0.000000
# 4 0.000000 0.000000 0.000000 0.025237 0.000000 0.000000
# 5 0.000000 0.000000 0.000000 0.000000 0.030871 0.000000
# 6 0.000000 0.000000 0.000000 0.000000 0.000000 0.069576
#
#
# Mechanical properties :
#
#
# Convention : Reuss Voigt Hill
#
# Bulk Modulus (GPa) = 37.25761 53.20431 45.23096
# Shear Modulus (GPa) = 20.28687 29.53474 24.91080
#
# Velocity S-wave (km/s) = 3.16318 3.81665 3.50518
# Velocity P-wave (km/s) = 5.63177 6.75747 6.22014
#
# Compressibility (1/GPa) = 0.02684015
#
# Stress axis : x y z
#
# Youngs Moduli (GPa) = 21.82762 108.06435 70.07752
#
# Poissons Ratio (x) = 0.55756 1.09940
# Poissons Ratio (y) = 0.11262 0.02808
# Poissons Ratio (z) = 0.34244 0.04330
#
# Static dielectric constant tensor:
#      x y z
#    x 4.074140 0.000000 0.000000 
#    y 0.000000 3.681930 0.000000 
#    z 0.000000 0.000000 3.605300 
# 
# 
# High freq. dielectric constant tensor:
#      x y z
#    x 1.798170 0.000000 0.000000 
#    y 0.000000 1.800100 0.000000 
#    z 0.000000 0.000000 1.786450 
# 
# From -- ./inp_files/37070.got.cif
#   From: 2010.06.25/outbox.cif.g09.slc.cpg/sg52_19_cif.got.tgz:37070.got - 2010.06.26 19:32:48.
