data_PCOD8216583
_publ_section_title
;
Structure prediction by ZEFSAII (Michael W. Deem and Ramdas Pophale) SiO2 
 PCOD8216583
Probable space group: P N N A
;
_chemical_formula_sum "Si O2"
_cell_formula_units_Z 40
_cell_length_a 15.118975
_cell_length_b 25.707500
_cell_length_c 5.047590
_cell_angle_alpha 90.000000
_cell_angle_beta 90.000000
_cell_angle_gamma 90.000000
_cell_volume 1961.852104
_symmetry_space_group_name_H-M "P N N A"
_symmetry_group_IT_number 52
_symmetry_cell_setting 'orthorhombic'
loop_
_space_group_symop_operation_xyz
x,y,z
1/2-x,-y,z
x,1/2-y,1/2-z
1/2-x,1/2+y,1/2-z
-x,-y,-z
1/2+x,y,-z
-x,1/2+y,1/2+z
1/2+x,1/2-y,1/2+z
loop_
_atom_site_type_symbol
_atom_site_label
_atom_site_fract_x
_atom_site_fract_y
_atom_site_fract_z
Si Si1 0.586426 0.599559 0.870237
Si Si2 0.818941 0.191572 0.817346
Si Si3 0.393997 0.935434 0.607756
Si Si4 0.851085 0.501505 0.590695
Si Si5 0.739654 0.640293 0.166258
O O1 0.593916 0.655026 0.716972
O O2 0.486989 0.590875 0.967213
O O3 0.615348 0.555197 0.665647
O O4 0.654367 0.601671 0.122226
O O5 0.847591 0.250000 0.750000
O O6 0.745128 0.173173 0.603322
O O7 0.777711 0.182763 0.105723
O O8 0.356536 0.960212 0.341336
O O9 0.326511 0.893084 0.727029
O O10 0.408309 0.978339 0.838980
O O11 0.750000 0.500000 0.495309
#
# Coordination Sequence:
#
# PCOD8216583 Si02
#       5
#     8   8   8   8   8
#     4  10  25  38  65  90 129 159 215 250 313 369
#     4  10  22  43  66  88 120 165 207 265 320 361
#     4  12  24  39  63  93 128 166 204 252 308 376
#     4  12  23  39  61  91 131 168 205 245 311 375
#     4  10  22  41  64  89 126 160 207 254 310 367
#
# _framework density 20.388898000000001
#
# number of rings (size 3 to 8) (size 9 to 14) (size 15 to 20)
#    1.200    0.000    2.000    4.800    5.600    0.000 
#    0.000    2.000    0.000    0.000    0.000    0.000 
#    0.000    0.000    0.000    0.000    0.000    0.000 
#
# Total GULP energy -495823.502043 kJ/mol
# GULP energy per Si atom -12395.587551 kJ/mol
# Density = 2.034249 g / cm^3
# Si number density = 20.388898 Si / 1000 Ang^3
#
#
#
# Elastic Constant Matrix: (Units=GPa)
#
#
# Indices 1 2 3 4 5 6 
#
# 1 108.5591 42.2895 10.9375 0.0000 0.0000 0.0000
# 2 42.2895 111.3603 7.4311 0.0000 0.0000 0.0000
# 3 10.9375 7.4311 93.0849 0.0000 0.0000 0.0000
# 4 0.0000 0.0000 0.0000 33.2364 0.0000 0.0000
# 5 0.0000 0.0000 0.0000 0.0000 17.3322 0.0000
# 6 0.0000 0.0000 0.0000 0.0000 0.0000 12.2166
#
#
#
# Elastic Compliance Matrix: (Units=1/GPa)
#
#
# Indices 1 2 3 4 5 6 
#
# 1 0.010895 -0.004074 -0.000955 0.000000 0.000000 0.000000
# 2 -0.004074 0.010551 -0.000364 0.000000 0.000000 0.000000
# 3 -0.000955 -0.000364 0.010884 0.000000 0.000000 0.000000
# 4 0.000000 0.000000 0.000000 0.030087 0.000000 0.000000
# 5 0.000000 0.000000 0.000000 0.000000 0.057696 0.000000
# 6 0.000000 0.000000 0.000000 0.000000 0.000000 0.081856
#
#
# Mechanical properties :
#
#
# Convention : Reuss Voigt Hill
#
# Bulk Modulus (GPa) = 46.41333 48.25785 47.33559
# Shear Modulus (GPa) = 22.73395 29.38012 26.05704
#
# Velocity S-wave (km/s) = 3.34281 3.80015 3.57879
# Velocity P-wave (km/s) = 6.14106 6.55553 6.35167
#
# Compressibility (1/GPa) = 0.02154554
#
# Stress axis : x y z
#
# Youngs Moduli (GPa) = 91.78825 94.77710 91.87697
#
# Poissons Ratio (x) = 0.38608 0.08774
# Poissons Ratio (y) = 0.37390 0.03341
# Poissons Ratio (z) = 0.08765 0.03447
#
# Static dielectric constant tensor:
#      x y z
#    x 3.483320 0.000000 0.000000 
#    y 0.000000 3.585740 0.000000 
#    z 0.000000 0.000000 3.654020 
# 
# 
# High freq. dielectric constant tensor:
#      x y z
#    x 1.771480 0.000000 0.000000 
#    y 0.000000 1.788390 0.000000 
#    z 0.000000 0.000000 1.809160 
# 
# From -- ./inp_files/2288.got.cif
#   From: 2010.06.25/outbox.cif.g09.slc.cpg/sg52_2_cif.got.tgz:2288.got - 2010.06.26 19:32:48.
