data_PCOD8216502
_publ_section_title
;
Structure prediction by ZEFSAII (Michael W. Deem and Ramdas Pophale) SiO2 
 PCOD8216502
Probable space group: P N N A
;
_chemical_formula_sum "Si O2"
_cell_formula_units_Z 20
_cell_length_a 8.979135
_cell_length_b 8.870873
_cell_length_c 8.790405
_cell_angle_alpha 90.000000
_cell_angle_beta 90.000000
_cell_angle_gamma 90.000000
_cell_volume 700.180075
_symmetry_space_group_name_H-M "P N N A"
_symmetry_group_IT_number 52
_symmetry_cell_setting 'orthorhombic'
loop_
_space_group_symop_operation_xyz
x,y,z
1/2-x,-y,z
x,1/2-y,1/2-z
1/2-x,1/2+y,1/2-z
-x,-y,-z
1/2+x,y,-z
-x,1/2+y,1/2+z
1/2+x,1/2-y,1/2+z
loop_
_atom_site_type_symbol
_atom_site_label
_atom_site_fract_x
_atom_site_fract_y
_atom_site_fract_z
Si Si1 0.788174 0.705996 0.595026
Si Si2 0.530112 0.398749 0.331495
Si Si3 0.750000 0.000000 0.393465
O O1 0.875156 0.750000 0.750000
O O2 0.899792 0.595463 0.502526
O O3 0.647558 0.607756 0.655656
O O4 0.741916 0.853082 0.500330
O O5 0.593046 0.250000 0.250000
O O6 0.603345 0.521379 0.216360
#
# Coordination Sequence:
#
# PCOD8216502 Si02
#       3
#     8   8   4
#     4  10  22  39  63  94 123 161 214 253 300 377
#     4   9  21  39  60  90 125 162 205 252 308 370
#     4  10  22  42  64  88 132 166 196 266 320 352
#
# _framework density 28.564081999999999
#
# number of rings (size 3 to 8) (size 9 to 14) (size 15 to 20)
#    0.000    2.400    0.000    0.000    0.000   22.400 
#    0.000    0.000    0.000    7.200    0.000    0.000 
#    0.000    0.000    0.000    0.000    0.000    0.000 
#
# Total GULP energy -247816.905453 kJ/mol
# GULP energy per Si atom -12390.845273 kJ/mol
# Density = 2.849907 g / cm^3
# Si number density = 28.564082 Si / 1000 Ang^3
#
#
#
# Elastic Constant Matrix: (Units=GPa)
#
#
# Indices 1 2 3 4 5 6 
#
# 1 155.6848 39.8873 58.4652 0.0000 0.0000 0.0000
# 2 39.8873 80.8959 36.9044 0.0000 0.0000 0.0000
# 3 58.4652 36.9044 221.4364 0.0000 0.0000 0.0000
# 4 0.0000 0.0000 0.0000 49.2441 0.0000 0.0000
# 5 0.0000 0.0000 0.0000 0.0000 30.6942 0.0000
# 6 0.0000 0.0000 0.0000 0.0000 0.0000 -85.7585
#
#
#
# Elastic Compliance Matrix: (Units=1/GPa)
#
#
# Indices 1 2 3 4 5 6 
#
# 1 0.007807 -0.003148 -0.001537 0.000000 0.000000 0.000000
# 2 -0.003148 0.014648 -0.001610 0.000000 0.000000 0.000000
# 3 -0.001537 -0.001610 0.005190 0.000000 0.000000 0.000000
# 4 0.000000 0.000000 0.000000 0.020307 0.000000 0.000000
# 5 0.000000 0.000000 0.000000 0.000000 0.032579 0.000000
# 6 0.000000 0.000000 0.000000 0.000000 0.000000 -0.011661
#
#
# Mechanical properties :
#
#
# Convention : Reuss Voigt Hill
#
# Bulk Modulus (GPa) = 66.42128 80.94788 73.68458
# Shear Modulus (GPa) = 57.81716 20.35328 39.08522
#
# Velocity S-wave (km/s) = 4.50390 2.67226 3.70311
# Velocity P-wave (km/s) = 7.09583 6.15807 6.64352
#
# Compressibility (1/GPa) = 0.01505542
#
# Stress axis : x y z
#
# Youngs Moduli (GPa) = 128.09203 68.26668 192.67887
#
# Poissons Ratio (x) = 0.21493 0.29606
# Poissons Ratio (y) = 0.40328 0.31022
# Poissons Ratio (z) = 0.19682 0.10991
#
# Static dielectric constant tensor:
#      x y z
#    x 4.721080 0.000000 0.000000 
#    y 0.000000 5.527870 0.000000 
#    z 0.000000 0.000000 6.532550 
# 
# 
# High freq. dielectric constant tensor:
#      x y z
#    x 2.140070 0.000000 0.000000 
#    y 0.000000 2.178650 0.000000 
#    z 0.000000 0.000000 2.196990 
# 
# From -- ./inp_files/6820.got.cif
#   From: 2010.06.25/outbox.cif.g09.slc.cpg/sg52_4_cif.got.tgz:6820.got - 2010.06.26 19:32:48.
