data_PCOD8216188
_publ_section_title
;
Structure prediction by ZEFSAII (Michael W. Deem and Ramdas Pophale) SiO2 
 PCOD8216188
Probable space group: P N N A
;
_chemical_formula_sum "Si O2"
_cell_formula_units_Z 48
_cell_length_a 14.953528
_cell_length_b 17.371637
_cell_length_c 9.460623
_cell_angle_alpha 90.000000
_cell_angle_beta 90.000000
_cell_angle_gamma 90.000000
_cell_volume 2457.560117
_symmetry_space_group_name_H-M "P N N A"
_symmetry_group_IT_number 52
_symmetry_cell_setting 'orthorhombic'
loop_
_space_group_symop_operation_xyz
x,y,z
1/2-x,-y,z
x,1/2-y,1/2-z
1/2-x,1/2+y,1/2-z
-x,-y,-z
1/2+x,y,-z
-x,1/2+y,1/2+z
1/2+x,1/2-y,1/2+z
loop_
_atom_site_type_symbol
_atom_site_label
_atom_site_fract_x
_atom_site_fract_y
_atom_site_fract_z
Si Si1 0.534712 0.768015 0.090225
Si Si2 0.847524 0.837977 0.228860
Si Si3 0.552630 0.078814 0.997101
Si Si4 0.361170 0.674043 0.036552
Si Si5 0.791633 0.578430 0.710576
Si Si6 0.778701 0.304414 0.513811
O O1 0.558928 0.750000 0.250000
O O2 0.501792 0.855890 0.085246
O O3 0.462342 0.707037 0.032049
O O4 0.626270 0.762171 0.000508
O O5 0.881464 0.750000 0.250000
O O6 0.835344 0.869033 0.389185
O O7 0.923743 0.889034 0.153388
O O8 0.755076 0.839533 0.137690
O O9 0.643387 0.059236 0.917852
O O10 0.500000 0.000000 0.000000
O O11 0.348320 0.614503 0.162389
O O12 0.296542 0.745505 0.066069
O O13 0.750000 0.500000 0.769674
O O14 0.715211 0.633055 0.640766
#
# Coordination Sequence:
#
# PCOD8216188 Si02
#       6
#     8   8   8   8   8   8
#     4  12  20  37  67  93 124 168 215 266 311 381
#     4   9  18  39  63  87 127 160 215 266 310 378
#     4  11  22  39  62  93 127 170 213 263 324 385
#     4  11  20  42  63  92 127 161 217 271 317 369
#     4  11  22  42  60  89 133 167 206 269 327 385
#     4  10  21  38  64  94 118 163 217 258 313 388
#
# _framework density 19.531566999999999
#
# number of rings (size 3 to 8) (size 9 to 14) (size 15 to 20)
#    0.000    1.333    6.667    3.000    0.000    0.000 
#    9.000    7.500    0.000    0.000    0.000    0.000 
#    0.000    0.000    0.000    0.000    0.000    0.000 
#
# Total GULP energy -594994.216213 kJ/mol
# GULP energy per Si atom -12395.712838 kJ/mol
# Density = 1.948711 g / cm^3
# Si number density = 19.531567 Si / 1000 Ang^3
#
#
#
# Elastic Constant Matrix: (Units=GPa)
#
#
# Indices 1 2 3 4 5 6 
#
# 1 114.5180 40.7960 34.3990 0.0000 0.0000 0.0000
# 2 40.7960 95.2251 56.4734 0.0000 0.0000 0.0000
# 3 34.3990 56.4734 112.3457 0.0000 0.0000 0.0000
# 4 0.0000 0.0000 0.0000 23.1400 0.0000 0.0000
# 5 0.0000 0.0000 0.0000 0.0000 25.3156 0.0000
# 6 0.0000 0.0000 0.0000 0.0000 0.0000 32.8129
#
#
#
# Elastic Compliance Matrix: (Units=1/GPa)
#
#
# Indices 1 2 3 4 5 6 
#
# 1 0.010447 -0.003674 -0.001352 0.000000 0.000000 0.000000
# 2 -0.003674 0.016254 -0.007045 0.000000 0.000000 0.000000
# 3 -0.001352 -0.007045 0.012857 0.000000 0.000000 0.000000
# 4 0.000000 0.000000 0.000000 0.043215 0.000000 0.000000
# 5 0.000000 0.000000 0.000000 0.000000 0.039501 0.000000
# 6 0.000000 0.000000 0.000000 0.000000 0.000000 0.030476
#
#
# Mechanical properties :
#
#
# Convention : Reuss Voigt Hill
#
# Bulk Modulus (GPa) = 64.87280 65.04729 64.96005
# Shear Modulus (GPa) = 27.46784 28.94837 28.20810
#
# Velocity S-wave (km/s) = 3.75418 3.85402 3.80443
# Velocity P-wave (km/s) = 7.21652 7.29251 7.25461
#
# Compressibility (1/GPa) = 0.01541478
#
# Stress axis : x y z
#
# Youngs Moduli (GPa) = 95.71971 61.52445 77.78084
#
# Poissons Ratio (x) = 0.22604 0.10516
# Poissons Ratio (y) = 0.35167 0.54800
# Poissons Ratio (z) = 0.12942 0.43347
#
# Static dielectric constant tensor:
#      x y z
#    x 3.567620 0.000000 0.000000 
#    y 0.000000 3.443330 0.000000 
#    z 0.000000 0.000000 3.953670 
# 
# 
# High freq. dielectric constant tensor:
#      x y z
#    x 1.752960 0.000000 0.000000 
#    y 0.000000 1.737900 0.000000 
#    z 0.000000 0.000000 1.769140 
# 
# From -- ./inp_files/10494.got.cif
#   From: 2010.06.25/outbox.cif.g09.slc.cpg/sg52_6_cif.got.tgz:10494.got - 2010.06.26 19:32:48.
