data_PCOD8216350
_publ_section_title
;
Structure prediction by ZEFSAII (Michael W. Deem and Ramdas Pophale) SiO2 
 PCOD8216350
Probable space group: P N N A
;
_chemical_formula_sum "Si O2"
_cell_formula_units_Z 48
_cell_length_a 18.028769
_cell_length_b 11.168671
_cell_length_c 11.394950
_cell_angle_alpha 90.000000
_cell_angle_beta 90.000000
_cell_angle_gamma 90.000000
_cell_volume 2294.457385
_symmetry_space_group_name_H-M "P N N A"
_symmetry_group_IT_number 52
_symmetry_cell_setting 'orthorhombic'
loop_
_space_group_symop_operation_xyz
x,y,z
1/2-x,-y,z
x,1/2-y,1/2-z
1/2-x,1/2+y,1/2-z
-x,-y,-z
1/2+x,y,-z
-x,1/2+y,1/2+z
1/2+x,1/2-y,1/2+z
loop_
_atom_site_type_symbol
_atom_site_label
_atom_site_fract_x
_atom_site_fract_y
_atom_site_fract_z
Si Si1 0.090112 0.061516 0.813474
Si Si2 0.023145 0.131993 0.188450
Si Si3 0.384964 0.451890 0.160112
Si Si4 0.341084 0.828989 0.021314
Si Si5 0.521929 0.750000 0.750000
Si Si6 0.750000 0.000000 0.819705
Si Si7 0.827445 0.937948 0.432269
O O1 0.121116 0.064630 0.681867
O O2 0.028398 0.164447 0.829731
O O3 0.156101 0.091098 0.903357
O O4 0.051121 0.937482 0.852226
O O5 0.993180 0.250000 0.250000
O O6 0.078254 0.165268 0.082485
O O7 0.064076 0.055216 0.287319
O O8 0.427263 0.325703 0.161208
O O9 0.311156 0.440957 0.237033
O O10 0.368204 0.478415 0.025524
O O11 0.279507 0.888750 0.103832
O O12 0.316669 0.694021 0.988874
O O13 0.750000 0.000000 0.398508
#
# Coordination Sequence:
#
# PCOD8216350 Si02
#       7
#     8   8   8   8   4   4   8
#     4  11  24  45  64  98 136 180 219 272 343 405
#     4  10  21  41  69  98 127 170 222 278 335 391
#     4  10  22  39  66  99 125 169 220 275 338 384
#     4  11  23  45  68  91 139 177 221 283 335 407
#     4  10  22  40  68  94 134 168 218 274 330 404
#     4  10  24  40  64  96 126 172 222 278 324 408
#     4  12  25  42  69  97 139 179 221 282 346 410
#
# _framework density 20.919979000000001
#
# number of rings (size 3 to 8) (size 9 to 14) (size 15 to 20)
#    0.000    1.333    4.167    0.500    3.500    4.000 
#    3.000    0.000    0.000    0.000    0.000    0.000 
#    0.000    0.000    0.000    0.000    0.000    0.000 
#
# Total GULP energy -595269.490952 kJ/mol
# GULP energy per Si atom -12401.447728 kJ/mol
# Density = 2.087236 g / cm^3
# Si number density = 20.919979 Si / 1000 Ang^3
#
#
#
# Elastic Constant Matrix: (Units=GPa)
#
#
# Indices 1 2 3 4 5 6 
#
# 1 80.6248 49.8461 37.7573 0.0000 0.0000 0.0000
# 2 49.8461 133.4288 44.8069 0.0000 0.0000 0.0000
# 3 37.7573 44.8069 118.6048 0.0000 0.0000 0.0000
# 4 0.0000 0.0000 0.0000 21.4142 0.0000 0.0000
# 5 0.0000 0.0000 0.0000 0.0000 18.3649 0.0000
# 6 0.0000 0.0000 0.0000 0.0000 0.0000 35.9602
#
#
#
# Elastic Compliance Matrix: (Units=1/GPa)
#
#
# Indices 1 2 3 4 5 6 
#
# 1 0.017320 -0.005290 -0.003515 0.000000 0.000000 0.000000
# 2 -0.005290 0.010199 -0.002169 0.000000 0.000000 0.000000
# 3 -0.003515 -0.002169 0.010370 0.000000 0.000000 0.000000
# 4 0.000000 0.000000 0.000000 0.046698 0.000000 0.000000
# 5 0.000000 0.000000 0.000000 0.000000 0.054452 0.000000
# 6 0.000000 0.000000 0.000000 0.000000 0.000000 0.027809
#
#
# Mechanical properties :
#
#
# Convention : Reuss Voigt Hill
#
# Bulk Modulus (GPa) = 62.73333 66.38655 64.55994
# Shear Modulus (GPa) = 25.75875 28.49775 27.12825
#
# Velocity S-wave (km/s) = 3.51279 3.69484 3.60497
# Velocity P-wave (km/s) = 6.81948 7.07141 6.94659
#
# Compressibility (1/GPa) = 0.01594049
#
# Stress axis : x y z
#
# Youngs Moduli (GPa) = 57.73748 98.04684 96.43315
#
# Poissons Ratio (x) = 0.51865 0.33899
# Poissons Ratio (y) = 0.30542 0.20917
# Poissons Ratio (z) = 0.20296 0.21267
#
# Static dielectric constant tensor:
#      x y z
#    x 3.824330 0.000000 0.000000 
#    y 0.000000 3.936580 0.000000 
#    z 0.000000 0.000000 3.738000 
# 
# 
# High freq. dielectric constant tensor:
#      x y z
#    x 1.813960 0.000000 0.000000 
#    y 0.000000 1.827650 0.000000 
#    z 0.000000 0.000000 1.819530 
# 
# From -- ./inp_files/20671.got.cif
#   From: 2010.06.25/outbox.cif.g09.slc.cpg/sg52_11_cif.got.tgz:20671.got - 2010.06.26 19:32:48.
