data_PCOD8216553
_publ_section_title
;
Structure prediction by ZEFSAII (Michael W. Deem and Ramdas Pophale) SiO2 
 PCOD8216553
Probable space group: P N N A
;
_chemical_formula_sum "Si O2"
_cell_formula_units_Z 48
_cell_length_a 18.563437
_cell_length_b 9.227314
_cell_length_c 13.760977
_cell_angle_alpha 90.000000
_cell_angle_beta 90.000000
_cell_angle_gamma 90.000000
_cell_volume 2357.126862
_symmetry_space_group_name_H-M "P N N A"
_symmetry_group_IT_number 52
_symmetry_cell_setting 'orthorhombic'
loop_
_space_group_symop_operation_xyz
x,y,z
1/2-x,-y,z
x,1/2-y,1/2-z
1/2-x,1/2+y,1/2-z
-x,-y,-z
1/2+x,y,-z
-x,1/2+y,1/2+z
1/2+x,1/2-y,1/2+z
loop_
_atom_site_type_symbol
_atom_site_label
_atom_site_fract_x
_atom_site_fract_y
_atom_site_fract_z
Si Si1 0.919834 0.788900 0.567496
Si Si2 0.750000 0.000000 0.858227
Si Si3 0.669830 0.459314 0.090420
Si Si4 0.750000 0.000000 0.137960
Si Si5 0.871415 0.006878 0.006695
Si Si6 0.222085 0.250000 0.750000
Si Si7 0.325662 0.750000 0.250000
Si Si8 0.574224 0.773829 0.364991
O O1 0.881474 0.892058 0.490528
O O2 0.923401 0.619507 0.532735
O O3 0.875300 0.810661 0.665159
O O4 0.000809 0.839529 0.589428
O O5 0.773606 0.872409 0.789120
O O6 0.682214 0.937367 0.921126
O O7 0.750000 0.500000 0.051763
O O8 0.671670 0.347014 0.180377
O O9 0.637547 0.611427 0.124309
O O10 0.684011 0.070937 0.080529
O O11 0.722280 0.861838 0.199284
O O12 0.910844 0.132616 0.066918
O O13 0.561516 0.750000 0.250000
#
# Coordination Sequence:
#
# PCOD8216553 Si02
#       8
#     8   4   8   4   8   4   4   8
#     4  11  24  47  66  93 136 176 220 271 328 396
#     4   9  22  38  67  96 128 166 215 282 319 380
#     4  12  27  41  70 100 134 172 221 283 332 396
#     4  11  20  36  61  96 134 160 215 266 331 388
#     4  10  22  40  66  93 130 171 217 267 333 387
#     4  12  22  38  59 103 138 168 210 280 336 394
#     4  10  22  42  65  95 130 166 224 266 320 386
#     4  12  26  44  67  97 133 180 217 268 337 407
#
# _framework density 20.363776000000001
#
# number of rings (size 3 to 8) (size 9 to 14) (size 15 to 20)
#    0.000    1.000    3.333    3.000    8.167    0.000 
#    0.000    0.000    0.000    0.000    0.000    0.000 
#    0.000    0.000    0.000    0.000    0.000    0.000 
#
# Total GULP energy -594724.981565 kJ/mol
# GULP energy per Si atom -12390.103783 kJ/mol
# Density = 2.031743 g / cm^3
# Si number density = 20.363776 Si / 1000 Ang^3
#
#
#
# Elastic Constant Matrix: (Units=GPa)
#
#
# Indices 1 2 3 4 5 6 
#
# 1 110.4111 34.8038 37.6177 0.0000 0.0000 0.0000
# 2 34.8038 91.9676 44.3501 0.0000 0.0000 0.0000
# 3 37.6177 44.3501 117.7978 0.0000 0.0000 0.0000
# 4 0.0000 0.0000 0.0000 29.7627 0.0000 0.0000
# 5 0.0000 0.0000 0.0000 0.0000 31.0525 0.0000
# 6 0.0000 0.0000 0.0000 0.0000 0.0000 28.4007
#
#
#
# Elastic Compliance Matrix: (Units=1/GPa)
#
#
# Indices 1 2 3 4 5 6 
#
# 1 0.010783 -0.002957 -0.002330 0.000000 0.000000 0.000000
# 2 -0.002957 0.014096 -0.004363 0.000000 0.000000 0.000000
# 3 -0.002330 -0.004363 0.010876 0.000000 0.000000 0.000000
# 4 0.000000 0.000000 0.000000 0.033599 0.000000 0.000000
# 5 0.000000 0.000000 0.000000 0.000000 0.032204 0.000000
# 6 0.000000 0.000000 0.000000 0.000000 0.000000 0.035210
#
#
# Mechanical properties :
#
#
# Convention : Reuss Voigt Hill
#
# Bulk Modulus (GPa) = 60.77134 61.52441 61.14787
# Shear Modulus (GPa) = 30.94949 31.40351 31.17650
#
# Velocity S-wave (km/s) = 3.90273 3.93125 3.91702
# Velocity P-wave (km/s) = 7.08633 7.13334 7.10987
#
# Compressibility (1/GPa) = 0.01645513
#
# Stress axis : x y z
#
# Youngs Moduli (GPa) = 92.73793 70.94022 91.94685
#
# Poissons Ratio (x) = 0.20977 0.21425
# Poissons Ratio (y) = 0.27423 0.40115
# Poissons Ratio (z) = 0.21610 0.30950
#
# Static dielectric constant tensor:
#      x y z
#    x 3.700140 0.000000 0.000000 
#    y 0.000000 3.604720 0.000000 
#    z 0.000000 0.000000 4.046810 
# 
# 
# High freq. dielectric constant tensor:
#      x y z
#    x 1.795770 0.000000 0.000000 
#    y 0.000000 1.795370 0.000000 
#    z 0.000000 0.000000 1.810670 
# 
# From -- ./inp_files/28151.got.cif
#   From: 2010.06.25/outbox.cif.g09.slc.cpg/sg52_15_cif.got.tgz:28151.got - 2010.06.26 19:32:48.
