data_PCOD8216269
_publ_section_title
;
Structure prediction by ZEFSAII (Michael W. Deem and Ramdas Pophale) SiO2 
 PCOD8216269
Probable space group: P N N A
;
_chemical_formula_sum "Si O2"
_cell_formula_units_Z 48
_cell_length_a 8.547862
_cell_length_b 8.893771
_cell_length_c 31.486808
_cell_angle_alpha 90.000000
_cell_angle_beta 90.000000
_cell_angle_gamma 90.000000
_cell_volume 2393.713014
_symmetry_space_group_name_H-M "P N N A"
_symmetry_group_IT_number 52
_symmetry_cell_setting 'orthorhombic'
loop_
_space_group_symop_operation_xyz
x,y,z
1/2-x,-y,z
x,1/2-y,1/2-z
1/2-x,1/2+y,1/2-z
-x,-y,-z
1/2+x,y,-z
-x,1/2+y,1/2+z
1/2+x,1/2-y,1/2+z
loop_
_atom_site_type_symbol
_atom_site_label
_atom_site_fract_x
_atom_site_fract_y
_atom_site_fract_z
Si Si1 0.706865 0.826444 0.547629
Si Si2 0.998582 0.171571 0.013571
Si Si3 0.885949 0.589145 0.348865
Si Si4 0.813984 0.660052 0.862887
Si Si5 0.388160 0.299779 0.604539
Si Si6 0.175569 0.842590 0.207893
O O1 0.544540 0.782546 0.525516
O O2 0.701130 0.790778 0.598034
O O3 0.827414 0.713051 0.526287
O O4 0.750000 0.000000 0.540287
O O5 0.882244 0.202423 0.053428
O O6 0.000000 0.000000 0.000000
O O7 0.750000 0.500000 0.321872
O O8 0.789630 0.716911 0.376484
O O9 0.959299 0.463637 0.381079
O O10 0.011825 0.656430 0.317209
O O11 0.750000 0.500000 0.847140
O O12 0.803064 0.769007 0.822793
O O13 0.995394 0.666811 0.878603
O O14 0.144030 0.750000 0.250000
O O15 0.250000 0.000000 0.221442
#
# Coordination Sequence:
#
# PCOD8216269 Si02
#       6
#     8   8   8   8   8   8
#     4  10  23  37  54  81 128 167 198 254 311 368
#     4  11  22  33  58  93 119 158 222 257 295 356
#     4   8  19  38  63  81 121 161 193 246 311 364
#     4  10  21  40  60  86 120 161 204 247 315 369
#     4   8  19  38  60  84 124 165 196 257 300 367
#     4  12  23  40  65  93 116 151 198 254 316 378
#
# _framework density 20.052527999999999
#
# number of rings (size 3 to 8) (size 9 to 14) (size 15 to 20)
#    1.000    1.000    1.667    1.500    7.000    0.000 
#    0.000    5.833    0.000    0.000    0.000    0.000 
#    0.000    0.000    0.000    0.000    0.000    0.000 
#
# Total GULP energy -594630.424767 kJ/mol
# GULP energy per Si atom -12388.133849 kJ/mol
# Density = 2.000689 g / cm^3
# Si number density = 20.052528 Si / 1000 Ang^3
#
#
#
# Elastic Constant Matrix: (Units=GPa)
#
#
# Indices 1 2 3 4 5 6 
#
# 1 53.3253 8.4258 21.4322 0.0000 0.0000 0.0000
# 2 8.4258 85.2652 25.9404 0.0000 0.0000 0.0000
# 3 21.4322 25.9404 103.3311 0.0000 0.0000 0.0000
# 4 0.0000 0.0000 0.0000 33.8774 0.0000 0.0000
# 5 0.0000 0.0000 0.0000 0.0000 21.0019 0.0000
# 6 0.0000 0.0000 0.0000 0.0000 0.0000 28.6716
#
#
#
# Elastic Compliance Matrix: (Units=1/GPa)
#
#
# Indices 1 2 3 4 5 6 
#
# 1 0.020508 -0.000793 -0.004054 0.000000 0.000000 0.000000
# 2 -0.000793 0.012729 -0.003031 0.000000 0.000000 0.000000
# 3 -0.004054 -0.003031 0.011279 0.000000 0.000000 0.000000
# 4 0.000000 0.000000 0.000000 0.029518 0.000000 0.000000
# 5 0.000000 0.000000 0.000000 0.000000 0.047615 0.000000
# 6 0.000000 0.000000 0.000000 0.000000 0.000000 0.034878
#
#
# Mechanical properties :
#
#
# Convention : Reuss Voigt Hill
#
# Bulk Modulus (GPa) = 34.77190 39.27984 37.02587
# Shear Modulus (GPa) = 27.49224 29.11839 28.30532
#
# Velocity S-wave (km/s) = 3.70673 3.81478 3.76115
# Velocity P-wave (km/s) = 5.97477 6.24775 6.11279
#
# Compressibility (1/GPa) = 0.02875885
#
# Stress axis : x y z
#
# Youngs Moduli (GPa) = 48.76222 78.56333 88.65665
#
# Poissons Ratio (x) = 0.06230 0.35946
# Poissons Ratio (y) = 0.03867 0.26871
# Poissons Ratio (z) = 0.19770 0.23812
#
# Static dielectric constant tensor:
#      x y z
#    x 3.490000 0.000000 0.000000 
#    y 0.000000 3.472680 0.000000 
#    z 0.000000 0.000000 3.580560 
# 
# 
# High freq. dielectric constant tensor:
#      x y z
#    x 1.771270 0.000000 0.000000 
#    y 0.000000 1.769830 0.000000 
#    z 0.000000 0.000000 1.775920 
# 
# From -- ./inp_files/44355.got.cif
#   From: 2010.06.25/outbox.cif.g09.slc.cpg/sg52_23_cif.got.tgz:44355.got - 2010.06.26 19:32:48.
