data_PCOD8216420
_publ_section_title
;
Structure prediction by ZEFSAII (Michael W. Deem and Ramdas Pophale) SiO2 
 PCOD8216420
Probable space group: P N N A
;
_chemical_formula_sum "Si O2"
_cell_formula_units_Z 64
_cell_length_a 10.711350
_cell_length_b 28.613259
_cell_length_c 9.629284
_cell_angle_alpha 90.000000
_cell_angle_beta 90.000000
_cell_angle_gamma 90.000000
_cell_volume 2951.246820
_symmetry_space_group_name_H-M "P N N A"
_symmetry_group_IT_number 52
_symmetry_cell_setting 'orthorhombic'
loop_
_space_group_symop_operation_xyz
x,y,z
1/2-x,-y,z
x,1/2-y,1/2-z
1/2-x,1/2+y,1/2-z
-x,-y,-z
1/2+x,y,-z
-x,1/2+y,1/2+z
1/2+x,1/2-y,1/2+z
loop_
_atom_site_type_symbol
_atom_site_label
_atom_site_fract_x
_atom_site_fract_y
_atom_site_fract_z
Si Si1 0.909547 0.824030 0.674158
Si Si2 0.539937 0.058484 0.901455
Si Si3 0.781989 0.211809 0.130695
Si Si4 0.361937 0.117653 0.741234
Si Si5 0.453331 0.730296 0.455426
Si Si6 0.519966 0.544534 0.704798
Si Si7 0.233301 0.092267 0.295741
Si Si8 0.808431 0.549484 0.078748
O O1 0.925450 0.785550 0.555273
O O2 0.913622 0.798338 0.820798
O O3 0.779744 0.853250 0.654959
O O4 0.019986 0.861986 0.657506
O O5 0.405642 0.079244 0.855637
O O6 0.648205 0.090736 0.841704
O O7 0.564530 0.007204 0.836963
O O8 0.553447 0.062030 0.068033
O O9 0.807207 0.250000 0.250000
O O10 0.787280 0.159434 0.187293
O O11 0.897270 0.220427 0.019657
O O12 0.640411 0.214646 0.076336
O O13 0.274602 0.092265 0.631239
O O14 0.630770 0.579159 0.744391
O O15 0.439832 0.547456 0.844048
O O16 0.179199 0.057023 0.413432
O O17 0.750000 0.500000 0.111908
#
# Coordination Sequence:
#
# PCOD8216420 Si02
#       8
#     8   8   8   8   8   8   8   8
#     4   9  21  44  68  94 132 185 213 281 344 408
#     4  10  23  43  67  90 137 182 227 283 333 396
#     4  11  23  44  71 103 136 175 223 283 344 417
#     4  10  22  42  70  94 134 184 220 276 343 410
#     4  10  21  45  73  95 140 175 223 284 353 406
#     4  11  25  42  66  98 133 180 234 282 336 400
#     4  11  26  41  67  99 136 177 237 278 336 415
#     4  12  26  42  67 101 143 180 228 285 346 405
#
# _framework density 21.685751
#
# number of rings (size 3 to 8) (size 9 to 14) (size 15 to 20)
#    0.000    1.500    3.750    1.125    8.750    3.000 
#    2.250    0.000    0.000    0.000    0.000    0.000 
#    0.000    0.000    0.000    0.000    0.000    0.000 
#
# Total GULP energy -793221.129283 kJ/mol
# GULP energy per Si atom -12394.080145 kJ/mol
# Density = 2.163639 g / cm^3
# Si number density = 21.685751 Si / 1000 Ang^3
#
#
#
# Elastic Constant Matrix: (Units=GPa)
#
#
# Indices 1 2 3 4 5 6 
#
# 1 95.2318 21.2140 31.3065 0.0000 0.0000 0.0000
# 2 21.2140 107.7555 5.2667 0.0000 0.0000 0.0000
# 3 31.3065 5.2667 66.8497 0.0000 0.0000 0.0000
# 4 0.0000 0.0000 0.0000 14.8865 0.0000 0.0000
# 5 0.0000 0.0000 0.0000 0.0000 33.5719 0.0000
# 6 0.0000 0.0000 0.0000 0.0000 0.0000 29.8778
#
#
#
# Elastic Compliance Matrix: (Units=1/GPa)
#
#
# Indices 1 2 3 4 5 6 
#
# 1 0.012937 -0.002260 -0.005881 0.000000 0.000000 0.000000
# 2 -0.002260 0.009711 0.000293 0.000000 0.000000 0.000000
# 3 -0.005881 0.000293 0.017690 0.000000 0.000000 0.000000
# 4 0.000000 0.000000 0.000000 0.067175 0.000000 0.000000
# 5 0.000000 0.000000 0.000000 0.000000 0.029787 0.000000
# 6 0.000000 0.000000 0.000000 0.000000 0.000000 0.033470
#
#
# Mechanical properties :
#
#
# Convention : Reuss Voigt Hill
#
# Bulk Modulus (GPa) = 40.57837 42.82349 41.70093
# Shear Modulus (GPa) = 25.68343 29.80389 27.74366
#
# Velocity S-wave (km/s) = 3.44517 3.71125 3.58068
# Velocity P-wave (km/s) = 5.88032 6.17695 6.03046
#
# Compressibility (1/GPa) = 0.02464367
#
# Stress axis : x y z
#
# Youngs Moduli (GPa) = 77.29619 102.97836 56.52973
#
# Poissons Ratio (x) = 0.23268 0.33243
# Poissons Ratio (y) = 0.17465 -0.01657
# Poissons Ratio (z) = 0.45455 -0.03019
#
# Static dielectric constant tensor:
#      x y z
#    x 3.492880 0.000000 0.000000 
#    y 0.000000 4.302720 0.000000 
#    z 0.000000 0.000000 3.768540 
# 
# 
# High freq. dielectric constant tensor:
#      x y z
#    x 1.844260 0.000000 0.000000 
#    y 0.000000 1.870800 0.000000 
#    z 0.000000 0.000000 1.832630 
# 
# From -- ./inp_files/9141.got.cif
#   From: 2010.06.25/outbox.cif.g09.slc.cpg/sg52_5_cif.got.tgz:9141.got - 2010.06.26 19:32:48.
