data_PCOD8216194
_publ_section_title
;
Structure prediction by ZEFSAII (Michael W. Deem and Ramdas Pophale) SiO2 
 PCOD8216194
Probable space group: P N N A
;
_chemical_formula_sum "Si O2"
_cell_formula_units_Z 64
_cell_length_a 9.525476
_cell_length_b 16.049291
_cell_length_c 20.386715
_cell_angle_alpha 90.000000
_cell_angle_beta 90.000000
_cell_angle_gamma 90.000000
_cell_volume 3116.662606
_symmetry_space_group_name_H-M "P N N A"
_symmetry_group_IT_number 52
_symmetry_cell_setting 'orthorhombic'
loop_
_space_group_symop_operation_xyz
x,y,z
1/2-x,-y,z
x,1/2-y,1/2-z
1/2-x,1/2+y,1/2-z
-x,-y,-z
1/2+x,y,-z
-x,1/2+y,1/2+z
1/2+x,1/2-y,1/2+z
loop_
_atom_site_type_symbol
_atom_site_label
_atom_site_fract_x
_atom_site_fract_y
_atom_site_fract_z
Si Si1 0.664943 0.733562 0.544130
Si Si2 0.129204 0.698068 0.184173
Si Si3 0.870675 0.442186 0.491105
Si Si4 0.542333 0.214549 0.558260
Si Si5 0.146292 0.427384 0.150447
Si Si6 0.132833 0.928968 0.726807
Si Si7 0.132744 0.657906 0.634868
Si Si8 0.818265 0.791903 0.319852
O O1 0.668254 0.747413 0.621549
O O2 0.611248 0.640215 0.534043
O O3 0.824243 0.746363 0.520538
O O4 0.572325 0.796885 0.499683
O O5 0.129550 0.750000 0.250000
O O6 0.245658 0.626993 0.194183
O O7 0.970613 0.666829 0.167603
O O8 0.750000 0.500000 0.519266
O O9 0.845161 0.417400 0.415463
O O10 0.000000 0.500000 0.500000
O O11 0.582743 0.125111 0.589777
O O12 0.494562 0.280938 0.613910
O O13 0.250000 0.500000 0.123311
O O14 0.015841 0.460128 0.195701
O O15 0.099099 0.882113 0.794776
O O16 0.200589 0.863846 0.675436
O O17 0.250000 0.000000 0.739047
O O18 0.273393 0.716105 0.632079
O O19 0.817628 0.750000 0.250000
#
# Coordination Sequence:
#
# PCOD8216194 Si02
#       8
#     8   8   8   8   8   8   8   8
#     4  10  23  40  66  92 127 175 231 261 330 400
#     4  10  23  41  66  97 132 171 223 270 328 403
#     4  11  23  39  57  91 133 165 212 269 318 385
#     4  10  22  41  66  94 125 178 227 272 329 403
#     4  11  24  42  63  95 141 167 218 283 347 389
#     4  11  22  38  63  96 129 173 225 275 338 393
#     4  10  21  38  66  89 126 179 224 263 321 399
#     4   9  19  36  62  89 119 167 224 264 317 390
#
# _framework density 20.534787000000001
#
# number of rings (size 3 to 8) (size 9 to 14) (size 15 to 20)
#    0.000    1.750    1.250    2.625    8.750    0.000 
#    4.500    2.500    0.000    1.500    0.000    0.000 
#    0.000    0.000    0.000    0.000    0.000    0.000 
#
# Total GULP energy -792961.890253 kJ/mol
# GULP energy per Si atom -12390.029535 kJ/mol
# Density = 2.048805 g / cm^3
# Si number density = 20.534787 Si / 1000 Ang^3
#
#
#
# Elastic Constant Matrix: (Units=GPa)
#
#
# Indices 1 2 3 4 5 6 
#
# 1 161.9766 47.8132 39.7878 0.0000 0.0000 0.0000
# 2 47.8132 92.6409 38.6762 0.0000 0.0000 0.0000
# 3 39.7878 38.6762 87.8067 0.0000 0.0000 0.0000
# 4 0.0000 0.0000 0.0000 12.5772 0.0000 0.0000
# 5 0.0000 0.0000 0.0000 0.0000 29.7791 0.0000
# 6 0.0000 0.0000 0.0000 0.0000 0.0000 52.1198
#
#
#
# Elastic Compliance Matrix: (Units=1/GPa)
#
#
# Indices 1 2 3 4 5 6 
#
# 1 0.007586 -0.003039 -0.002099 0.000000 0.000000 0.000000
# 2 -0.003039 0.014444 -0.004985 0.000000 0.000000 0.000000
# 3 -0.002099 -0.004985 0.014536 0.000000 0.000000 0.000000
# 4 0.000000 0.000000 0.000000 0.079509 0.000000 0.000000
# 5 0.000000 0.000000 0.000000 0.000000 0.033581 0.000000
# 6 0.000000 0.000000 0.000000 0.000000 0.000000 0.019187
#
#
# Mechanical properties :
#
#
# Convention : Reuss Voigt Hill
#
# Bulk Modulus (GPa) = 61.27574 66.10874 63.69224
# Shear Modulus (GPa) = 25.70318 33.30502 29.50410
#
# Velocity S-wave (km/s) = 3.54176 4.03163 3.79461
# Velocity P-wave (km/s) = 6.82863 7.34408 7.09104
#
# Compressibility (1/GPa) = 0.01631967
#
# Stress axis : x y z
#
# Youngs Moduli (GPa) = 131.81406 69.23230 68.79697
#
# Poissons Ratio (x) = 0.21041 0.14440
# Poissons Ratio (y) = 0.40061 0.34296
# Poissons Ratio (z) = 0.27667 0.34513
#
# Static dielectric constant tensor:
#      x y z
#    x 4.318280 0.000000 0.000000 
#    y 0.000000 3.707690 0.000000 
#    z 0.000000 0.000000 1.949650 
# 
# 
# High freq. dielectric constant tensor:
#      x y z
#    x 1.826010 0.000000 0.000000 
#    y 0.000000 1.790980 0.000000 
#    z 0.000000 0.000000 1.788590 
# 
# From -- ./inp_files/36200.got.cif
#   From: 2010.06.25/outbox.cif.g09.slc.cpg/sg52_19_cif.got.tgz:36200.got - 2010.06.26 19:32:48.
