data_PCOD8216348
_publ_section_title
;
Structure prediction by ZEFSAII (Michael W. Deem and Ramdas Pophale) SiO2 
 PCOD8216348
Probable space group: P N N A
;
_chemical_formula_sum "Si O2"
_cell_formula_units_Z 56
_cell_length_a 8.893297
_cell_length_b 19.964686
_cell_length_c 13.986312
_cell_angle_alpha 90.000000
_cell_angle_beta 90.000000
_cell_angle_gamma 90.000000
_cell_volume 2483.296019
_symmetry_space_group_name_H-M "P N N A"
_symmetry_group_IT_number 52
_symmetry_cell_setting 'orthorhombic'
loop_
_space_group_symop_operation_xyz
x,y,z
1/2-x,-y,z
x,1/2-y,1/2-z
1/2-x,1/2+y,1/2-z
-x,-y,-z
1/2+x,y,-z
-x,1/2+y,1/2+z
1/2+x,1/2-y,1/2+z
loop_
_atom_site_type_symbol
_atom_site_label
_atom_site_fract_x
_atom_site_fract_y
_atom_site_fract_z
Si Si1 0.968085 0.737442 0.647760
Si Si2 0.434776 0.908556 0.103972
Si Si3 0.349684 0.558251 0.938567
Si Si4 0.084077 0.018001 0.776261
Si Si5 0.117719 0.749068 0.144072
Si Si6 0.420386 0.108953 0.086017
Si Si7 0.411666 0.146708 0.515495
O O1 0.045008 0.750000 0.750000
O O2 0.014607 0.663353 0.616580
O O3 0.791023 0.736515 0.657596
O O4 0.017189 0.795392 0.577556
O O5 0.254942 0.908714 0.096193
O O6 0.477580 0.955634 0.193586
O O7 0.509707 0.931331 0.003845
O O8 0.250000 0.500000 0.988375
O O9 0.409397 0.531202 0.837175
O O10 0.487376 0.579165 0.007372
O O11 0.244610 0.625174 0.934649
O O12 0.014055 0.084314 0.822197
O O13 0.250000 0.000000 0.814797
O O14 0.042404 0.750000 0.250000
O O15 0.050627 0.810731 0.081518
O O16 0.099555 0.677626 0.091513
#
# Coordination Sequence:
#
# PCOD8216348 Si02
#       7
#     8   8   8   8   8   8   8
#     4  10  23  40  68 103 136 184 230 290 353 421
#     4  11  23  42  70 101 145 183 237 292 351 433
#     4  11  27  46  71 101 138 186 238 288 351 429
#     4  11  25  45  65 101 143 182 241 289 342 426
#     4  10  21  41  69 106 142 177 238 293 357 431
#     4  11  22  42  69 105 139 192 230 290 369 417
#     4  12  22  48  72 103 141 183 232 298 357 418
#
# _framework density 22.550674999999998
#
# number of rings (size 3 to 8) (size 9 to 14) (size 15 to 20)
#    0.000    1.143    2.857    3.000    4.000    0.000 
#    2.571    3.571    0.000    0.000    0.000    0.000 
#    0.000    0.000    0.000    0.000    0.000    0.000 
#
# Total GULP energy -694076.838079 kJ/mol
# GULP energy per Si atom -12394.229251 kJ/mol
# Density = 2.249935 g / cm^3
# Si number density = 22.550675 Si / 1000 Ang^3
#
#
#
# Elastic Constant Matrix: (Units=GPa)
#
#
# Indices 1 2 3 4 5 6 
#
# 1 91.4777 25.6946 31.6594 0.0000 0.0000 0.0000
# 2 25.6946 93.5648 38.5371 0.0000 0.0000 0.0000
# 3 31.6594 38.5371 114.3508 0.0000 0.0000 0.0000
# 4 0.0000 0.0000 0.0000 -185.9647 0.0000 0.0000
# 5 0.0000 0.0000 0.0000 0.0000 29.8842 0.0000
# 6 0.0000 0.0000 0.0000 0.0000 0.0000 29.7734
#
#
#
# Elastic Compliance Matrix: (Units=1/GPa)
#
#
# Indices 1 2 3 4 5 6 
#
# 1 0.012514 -0.002333 -0.002678 0.000000 0.000000 0.000000
# 2 -0.002333 0.012846 -0.003683 0.000000 0.000000 0.000000
# 3 -0.002678 -0.003683 0.010728 0.000000 0.000000 0.000000
# 4 0.000000 0.000000 0.000000 -0.005377 0.000000 0.000000
# 5 0.000000 0.000000 0.000000 0.000000 0.033463 0.000000
# 6 0.000000 0.000000 0.000000 0.000000 0.000000 0.033587
#
#
# Mechanical properties :
#
#
# Convention : Reuss Voigt Hill
#
# Bulk Modulus (GPa) = 53.48218 54.57505 54.02862
# Shear Modulus (GPa) = 41.19246 -11.69461 14.74892
#
# Velocity S-wave (km/s) = 4.27858 -2.27973 2.56018
# Velocity P-wave (km/s) = 6.94091 4.16221 5.72278
#
# Compressibility (1/GPa) = 0.01869782
#
# Stress axis : x y z
#
# Youngs Moduli (GPa) = 79.91074 77.84818 93.21645
#
# Poissons Ratio (x) = 0.18165 0.24966
# Poissons Ratio (y) = 0.18647 0.34332
# Poissons Ratio (z) = 0.21402 0.28671
#
# Static dielectric constant tensor:
#      x y z
#    x 4.062150 0.000000 0.000000 
#    y 0.000000 4.374120 0.000000 
#    z 0.000000 0.000000 4.076980 
# 
# 
# High freq. dielectric constant tensor:
#      x y z
#    x 1.881750 0.000000 0.000000 
#    y 0.000000 1.906550 0.000000 
#    z 0.000000 0.000000 1.884130 
# 
# From -- ./inp_files/24970.got.cif
#   From: 2010.06.25/outbox.cif.g09.slc.cpg/sg52_13_cif.got.tgz:24970.got - 2010.06.26 19:32:48.
