data_PCOD8216011
_publ_section_title
;
Structure prediction by ZEFSAII (Michael W. Deem and Ramdas Pophale) SiO2 
 PCOD8216011
Probable space group: P N N A
;
_chemical_formula_sum "Si O2"
_cell_formula_units_Z 56
_cell_length_a 11.956979
_cell_length_b 14.932507
_cell_length_c 15.302882
_cell_angle_alpha 90.000000
_cell_angle_beta 90.000000
_cell_angle_gamma 90.000000
_cell_volume 2732.293965
_symmetry_space_group_name_H-M "P N N A"
_symmetry_group_IT_number 52
_symmetry_cell_setting 'orthorhombic'
loop_
_space_group_symop_operation_xyz
x,y,z
1/2-x,-y,z
x,1/2-y,1/2-z
1/2-x,1/2+y,1/2-z
-x,-y,-z
1/2+x,y,-z
-x,1/2+y,1/2+z
1/2+x,1/2-y,1/2+z
loop_
_atom_site_type_symbol
_atom_site_label
_atom_site_fract_x
_atom_site_fract_y
_atom_site_fract_z
Si Si1 0.211556 0.403060 0.612851
Si Si2 0.765833 0.637517 0.885646
Si Si3 0.568388 0.986015 0.586142
Si Si4 0.062597 0.830101 0.820760
Si Si5 0.791799 0.406230 0.705238
Si Si6 0.647170 0.319798 0.561727
Si Si7 0.974308 0.967981 0.233738
O O1 0.250000 0.500000 0.577595
O O2 0.313669 0.338087 0.638567
O O3 0.138831 0.357455 0.536331
O O4 0.136646 0.419222 0.699089
O O5 0.663505 0.587517 0.932938
O O6 0.878386 0.579664 0.885131
O O7 0.732432 0.662971 0.784937
O O8 0.788254 0.726194 0.940496
O O9 0.500000 0.000000 0.500000
O O10 0.485749 0.951364 0.662646
O O11 0.058151 0.750000 0.750000
O O12 0.976352 0.808000 0.898721
O O13 0.027472 0.925268 0.780634
O O14 0.750000 0.500000 0.747010
O O15 0.723619 0.386392 0.618367
O O16 0.922783 0.419275 0.683561
#
# Coordination Sequence:
#
# PCOD8216011 Si02
#       7
#     8   8   8   8   8   8   8
#     4  10  26  43  60  95 134 174 213 256 330 400
#     4  10  21  39  59  98 123 156 224 268 323 381
#     4  10  20  41  67  89 123 169 214 271 333 390
#     4  11  23  42  65  89 128 174 214 263 326 397
#     4  11  18  37  67  92 124 165 205 272 319 378
#     4  12  23  36  66  98 125 166 218 268 313 389
#     4  10  21  42  64  89 129 170 210 261 330 391
#
# _framework density 20.495598999999999
#
# number of rings (size 3 to 8) (size 9 to 14) (size 15 to 20)
#    0.000    1.429    4.286    2.571    2.000    3.429 
#   10.286    1.429    0.000    0.000    0.000    0.000 
#    0.000    0.000    0.000    0.000    0.000    0.000 
#
# Total GULP energy -694330.680079 kJ/mol
# GULP energy per Si atom -12398.762144 kJ/mol
# Density = 2.044895 g / cm^3
# Si number density = 20.495599 Si / 1000 Ang^3
#
#
#
# Elastic Constant Matrix: (Units=GPa)
#
#
# Indices 1 2 3 4 5 6 
#
# 1 131.9268 46.2266 70.5514 0.0000 0.0000 0.0000
# 2 46.2266 88.7874 44.7184 0.0000 0.0000 0.0000
# 3 70.5514 44.7184 127.7786 0.0000 0.0000 0.0000
# 4 0.0000 0.0000 0.0000 23.7255 0.0000 0.0000
# 5 0.0000 0.0000 0.0000 0.0000 32.4383 0.0000
# 6 0.0000 0.0000 0.0000 0.0000 0.0000 24.1044
#
#
#
# Elastic Compliance Matrix: (Units=1/GPa)
#
#
# Indices 1 2 3 4 5 6 
#
# 1 0.011543 -0.003399 -0.005184 0.000000 0.000000 0.000000
# 2 -0.003399 0.014674 -0.003259 0.000000 0.000000 0.000000
# 3 -0.005184 -0.003259 0.011829 0.000000 0.000000 0.000000
# 4 0.000000 0.000000 0.000000 0.042149 0.000000 0.000000
# 5 0.000000 0.000000 0.000000 0.000000 0.030828 0.000000
# 6 0.000000 0.000000 0.000000 0.000000 0.000000 0.041486
#
#
# Mechanical properties :
#
#
# Convention : Reuss Voigt Hill
#
# Bulk Modulus (GPa) = 69.62530 74.60951 72.11740
# Shear Modulus (GPa) = 27.62752 28.52005 28.07378
#
# Velocity S-wave (km/s) = 3.67546 3.73436 3.70502
# Velocity P-wave (km/s) = 7.21503 7.42129 7.31889
#
# Compressibility (1/GPa) = 0.01436260
#
# Stress axis : x y z
#
# Youngs Moduli (GPa) = 86.63119 68.14888 84.54030
#
# Poissons Ratio (x) = 0.23164 0.43825
# Poissons Ratio (y) = 0.29446 0.27549
# Poissons Ratio (z) = 0.44909 0.22207
#
# Static dielectric constant tensor:
#      x y z
#    x 3.898180 0.000000 0.000000 
#    y 0.000000 3.722930 0.000000 
#    z 0.000000 0.000000 3.525160 
# 
# 
# High freq. dielectric constant tensor:
#      x y z
#    x 1.806630 0.000000 0.000000 
#    y 0.000000 1.797500 0.000000 
#    z 0.000000 0.000000 1.788470 
# 
# From -- ./inp_files/26171.got.cif
#   From: 2010.06.25/outbox.cif.g09.slc.cpg/sg52_14_cif.got.tgz:26171.got - 2010.06.26 19:32:48.
