data_PCOD8216963
_publ_section_title
;
Structure prediction by ZEFSAII (Michael W. Deem and Ramdas Pophale) SiO2 
 PCOD8216963
Probable space group: P N N A
;
_chemical_formula_sum "Si O2"
_cell_formula_units_Z 40
_cell_length_a 8.066604
_cell_length_b 20.455041
_cell_length_c 11.410072
_cell_angle_alpha 90.000000
_cell_angle_beta 90.000000
_cell_angle_gamma 90.000000
_cell_volume 1882.692865
_symmetry_space_group_name_H-M "P N N A"
_symmetry_group_IT_number 52
_symmetry_cell_setting 'orthorhombic'
loop_
_space_group_symop_operation_xyz
x,y,z
1/2-x,-y,z
x,1/2-y,1/2-z
1/2-x,1/2+y,1/2-z
-x,-y,-z
1/2+x,y,-z
-x,1/2+y,1/2+z
1/2+x,1/2-y,1/2+z
loop_
_atom_site_type_symbol
_atom_site_label
_atom_site_fract_x
_atom_site_fract_y
_atom_site_fract_z
Si Si1 0.250000 0.500000 0.788052
Si Si2 0.710650 0.750000 0.750000
Si Si3 0.299799 0.358417 0.865717
Si Si4 0.997174 0.717347 0.031199
Si Si5 0.563241 0.023276 0.877078
Si Si6 0.473516 0.668467 0.340711
O O1 0.242118 0.434248 0.867169
O O2 0.423487 0.498531 0.716485
O O3 0.613186 0.746935 0.869999
O O4 0.826077 0.685608 0.749327
O O5 0.165378 0.304601 0.900896
O O6 0.357554 0.338221 0.734498
O O7 0.440601 0.347990 0.964302
O O8 0.977610 0.775884 0.938966
O O9 0.572480 0.100271 0.897584
O O10 0.750000 0.000000 0.843207
O O11 0.500000 0.000000 0.000000
#
# Coordination Sequence:
#
# PCOD8216963 Si02
#       6
#     4   4   8   8   8   8
#     4  10  26  46  70 100 144 188 240 294 342 444
#     4  12  26  40  68 104 132 188 224 284 356 406
#     4  11  24  47  70 101 139 183 236 284 361 414
#     4  12  25  42  71 101 139 183 229 293 350 418
#     4  11  25  44  70 101 140 189 236 290 358 414
#     4  11  25  47  67 102 144 173 236 294 344 424
#
# _framework density 21.246162999999999
#
# number of rings (size 3 to 8) (size 9 to 14) (size 15 to 20)
#    0.000    0.800    5.000    0.000    8.400    0.800 
#    0.000    0.000    0.000    0.000    0.000    0.000 
#    0.000    0.000    0.000    0.000    0.000    0.000 
#
# Total GULP energy -495665.412900 kJ/mol
# GULP energy per Si atom -12391.635323 kJ/mol
# Density = 2.119781 g / cm^3
# Si number density = 21.246163 Si / 1000 Ang^3
#
#
#
# Elastic Constant Matrix: (Units=GPa)
#
#
# Indices 1 2 3 4 5 6 
#
# 1 128.9023 57.7434 43.3142 0.0000 0.0000 0.0000
# 2 57.7434 169.1073 67.9525 0.0000 0.0000 0.0000
# 3 43.3142 67.9525 82.5472 0.0000 0.0000 0.0000
# 4 0.0000 0.0000 0.0000 38.1524 0.0000 0.0000
# 5 0.0000 0.0000 0.0000 0.0000 23.0847 0.0000
# 6 0.0000 0.0000 0.0000 0.0000 0.0000 27.2749
#
#
#
# Elastic Compliance Matrix: (Units=1/GPa)
#
#
# Indices 1 2 3 4 5 6 
#
# 1 0.009817 -0.001916 -0.003574 0.000000 0.000000 0.000000
# 2 -0.001916 0.009210 -0.006576 0.000000 0.000000 0.000000
# 3 -0.003574 -0.006576 0.019403 0.000000 0.000000 0.000000
# 4 0.000000 0.000000 0.000000 0.026211 0.000000 0.000000
# 5 0.000000 0.000000 0.000000 0.000000 0.043319 0.000000
# 6 0.000000 0.000000 0.000000 0.000000 0.000000 0.036664
#
#
# Mechanical properties :
#
#
# Convention : Reuss Voigt Hill
#
# Bulk Modulus (GPa) = 69.94101 79.84187 74.89144
# Shear Modulus (GPa) = 28.81469 31.80552 30.31011
#
# Velocity S-wave (km/s) = 3.68670 3.87331 3.78115
# Velocity P-wave (km/s) = 7.14935 7.59370 7.37487
#
# Compressibility (1/GPa) = 0.01429776
#
# Stress axis : x y z
#
# Youngs Moduli (GPa) = 101.86363 108.57437 51.53751
#
# Poissons Ratio (x) = 0.20803 0.18419
# Poissons Ratio (y) = 0.19517 0.33894
# Poissons Ratio (z) = 0.36406 0.71404
#
# Static dielectric constant tensor:
#      x y z
#    x 4.412790 0.000000 0.000000 
#    y 0.000000 3.993070 0.000000 
#    z 0.000000 0.000000 3.811780 
# 
# 
# High freq. dielectric constant tensor:
#      x y z
#    x 1.847110 0.000000 0.000000 
#    y 0.000000 1.838280 0.000000 
#    z 0.000000 0.000000 1.837690 
# 
# From -- ./inp_files/16834.got.cif
#   From: 2010.06.25/outbox.cif.g09.slc.cpg/sg52_9_cif.got.tgz:16834.got - 2010.06.26 19:32:48.
