data_PCOD8216491
_publ_section_title
;
Structure prediction by ZEFSAII (Michael W. Deem and Ramdas Pophale) SiO2 
 PCOD8216491
Probable space group: P N N A
;
_chemical_formula_sum "Si O2"
_cell_formula_units_Z 32
_cell_length_a 13.803585
_cell_length_b 5.198005
_cell_length_c 22.616569
_cell_angle_alpha 90.000000
_cell_angle_beta 90.000000
_cell_angle_gamma 90.000000
_cell_volume 1622.763791
_symmetry_space_group_name_H-M "P N N A"
_symmetry_group_IT_number 52
_symmetry_cell_setting 'orthorhombic'
loop_
_space_group_symop_operation_xyz
x,y,z
1/2-x,-y,z
x,1/2-y,1/2-z
1/2-x,1/2+y,1/2-z
-x,-y,-z
1/2+x,y,-z
-x,1/2+y,1/2+z
1/2+x,1/2-y,1/2+z
loop_
_atom_site_type_symbol
_atom_site_label
_atom_site_fract_x
_atom_site_fract_y
_atom_site_fract_z
Si Si1 0.687498 0.750140 0.485830
Si Si2 0.145224 0.585199 0.113696
Si Si3 0.461180 0.204680 0.615394
Si Si4 0.520301 0.215423 0.181003
O O1 0.750000 0.500000 0.471876
O O2 0.654322 0.750733 0.553781
O O3 0.591755 0.744616 0.446082
O O4 0.750000 0.000000 0.470552
O O5 0.250000 0.500000 0.137305
O O6 0.076333 0.334848 0.101717
O O7 0.094169 0.761220 0.163836
O O8 0.441282 0.439619 0.660076
O O9 0.421500 0.944128 0.647159
O O10 0.535872 0.250000 0.250000
#
# Coordination Sequence:
#
# PCOD8216491 Si02
#       4
#     8   8   8   8
#     4  11  23  38  62  91 121 153 198 249 304 361
#     4   9  23  37  60  90 124 152 196 237 300 363
#     4  10  22  39  62  83 124 154 198 246 301 345
#     4  10  22  39  61  86 119 159 200 240 291 355
#
# _framework density 19.719442000000001
#
# number of rings (size 3 to 8) (size 9 to 14) (size 15 to 20)
#    1.500    0.500    0.000    3.000    7.000    1.000 
#    4.500    0.000    0.000   15.000    0.000    0.000 
#    0.000    0.000    0.000    0.000    0.000    0.000 
#
# Total GULP energy -396565.448634 kJ/mol
# GULP energy per Si atom -12392.670270 kJ/mol
# Density = 1.967456 g / cm^3
# Si number density = 19.719442 Si / 1000 Ang^3
#
#
#
# Elastic Constant Matrix: (Units=GPa)
#
#
# Indices 1 2 3 4 5 6 
#
# 1 23.4632 11.9883 -5.3928 0.0000 0.0000 0.0000
# 2 11.9883 131.0021 5.8448 0.0000 0.0000 0.0000
# 3 -5.3928 5.8448 47.8097 0.0000 0.0000 0.0000
# 4 0.0000 0.0000 0.0000 54.2318 0.0000 0.0000
# 5 0.0000 0.0000 0.0000 0.0000 14.8706 0.0000
# 6 0.0000 0.0000 0.0000 0.0000 0.0000 22.3390
#
#
#
# Elastic Compliance Matrix: (Units=1/GPa)
#
#
# Indices 1 2 3 4 5 6 
#
# 1 0.046238 -0.004489 0.005764 0.000000 0.000000 0.000000
# 2 -0.004489 0.008111 -0.001498 0.000000 0.000000 0.000000
# 3 0.005764 -0.001498 0.021750 0.000000 0.000000 0.000000
# 4 0.000000 0.000000 0.000000 0.018439 0.000000 0.000000
# 5 0.000000 0.000000 0.000000 0.000000 0.067247 0.000000
# 6 0.000000 0.000000 0.000000 0.000000 0.000000 0.044765
#
#
# Mechanical properties :
#
#
# Convention : Reuss Voigt Hill
#
# Bulk Modulus (GPa) = 13.21798 25.23952 19.22875
# Shear Modulus (GPa) = 21.53203 30.94393 26.23798
#
# Velocity S-wave (km/s) = 3.30800 3.96562 3.65165
# Velocity P-wave (km/s) = 4.61607 5.81337 5.24897
#
# Compressibility (1/GPa) = 0.07565452
#
# Stress axis : x y z
#
# Youngs Moduli (GPa) = 21.62717 123.28854 45.97785
#
# Poissons Ratio (x) = 0.55339 -0.26503
# Poissons Ratio (y) = 0.09707 0.06887
# Poissons Ratio (z) = -0.12467 0.18467
#
# Static dielectric constant tensor:
#      x y z
#    x 3.361440 0.000000 0.000000 
#    y 0.000000 3.613670 0.000000 
#    z 0.000000 0.000000 3.320220 
# 
# 
# High freq. dielectric constant tensor:
#      x y z
#    x 1.745770 0.000000 0.000000 
#    y 0.000000 1.778510 0.000000 
#    z 0.000000 0.000000 1.758150 
# 
# From -- ./inp_files/32685.got.cif
#   From: 2010.06.25/outbox.cif.g09.slc.cpg/sg52_17_cif.got.tgz:32685.got - 2010.06.26 19:32:48.
