data_PCOD8216241
_publ_section_title
;
Structure prediction by ZEFSAII (Michael W. Deem and Ramdas Pophale) SiO2 
 PCOD8216241
Probable space group: P N N A
;
_chemical_formula_sum "Si O2"
_cell_formula_units_Z 40
_cell_length_a 24.164716
_cell_length_b 8.532600
_cell_length_c 9.187286
_cell_angle_alpha 90.000000
_cell_angle_beta 90.000000
_cell_angle_gamma 90.000000
_cell_volume 1894.306800
_symmetry_space_group_name_H-M "P N N A"
_symmetry_group_IT_number 52
_symmetry_cell_setting 'orthorhombic'
loop_
_space_group_symop_operation_xyz
x,y,z
1/2-x,-y,z
x,1/2-y,1/2-z
1/2-x,1/2+y,1/2-z
-x,-y,-z
1/2+x,y,-z
-x,1/2+y,1/2+z
1/2+x,1/2-y,1/2+z
loop_
_atom_site_type_symbol
_atom_site_label
_atom_site_fract_x
_atom_site_fract_y
_atom_site_fract_z
Si Si1 0.308585 0.927022 0.950705
Si Si2 0.191972 0.074549 0.605387
Si Si3 0.477306 0.925927 0.282195
Si Si4 0.601346 0.638992 0.615126
Si Si5 0.578705 0.570066 0.051002
O O1 0.316722 0.932246 0.778010
O O2 0.311490 0.740621 0.978978
O O3 0.250000 0.000000 0.995517
O O4 0.352680 0.022693 0.047675
O O5 0.250000 0.000000 0.559582
O O6 0.143291 0.965546 0.550458
O O7 0.461345 0.750000 0.250000
O O8 0.544188 0.951650 0.298253
O O9 0.452156 0.039830 0.161869
O O10 0.449164 0.955933 0.436384
O O11 0.623391 0.750000 0.750000
O O12 0.575770 0.746911 0.489664
#
# Coordination Sequence:
#
# PCOD8216241 Si02
#       5
#     8   8   8   8   8
#     4  10  21  39  64  95 124 158 200 250 308 363
#     4  10  21  39  65  95 125 156 198 253 309 365
#     4  10  22  40  59  87 122 164 204 248 300 360
#     4  10  22  41  61  87 122 161 206 249 297 366
#     4  10  22  40  60  91 123 159 202 252 304 356
#
# _framework density 21.115901999999998
#
# number of rings (size 3 to 8) (size 9 to 14) (size 15 to 20)
#    0.000    2.000    0.000    2.400    2.800    2.400 
#   18.000    9.000    0.000    0.000    0.000    0.000 
#    0.000    0.000    0.000    0.000    0.000    0.000 
#
# Total GULP energy -495582.303341 kJ/mol
# GULP energy per Si atom -12389.557584 kJ/mol
# Density = 2.106784 g / cm^3
# Si number density = 21.115902 Si / 1000 Ang^3
#
#
#
# Elastic Constant Matrix: (Units=GPa)
#
#
# Indices 1 2 3 4 5 6 
#
# 1 175.6841 89.1818 60.9860 0.0000 0.0000 0.0000
# 2 89.1818 182.3815 55.9869 0.0000 0.0000 0.0000
# 3 60.9860 55.9869 47.4223 0.0000 0.0000 0.0000
# 4 0.0000 0.0000 0.0000 34.6362 0.0000 0.0000
# 5 0.0000 0.0000 0.0000 0.0000 33.1356 0.0000
# 6 0.0000 0.0000 0.0000 0.0000 0.0000 34.8186
#
#
#
# Elastic Compliance Matrix: (Units=1/GPa)
#
#
# Indices 1 2 3 4 5 6 
#
# 1 0.010558 -0.001560 -0.011736 0.000000 0.000000 0.000000
# 2 -0.001560 0.008830 -0.008419 0.000000 0.000000 0.000000
# 3 -0.011736 -0.008419 0.046119 0.000000 0.000000 0.000000
# 4 0.000000 0.000000 0.000000 0.028872 0.000000 0.000000
# 5 0.000000 0.000000 0.000000 0.000000 0.030179 0.000000
# 6 0.000000 0.000000 0.000000 0.000000 0.000000 0.028720
#
#
# Mechanical properties :
#
#
# Convention : Reuss Voigt Hill
#
# Bulk Modulus (GPa) = 45.29456 90.86637 68.08046
# Shear Modulus (GPa) = 24.50184 33.80698 29.15441
#
# Velocity S-wave (km/s) = 3.41009 4.00562 3.71979
# Velocity P-wave (km/s) = 6.08292 8.03237 7.12463
#
# Compressibility (1/GPa) = 0.02207771
#
# Stress axis : x y z
#
# Youngs Moduli (GPa) = 94.71620 113.24786 21.68305
#
# Poissons Ratio (x) = 0.17667 0.25447
# Poissons Ratio (y) = 0.14776 0.18254
# Poissons Ratio (z) = 1.11158 0.95341
#
# Static dielectric constant tensor:
#      x y z
#    x 3.973140 0.000000 0.000000 
#    y 0.000000 4.030440 0.000000 
#    z 0.000000 0.000000 3.740270 
# 
# 
# High freq. dielectric constant tensor:
#      x y z
#    x 1.833150 0.000000 0.000000 
#    y 0.000000 1.844430 0.000000 
#    z 0.000000 0.000000 1.813260 
# 
# From -- ./inp_files/13984.got.cif
#   From: 2010.06.25/outbox.cif.g09.slc.cpg/sg52_7_cif.got.tgz:13984.got - 2010.06.26 19:32:48.
