data_PCOD8216040
_publ_section_title
;
Structure prediction by ZEFSAII (Michael W. Deem and Ramdas Pophale) SiO2 
 PCOD8216040
Probable space group: P N N A
;
_chemical_formula_sum "Si O2"
_cell_formula_units_Z 52
_cell_length_a 21.438641
_cell_length_b 18.091949
_cell_length_c 6.376960
_cell_angle_alpha 90.000000
_cell_angle_beta 90.000000
_cell_angle_gamma 90.000000
_cell_volume 2473.411066
_symmetry_space_group_name_H-M "P N N A"
_symmetry_group_IT_number 52
_symmetry_cell_setting 'orthorhombic'
loop_
_space_group_symop_operation_xyz
x,y,z
1/2-x,-y,z
x,1/2-y,1/2-z
1/2-x,1/2+y,1/2-z
-x,-y,-z
1/2+x,y,-z
-x,1/2+y,1/2+z
1/2+x,1/2-y,1/2+z
loop_
_atom_site_type_symbol
_atom_site_label
_atom_site_fract_x
_atom_site_fract_y
_atom_site_fract_z
Si Si1 0.563502 0.850943 0.433101
Si Si2 0.552571 0.323824 0.637249
Si Si3 0.780843 0.324161 0.635343
Si Si4 0.750000 0.000000 0.231062
Si Si5 0.501538 0.250000 0.250000
Si Si6 0.836024 0.054007 0.575206
Si Si7 0.166430 0.750000 0.750000
Si Si8 0.169488 0.420663 0.376730
O O1 0.511757 0.852056 0.248487
O O2 0.537952 0.812808 0.638829
O O3 0.592887 0.931584 0.489940
O O4 0.623885 0.803028 0.385056
O O5 0.579101 0.250000 0.750000
O O6 0.542943 0.298547 0.402105
O O7 0.598505 0.393075 0.612518
O O8 0.796958 0.250000 0.750000
O O9 0.822924 0.389040 0.734542
O O10 0.793077 0.306731 0.390849
O O11 0.709426 0.347508 0.669031
O O12 0.712314 0.942280 0.379197
O O13 0.801595 0.958656 0.085878
O O14 0.828590 0.973418 0.675463
#
# Coordination Sequence:
#
# PCOD8216040 Si02
#       8
#     8   8   8   4   4   8   4   8
#     4  11  22  40  70 100 134 175 230 285 348 399
#     4  10  24  44  69 100 138 183 227 288 345 414
#     4  12  24  40  69 103 129 173 229 291 344 402
#     4  12  24  46  68  92 142 188 224 280 352 410
#     4  10  20  43  66  98 137 170 226 288 342 396
#     4  12  25  45  69  99 139 179 226 291 341 415
#     4  12  22  37  74 104 127 166 236 296 336 408
#     4  12  26  45  65  97 144 181 232 277 351 428
#
# _framework density 21.023596999999999
#
# number of rings (size 3 to 8) (size 9 to 14) (size 15 to 20)
#    0.000    0.615    6.923    2.308    0.000    3.692 
#    0.000    1.538    0.000    0.000    0.000    0.000 
#    0.000    0.000    0.000    0.000    0.000    0.000 
#
# Total GULP energy -644249.849389 kJ/mol
# GULP energy per Si atom -12389.420181 kJ/mol
# Density = 2.097575 g / cm^3
# Si number density = 21.023597 Si / 1000 Ang^3
#
#
#
# Elastic Constant Matrix: (Units=GPa)
#
#
# Indices 1 2 3 4 5 6 
#
# 1 113.4699 53.1805 52.9409 0.0000 0.0000 0.0000
# 2 53.1805 85.4106 46.3796 0.0000 0.0000 0.0000
# 3 52.9409 46.3796 126.7572 0.0000 0.0000 0.0000
# 4 0.0000 0.0000 0.0000 38.3995 0.0000 0.0000
# 5 0.0000 0.0000 0.0000 0.0000 -5.0112 0.0000
# 6 0.0000 0.0000 0.0000 0.0000 0.0000 54.1612
#
#
#
# Elastic Compliance Matrix: (Units=1/GPa)
#
#
# Indices 1 2 3 4 5 6 
#
# 1 0.013395 -0.006617 -0.003173 0.000000 0.000000 0.000000
# 2 -0.006617 0.017880 -0.003779 0.000000 0.000000 0.000000
# 3 -0.003173 -0.003779 0.010597 0.000000 0.000000 0.000000
# 4 0.000000 0.000000 0.000000 0.026042 0.000000 0.000000
# 5 0.000000 0.000000 0.000000 0.000000 -0.199555 0.000000
# 6 0.000000 0.000000 0.000000 0.000000 0.000000 0.018463
#
#
# Mechanical properties :
#
#
# Convention : Reuss Voigt Hill
#
# Bulk Modulus (GPa) = 67.86993 70.07109 68.97051
# Shear Modulus (GPa) = -61.63026 29.05235 -16.28896
#
# Velocity S-wave (km/s) = -5.42019 3.72141 -2.78653
# Velocity P-wave (km/s) = 2.61121 7.20190 4.74599
#
# Compressibility (1/GPa) = 0.01473407
#
# Stress axis : x y z
#
# Youngs Moduli (GPa) = 74.65673 55.92843 94.36662
#
# Poissons Ratio (x) = 0.37008 0.29945
# Poissons Ratio (y) = 0.49400 0.35657
# Poissons Ratio (z) = 0.23690 0.21133
#
# Static dielectric constant tensor:
#      x y z
#    x 3.810710 0.000000 0.000000 
#    y 0.000000 3.905510 0.000000 
#    z 0.000000 0.000000 4.081320 
# 
# 
# High freq. dielectric constant tensor:
#      x y z
#    x 1.815240 0.000000 0.000000 
#    y 0.000000 1.821180 0.000000 
#    z 0.000000 0.000000 1.839170 
# 
# From -- ./inp_files/4460.got.cif
#   From: 2010.06.25/outbox.cif.g09.slc.cpg/sg52_3_cif.got.tgz:4460.got - 2010.06.26 19:32:48.
