data_PCOD8216631
_publ_section_title
;
Structure prediction by ZEFSAII (Michael W. Deem and Ramdas Pophale) SiO2 
 PCOD8216631
Probable space group: P N N A
;
_chemical_formula_sum "Si O2"
_cell_formula_units_Z 32
_cell_length_a 8.058738
_cell_length_b 5.011156
_cell_length_c 36.866466
_cell_angle_alpha 90.000000
_cell_angle_beta 90.000000
_cell_angle_gamma 90.000000
_cell_volume 1488.800369
_symmetry_space_group_name_H-M "P N N A"
_symmetry_group_IT_number 52
_symmetry_cell_setting 'orthorhombic'
loop_
_space_group_symop_operation_xyz
x,y,z
1/2-x,-y,z
x,1/2-y,1/2-z
1/2-x,1/2+y,1/2-z
-x,-y,-z
1/2+x,y,-z
-x,1/2+y,1/2+z
1/2+x,1/2-y,1/2+z
loop_
_atom_site_type_symbol
_atom_site_label
_atom_site_fract_x
_atom_site_fract_y
_atom_site_fract_z
Si Si1 0.363155 0.747584 0.291115
Si Si2 0.053603 0.991712 0.958781
Si Si3 0.642297 0.763558 0.348865
Si Si4 0.440270 0.992480 0.416352
O O1 0.250000 0.500000 0.297776
O O2 0.431831 0.750000 0.250000
O O3 0.513570 0.694120 0.317864
O O4 0.250000 0.000000 0.300790
O O5 0.984372 0.217124 0.931815
O O6 0.250000 0.000000 0.955222
O O7 0.970063 0.712974 0.948482
O O8 0.000000 0.000000 0.000000
O O9 0.750000 0.500000 0.359160
O O10 0.750000 0.000000 0.331645
O O11 0.556431 0.893668 0.383867
O O12 0.250000 0.000000 0.403079
#
# Coordination Sequence:
#
# PCOD8216631 Si02
#       4
#     8   8   8   8
#     4  10  22  42  67  95 130 174 220 266 321 386
#     4  12  25  44  67  94 127 164 210 263 321 384
#     4  12  25  41  64  95 131 170 214 269 328 384
#     4  12  25  43  65  92 126 168 214 262 321 384
#
# _framework density 21.493815999999999
#
# number of rings (size 3 to 8) (size 9 to 14) (size 15 to 20)
#    0.000    0.500    0.000    9.750    0.000    3.000 
#    0.000    0.000    0.000    0.000    0.000    0.000 
#    0.000    0.000    0.000    0.000    0.000    0.000 
#
# Total GULP energy -396754.212732 kJ/mol
# GULP energy per Si atom -12398.569148 kJ/mol
# Density = 2.144489 g / cm^3
# Si number density = 21.493816 Si / 1000 Ang^3
#
#
#
# Elastic Constant Matrix: (Units=GPa)
#
#
# Indices 1 2 3 4 5 6 
#
# 1 114.5353 30.4295 50.1282 0.0000 0.0000 0.0000
# 2 30.4295 81.6648 0.3553 0.0000 0.0000 0.0000
# 3 50.1282 0.3553 104.0886 0.0000 0.0000 0.0000
# 4 0.0000 0.0000 0.0000 45.5489 0.0000 0.0000
# 5 0.0000 0.0000 0.0000 0.0000 23.7703 0.0000
# 6 0.0000 0.0000 0.0000 0.0000 0.0000 66.3611
#
#
#
# Elastic Compliance Matrix: (Units=1/GPa)
#
#
# Indices 1 2 3 4 5 6 
#
# 1 0.012629 -0.004679 -0.006066 0.000000 0.000000 0.000000
# 2 -0.004679 0.013979 0.002206 0.000000 0.000000 0.000000
# 3 -0.006066 0.002206 0.012521 0.000000 0.000000 0.000000
# 4 0.000000 0.000000 0.000000 0.021954 0.000000 0.000000
# 5 0.000000 0.000000 0.000000 0.000000 0.042069 0.000000
# 6 0.000000 0.000000 0.000000 0.000000 0.000000 0.015069
#
#
# Mechanical properties :
#
#
# Convention : Reuss Voigt Hill
#
# Bulk Modulus (GPa) = 45.35140 51.34608 48.34874
# Shear Modulus (GPa) = 35.05049 41.76111 38.40580
#
# Velocity S-wave (km/s) = 4.04260 4.41266 4.23168
# Velocity P-wave (km/s) = 6.55254 7.06418 6.81316
#
# Compressibility (1/GPa) = 0.02205003
#
# Stress axis : x y z
#
# Youngs Moduli (GPa) = 79.18246 71.53495 79.86552
#
# Poissons Ratio (x) = 0.33474 0.48447
# Poissons Ratio (y) = 0.37052 -0.17617
# Poissons Ratio (z) = 0.48033 -0.15779
#
# Static dielectric constant tensor:
#      x y z
#    x 4.107040 0.000000 0.000000 
#    y 0.000000 4.288660 0.000000 
#    z 0.000000 0.000000 3.842780 
# 
# 
# High freq. dielectric constant tensor:
#      x y z
#    x 1.857590 0.000000 0.000000 
#    y 0.000000 1.867740 0.000000 
#    z 0.000000 0.000000 1.854170 
# 
# From -- ./inp_files/44119.got.cif
#   From: 2010.06.25/outbox.cif.g09.slc.cpg/sg52_23_cif.got.tgz:44119.got - 2010.06.26 19:32:48.
