data_PCOD8216044
_publ_section_title
;
Structure prediction by ZEFSAII (Michael W. Deem and Ramdas Pophale) SiO2 
 PCOD8216044
Probable space group: P N N A
;
_chemical_formula_sum "Si O2"
_cell_formula_units_Z 56
_cell_length_a 8.913467
_cell_length_b 14.859184
_cell_length_c 20.000584
_cell_angle_alpha 90.000000
_cell_angle_beta 90.000000
_cell_angle_gamma 90.000000
_cell_volume 2649.014274
_symmetry_space_group_name_H-M "P N N A"
_symmetry_group_IT_number 52
_symmetry_cell_setting 'orthorhombic'
loop_
_space_group_symop_operation_xyz
x,y,z
1/2-x,-y,z
x,1/2-y,1/2-z
1/2-x,1/2+y,1/2-z
-x,-y,-z
1/2+x,y,-z
-x,1/2+y,1/2+z
1/2+x,1/2-y,1/2+z
loop_
_atom_site_type_symbol
_atom_site_label
_atom_site_fract_x
_atom_site_fract_y
_atom_site_fract_z
Si Si1 0.710998 0.750000 0.750000
Si Si2 0.286331 0.250000 0.750000
Si Si3 0.924057 0.993914 0.071560
Si Si4 0.610010 0.059127 0.544985
Si Si5 0.496464 0.683874 0.425523
Si Si6 0.815304 0.739041 0.033796
Si Si7 0.045418 0.331262 0.170714
Si Si8 0.543767 0.184391 0.154773
O O1 0.814167 0.666817 0.777668
O O2 0.609898 0.791335 0.808869
O O3 0.385996 0.321007 0.792199
O O4 0.183429 0.183636 0.794124
O O5 0.970227 0.087477 0.106913
O O6 0.750000 0.000000 0.059256
O O7 0.973948 0.912042 0.118663
O O8 0.000000 0.000000 0.000000
O O9 0.668209 0.143994 0.502685
O O10 0.536109 0.088354 0.616111
O O11 0.750000 0.000000 0.566016
O O12 0.500000 0.000000 0.500000
O O13 0.643503 0.739215 0.450104
O O14 0.380293 0.679691 0.487715
O O15 0.418488 0.738034 0.366689
O O16 0.916891 0.738367 0.100572
#
# Coordination Sequence:
#
# PCOD8216044 Si02
#       8
#     4   4   8   8   8   8   8   8
#     4  10  26  42  68  94 126 192 216 256 312 406
#     4  10  20  44  68  90 126 190 218 250 320 412
#     4  12  22  37  61 103 134 159 214 274 326 382
#     4  11  25  41  67 103 126 162 221 290 337 383
#     4  11  21  38  65  98 127 170 207 274 334 390
#     4  11  22  39  69  93 132 171 209 273 343 383
#     4  10  22  44  69  87 130 171 224 262 336 389
#     4  11  23  40  68  93 133 176 223 257 320 401
#
# _framework density 21.139938999999998
#
# number of rings (size 3 to 8) (size 9 to 14) (size 15 to 20)
#    0.000    1.143    4.286    1.714    6.000    1.143 
#    0.000    4.286    3.143    0.000    0.000    0.000 
#    0.000    0.000    0.000    0.000    0.000    0.000 
#
# Total GULP energy -694076.391383 kJ/mol
# GULP energy per Si atom -12394.221275 kJ/mol
# Density = 2.109182 g / cm^3
# Si number density = 21.139939 Si / 1000 Ang^3
#
#
#
# Elastic Constant Matrix: (Units=GPa)
#
#
# Indices 1 2 3 4 5 6 
#
# 1 85.8971 25.5913 29.4787 0.0000 0.0000 0.0000
# 2 25.5913 109.0165 35.6577 0.0000 0.0000 0.0000
# 3 29.4787 35.6577 106.8306 0.0000 0.0000 0.0000
# 4 0.0000 0.0000 0.0000 39.6638 0.0000 0.0000
# 5 0.0000 0.0000 0.0000 0.0000 33.1857 0.0000
# 6 0.0000 0.0000 0.0000 0.0000 0.0000 27.8645
#
#
#
# Elastic Compliance Matrix: (Units=1/GPa)
#
#
# Indices 1 2 3 4 5 6 
#
# 1 0.013296 -0.002157 -0.002949 0.000000 0.000000 0.000000
# 2 -0.002157 0.010647 -0.002959 0.000000 0.000000 0.000000
# 3 -0.002949 -0.002959 0.011162 0.000000 0.000000 0.000000
# 4 0.000000 0.000000 0.000000 0.025212 0.000000 0.000000
# 5 0.000000 0.000000 0.000000 0.000000 0.030133 0.000000
# 6 0.000000 0.000000 0.000000 0.000000 0.000000 0.035888
#
#
# Mechanical properties :
#
#
# Convention : Reuss Voigt Hill
#
# Bulk Modulus (GPa) = 52.69694 53.68886 53.19290
# Shear Modulus (GPa) = 33.60372 34.21056 33.90714
#
# Velocity S-wave (km/s) = 3.99128 4.02716 4.00926
# Velocity P-wave (km/s) = 6.79870 6.86120 6.83002
#
# Compressibility (1/GPa) = 0.01897644
#
# Stress axis : x y z
#
# Youngs Moduli (GPa) = 75.20782 93.92401 89.59036
#
# Poissons Ratio (x) = 0.20256 0.26422
# Poissons Ratio (y) = 0.16220 0.26506
# Poissons Ratio (z) = 0.22180 0.27788
#
# Static dielectric constant tensor:
#      x y z
#    x 3.997330 0.000000 0.000000 
#    y 0.000000 3.929670 0.000000 
#    z 0.000000 0.000000 4.116180 
# 
# 
# High freq. dielectric constant tensor:
#      x y z
#    x 1.842380 0.000000 0.000000 
#    y 0.000000 1.808950 0.000000 
#    z 0.000000 0.000000 1.841780 
# 
# From -- ./inp_files/36082.got.cif
#   From: 2010.06.25/outbox.cif.g09.slc.cpg/sg52_19_cif.got.tgz:36082.got - 2010.06.26 19:32:48.
