data_PCOD8216103
_publ_section_title
;
Structure prediction by ZEFSAII (Michael W. Deem and Ramdas Pophale) SiO2 
 PCOD8216103
Probable space group: P N N A
;
_chemical_formula_sum "Si O2"
_cell_formula_units_Z 48
_cell_length_a 17.809379
_cell_length_b 11.774290
_cell_length_c 11.832152
_cell_angle_alpha 90.000000
_cell_angle_beta 90.000000
_cell_angle_gamma 90.000000
_cell_volume 2481.117001
_symmetry_space_group_name_H-M "P N N A"
_symmetry_group_IT_number 52
_symmetry_cell_setting 'orthorhombic'
loop_
_space_group_symop_operation_xyz
x,y,z
1/2-x,-y,z
x,1/2-y,1/2-z
1/2-x,1/2+y,1/2-z
-x,-y,-z
1/2+x,y,-z
-x,1/2+y,1/2+z
1/2+x,1/2-y,1/2+z
loop_
_atom_site_type_symbol
_atom_site_label
_atom_site_fract_x
_atom_site_fract_y
_atom_site_fract_z
Si Si1 0.397846 0.977428 0.160292
Si Si2 0.951126 0.371741 0.294407
Si Si3 0.430751 0.071405 0.548023
Si Si4 0.780903 0.782017 0.876260
Si Si5 0.373272 0.187694 0.006452
Si Si6 0.830748 0.955910 0.608599
O O1 0.478421 0.922098 0.136854
O O2 0.328212 0.898753 0.118024
O O3 0.389401 0.994051 0.294732
O O4 0.399486 0.099616 0.101673
O O5 0.977319 0.250000 0.250000
O O6 0.928375 0.441734 0.183271
O O7 0.880667 0.368630 0.381402
O O8 0.427435 0.201034 0.499455
O O9 0.500000 0.000000 0.500000
O O10 0.353766 0.013305 0.508283
O O11 0.750951 0.750000 0.750000
O O12 0.712969 0.783575 0.965703
O O13 0.835449 0.679181 0.910819
O O14 0.750000 0.000000 0.648026
#
# Coordination Sequence:
#
# PCOD8216103 Si02
#       6
#     8   8   8   8   8   8
#     4  11  21  37  63  94 122 153 204 263 324 363
#     4  10  22  41  60  85 123 170 200 246 311 385
#     4  11  23  40  63  87 121 165 211 254 305 372
#     4  10  21  36  63  93 123 158 202 261 319 371
#     4  11  23  38  61  90 125 159 204 253 320 372
#     4  11  20  37  62  92 122 155 209 263 309 368
#
# _framework density 19.346126000000002
#
# number of rings (size 3 to 8) (size 9 to 14) (size 15 to 20)
#    0.000    1.333    3.333    4.500    2.333    0.000 
#    0.000    1.667    0.000    0.000    0.000    0.000 
#    0.000    0.000    0.000    0.000    0.000    0.000 
#
# Total GULP energy -594933.772293 kJ/mol
# GULP energy per Si atom -12394.453589 kJ/mol
# Density = 1.930209 g / cm^3
# Si number density = 19.346126 Si / 1000 Ang^3
#
#
#
# Elastic Constant Matrix: (Units=GPa)
#
#
# Indices 1 2 3 4 5 6 
#
# 1 77.3577 37.3364 60.9162 0.0000 0.0000 0.0000
# 2 37.3364 100.0694 54.9216 0.0000 0.0000 0.0000
# 3 60.9162 54.9216 119.8174 0.0000 0.0000 0.0000
# 4 0.0000 0.0000 0.0000 32.1680 0.0000 0.0000
# 5 0.0000 0.0000 0.0000 0.0000 29.2687 0.0000
# 6 0.0000 0.0000 0.0000 0.0000 0.0000 30.1799
#
#
#
# Elastic Compliance Matrix: (Units=1/GPa)
#
#
# Indices 1 2 3 4 5 6 
#
# 1 0.022122 -0.002781 -0.009972 0.000000 0.000000 0.000000
# 2 -0.002781 0.013702 -0.004867 0.000000 0.000000 0.000000
# 3 -0.009972 -0.004867 0.015647 0.000000 0.000000 0.000000
# 4 0.000000 0.000000 0.000000 0.031087 0.000000 0.000000
# 5 0.000000 0.000000 0.000000 0.000000 0.034166 0.000000
# 6 0.000000 0.000000 0.000000 0.000000 0.000000 0.033135
#
#
# Mechanical properties :
#
#
# Convention : Reuss Voigt Hill
#
# Bulk Modulus (GPa) = 61.61132 67.06588 64.33860
# Shear Modulus (GPa) = 26.24565 27.92802 27.08683
#
# Velocity S-wave (km/s) = 3.68725 3.80359 3.74587
# Velocity P-wave (km/s) = 7.07416 7.35060 7.21370
#
# Compressibility (1/GPa) = 0.01623078
#
# Stress axis : x y z
#
# Youngs Moduli (GPa) = 45.20414 72.98418 63.91042
#
# Poissons Ratio (x) = 0.20294 0.63734
# Poissons Ratio (y) = 0.12569 0.31104
# Poissons Ratio (z) = 0.45079 0.35520
#
# Static dielectric constant tensor:
#      x y z
#    x 3.428070 0.000000 0.000000 
#    y 0.000000 3.786760 0.000000 
#    z 0.000000 0.000000 3.683310 
# 
# 
# High freq. dielectric constant tensor:
#      x y z
#    x 1.740560 0.000000 0.000000 
#    y 0.000000 1.764550 0.000000 
#    z 0.000000 0.000000 1.741760 
# 
# From -- ./inp_files/20605.got.cif
#   From: 2010.06.25/outbox.cif.g09.slc.cpg/sg52_11_cif.got.tgz:20605.got - 2010.06.26 19:32:48.
