data_PCOD8216364
_publ_section_title
;
Structure prediction by ZEFSAII (Michael W. Deem and Ramdas Pophale) SiO2 
 PCOD8216364
Probable space group: P N N A
;
_chemical_formula_sum "Si O2"
_cell_formula_units_Z 48
_cell_length_a 14.121131
_cell_length_b 8.062913
_cell_length_c 19.532145
_cell_angle_alpha 90.000000
_cell_angle_beta 90.000000
_cell_angle_gamma 90.000000
_cell_volume 2223.880237
_symmetry_space_group_name_H-M "P N N A"
_symmetry_group_IT_number 52
_symmetry_cell_setting 'orthorhombic'
loop_
_space_group_symop_operation_xyz
x,y,z
1/2-x,-y,z
x,1/2-y,1/2-z
1/2-x,1/2+y,1/2-z
-x,-y,-z
1/2+x,y,-z
-x,1/2+y,1/2+z
1/2+x,1/2-y,1/2+z
loop_
_atom_site_type_symbol
_atom_site_label
_atom_site_fract_x
_atom_site_fract_y
_atom_site_fract_z
Si Si1 0.034106 0.584567 0.390883
Si Si2 0.316998 0.654865 0.449588
Si Si3 0.354781 0.440341 0.676873
Si Si4 0.710373 0.681028 0.677008
Si Si5 0.942813 0.633718 0.042106
Si Si6 0.645564 0.943634 0.335227
O O1 0.085700 0.422373 0.420085
O O2 0.097173 0.674099 0.331801
O O3 0.929791 0.547021 0.364216
O O4 0.017893 0.717449 0.450534
O O5 0.250000 0.500000 0.476657
O O6 0.262346 0.761941 0.389734
O O7 0.346970 0.791122 0.506566
O O8 0.250000 0.500000 0.657562
O O9 0.366803 0.251712 0.653118
O O10 0.377390 0.477608 0.756035
O O11 0.750000 0.500000 0.673386
O O12 0.741588 0.750000 0.750000
O O13 0.921623 0.550572 0.115710
O O14 0.000000 0.500000 0.000000
O O15 0.750000 0.000000 0.353612
#
# Coordination Sequence:
#
# PCOD8216364 Si02
#       6
#     8   8   8   8   8   8
#     4  10  22  40  65  91 127 168 214 263 328 389
#     4   9  22  45  63  90 128 179 219 258 331 404
#     4  10  21  42  64  91 126 167 208 264 331 389
#     4   9  21  41  64  94 120 162 216 266 319 378
#     4  12  25  38  60  95 130 166 217 270 326 387
#     4  10  23  39  60  90 123 160 214 264 316 387
#
# _framework density 21.583897
#
# number of rings (size 3 to 8) (size 9 to 14) (size 15 to 20)
#    0.000    2.333    0.000    2.500    2.333    7.333 
#   15.000    0.000    0.000    0.000    0.000    0.000 
#    0.000    0.000    0.000    0.000    0.000    0.000 
#
# Total GULP energy -594739.863033 kJ/mol
# GULP energy per Si atom -12390.413813 kJ/mol
# Density = 2.153477 g / cm^3
# Si number density = 21.583897 Si / 1000 Ang^3
#
#
#
# Elastic Constant Matrix: (Units=GPa)
#
#
# Indices 1 2 3 4 5 6 
#
# 1 130.0791 52.3928 51.2914 0.0000 0.0000 0.0000
# 2 52.3928 64.3612 46.7776 0.0000 0.0000 0.0000
# 3 51.2914 46.7776 89.6905 0.0000 0.0000 0.0000
# 4 0.0000 0.0000 0.0000 33.9860 0.0000 0.0000
# 5 0.0000 0.0000 0.0000 0.0000 752.9016 0.0000
# 6 0.0000 0.0000 0.0000 0.0000 0.0000 34.3846
#
#
#
# Elastic Compliance Matrix: (Units=1/GPa)
#
#
# Indices 1 2 3 4 5 6 
#
# 1 0.011863 -0.007612 -0.002814 0.000000 0.000000 0.000000
# 2 -0.007612 0.029906 -0.011244 0.000000 0.000000 0.000000
# 3 -0.002814 -0.011244 0.018623 0.000000 0.000000 0.000000
# 4 0.000000 0.000000 0.000000 0.029424 0.000000 0.000000
# 5 0.000000 0.000000 0.000000 0.000000 0.001328 0.000000
# 6 0.000000 0.000000 0.000000 0.000000 0.000000 0.029083
#
#
# Mechanical properties :
#
#
# Convention : Reuss Voigt Hill
#
# Bulk Modulus (GPa) = 58.64551 65.00605 61.82578
# Shear Modulus (GPa) = 29.54177 173.16571 101.35374
#
# Velocity S-wave (km/s) = 3.70360 8.96679 6.86003
# Velocity P-wave (km/s) = 6.74676 11.72125 9.56312
#
# Compressibility (1/GPa) = 0.01705160
#
# Stress axis : x y z
#
# Youngs Moduli (GPa) = 84.29472 33.43824 53.69596
#
# Poissons Ratio (x) = 0.25452 0.15112
# Poissons Ratio (y) = 0.64162 0.60378
# Poissons Ratio (z) = 0.23724 0.37599
#
# Static dielectric constant tensor:
#      x y z
#    x 4.352280 0.000000 0.000000 
#    y 0.000000 3.558700 0.000000 
#    z 0.000000 0.000000 3.086370 
# 
# 
# High freq. dielectric constant tensor:
#      x y z
#    x 1.851840 0.000000 0.000000 
#    y 0.000000 1.841330 0.000000 
#    z 0.000000 0.000000 1.849660 
# 
# From -- ./inp_files/40170.got.cif
#   From: 2010.06.25/outbox.cif.g09.slc.cpg/sg52_21_cif.got.tgz:40170.got - 2010.06.26 19:32:48.
