data_PCOD8216436
_publ_section_title
;
Structure prediction by ZEFSAII (Michael W. Deem and Ramdas Pophale) SiO2 
 PCOD8216436
Probable space group: P N N A
;
_chemical_formula_sum "Si O2"
_cell_formula_units_Z 60
_cell_length_a 8.785908
_cell_length_b 17.436961
_cell_length_c 18.190402
_cell_angle_alpha 90.000000
_cell_angle_beta 90.000000
_cell_angle_gamma 90.000000
_cell_volume 2786.761131
_symmetry_space_group_name_H-M "P N N A"
_symmetry_group_IT_number 52
_symmetry_cell_setting 'orthorhombic'
loop_
_space_group_symop_operation_xyz
x,y,z
1/2-x,-y,z
x,1/2-y,1/2-z
1/2-x,1/2+y,1/2-z
-x,-y,-z
1/2+x,y,-z
-x,1/2+y,1/2+z
1/2+x,1/2-y,1/2+z
loop_
_atom_site_type_symbol
_atom_site_label
_atom_site_fract_x
_atom_site_fract_y
_atom_site_fract_z
Si Si1 0.044103 0.742341 0.958125
Si Si2 0.359034 0.428889 0.304739
Si Si3 0.144333 0.428742 0.785702
Si Si4 0.774374 0.296135 0.584510
Si Si5 0.224768 0.321315 0.195185
Si Si6 0.250000 0.000000 0.485191
Si Si7 0.504588 0.100391 0.436487
Si Si8 0.892227 0.186002 0.308317
O O1 0.152968 0.713118 0.891167
O O2 0.908848 0.794665 0.923814
O O3 0.147121 0.799934 0.005541
O O4 0.981241 0.674900 0.010835
O O5 0.250000 0.500000 0.324096
O O6 0.537227 0.448550 0.286136
O O7 0.337301 0.368766 0.370710
O O8 0.311178 0.392964 0.227609
O O9 0.250000 0.500000 0.809134
O O10 0.047644 0.389758 0.851198
O O11 0.267652 0.364085 0.766389
O O12 0.813183 0.213436 0.623608
O O13 0.216640 0.250000 0.250000
O O14 0.056285 0.354234 0.176775
O O15 0.376123 0.962174 0.535942
O O16 0.166812 0.934639 0.436543
O O17 0.928127 0.250000 0.250000
#
# Coordination Sequence:
#
# PCOD8216436 Si02
#       8
#     8   8   8   8   8   4   8   8
#     4  11  22  39  67  93 127 166 215 259 325 384
#     4  11  24  42  64  89 125 169 221 269 323 378
#     4  12  25  38  59  92 130 170 213 263 322 390
#     4  10  22  41  65  96 124 164 215 270 316 390
#     4   8  17  37  63  88 121 160 202 252 316 382
#     4  10  22  36  56  82 136 172 200 248 308 378
#     4  11  22  38  57  92 128 172 208 251 307 395
#     4  10  22  40  62  91 126 164 207 266 324 383
#
# _framework density 21.530369
#
# number of rings (size 3 to 8) (size 9 to 14) (size 15 to 20)
#    0.000    1.600    0.667    4.800    2.800    4.800 
#    0.000    0.667    0.000    0.800    0.000    0.000 
#    0.000    0.000    0.000    0.000    0.000    0.000 
#
# Total GULP energy -743326.569762 kJ/mol
# GULP energy per Si atom -12388.776163 kJ/mol
# Density = 2.148137 g / cm^3
# Si number density = 21.530369 Si / 1000 Ang^3
#
#
#
# Elastic Constant Matrix: (Units=GPa)
#
#
# Indices 1 2 3 4 5 6 
#
# 1 91.6150 26.8948 31.3424 0.0000 0.0000 0.0000
# 2 26.8948 64.8125 26.1486 0.0000 0.0000 0.0000
# 3 31.3424 26.1486 88.2210 0.0000 0.0000 0.0000
# 4 0.0000 0.0000 0.0000 22.4010 0.0000 0.0000
# 5 0.0000 0.0000 0.0000 0.0000 26.4147 0.0000
# 6 0.0000 0.0000 0.0000 0.0000 0.0000 -4.6807
#
#
#
# Elastic Compliance Matrix: (Units=1/GPa)
#
#
# Indices 1 2 3 4 5 6 
#
# 1 0.013325 -0.004111 -0.003515 0.000000 0.000000 0.000000
# 2 -0.004111 0.018793 -0.004110 0.000000 0.000000 0.000000
# 3 -0.003515 -0.004110 0.013802 0.000000 0.000000 0.000000
# 4 0.000000 0.000000 0.000000 0.044641 0.000000 0.000000
# 5 0.000000 0.000000 0.000000 0.000000 0.037858 0.000000
# 6 0.000000 0.000000 0.000000 0.000000 0.000000 -0.213646
#
#
# Mechanical properties :
#
#
# Convention : Reuss Voigt Hill
#
# Bulk Modulus (GPa) = 44.54779 45.93555 45.24167
# Shear Modulus (GPa) = -92.12837 19.51120 -36.30859
#
# Velocity S-wave (km/s) = -6.54850 3.01361 -4.11102
# Velocity P-wave (km/s) = 6.03668 5.78711 1.21467
#
# Compressibility (1/GPa) = 0.02244780
#
# Stress axis : x y z
#
# Youngs Moduli (GPa) = 75.04844 53.21108 72.45223
#
# Poissons Ratio (x) = 0.21875 0.25470
# Poissons Ratio (y) = 0.30852 0.29776
# Poissons Ratio (z) = 0.26383 0.21868
#
# Static dielectric constant tensor:
#      x y z
#    x 4.187800 0.000000 0.000000 
#    y 0.000000 3.687630 0.000000 
#    z 0.000000 0.000000 3.946530 
# 
# 
# High freq. dielectric constant tensor:
#      x y z
#    x 1.861100 0.000000 0.000000 
#    y 0.000000 1.817780 0.000000 
#    z 0.000000 0.000000 1.841420 
# 
# From -- ./inp_files/31471.got.cif
#   From: 2010.06.25/outbox.cif.g09.slc.cpg/sg52_16_cif.got.tgz:31471.got - 2010.06.26 19:32:48.
