data_PCOD8216466
_publ_section_title
;
Structure prediction by ZEFSAII (Michael W. Deem and Ramdas Pophale) SiO2 
 PCOD8216466
Probable space group: P N N A
;
_chemical_formula_sum "Si O2"
_cell_formula_units_Z 32
_cell_length_a 12.233672
_cell_length_b 5.197686
_cell_length_c 23.759464
_cell_angle_alpha 90.000000
_cell_angle_beta 90.000000
_cell_angle_gamma 90.000000
_cell_volume 1510.787945
_symmetry_space_group_name_H-M "P N N A"
_symmetry_group_IT_number 52
_symmetry_cell_setting 'orthorhombic'
loop_
_space_group_symop_operation_xyz
x,y,z
1/2-x,-y,z
x,1/2-y,1/2-z
1/2-x,1/2+y,1/2-z
-x,-y,-z
1/2+x,y,-z
-x,1/2+y,1/2+z
1/2+x,1/2-y,1/2+z
loop_
_atom_site_type_symbol
_atom_site_label
_atom_site_fract_x
_atom_site_fract_y
_atom_site_fract_z
Si Si1 0.354773 0.382456 0.301958
Si Si2 0.981119 0.522257 0.934506
Si Si3 0.750000 0.000000 0.611051
Si Si4 0.954747 0.000658 0.129410
Si Si5 0.750000 0.000000 0.210819
O O1 0.250000 0.500000 0.270038
O O2 0.419506 0.250000 0.250000
O O3 0.441976 0.572671 0.330324
O O4 0.299804 0.222399 0.351481
O O5 0.852453 0.591485 0.927051
O O6 0.021422 0.265247 0.903029
O O7 0.056374 0.759247 0.912728
O O8 0.000000 0.500000 0.000000
O O9 0.851409 0.965661 0.169120
O O10 0.736469 0.750000 0.250000
#
# Coordination Sequence:
#
# PCOD8216466 Si02
#       5
#     8   8   4   8   4
#     4  11  20  35  61  92 128 166 198 258 326 387
#     4  11  24  43  67  95 128 175 220 278 333 382
#     4  10  22  38  59  92 131 160 208 270 320 390
#     4  11  25  43  65  97 132 168 228 269 322 398
#     4  12  26  46  69  96 137 186 222 274 330 396
#
# _framework density 21.180999
#
# number of rings (size 3 to 8) (size 9 to 14) (size 15 to 20)
#    0.000    1.000    3.750    3.000    0.000    5.000 
#    0.000    0.000    0.000    0.000    0.000    0.000 
#    0.000    0.000    0.000    0.000    0.000    0.000 
#
# Total GULP energy -396469.351541 kJ/mol
# GULP energy per Si atom -12389.667236 kJ/mol
# Density = 2.113279 g / cm^3
# Si number density = 21.180999 Si / 1000 Ang^3
#
#
#
# Elastic Constant Matrix: (Units=GPa)
#
#
# Indices 1 2 3 4 5 6 
#
# 1 119.3453 30.2286 68.4527 0.0000 0.0000 0.0000
# 2 30.2286 126.8871 50.7638 0.0000 0.0000 0.0000
# 3 68.4527 50.7638 154.2266 0.0000 0.0000 0.0000
# 4 0.0000 0.0000 0.0000 34.3515 0.0000 0.0000
# 5 0.0000 0.0000 0.0000 0.0000 31.9610 0.0000
# 6 0.0000 0.0000 0.0000 0.0000 0.0000 23.1065
#
#
#
# Elastic Compliance Matrix: (Units=1/GPa)
#
#
# Indices 1 2 3 4 5 6 
#
# 1 0.011309 -0.000790 -0.004759 0.000000 0.000000 0.000000
# 2 -0.000790 0.009131 -0.002655 0.000000 0.000000 0.000000
# 3 -0.004759 -0.002655 0.009470 0.000000 0.000000 0.000000
# 4 0.000000 0.000000 0.000000 0.029111 0.000000 0.000000
# 5 0.000000 0.000000 0.000000 0.000000 0.031288 0.000000
# 6 0.000000 0.000000 0.000000 0.000000 0.000000 0.043278
#
#
# Mechanical properties :
#
#
# Convention : Reuss Voigt Hill
#
# Bulk Modulus (GPa) = 74.06381 77.70546 75.88464
# Shear Modulus (GPa) = 32.36312 34.61806 33.49059
#
# Velocity S-wave (km/s) = 3.91312 4.04715 3.98070
# Velocity P-wave (km/s) = 7.44712 7.65541 7.55198
#
# Compressibility (1/GPa) = 0.01350187
#
# Stress axis : x y z
#
# Youngs Moduli (GPa) = 88.42517 109.51216 105.59365
#
# Poissons Ratio (x) = 0.08652 0.50256
# Poissons Ratio (y) = 0.06986 0.28034
# Poissons Ratio (z) = 0.42085 0.29075
#
# Static dielectric constant tensor:
#      x y z
#    x 5.066790 0.000000 0.000000 
#    y 0.000000 3.889540 0.000000 
#    z 0.000000 0.000000 3.905210 
# 
# 
# High freq. dielectric constant tensor:
#      x y z
#    x 1.836420 0.000000 0.000000 
#    y 0.000000 1.831720 0.000000 
#    z 0.000000 0.000000 1.841630 
# 
# From -- ./inp_files/36482.got.cif
#   From: 2010.06.25/outbox.cif.g09.slc.cpg/sg52_19_cif.got.tgz:36482.got - 2010.06.26 19:32:48.
