data_PCOD8216123
_publ_section_title
;
Structure prediction by ZEFSAII (Michael W. Deem and Ramdas Pophale) SiO2 
 PCOD8216123
Probable space group: P N N A
;
_chemical_formula_sum "Si O2"
_cell_formula_units_Z 64
_cell_length_a 8.533387
_cell_length_b 12.282091
_cell_length_c 29.100259
_cell_angle_alpha 90.000000
_cell_angle_beta 90.000000
_cell_angle_gamma 90.000000
_cell_volume 3049.935163
_symmetry_space_group_name_H-M "P N N A"
_symmetry_group_IT_number 52
_symmetry_cell_setting 'orthorhombic'
loop_
_space_group_symop_operation_xyz
x,y,z
1/2-x,-y,z
x,1/2-y,1/2-z
1/2-x,1/2+y,1/2-z
-x,-y,-z
1/2+x,y,-z
-x,1/2+y,1/2+z
1/2+x,1/2-y,1/2+z
loop_
_atom_site_type_symbol
_atom_site_label
_atom_site_fract_x
_atom_site_fract_y
_atom_site_fract_z
Si Si1 0.581750 0.441460 0.876498
Si Si2 0.572924 0.959829 0.803305
Si Si3 0.538885 0.226579 0.933199
Si Si4 0.523051 0.377708 0.064152
Si Si5 0.135769 0.592825 0.634054
Si Si6 0.075929 0.462291 0.793652
Si Si7 0.725627 0.699981 0.999752
Si Si8 0.582205 0.241072 0.149944
O O1 0.750000 0.500000 0.874768
O O2 0.586094 0.320297 0.896430
O O3 0.464350 0.508928 0.909209
O O4 0.505167 0.445517 0.825730
O O5 0.534013 0.943940 0.750109
O O6 0.542171 0.847580 0.831175
O O7 0.750000 0.000000 0.810277
O O8 0.453928 0.051792 0.820979
O O9 0.497595 0.120057 0.903718
O O10 0.382843 0.246639 0.962413
O O11 0.678342 0.208681 0.970011
O O12 0.655770 0.379076 0.025727
O O13 0.533749 0.273886 0.098221
O O14 0.359227 0.374569 0.037555
O O15 0.250000 0.500000 0.613510
O O16 0.239903 0.696429 0.648777
O O17 0.250000 0.500000 0.779633
O O18 0.080951 0.346456 0.818419
#
# Coordination Sequence:
#
# PCOD8216123 Si02
#       8
#     8   8   8   8   8   8   8   8
#     4  11  23  37  59  91 132 165 198 248 309 378
#     4  11  25  42  67  92 123 162 208 253 303 372
#     4  11  22  40  60  90 126 163 207 257 309 359
#     4  10  21  37  58  91 127 164 204 250 314 362
#     4  10  22  43  67  88 121 162 209 256 309 370
#     4  11  23  41  66  97 125 160 204 251 311 381
#     4  10  22  36  62  88 125 162 214 252 302 381
#     4  10  21  42  66  89 128 164 201 255 313 364
#
# _framework density 20.984051000000001
#
# number of rings (size 3 to 8) (size 9 to 14) (size 15 to 20)
#    0.000    1.500    2.500    2.625    3.500    3.000 
#    0.000    6.250    0.000    0.000    0.000    0.000 
#    0.000    0.000    0.000    0.000    0.000    0.000 
#
# Total GULP energy -793457.731159 kJ/mol
# GULP energy per Si atom -12397.777049 kJ/mol
# Density = 2.093629 g / cm^3
# Si number density = 20.984051 Si / 1000 Ang^3
#
#
#
# Elastic Constant Matrix: (Units=GPa)
#
#
# Indices 1 2 3 4 5 6 
#
# 1 99.9053 22.3389 26.4049 0.0000 0.0000 0.0000
# 2 22.3389 67.7300 29.2384 0.0000 0.0000 0.0000
# 3 26.4049 29.2384 96.7089 0.0000 0.0000 0.0000
# 4 0.0000 0.0000 0.0000 15.1540 0.0000 0.0000
# 5 0.0000 0.0000 0.0000 0.0000 25.6464 0.0000
# 6 0.0000 0.0000 0.0000 0.0000 0.0000 27.6466
#
#
#
# Elastic Compliance Matrix: (Units=1/GPa)
#
#
# Indices 1 2 3 4 5 6 
#
# 1 0.011211 -0.002733 -0.002235 0.000000 0.000000 0.000000
# 2 -0.002733 0.017647 -0.004589 0.000000 0.000000 0.000000
# 3 -0.002235 -0.004589 0.012338 0.000000 0.000000 0.000000
# 4 0.000000 0.000000 0.000000 0.065989 0.000000 0.000000
# 5 0.000000 0.000000 0.000000 0.000000 0.038992 0.000000
# 6 0.000000 0.000000 0.000000 0.000000 0.000000 0.036171
#
#
# Mechanical properties :
#
#
# Convention : Reuss Voigt Hill
#
# Bulk Modulus (GPa) = 45.28487 46.70094 45.99291
# Shear Modulus (GPa) = 23.94380 26.11355 25.02868
#
# Velocity S-wave (km/s) = 3.38160 3.53150 3.45736
# Velocity P-wave (km/s) = 6.07243 6.23958 6.15658
#
# Compressibility (1/GPa) = 0.02208243
#
# Stress axis : x y z
#
# Youngs Moduli (GPa) = 89.19631 56.66703 81.05095
#
# Poissons Ratio (x) = 0.15487 0.18113
# Poissons Ratio (y) = 0.24377 0.37195
# Poissons Ratio (z) = 0.19933 0.26005
#
# Static dielectric constant tensor:
#      x y z
#    x 4.036160 0.000000 0.000000 
#    y 0.000000 3.583900 0.000000 
#    z 0.000000 0.000000 4.035970 
# 
# 
# High freq. dielectric constant tensor:
#      x y z
#    x 1.835800 0.000000 0.000000 
#    y 0.000000 1.793850 0.000000 
#    z 0.000000 0.000000 1.836080 
# 
# From -- ./inp_files/44586.got.cif
#   From: 2010.06.25/outbox.cif.g09.slc.cpg/sg52_23_cif.got.tgz:44586.got - 2010.06.26 19:32:48.
