data_PCOD8216841
_publ_section_title
;
Structure prediction by ZEFSAII (Michael W. Deem and Ramdas Pophale) SiO2 
 PCOD8216841
Probable space group: P N N A
;
_chemical_formula_sum "Si O2"
_cell_formula_units_Z 32
_cell_length_a 14.148933
_cell_length_b 11.319587
_cell_length_c 8.415660
_cell_angle_alpha 90.000000
_cell_angle_beta 90.000000
_cell_angle_gamma 90.000000
_cell_volume 1347.852762
_symmetry_space_group_name_H-M "P N N A"
_symmetry_group_IT_number 52
_symmetry_cell_setting 'orthorhombic'
loop_
_space_group_symop_operation_xyz
x,y,z
1/2-x,-y,z
x,1/2-y,1/2-z
1/2-x,1/2+y,1/2-z
-x,-y,-z
1/2+x,y,-z
-x,1/2+y,1/2+z
1/2+x,1/2-y,1/2+z
loop_
_atom_site_type_symbol
_atom_site_label
_atom_site_fract_x
_atom_site_fract_y
_atom_site_fract_z
Si Si1 0.713430 0.246719 0.431131
Si Si2 0.091594 0.782793 0.071585
Si Si3 0.353334 0.961785 0.117014
Si Si4 0.551440 0.114136 0.566119
O O1 0.746518 0.250000 0.250000
O O2 0.804759 0.228731 0.541496
O O3 0.659042 0.368203 0.475037
O O4 0.644061 0.136715 0.458931
O O5 0.060065 0.750000 0.250000
O O6 0.091991 0.924141 0.047186
O O7 0.018458 0.726422 0.946994
O O8 0.415662 0.901548 0.253472
O O9 0.250000 0.000000 0.183658
O O10 0.500000 0.000000 0.500000
#
# Coordination Sequence:
#
# PCOD8216841 Si02
#       4
#     8   8   8   8
#     4  11  26  47  68 103 144 188 243 296 356 428
#     4  11  23  48  75 104 144 186 237 298 364 431
#     4  10  23  49  76 101 143 195 238 299 364 427
#     4  12  25  43  75 106 141 188 235 298 361 438
#
# _framework density 23.741465000000002
#
# number of rings (size 3 to 8) (size 9 to 14) (size 15 to 20)
#    0.000    1.000    2.500    4.500    0.000    3.000 
#   18.000    0.000    0.000    0.000    0.000    0.000 
#    0.000    0.000    0.000    0.000    0.000    0.000 
#
# Total GULP energy -396958.939608 kJ/mol
# GULP energy per Si atom -12404.966863 kJ/mol
# Density = 2.368743 g / cm^3
# Si number density = 23.741465 Si / 1000 Ang^3
#
#
#
# Elastic Constant Matrix: (Units=GPa)
#
#
# Indices 1 2 3 4 5 6 
#
# 1 103.7059 62.1017 38.5430 0.0000 0.0000 0.0000
# 2 62.1017 106.2429 59.6616 0.0000 0.0000 0.0000
# 3 38.5430 59.6616 117.8256 0.0000 0.0000 0.0000
# 4 0.0000 0.0000 0.0000 40.3736 0.0000 0.0000
# 5 0.0000 0.0000 0.0000 0.0000 36.6438 0.0000
# 6 0.0000 0.0000 0.0000 0.0000 0.0000 46.9439
#
#
#
# Elastic Compliance Matrix: (Units=1/GPa)
#
#
# Indices 1 2 3 4 5 6 
#
# 1 0.014871 -0.008329 -0.000647 0.000000 0.000000 0.000000
# 2 -0.008329 0.017817 -0.006297 0.000000 0.000000 0.000000
# 3 -0.000647 -0.006297 0.011887 0.000000 0.000000 0.000000
# 4 0.000000 0.000000 0.000000 0.024769 0.000000 0.000000
# 5 0.000000 0.000000 0.000000 0.000000 0.027290 0.000000
# 6 0.000000 0.000000 0.000000 0.000000 0.000000 0.021302
#
#
# Mechanical properties :
#
#
# Convention : Reuss Voigt Hill
#
# Bulk Modulus (GPa) = 71.28223 72.04302 71.66262
# Shear Modulus (GPa) = 32.64591 35.95681 34.30136
#
# Velocity S-wave (km/s) = 3.71220 3.89590 3.80516
# Velocity P-wave (km/s) = 6.96157 7.11674 7.03959
#
# Compressibility (1/GPa) = 0.01402874
#
# Stress axis : x y z
#
# Youngs Moduli (GPa) = 67.24618 56.12569 84.12243
#
# Poissons Ratio (x) = 0.46747 0.05443
# Poissons Ratio (y) = 0.56009 0.52974
# Poissons Ratio (z) = 0.04351 0.35344
#
# Static dielectric constant tensor:
#      x y z
#    x 4.523010 0.000000 0.000000 
#    y 0.000000 4.510600 0.000000 
#    z 0.000000 0.000000 3.987250 
# 
# 
# High freq. dielectric constant tensor:
#      x y z
#    x 1.956690 0.000000 0.000000 
#    y 0.000000 1.950440 0.000000 
#    z 0.000000 0.000000 1.924760 
# 
# From -- ./inp_files/9523.got.cif
#   From: 2010.06.25/outbox.cif.g09.slc.cpg/sg52_5_cif.got.tgz:9523.got - 2010.06.26 19:32:48.
