data_PCOD8216654
_publ_section_title
;
Structure prediction by ZEFSAII (Michael W. Deem and Ramdas Pophale) SiO2 
 PCOD8216654
Probable space group: P N N A
;
_chemical_formula_sum "Si O2"
_cell_formula_units_Z 36
_cell_length_a 10.979913
_cell_length_b 9.806272
_cell_length_c 14.321221
_cell_angle_alpha 90.000000
_cell_angle_beta 90.000000
_cell_angle_gamma 90.000000
_cell_volume 1541.994700
_symmetry_space_group_name_H-M "P N N A"
_symmetry_group_IT_number 52
_symmetry_cell_setting 'orthorhombic'
loop_
_space_group_symop_operation_xyz
x,y,z
1/2-x,-y,z
x,1/2-y,1/2-z
1/2-x,1/2+y,1/2-z
-x,-y,-z
1/2+x,y,-z
-x,1/2+y,1/2+z
1/2+x,1/2-y,1/2+z
loop_
_atom_site_type_symbol
_atom_site_label
_atom_site_fract_x
_atom_site_fract_y
_atom_site_fract_z
Si Si1 0.603264 0.170943 0.385672
Si Si2 0.189246 0.355160 0.090117
Si Si3 0.480731 0.939943 0.262225
Si Si4 0.811511 0.250000 0.250000
Si Si5 0.116784 0.667957 0.342916
O O1 0.625051 0.125806 0.491043
O O2 0.731870 0.202058 0.337348
O O3 0.518307 0.304416 0.383607
O O4 0.527252 0.057526 0.331536
O O5 0.250000 0.500000 0.115493
O O6 0.279933 0.223281 0.085354
O O7 0.090580 0.329733 0.172876
O O8 0.600107 0.872465 0.216137
O O9 0.390224 0.005887 0.182996
O O10 0.147719 0.750000 0.250000
#
# Coordination Sequence:
#
# PCOD8216654 Si02
#       5
#     8   8   8   4   8
#     4  11  23  41  66 102 133 173 227 279 328 401
#     4  12  23  39  72 100 132 173 234 285 326 395
#     4  11  24  43  69  98 132 181 226 277 338 401
#     4  12  24  40  70  94 138 186 220 264 348 412
#     4  10  22  43  64  96 139 172 213 284 342 388
#
# _framework density 23.346385999999999
#
# number of rings (size 3 to 8) (size 9 to 14) (size 15 to 20)
#    0.000    0.889    7.778    2.667    4.667    0.000 
#    0.000    1.111    4.889    0.000    0.000    0.000 
#    0.000    0.000    0.000    0.000    0.000    0.000 
#
# Total GULP energy -446212.369095 kJ/mol
# GULP energy per Si atom -12394.788030 kJ/mol
# Density = 2.329325 g / cm^3
# Si number density = 23.346386 Si / 1000 Ang^3
#
#
#
# Elastic Constant Matrix: (Units=GPa)
#
#
# Indices 1 2 3 4 5 6 
#
# 1 99.6855 30.0975 25.9346 0.0000 0.0000 0.0000
# 2 30.0975 65.3390 12.5225 0.0000 0.0000 0.0000
# 3 25.9346 12.5225 53.5681 0.0000 0.0000 0.0000
# 4 0.0000 0.0000 0.0000 25.6618 0.0000 0.0000
# 5 0.0000 0.0000 0.0000 0.0000 29.2600 0.0000
# 6 0.0000 0.0000 0.0000 0.0000 0.0000 33.6782
#
#
#
# Elastic Compliance Matrix: (Units=1/GPa)
#
#
# Indices 1 2 3 4 5 6 
#
# 1 0.012841 -0.004945 -0.005061 0.000000 0.000000 0.000000
# 2 -0.004945 0.017927 -0.001797 0.000000 0.000000 0.000000
# 3 -0.005061 -0.001797 0.021538 0.000000 0.000000 0.000000
# 4 0.000000 0.000000 0.000000 0.038968 0.000000 0.000000
# 5 0.000000 0.000000 0.000000 0.000000 0.034176 0.000000
# 6 0.000000 0.000000 0.000000 0.000000 0.000000 0.029693
#
#
# Mechanical properties :
#
#
# Convention : Reuss Voigt Hill
#
# Bulk Modulus (GPa) = 34.84220 39.52243 37.18231
# Shear Modulus (GPa) = 26.55105 27.72254 27.13679
#
# Velocity S-wave (km/s) = 3.37600 3.44967 3.41303
# Velocity P-wave (km/s) = 5.49116 5.72996 5.61183
#
# Compressibility (1/GPa) = 0.02870083
#
# Stress axis : x y z
#
# Youngs Moduli (GPa) = 77.87366 55.78161 46.42947
#
# Poissons Ratio (x) = 0.27585 0.23498
# Poissons Ratio (y) = 0.38510 0.08342
# Poissons Ratio (z) = 0.39412 0.10022
#
# Static dielectric constant tensor:
#      x y z
#    x 4.539270 0.000000 0.000000 
#    y 0.000000 4.371100 0.000000 
#    z 0.000000 0.000000 3.967890 
# 
# 
# High freq. dielectric constant tensor:
#      x y z
#    x 1.945950 0.000000 0.000000 
#    y 0.000000 1.913720 0.000000 
#    z 0.000000 0.000000 1.891030 
# 
# From -- ./inp_files/25768.got.cif
#   From: 2010.06.25/outbox.cif.g09.slc.cpg/sg52_13_cif.got.tgz:25768.got - 2010.06.26 19:32:48.
