data_PCOD8216724
_publ_section_title
;
Structure prediction by ZEFSAII (Michael W. Deem and Ramdas Pophale) SiO2 
 PCOD8216724
Probable space group: P N N A
;
_chemical_formula_sum "Si O2"
_cell_formula_units_Z 40
_cell_length_a 11.726050
_cell_length_b 22.525113
_cell_length_c 6.347993
_cell_angle_alpha 90.000000
_cell_angle_beta 90.000000
_cell_angle_gamma 90.000000
_cell_volume 1676.699208
_symmetry_space_group_name_H-M "P N N A"
_symmetry_group_IT_number 52
_symmetry_cell_setting 'orthorhombic'
loop_
_space_group_symop_operation_xyz
x,y,z
1/2-x,-y,z
x,1/2-y,1/2-z
1/2-x,1/2+y,1/2-z
-x,-y,-z
1/2+x,y,-z
-x,1/2+y,1/2+z
1/2+x,1/2-y,1/2+z
loop_
_atom_site_type_symbol
_atom_site_label
_atom_site_fract_x
_atom_site_fract_y
_atom_site_fract_z
Si Si1 0.250000 0.500000 0.945645
Si Si2 0.607911 0.250000 0.250000
Si Si3 0.352689 0.109577 0.358525
Si Si4 0.023336 0.694141 0.873236
Si Si5 0.437851 0.545032 0.653675
Si Si6 0.672705 0.152679 0.937713
O O1 0.365438 0.504818 0.812413
O O2 0.262650 0.442136 0.090675
O O3 0.528754 0.211401 0.401818
O O4 0.684020 0.295264 0.388649
O O5 0.376423 0.147434 0.571960
O O6 0.471546 0.084522 0.276608
O O7 0.294298 0.150839 0.180847
O O8 0.077596 0.750000 0.750000
O O9 0.927210 0.665630 0.727169
O O10 0.500000 0.500000 0.500000
O O11 0.350003 0.588441 0.537527
#
# Coordination Sequence:
#
# PCOD8216724 Si02
#       6
#     4   4   8   8   8   8
#     4  12  26  44  74 108 146 190 254 306 364 454
#     4  10  22  50  68 102 144 190 246 310 362 456
#     4  12  24  45  71 109 145 194 240 309 376 434
#     4  10  23  48  70 101 143 188 247 304 369 446
#     4  12  24  45  71 103 147 192 243 303 371 440
#     4  11  24  45  72 106 144 186 249 305 366 449
#
# _framework density 23.856397000000001
#
# number of rings (size 3 to 8) (size 9 to 14) (size 15 to 20)
#    0.000    0.800    2.000    5.400    0.000    0.000 
#    7.200    0.000    0.000    0.000    0.000    0.000 
#    0.000    0.000    0.000    0.000    0.000    0.000 
#
# Total GULP energy -496284.433562 kJ/mol
# GULP energy per Si atom -12407.110839 kJ/mol
# Density = 2.380210 g / cm^3
# Si number density = 23.856397 Si / 1000 Ang^3
#
#
#
# Elastic Constant Matrix: (Units=GPa)
#
#
# Indices 1 2 3 4 5 6 
#
# 1 99.9777 45.0023 42.7550 0.0000 0.0000 0.0000
# 2 45.0023 135.8388 57.7473 0.0000 0.0000 0.0000
# 3 42.7550 57.7473 121.8708 0.0000 0.0000 0.0000
# 4 0.0000 0.0000 0.0000 50.1374 0.0000 0.0000
# 5 0.0000 0.0000 0.0000 0.0000 45.6442 0.0000
# 6 0.0000 0.0000 0.0000 0.0000 0.0000 40.1446
#
#
#
# Elastic Compliance Matrix: (Units=1/GPa)
#
#
# Indices 1 2 3 4 5 6 
#
# 1 0.012605 -0.002875 -0.003060 0.000000 0.000000 0.000000
# 2 -0.002875 0.009874 -0.003670 0.000000 0.000000 0.000000
# 3 -0.003060 -0.003670 0.011018 0.000000 0.000000 0.000000
# 4 0.000000 0.000000 0.000000 0.019945 0.000000 0.000000
# 5 0.000000 0.000000 0.000000 0.000000 0.021909 0.000000
# 6 0.000000 0.000000 0.000000 0.000000 0.000000 0.024910
#
#
# Mechanical properties :
#
#
# Convention : Reuss Voigt Hill
#
# Bulk Modulus (GPa) = 69.99346 72.07738 71.03542
# Shear Modulus (GPa) = 40.24676 41.33076 40.78876
#
# Velocity S-wave (km/s) = 4.11182 4.16682 4.13941
# Velocity P-wave (km/s) = 7.20735 7.30948 7.25860
#
# Compressibility (1/GPa) = 0.01428705
#
# Stress axis : x y z
#
# Youngs Moduli (GPa) = 79.33440 101.27134 90.76108
#
# Poissons Ratio (x) = 0.29117 0.27770
# Poissons Ratio (y) = 0.22810 0.33312
# Poissons Ratio (z) = 0.24274 0.37169
#
# Static dielectric constant tensor:
#      x y z
#    x 3.973730 0.000000 0.000000 
#    y 0.000000 5.580110 0.000000 
#    z 0.000000 0.000000 4.634420 
# 
# 
# High freq. dielectric constant tensor:
#      x y z
#    x 1.937240 0.000000 0.000000 
#    y 0.000000 1.964520 0.000000 
#    z 0.000000 0.000000 1.959730 
# 
# From -- ./inp_files/1424.got.cif
#   From: 2010.06.25/outbox.cif.g09.slc.cpg/sg52_1_cif.got.tgz:1424.got - 2010.06.26 19:32:48.
