data_PCOD8216095
_publ_section_title
;
Structure prediction by ZEFSAII (Michael W. Deem and Ramdas Pophale) SiO2 
 PCOD8216095
Probable space group: P N N A
;
_chemical_formula_sum "Si O2"
_cell_formula_units_Z 56
_cell_length_a 13.197683
_cell_length_b 8.606832
_cell_length_c 22.710175
_cell_angle_alpha 90.000000
_cell_angle_beta 90.000000
_cell_angle_gamma 90.000000
_cell_volume 2579.654237
_symmetry_space_group_name_H-M "P N N A"
_symmetry_group_IT_number 52
_symmetry_cell_setting 'orthorhombic'
loop_
_space_group_symop_operation_xyz
x,y,z
1/2-x,-y,z
x,1/2-y,1/2-z
1/2-x,1/2+y,1/2-z
-x,-y,-z
1/2+x,y,-z
-x,1/2+y,1/2+z
1/2+x,1/2-y,1/2+z
loop_
_atom_site_type_symbol
_atom_site_label
_atom_site_fract_x
_atom_site_fract_y
_atom_site_fract_z
Si Si1 0.236999 0.758768 0.042618
Si Si2 0.940395 0.419154 0.725735
Si Si3 0.885577 0.824441 0.143526
Si Si4 0.750000 0.500000 0.646316
Si Si5 0.750000 0.500000 0.446107
Si Si6 0.093192 0.475085 0.042437
Si Si7 0.299861 0.155531 0.699024
Si Si8 0.020136 0.998046 0.651518
O O1 0.255263 0.849099 0.104133
O O2 0.147779 0.638299 0.052474
O O3 0.335791 0.664229 0.020367
O O4 0.204015 0.868709 0.988895
O O5 0.909396 0.250000 0.750000
O O6 0.848257 0.493378 0.688781
O O7 0.041928 0.423294 0.686175
O O8 0.969660 0.514812 0.784140
O O9 0.846587 0.933019 0.090103
O O10 0.784516 0.772364 0.176008
O O11 0.950377 0.670408 0.127216
O O12 0.056935 0.420810 0.106597
O O13 0.000000 0.500000 0.000000
O O14 0.357716 0.250000 0.750000
O O15 0.250000 0.000000 0.725493
O O16 0.378814 0.107573 0.648663
#
# Coordination Sequence:
#
# PCOD8216095 Si02
#       8
#     8   8   8   4   4   8   8   8
#     4  10  25  45  65  99 125 173 235 274 337 400
#     4  10  22  41  64  99 137 173 213 268 335 391
#     4  10  21  38  64  95 138 169 207 268 339 391
#     4  11  24  44  72  94 136 177 228 288 326 383
#     4  11  24  40  70  96 130 173 226 276 336 403
#     4  11  24  45  70  90 134 175 217 286 337 394
#     4  10  21  36  59  92 136 173 209 259 322 400
#     4  10  22  39  63  98 130 174 221 257 329 408
#
# _framework density 21.708337
#
# number of rings (size 3 to 8) (size 9 to 14) (size 15 to 20)
#    0.000    1.714    0.000    4.714    5.000    4.571 
#    0.000    3.571    0.000    0.000    0.000    0.000 
#    0.000    0.000    0.000    0.000    0.000    0.000 
#
# Total GULP energy -694085.523313 kJ/mol
# GULP energy per Si atom -12394.384345 kJ/mol
# Density = 2.165893 g / cm^3
# Si number density = 21.708337 Si / 1000 Ang^3
#
#
#
# Elastic Constant Matrix: (Units=GPa)
#
#
# Indices 1 2 3 4 5 6 
#
# 1 139.9564 53.5873 72.7619 0.0000 0.0000 0.0000
# 2 53.5873 92.8710 51.4647 0.0000 0.0000 0.0000
# 3 72.7619 51.4647 131.4235 0.0000 0.0000 0.0000
# 4 0.0000 0.0000 0.0000 27.3918 0.0000 0.0000
# 5 0.0000 0.0000 0.0000 0.0000 35.3378 0.0000
# 6 0.0000 0.0000 0.0000 0.0000 0.0000 23.5535
#
#
#
# Elastic Compliance Matrix: (Units=1/GPa)
#
#
# Indices 1 2 3 4 5 6 
#
# 1 0.010988 -0.003792 -0.004598 0.000000 0.000000 0.000000
# 2 -0.003792 0.015060 -0.003798 0.000000 0.000000 0.000000
# 3 -0.004598 -0.003798 0.011642 0.000000 0.000000 0.000000
# 4 0.000000 0.000000 0.000000 0.036507 0.000000 0.000000
# 5 0.000000 0.000000 0.000000 0.000000 0.028298 0.000000
# 6 0.000000 0.000000 0.000000 0.000000 0.000000 0.042456
#
#
# Mechanical properties :
#
#
# Convention : Reuss Voigt Hill
#
# Bulk Modulus (GPa) = 75.11251 79.98652 77.54952
# Shear Modulus (GPa) = 28.77425 29.68577 29.23001
#
# Velocity S-wave (km/s) = 3.64468 3.70196 3.67343
# Velocity P-wave (km/s) = 7.23792 7.42958 7.33438
#
# Compressibility (1/GPa) = 0.01331336
#
# Stress axis : x y z
#
# Youngs Moduli (GPa) = 91.01242 66.39983 85.89423
#
# Poissons Ratio (x) = 0.25177 0.39497
# Poissons Ratio (y) = 0.34509 0.32625
# Poissons Ratio (z) = 0.41851 0.25220
#
# Static dielectric constant tensor:
#      x y z
#    x 3.249240 0.000000 0.000000 
#    y 0.000000 4.024940 0.000000 
#    z 0.000000 0.000000 3.994690 
# 
# 
# High freq. dielectric constant tensor:
#      x y z
#    x 1.850690 0.000000 0.000000 
#    y 0.000000 1.852770 0.000000 
#    z 0.000000 0.000000 1.853970 
# 
# From -- ./inp_files/37387.got.cif
#   From: 2010.06.25/outbox.cif.g09.slc.cpg/sg52_19_cif.got.tgz:37387.got - 2010.06.26 19:32:48.
