data_PCOD8216889
_publ_section_title
;
Structure prediction by ZEFSAII (Michael W. Deem and Ramdas Pophale) SiO2 
 PCOD8216889
Probable space group: P N N A
;
_chemical_formula_sum "Si O2"
_cell_formula_units_Z 44
_cell_length_a 8.214640
_cell_length_b 21.818916
_cell_length_c 11.570979
_cell_angle_alpha 90.000000
_cell_angle_beta 90.000000
_cell_angle_gamma 90.000000
_cell_volume 2073.919100
_symmetry_space_group_name_H-M "P N N A"
_symmetry_group_IT_number 52
_symmetry_cell_setting 'orthorhombic'
loop_
_space_group_symop_operation_xyz
x,y,z
1/2-x,-y,z
x,1/2-y,1/2-z
1/2-x,1/2+y,1/2-z
-x,-y,-z
1/2+x,y,-z
-x,1/2+y,1/2+z
1/2+x,1/2-y,1/2+z
loop_
_atom_site_type_symbol
_atom_site_label
_atom_site_fract_x
_atom_site_fract_y
_atom_site_fract_z
Si Si1 0.721175 0.230429 0.436251
Si Si2 0.535450 0.858651 0.560019
Si Si3 0.540044 0.067483 0.852951
Si Si4 0.316305 0.937989 0.388432
Si Si5 0.750000 0.000000 0.037777
Si Si6 0.977124 0.788532 0.856802
O O1 0.859171 0.185225 0.480916
O O2 0.590820 0.185821 0.369809
O O3 0.624466 0.268861 0.531718
O O4 0.825960 0.277580 0.359956
O O5 0.437340 0.904471 0.475883
O O6 0.657779 0.895750 0.642753
O O7 0.598243 0.041288 0.730174
O O8 0.544129 0.140022 0.837798
O O9 0.362873 0.040160 0.878448
O O10 0.655958 0.048215 0.957831
O O11 0.250000 0.000000 0.449136
O O12 0.903053 0.750000 0.750000
#
# Coordination Sequence:
#
# PCOD8216889 Si02
#       6
#     8   8   8   8   4   8
#     4   9  19  37  57  90 116 156 192 239 315 363
#     4   9  19  37  59  84 128 148 188 250 300 384
#     4  11  22  43  63  89 123 163 220 259 308 365
#     4  11  21  39  59  92 118 163 201 247 310 364
#     4  10  24  44  64  86 122 176 216 266 302 364
#     4  11  21  38  63  90 122 159 200 256 315 368
#
# _framework density 21.215871
#
# number of rings (size 3 to 8) (size 9 to 14) (size 15 to 20)
#    0.000    1.818    0.909    4.909    0.000    0.000 
#   11.455    9.091    0.000    0.000    0.000    0.000 
#    0.000    0.000    0.000    0.000    0.000    0.000 
#
# Total GULP energy -545166.062750 kJ/mol
# GULP energy per Si atom -12390.137790 kJ/mol
# Density = 2.116758 g / cm^3
# Si number density = 21.215871 Si / 1000 Ang^3
#
#
#
# Elastic Constant Matrix: (Units=GPa)
#
#
# Indices 1 2 3 4 5 6 
#
# 1 108.0903 36.1048 15.4862 0.0000 0.0000 0.0000
# 2 36.1048 119.3792 13.5161 0.0000 0.0000 0.0000
# 3 15.4862 13.5161 54.3369 0.0000 0.0000 0.0000
# 4 0.0000 0.0000 0.0000 22.8974 0.0000 0.0000
# 5 0.0000 0.0000 0.0000 0.0000 31.7056 0.0000
# 6 0.0000 0.0000 0.0000 0.0000 0.0000 35.1238
#
#
#
# Elastic Compliance Matrix: (Units=1/GPa)
#
#
# Indices 1 2 3 4 5 6 
#
# 1 0.010558 -0.002935 -0.002279 0.000000 0.000000 0.000000
# 2 -0.002935 0.009435 -0.001510 0.000000 0.000000 0.000000
# 3 -0.002279 -0.001510 0.019429 0.000000 0.000000 0.000000
# 4 0.000000 0.000000 0.000000 0.043673 0.000000 0.000000
# 5 0.000000 0.000000 0.000000 0.000000 0.031540 0.000000
# 6 0.000000 0.000000 0.000000 0.000000 0.000000 0.028471
#
#
# Mechanical properties :
#
#
# Convention : Reuss Voigt Hill
#
# Bulk Modulus (GPa) = 38.50111 45.78008 42.14060
# Shear Modulus (GPa) = 30.26373 32.39197 31.32785
#
# Velocity S-wave (km/s) = 3.78096 3.91164 3.84685
# Velocity P-wave (km/s) = 6.10308 6.48277 6.29579
#
# Compressibility (1/GPa) = 0.02597327
#
# Stress axis : x y z
#
# Youngs Moduli (GPa) = 94.71051 105.98366 51.46958
#
# Poissons Ratio (x) = 0.31109 0.11730
# Poissons Ratio (y) = 0.27800 0.07774
# Poissons Ratio (z) = 0.21585 0.16009
#
# Static dielectric constant tensor:
#      x y z
#    x 4.554030 0.000000 0.000000 
#    y 0.000000 4.173310 0.000000 
#    z 0.000000 0.000000 3.403990 
# 
# 
# High freq. dielectric constant tensor:
#      x y z
#    x 1.854030 0.000000 0.000000 
#    y 0.000000 1.851390 0.000000 
#    z 0.000000 0.000000 1.792700 
# 
# From -- ./inp_files/16899.got.cif
#   From: 2010.06.25/outbox.cif.g09.slc.cpg/sg52_9_cif.got.tgz:16899.got - 2010.06.26 19:32:48.
