data_PCOD8216955
_publ_section_title
;
Structure prediction by ZEFSAII (Michael W. Deem and Ramdas Pophale) SiO2 
 PCOD8216955
Probable space group: P N N A
;
_chemical_formula_sum "Si O2"
_cell_formula_units_Z 32
_cell_length_a 9.203923
_cell_length_b 8.470090
_cell_length_c 20.136099
_cell_angle_alpha 90.000000
_cell_angle_beta 90.000000
_cell_angle_gamma 90.000000
_cell_volume 1569.771137
_symmetry_space_group_name_H-M "P N N A"
_symmetry_group_IT_number 52
_symmetry_cell_setting 'orthorhombic'
loop_
_space_group_symop_operation_xyz
x,y,z
1/2-x,-y,z
x,1/2-y,1/2-z
1/2-x,1/2+y,1/2-z
-x,-y,-z
1/2+x,y,-z
-x,1/2+y,1/2+z
1/2+x,1/2-y,1/2+z
loop_
_atom_site_type_symbol
_atom_site_label
_atom_site_fract_x
_atom_site_fract_y
_atom_site_fract_z
Si Si1 0.728899 0.186301 0.549427
Si Si2 0.107003 0.250000 0.750000
Si Si3 0.937490 0.362192 0.455243
Si Si4 0.250000 0.000000 0.842810
Si Si5 0.329963 0.338024 0.187378
O O1 0.797096 0.281858 0.488419
O O2 0.558506 0.227321 0.555708
O O3 0.807936 0.249414 0.616811
O O4 0.750000 0.000000 0.537378
O O5 0.205621 0.143469 0.795983
O O6 0.002048 0.357048 0.797417
O O7 0.885724 0.438609 0.386050
O O8 0.000000 0.500000 0.500000
O O9 0.250000 0.500000 0.177425
O O10 0.254273 0.250000 0.250000
#
# Coordination Sequence:
#
# PCOD8216955 Si02
#       5
#     8   4   8   4   8
#     4  11  24  42  67 103 134 179 227 288 347 413
#     4  10  26  42  66  96 138 176 236 276 352 410
#     4  12  24  44  72  99 139 181 235 281 356 416
#     4  12  26  46  68 102 138 190 230 292 352 428
#     4   9  22  40  65  93 130 173 225 275 337 403
#
# _framework density 20.385135999999999
#
# number of rings (size 3 to 8) (size 9 to 14) (size 15 to 20)
#    0.750    0.500    2.500    2.250    3.500    4.000 
#    2.250    0.000    0.000    0.000    0.000    0.000 
#    0.000    0.000    0.000    0.000    0.000    0.000 
#
# Total GULP energy -396695.738411 kJ/mol
# GULP energy per Si atom -12396.741825 kJ/mol
# Density = 2.033874 g / cm^3
# Si number density = 20.385136 Si / 1000 Ang^3
#
#
#
# Elastic Constant Matrix: (Units=GPa)
#
#
# Indices 1 2 3 4 5 6 
#
# 1 122.1505 50.0797 45.3709 0.0000 0.0000 0.0000
# 2 50.0797 104.2744 46.9094 0.0000 0.0000 0.0000
# 3 45.3709 46.9094 127.6814 0.0000 0.0000 0.0000
# 4 0.0000 0.0000 0.0000 41.0825 0.0000 0.0000
# 5 0.0000 0.0000 0.0000 0.0000 -14.3617 0.0000
# 6 0.0000 0.0000 0.0000 0.0000 0.0000 44.8270
#
#
#
# Elastic Compliance Matrix: (Units=1/GPa)
#
#
# Indices 1 2 3 4 5 6 
#
# 1 0.010729 -0.004118 -0.002299 0.000000 0.000000 0.000000
# 2 -0.004118 0.013070 -0.003338 0.000000 0.000000 0.000000
# 3 -0.002299 -0.003338 0.009876 0.000000 0.000000 0.000000
# 4 0.000000 0.000000 0.000000 0.024341 0.000000 0.000000
# 5 0.000000 0.000000 0.000000 0.000000 -0.069629 0.000000
# 6 0.000000 0.000000 0.000000 0.000000 0.000000 0.022308
#
#
# Mechanical properties :
#
#
# Convention : Reuss Voigt Hill
#
# Bulk Modulus (GPa) = 70.61074 70.98071 70.79572
# Shear Modulus (GPa) = 143.15316 28.42597 85.78957
#
# Velocity S-wave (km/s) = 8.38908 3.73828 6.49428
# Velocity P-wave (km/s) = 11.33795 7.31631 9.54143
#
# Compressibility (1/GPa) = 0.01416215
#
# Stress axis : x y z
#
# Youngs Moduli (GPa) = 93.20340 76.51215 101.25997
#
# Poissons Ratio (x) = 0.31511 0.23285
# Poissons Ratio (y) = 0.38385 0.33804
# Poissons Ratio (z) = 0.21432 0.25542
#
# Static dielectric constant tensor:
#      x y z
#    x 4.924680 0.000000 0.000000 
#    y 0.000000 3.671760 0.000000 
#    z 0.000000 0.000000 4.246200 
# 
# 
# High freq. dielectric constant tensor:
#      x y z
#    x 1.795610 0.000000 0.000000 
#    y 0.000000 1.791190 0.000000 
#    z 0.000000 0.000000 1.811780 
# 
# From -- ./inp_files/35501.got.cif
#   From: 2010.06.25/outbox.cif.g09.slc.cpg/sg52_18_cif.got.tgz:35501.got - 2010.06.26 19:32:48.
