data_PCOD8216213
_publ_section_title
;
Structure prediction by ZEFSAII (Michael W. Deem and Ramdas Pophale) SiO2 
 PCOD8216213
Probable space group: P N N A
;
_chemical_formula_sum "Si O2"
_cell_formula_units_Z 52
_cell_length_a 5.245062
_cell_length_b 20.061552
_cell_length_c 23.635342
_cell_angle_alpha 90.000000
_cell_angle_beta 90.000000
_cell_angle_gamma 90.000000
_cell_volume 2487.007213
_symmetry_space_group_name_H-M "P N N A"
_symmetry_group_IT_number 52
_symmetry_cell_setting 'orthorhombic'
loop_
_space_group_symop_operation_xyz
x,y,z
1/2-x,-y,z
x,1/2-y,1/2-z
1/2-x,1/2+y,1/2-z
-x,-y,-z
1/2+x,y,-z
-x,1/2+y,1/2+z
1/2+x,1/2-y,1/2+z
loop_
_atom_site_type_symbol
_atom_site_label
_atom_site_fract_x
_atom_site_fract_y
_atom_site_fract_z
Si Si1 0.149105 0.250511 0.815713
Si Si2 0.250000 0.000000 0.827611
Si Si3 0.231410 0.176220 0.467238
Si Si4 0.774920 0.666000 0.533778
Si Si5 0.873346 0.569937 0.747450
Si Si6 0.061663 0.617852 0.353373
Si Si7 0.862821 0.671675 0.844053
O O1 0.227910 0.250000 0.750000
O O2 0.138293 0.178251 0.845951
O O3 0.379904 0.284993 0.849245
O O4 0.877435 0.286710 0.821347
O O5 0.371027 0.055760 0.787026
O O6 0.060481 0.044446 0.865920
O O7 0.498604 0.152590 0.493428
O O8 0.232013 0.255190 0.457458
O O9 0.201477 0.142548 0.405894
O O10 0.538584 0.642803 0.494556
O O11 0.753908 0.631255 0.594946
O O12 0.750000 0.500000 0.764555
O O13 0.701612 0.615226 0.706814
O O14 0.929238 0.609634 0.804289
#
# Coordination Sequence:
#
# PCOD8216213 Si02
#       7
#     8   4   8   8   8   8   8
#     4  12  24  36  62 101 134 160 206 275 332 379
#     4  10  24  42  66  86 126 176 212 256 322 388
#     4  10  21  39  59  91 131 169 209 263 326 384
#     4  10  23  37  60  89 125 168 214 262 316 371
#     4  10  24  44  65  93 128 173 213 259 325 396
#     4  11  23  41  63  89 129 169 215 263 324 377
#     4  12  24  40  65 100 128 169 212 264 330 389
#
# _framework density 20.908664999999999
#
# number of rings (size 3 to 8) (size 9 to 14) (size 15 to 20)
#    0.000    1.231    3.077    2.308   10.769    0.000 
#    0.000    0.769    0.000    0.923    0.000    0.000 
#    0.000    0.000    0.000    0.000    0.000    0.000 
#
# Total GULP energy -644852.720595 kJ/mol
# GULP energy per Si atom -12401.013858 kJ/mol
# Density = 2.086108 g / cm^3
# Si number density = 20.908665 Si / 1000 Ang^3
#
#
#
# Elastic Constant Matrix: (Units=GPa)
#
#
# Indices 1 2 3 4 5 6 
#
# 1 111.9705 27.3863 16.2273 0.0000 0.0000 0.0000
# 2 27.3863 65.4506 37.3077 0.0000 0.0000 0.0000
# 3 16.2273 37.3077 92.0180 0.0000 0.0000 0.0000
# 4 0.0000 0.0000 0.0000 4.3173 0.0000 0.0000
# 5 0.0000 0.0000 0.0000 0.0000 26.4160 0.0000
# 6 0.0000 0.0000 0.0000 0.0000 0.0000 20.1323
#
#
#
# Elastic Compliance Matrix: (Units=1/GPa)
#
#
# Indices 1 2 3 4 5 6 
#
# 1 0.009950 -0.004114 -0.000087 0.000000 0.000000 0.000000
# 2 -0.004114 0.021572 -0.008021 0.000000 0.000000 0.000000
# 3 -0.000087 -0.008021 0.014135 0.000000 0.000000 0.000000
# 4 0.000000 0.000000 0.000000 0.231627 0.000000 0.000000
# 5 0.000000 0.000000 0.000000 0.000000 0.037856 0.000000
# 6 0.000000 0.000000 0.000000 0.000000 0.000000 0.049671
#
#
# Mechanical properties :
#
#
# Convention : Reuss Voigt Hill
#
# Bulk Modulus (GPa) = 47.13891 47.92018 47.52954
# Shear Modulus (GPa) = 12.61595 22.74099 17.67847
#
# Velocity S-wave (km/s) = 2.45905 3.30151 2.91092
# Velocity P-wave (km/s) = 5.53685 6.12388 5.83774
#
# Compressibility (1/GPa) = 0.02121390
#
# Stress axis : x y z
#
# Youngs Moduli (GPa) = 100.50599 46.35675 70.74841
#
# Poissons Ratio (x) = 0.19070 0.00614
# Poissons Ratio (y) = 0.41346 0.56744
# Poissons Ratio (z) = 0.00872 0.37181
#
# Static dielectric constant tensor:
#      x y z
#    x 3.934980 0.000000 0.000000 
#    y 0.000000 3.561330 0.000000 
#    z 0.000000 0.000000 3.782220 
# 
# 
# High freq. dielectric constant tensor:
#      x y z
#    x 1.833260 0.000000 0.000000 
#    y 0.000000 1.786390 0.000000 
#    z 0.000000 0.000000 1.818610 
# 
# From -- ./inp_files/35194.got.cif
#   From: 2010.06.25/outbox.cif.g09.slc.cpg/sg52_18_cif.got.tgz:35194.got - 2010.06.26 19:32:48.
