data_PCOD8216400
_publ_section_title
;
Structure prediction by ZEFSAII (Michael W. Deem and Ramdas Pophale) SiO2 
 PCOD8216400
Probable space group: P N N A
;
_chemical_formula_sum "Si O2"
_cell_formula_units_Z 40
_cell_length_a 24.356901
_cell_length_b 12.203476
_cell_length_c 5.881609
_cell_angle_alpha 90.000000
_cell_angle_beta 90.000000
_cell_angle_gamma 90.000000
_cell_volume 1748.242735
_symmetry_space_group_name_H-M "P N N A"
_symmetry_group_IT_number 52
_symmetry_cell_setting 'orthorhombic'
loop_
_space_group_symop_operation_xyz
x,y,z
1/2-x,-y,z
x,1/2-y,1/2-z
1/2-x,1/2+y,1/2-z
-x,-y,-z
1/2+x,y,-z
-x,1/2+y,1/2+z
1/2+x,1/2-y,1/2+z
loop_
_atom_site_type_symbol
_atom_site_label
_atom_site_fract_x
_atom_site_fract_y
_atom_site_fract_z
Si Si1 0.922541 0.646257 0.608078
Si Si2 0.996205 0.250000 0.750000
Si Si3 0.649138 0.005513 0.202901
Si Si4 0.250000 0.000000 0.491071
Si Si5 0.679615 0.629249 0.686450
Si Si6 0.075241 0.549820 0.092819
O O1 0.900543 0.750000 0.750000
O O2 0.869694 0.601196 0.468595
O O3 0.951237 0.558280 0.785191
O O4 0.969091 0.684900 0.434712
O O5 0.960118 0.340545 0.882303
O O6 0.698155 0.046186 0.366489
O O7 0.592543 0.969116 0.329841
O O8 0.678546 0.899449 0.081705
O O9 0.264973 0.100224 0.321712
O O10 0.662218 0.750000 0.750000
O O11 0.632029 0.551979 0.775991
#
# Coordination Sequence:
#
# PCOD8216400 Si02
#       6
#     8   4   8   4   8   8
#     4  11  25  43  66  98 146 184 231 280 344 409
#     4  12  24  44  70 104 138 186 226 292 340 406
#     4  10  23  46  68  96 140 178 226 293 340 419
#     4  10  22  42  70 100 132 174 228 284 348 414
#     4  10  21  43  67  98 131 173 226 285 342 411
#     4  10  23  43  68 101 133 179 233 277 345 408
#
# _framework density 22.880116999999998
#
# number of rings (size 3 to 8) (size 9 to 14) (size 15 to 20)
#    0.000    1.600    1.000    2.400    0.000    9.600 
#    0.000   32.000    0.000    0.000    0.000    0.000 
#    0.000    0.000    0.000    0.000    0.000    0.000 
#
# Total GULP energy -495554.906041 kJ/mol
# GULP energy per Si atom -12388.872651 kJ/mol
# Density = 2.282804 g / cm^3
# Si number density = 22.880117 Si / 1000 Ang^3
#
#
#
# Elastic Constant Matrix: (Units=GPa)
#
#
# Indices 1 2 3 4 5 6 
#
# 1 99.0854 50.1094 56.8049 0.0000 0.0000 0.0000
# 2 50.1094 142.9005 71.2052 0.0000 0.0000 0.0000
# 3 56.8049 71.2052 140.8183 0.0000 0.0000 0.0000
# 4 0.0000 0.0000 0.0000 35.2273 0.0000 0.0000
# 5 0.0000 0.0000 0.0000 0.0000 -160.0854 0.0000
# 6 0.0000 0.0000 0.0000 0.0000 0.0000 29.6620
#
#
#
# Elastic Compliance Matrix: (Units=1/GPa)
#
#
# Indices 1 2 3 4 5 6 
#
# 1 0.013910 -0.002783 -0.004204 0.000000 0.000000 0.000000
# 2 -0.002783 0.009912 -0.003889 0.000000 0.000000 0.000000
# 3 -0.004204 -0.003889 0.010764 0.000000 0.000000 0.000000
# 4 0.000000 0.000000 0.000000 0.028387 0.000000 0.000000
# 5 0.000000 0.000000 0.000000 0.000000 -0.006247 0.000000
# 6 0.000000 0.000000 0.000000 0.000000 0.000000 0.033713
#
#
# Mechanical properties :
#
#
# Convention : Reuss Voigt Hill
#
# Bulk Modulus (GPa) = 77.92343 82.11594 80.01969
# Shear Modulus (GPa) = 42.93003 -5.39358 18.76823
#
# Velocity S-wave (km/s) = 4.33633 -1.53702 2.86717
# Velocity P-wave (km/s) = 7.69434 5.72867 6.78309
#
# Compressibility (1/GPa) = 0.01283311
#
# Stress axis : x y z
#
# Youngs Moduli (GPa) = 71.89227 100.89100 92.90389
#
# Poissons Ratio (x) = 0.28076 0.39056
# Poissons Ratio (y) = 0.20006 0.36133
# Poissons Ratio (z) = 0.30223 0.39240
#
# Static dielectric constant tensor:
#      x y z
#    x 4.111170 0.000000 0.000000 
#    y 0.000000 4.120130 0.000000 
#    z 0.000000 0.000000 5.037680 
# 
# 
# High freq. dielectric constant tensor:
#      x y z
#    x 1.895940 0.000000 0.000000 
#    y 0.000000 1.893850 0.000000 
#    z 0.000000 0.000000 1.923290 
# 
# From -- ./inp_files/5631.got.cif
#   From: 2010.06.25/outbox.cif.g09.slc.cpg/sg52_3_cif.got.tgz:5631.got - 2010.06.26 19:32:48.
