data_PCOD8216525
_publ_section_title
;
Structure prediction by ZEFSAII (Michael W. Deem and Ramdas Pophale) SiO2 
 PCOD8216525
Probable space group: P N N A
;
_chemical_formula_sum "Si O2"
_cell_formula_units_Z 48
_cell_length_a 15.608133
_cell_length_b 27.781977
_cell_length_c 5.162100
_cell_angle_alpha 90.000000
_cell_angle_beta 90.000000
_cell_angle_gamma 90.000000
_cell_volume 2238.414539
_symmetry_space_group_name_H-M "P N N A"
_symmetry_group_IT_number 52
_symmetry_cell_setting 'orthorhombic'
loop_
_space_group_symop_operation_xyz
x,y,z
1/2-x,-y,z
x,1/2-y,1/2-z
1/2-x,1/2+y,1/2-z
-x,-y,-z
1/2+x,y,-z
-x,1/2+y,1/2+z
1/2+x,1/2-y,1/2+z
loop_
_atom_site_type_symbol
_atom_site_label
_atom_site_fract_x
_atom_site_fract_y
_atom_site_fract_z
Si Si1 0.396640 0.045934 0.380909
Si Si2 0.967391 0.643295 0.672868
Si Si3 0.413669 0.940858 0.512318
Si Si4 0.680530 0.140430 0.212341
Si Si5 0.142341 0.603284 0.601923
Si Si6 0.893185 0.719065 0.997955
O O1 0.498935 0.048800 0.329303
O O2 0.365854 0.079100 0.617143
O O3 0.369606 0.990724 0.427955
O O4 0.350469 0.063050 0.119837
O O5 0.939184 0.590195 0.762964
O O6 0.895192 0.660379 0.471750
O O7 0.061819 0.638825 0.548559
O O8 0.970574 0.683179 0.904310
O O9 0.344622 0.912187 0.681603
O O10 0.772746 0.135897 0.080400
O O11 0.685178 0.182571 0.429965
O O12 0.922173 0.750000 0.250000
O O13 0.863323 0.750000 0.750000
#
# Coordination Sequence:
#
# PCOD8216525 Si02
#       6
#     8   8   8   8   8   8
#     4  10  22  40  61  92 132 171 229 261 305 372
#     4  10  22  43  67  91 130 165 212 264 326 380
#     4   9  21  38  64  90 128 181 214 269 315 362
#     4  11  23  42  66  95 132 172 215 267 333 386
#     4  11  25  40  63  97 130 174 214 265 313 382
#     4  11  23  43  72  95 120 167 210 265 335 400
#
# _framework density 21.443749
#
# number of rings (size 3 to 8) (size 9 to 14) (size 15 to 20)
#    0.000    1.667    3.333    0.000    7.000    2.667 
#    0.000    1.667    0.000    0.000    0.000    0.000 
#    0.000    0.000    0.000    0.000    0.000    0.000 
#
# Total GULP energy -594985.951533 kJ/mol
# GULP energy per Si atom -12395.540657 kJ/mol
# Density = 2.139494 g / cm^3
# Si number density = 21.443749 Si / 1000 Ang^3
#
#
#
# Elastic Constant Matrix: (Units=GPa)
#
#
# Indices 1 2 3 4 5 6 
#
# 1 113.3289 44.3887 42.4664 0.0000 0.0000 0.0000
# 2 44.3887 131.7347 47.6428 0.0000 0.0000 0.0000
# 3 42.4664 47.6428 111.0029 0.0000 0.0000 0.0000
# 4 0.0000 0.0000 0.0000 43.8098 0.0000 0.0000
# 5 0.0000 0.0000 0.0000 0.0000 23.8840 0.0000
# 6 0.0000 0.0000 0.0000 0.0000 0.0000 12.5144
#
#
#
# Elastic Compliance Matrix: (Units=1/GPa)
#
#
# Indices 1 2 3 4 5 6 
#
# 1 0.010997 -0.002585 -0.003098 0.000000 0.000000 0.000000
# 2 -0.002585 0.009594 -0.003129 0.000000 0.000000 0.000000
# 3 -0.003098 -0.003129 0.011537 0.000000 0.000000 0.000000
# 4 0.000000 0.000000 0.000000 0.022826 0.000000 0.000000
# 5 0.000000 0.000000 0.000000 0.000000 0.041869 0.000000
# 6 0.000000 0.000000 0.000000 0.000000 0.000000 0.079908
#
#
# Mechanical properties :
#
#
# Convention : Reuss Voigt Hill
#
# Bulk Modulus (GPa) = 68.94391 69.45138 69.19764
# Shear Modulus (GPa) = 25.10190 30.81289 27.95739
#
# Velocity S-wave (km/s) = 3.42510 3.79478 3.61467
# Velocity P-wave (km/s) = 6.91828 7.18738 7.05412
#
# Compressibility (1/GPa) = 0.01450454
#
# Stress axis : x y z
#
# Youngs Moduli (GPa) = 90.93219 104.23606 86.68068
#
# Poissons Ratio (x) = 0.26948 0.26850
# Poissons Ratio (y) = 0.23509 0.27118
# Poissons Ratio (z) = 0.28167 0.32611
#
# Static dielectric constant tensor:
#      x y z
#    x 3.645580 0.000000 0.000000 
#    y 0.000000 4.025520 0.000000 
#    z 0.000000 0.000000 3.913450 
# 
# 
# High freq. dielectric constant tensor:
#      x y z
#    x 1.805380 0.000000 0.000000 
#    y 0.000000 1.848560 0.000000 
#    z 0.000000 0.000000 1.846510 
# 
# From -- ./inp_files/2434.got.cif
#   From: 2010.06.25/outbox.cif.g09.slc.cpg/sg52_2_cif.got.tgz:2434.got - 2010.06.26 19:32:48.
