data_PCOD8216985
_publ_section_title
;
Structure prediction by ZEFSAII (Michael W. Deem and Ramdas Pophale) SiO2 
 PCOD8216985
Probable space group: P N N A
;
_chemical_formula_sum "Si O2"
_cell_formula_units_Z 64
_cell_length_a 9.865000
_cell_length_b 29.668550
_cell_length_c 12.830375
_cell_angle_alpha 90.000000
_cell_angle_beta 90.000000
_cell_angle_gamma 90.000000
_cell_volume 3755.197308
_symmetry_space_group_name_H-M "P N N A"
_symmetry_group_IT_number 52
_symmetry_cell_setting 'orthorhombic'
loop_
_space_group_symop_operation_xyz
x,y,z
1/2-x,-y,z
x,1/2-y,1/2-z
1/2-x,1/2+y,1/2-z
-x,-y,-z
1/2+x,y,-z
-x,1/2+y,1/2+z
1/2+x,1/2-y,1/2+z
loop_
_atom_site_type_symbol
_atom_site_label
_atom_site_fract_x
_atom_site_fract_y
_atom_site_fract_z
Si Si1 0.708814 0.774649 0.905165
Si Si2 0.534551 0.721282 0.398935
Si Si3 0.380205 0.524584 0.119095
Si Si4 0.156137 0.818619 0.310997
Si Si5 0.619336 0.366814 0.131194
Si Si6 0.394453 0.625403 0.111958
Si Si7 0.370166 0.530687 0.870705
Si Si8 0.120968 0.816974 0.689593
O O1 0.872217 0.778497 0.920222
O O2 0.651549 0.801808 0.807092
O O3 0.667932 0.722547 0.891739
O O4 0.622992 0.794095 0.001820
O O5 0.589660 0.770068 0.366442
O O6 0.569770 0.685638 0.308550
O O7 0.250000 0.500000 0.164086
O O8 0.392424 0.575355 0.158613
O O9 0.495789 0.493750 0.168977
O O10 0.376019 0.528497 0.994933
O O11 0.291846 0.847145 0.317532
O O12 0.029760 0.849711 0.340693
O O13 0.638665 0.418127 0.172650
O O14 0.721228 0.330957 0.184395
O O15 0.645860 0.369002 0.008202
O O16 0.545619 0.643490 0.127827
O O17 0.250000 0.500000 0.826031
#
# Coordination Sequence:
#
# PCOD8216985 Si02
#       8
#     8   8   8   8   8   8   8   8
#     4  11  23  39  57  74 105 142 169 223 268 303
#     4  11  23  39  57  74 105 138 176 217 269 306
#     4   9  17  27  47  68 100 140 174 205 252 306
#     4  11  22  36  52  78 110 133 185 219 252 306
#     4  11  22  30  53  80 106 147 179 211 252 311
#     4  11  18  34  51  74 108 147 175 214 258 302
#     4   9  17  31  43  70 106 138 174 208 249 304
#     4  11  22  36  52  78 106 137 181 217 251 311
#
# _framework density 17.043044999999999
#
# number of rings (size 3 to 8) (size 9 to 14) (size 15 to 20)
#    0.000    1.500    2.500    4.500    3.500    5.000 
#    0.000    0.000    0.000    0.000    0.000    0.000 
#    0.000   20.000    0.000    0.000    0.000    0.000 
#
# Total GULP energy -793395.534573 kJ/mol
# GULP energy per Si atom -12396.805228 kJ/mol
# Density = 1.700425 g / cm^3
# Si number density = 17.043045 Si / 1000 Ang^3
#
#
#
# Elastic Constant Matrix: (Units=GPa)
#
#
# Indices 1 2 3 4 5 6 
#
# 1 90.8720 26.8760 25.6032 0.0000 0.0000 0.0000
# 2 26.8760 91.3154 16.8970 0.0000 0.0000 0.0000
# 3 25.6032 16.8970 56.5833 0.0000 0.0000 0.0000
# 4 0.0000 0.0000 0.0000 17.2394 0.0000 0.0000
# 5 0.0000 0.0000 0.0000 0.0000 23.7903 0.0000
# 6 0.0000 0.0000 0.0000 0.0000 0.0000 25.6896
#
#
#
# Elastic Compliance Matrix: (Units=1/GPa)
#
#
# Indices 1 2 3 4 5 6 
#
# 1 0.013333 -0.002972 -0.005146 0.000000 0.000000 0.000000
# 2 -0.002972 0.012254 -0.002314 0.000000 0.000000 0.000000
# 3 -0.005146 -0.002314 0.020693 0.000000 0.000000 0.000000
# 4 0.000000 0.000000 0.000000 0.058007 0.000000 0.000000
# 5 0.000000 0.000000 0.000000 0.000000 0.042034 0.000000
# 6 0.000000 0.000000 0.000000 0.000000 0.000000 0.038926
#
#
# Mechanical properties :
#
#
# Convention : Reuss Voigt Hill
#
# Bulk Modulus (GPa) = 39.34609 41.94701 40.64655
# Shear Modulus (GPa) = 23.30101 24.63683 23.96892
#
# Velocity S-wave (km/s) = 3.70156 3.80618 3.75424
# Velocity P-wave (km/s) = 6.43468 6.63188 6.53403
#
# Compressibility (1/GPa) = 0.02541548
#
# Stress axis : x y z
#
# Youngs Moduli (GPa) = 75.00032 81.60550 48.32663
#
# Poissons Ratio (x) = 0.24254 0.24867
# Poissons Ratio (y) = 0.22291 0.11185
# Poissons Ratio (z) = 0.38592 0.18888
#
# Static dielectric constant tensor:
#      x y z
#    x 3.317590 0.000000 0.000000 
#    y 0.000000 3.286090 0.000000 
#    z 0.000000 0.000000 2.930190 
# 
# 
# High freq. dielectric constant tensor:
#      x y z
#    x 1.678200 0.000000 0.000000 
#    y 0.000000 1.658300 0.000000 
#    z 0.000000 0.000000 1.611410 
# 
# From -- ./inp_files/17242.got.cif
#   From: 2010.06.25/outbox.cif.g09.slc.cpg/sg52_9_cif.got.tgz:17242.got - 2010.06.26 19:32:48.
