data_PCOD8216925
_publ_section_title
;
Structure prediction by ZEFSAII (Michael W. Deem and Ramdas Pophale) SiO2 
 PCOD8216925
Probable space group: P N N A
;
_chemical_formula_sum "Si O2"
_cell_formula_units_Z 64
_cell_length_a 23.085402
_cell_length_b 9.259092
_cell_length_c 13.400899
_cell_angle_alpha 90.000000
_cell_angle_beta 90.000000
_cell_angle_gamma 90.000000
_cell_volume 2864.440298
_symmetry_space_group_name_H-M "P N N A"
_symmetry_group_IT_number 52
_symmetry_cell_setting 'orthorhombic'
loop_
_space_group_symop_operation_xyz
x,y,z
1/2-x,-y,z
x,1/2-y,1/2-z
1/2-x,1/2+y,1/2-z
-x,-y,-z
1/2+x,y,-z
-x,1/2+y,1/2+z
1/2+x,1/2-y,1/2+z
loop_
_atom_site_type_symbol
_atom_site_label
_atom_site_fract_x
_atom_site_fract_y
_atom_site_fract_z
Si Si1 0.229806 0.841192 0.157084
Si Si2 0.044081 0.347987 0.157970
Si Si3 0.936911 0.240054 0.472469
Si Si4 0.001627 0.154168 0.656642
Si Si5 0.119419 0.038861 0.599415
Si Si6 0.693974 0.081083 0.224760
Si Si7 0.347879 0.027471 0.986108
Si Si8 0.658296 0.224932 0.560293
O O1 0.201014 0.750000 0.250000
O O2 0.282999 0.737468 0.123726
O O3 0.250000 0.000000 0.194358
O O4 0.189083 0.865986 0.059506
O O5 0.056911 0.250000 0.250000
O O6 0.106797 0.369137 0.108305
O O7 0.994991 0.273241 0.091153
O O8 0.023076 0.502994 0.195340
O O9 0.905878 0.392132 0.450711
O O10 0.953829 0.232406 0.588676
O O11 0.889581 0.118210 0.447312
O O12 0.018446 0.250000 0.750000
O O13 0.059100 0.126720 0.591484
O O14 0.138627 0.021001 0.714377
O O15 0.168558 0.135053 0.542539
O O16 0.700378 0.250000 0.250000
O O17 0.750000 0.000000 0.267194
O O18 0.687637 0.034410 0.108795
O O19 0.366632 0.886233 0.046572
#
# Coordination Sequence:
#
# PCOD8216925 Si02
#       8
#     8   8   8   8   8   8   8   8
#     4  10  24  47  72  99 139 185 238 301 360 424
#     4  11  24  41  66  99 137 178 231 289 349 428
#     4  11  25  44  66 101 143 182 231 293 354 422
#     4  11  24  44  67  99 139 185 236 289 355 435
#     4  11  23  43  70  97 142 190 231 291 361 430
#     4  12  27  45  72 106 144 190 248 299 367 436
#     4  11  27  44  71 104 144 184 241 303 351 433
#     4  11  21  44  70  95 135 182 232 288 358 423
#
# _framework density 22.342934
#
# number of rings (size 3 to 8) (size 9 to 14) (size 15 to 20)
#    0.000    1.000    3.750    2.625    7.000    2.000 
#    2.250    0.000    0.000    0.000    0.000    0.000 
#    0.000    0.000    0.000    0.000    0.000    0.000 
#
# Total GULP energy -793343.520478 kJ/mol
# GULP energy per Si atom -12395.992507 kJ/mol
# Density = 2.229208 g / cm^3
# Si number density = 22.342934 Si / 1000 Ang^3
#
#
#
# Elastic Constant Matrix: (Units=GPa)
#
#
# Indices 1 2 3 4 5 6 
#
# 1 65.3707 9.0065 14.8926 0.0000 0.0000 0.0000
# 2 9.0065 44.4101 31.2322 0.0000 0.0000 0.0000
# 3 14.8926 31.2322 97.0638 0.0000 0.0000 0.0000
# 4 0.0000 0.0000 0.0000 37.8917 0.0000 0.0000
# 5 0.0000 0.0000 0.0000 0.0000 42.6648 0.0000
# 6 0.0000 0.0000 0.0000 0.0000 0.0000 52.5965
#
#
#
# Elastic Compliance Matrix: (Units=1/GPa)
#
#
# Indices 1 2 3 4 5 6 
#
# 1 0.015982 -0.001960 -0.001821 0.000000 0.000000 0.000000
# 2 -0.001960 0.029344 -0.009141 0.000000 0.000000 0.000000
# 3 -0.001821 -0.009141 0.013523 0.000000 0.000000 0.000000
# 4 0.000000 0.000000 0.000000 0.026391 0.000000 0.000000
# 5 0.000000 0.000000 0.000000 0.000000 0.023439 0.000000
# 6 0.000000 0.000000 0.000000 0.000000 0.000000 0.019013
#
#
# Mechanical properties :
#
#
# Convention : Reuss Voigt Hill
#
# Bulk Modulus (GPa) = 30.29973 35.23414 32.76693
# Shear Modulus (GPa) = 30.38803 36.74481 33.56642
#
# Velocity S-wave (km/s) = 3.69192 4.05975 3.88019
# Velocity P-wave (km/s) = 5.63599 6.14649 5.89676
#
# Compressibility (1/GPa) = 0.03300359
#
# Stress axis : x y z
#
# Youngs Moduli (GPa) = 62.56881 34.07897 73.94637
#
# Poissons Ratio (x) = 0.06681 0.13469
# Poissons Ratio (y) = 0.12265 0.67595
# Poissons Ratio (z) = 0.11397 0.31152
#
# Static dielectric constant tensor:
#      x y z
#    x 3.865230 0.000000 0.000000 
#    y 0.000000 4.003540 0.000000 
#    z 0.000000 0.000000 4.152320 
# 
# 
# High freq. dielectric constant tensor:
#      x y z
#    x 1.870930 0.000000 0.000000 
#    y 0.000000 1.882070 0.000000 
#    z 0.000000 0.000000 1.886090 
# 
# From -- ./inp_files/29220.got.cif
#   From: 2010.06.25/outbox.cif.g09.slc.cpg/sg52_15_cif.got.tgz:29220.got - 2010.06.26 19:32:48.
