data_PCOD8216239
_publ_section_title
;
Structure prediction by ZEFSAII (Michael W. Deem and Ramdas Pophale) SiO2 
 PCOD8216239
Probable space group: P N N A
;
_chemical_formula_sum "Si O2"
_cell_formula_units_Z 36
_cell_length_a 4.987762
_cell_length_b 10.530694
_cell_length_c 31.697268
_cell_angle_alpha 90.000000
_cell_angle_beta 90.000000
_cell_angle_gamma 90.000000
_cell_volume 1664.886176
_symmetry_space_group_name_H-M "P N N A"
_symmetry_group_IT_number 52
_symmetry_cell_setting 'orthorhombic'
loop_
_space_group_symop_operation_xyz
x,y,z
1/2-x,-y,z
x,1/2-y,1/2-z
1/2-x,1/2+y,1/2-z
-x,-y,-z
1/2+x,y,-z
-x,1/2+y,1/2+z
1/2+x,1/2-y,1/2+z
loop_
_atom_site_type_symbol
_atom_site_label
_atom_site_fract_x
_atom_site_fract_y
_atom_site_fract_z
Si Si1 0.807990 0.750000 0.250000
Si Si2 0.367820 0.765406 0.117448
Si Si3 0.621664 0.362453 0.335886
Si Si4 0.250000 0.000000 0.708913
Si Si5 0.250000 0.500000 0.152900
Si Si6 0.235961 0.350667 0.474388
O O1 0.968890 0.701488 0.291281
O O2 0.645581 0.622885 0.235985
O O3 0.656321 0.781976 0.139076
O O4 0.298686 0.618889 0.123096
O O5 0.373513 0.786442 0.067743
O O6 0.150565 0.863419 0.137129
O O7 0.750000 0.500000 0.328715
O O8 0.501079 0.957885 0.681471
O O9 0.250000 0.500000 0.466758
O O10 0.532481 0.308429 0.488345
#
# Coordination Sequence:
#
# PCOD8216239 Si02
#       6
#     4   8   8   4   4   8
#     4  12  24  44  62  94 126 172 222 266 316 368
#     4  12  24  43  65  94 129 169 211 262 321 394
#     4  12  25  40  64  93 127 169 216 270 315 377
#     4  12  26  44  64  91 134 178 220 273 318 376
#     4  12  24  44  64  93 130 180 208 255 328 386
#     4  10  21  39  64  92 123 159 205 264 322 378
#
# _framework density 21.623099
#
# number of rings (size 3 to 8) (size 9 to 14) (size 15 to 20)
#    0.000    0.444    5.556    3.333    0.000    5.333 
#    0.000    1.111    0.000    0.000    0.000    0.000 
#    0.000    0.000    0.000    0.000    0.000    0.000 
#
# Total GULP energy -446143.128072 kJ/mol
# GULP energy per Si atom -12392.864669 kJ/mol
# Density = 2.157388 g / cm^3
# Si number density = 21.623099 Si / 1000 Ang^3
#
#
#
# Elastic Constant Matrix: (Units=GPa)
#
#
# Indices 1 2 3 4 5 6 
#
# 1 96.0719 8.8010 31.4644 0.0000 0.0000 0.0000
# 2 8.8010 107.7168 40.1512 0.0000 0.0000 0.0000
# 3 31.4644 40.1512 135.6376 0.0000 0.0000 0.0000
# 4 0.0000 0.0000 0.0000 47.2209 0.0000 0.0000
# 5 0.0000 0.0000 0.0000 0.0000 16.0649 0.0000
# 6 0.0000 0.0000 0.0000 0.0000 0.0000 25.4141
#
#
#
# Elastic Compliance Matrix: (Units=1/GPa)
#
#
# Indices 1 2 3 4 5 6 
#
# 1 0.011265 0.000060 -0.002631 0.000000 0.000000 0.000000
# 2 0.000060 0.010435 -0.003103 0.000000 0.000000 0.000000
# 3 -0.002631 -0.003103 0.008901 0.000000 0.000000 0.000000
# 4 0.000000 0.000000 0.000000 0.021177 0.000000 0.000000
# 5 0.000000 0.000000 0.000000 0.000000 0.062247 0.000000
# 6 0.000000 0.000000 0.000000 0.000000 0.000000 0.039348
#
#
# Mechanical properties :
#
#
# Convention : Reuss Voigt Hill
#
# Bulk Modulus (GPa) = 51.93647 55.58438 53.76043
# Shear Modulus (GPa) = 29.21579 35.00728 32.11154
#
# Velocity S-wave (km/s) = 3.67977 4.02802 3.85782
# Velocity P-wave (km/s) = 6.49041 6.88441 6.69031
#
# Compressibility (1/GPa) = 0.01925429
#
# Stress axis : x y z
#
# Youngs Moduli (GPa) = 88.77021 95.82833 112.34087
#
# Poissons Ratio (x) = -0.00578 0.29557
# Poissons Ratio (y) = -0.00535 0.34860
# Poissons Ratio (z) = 0.23356 0.29736
#
# Static dielectric constant tensor:
#      x y z
#    x 3.856380 0.000000 0.000000 
#    y 0.000000 3.973430 0.000000 
#    z 0.000000 0.000000 3.865460 
# 
# 
# High freq. dielectric constant tensor:
#      x y z
#    x 1.838520 0.000000 0.000000 
#    y 0.000000 1.856550 0.000000 
#    z 0.000000 0.000000 1.850970 
# 
# From -- ./inp_files/38597.got.cif
#   From: 2010.06.25/outbox.cif.g09.slc.cpg/sg52_20_cif.got.tgz:38597.got - 2010.06.26 19:32:48.
