data_PCOD8216699
_publ_section_title
;
Structure prediction by ZEFSAII (Michael W. Deem and Ramdas Pophale) SiO2 
 PCOD8216699
Probable space group: P N N A
;
_chemical_formula_sum "Si O2"
_cell_formula_units_Z 60
_cell_length_a 9.383156
_cell_length_b 13.843994
_cell_length_c 21.231416
_cell_angle_alpha 90.000000
_cell_angle_beta 90.000000
_cell_angle_gamma 90.000000
_cell_volume 2757.968483
_symmetry_space_group_name_H-M "P N N A"
_symmetry_group_IT_number 52
_symmetry_cell_setting 'orthorhombic'
loop_
_space_group_symop_operation_xyz
x,y,z
1/2-x,-y,z
x,1/2-y,1/2-z
1/2-x,1/2+y,1/2-z
-x,-y,-z
1/2+x,y,-z
-x,1/2+y,1/2+z
1/2+x,1/2-y,1/2+z
loop_
_atom_site_type_symbol
_atom_site_label
_atom_site_fract_x
_atom_site_fract_y
_atom_site_fract_z
Si Si1 0.416206 0.529846 0.561477
Si Si2 0.425478 0.104051 0.490390
Si Si3 0.216100 0.758090 0.180239
Si Si4 0.947724 0.751944 0.093683
Si Si5 0.449169 0.593768 0.194539
Si Si6 0.040606 0.107977 0.160696
Si Si7 0.645657 0.708341 0.120665
Si Si8 0.250000 0.000000 0.395852
O O1 0.250000 0.500000 0.560303
O O2 0.500000 0.500000 0.500000
O O3 0.427688 0.644039 0.563364
O O4 0.503743 0.485847 0.620110
O O5 0.544788 0.173816 0.461618
O O6 0.374458 0.161486 0.551884
O O7 0.290328 0.089211 0.442561
O O8 0.500000 0.000000 0.500000
O O9 0.150220 0.750000 0.250000
O O10 0.338328 0.678294 0.179180
O O11 0.293542 0.858414 0.159454
O O12 0.088994 0.740089 0.133674
O O13 0.809553 0.730097 0.135379
O O14 0.478928 0.572336 0.267258
O O15 0.602805 0.626160 0.169973
O O16 0.387559 0.508088 0.150841
O O17 0.940119 0.192945 0.134184
#
# Coordination Sequence:
#
# PCOD8216699 Si02
#       8
#     8   8   8   8   8   8   8   4
#     4  12  28  50  72 107 144 195 249 308 373 442
#     4  12  25  44  69 102 147 187 234 295 363 445
#     4   9  21  41  69 104 134 183 239 293 354 425
#     4  12  26  42  72 104 140 182 243 301 356 433
#     4  10  22  44  74  98 146 193 234 301 366 440
#     4  10  23  47  73 100 142 191 246 294 370 435
#     4  11  23  43  69 104 141 191 231 294 373 427
#     4  12  22  44  70 108 144 188 248 294 370 450
#
# _framework density 21.755143
#
# number of rings (size 3 to 8) (size 9 to 14) (size 15 to 20)
#    0.000    1.067    4.000    2.800    1.867    3.200 
#    0.000    0.000    0.000    0.000    0.000    0.000 
#    0.000    0.000    0.000    0.000    0.000    0.000 
#
# Total GULP energy -743345.531670 kJ/mol
# GULP energy per Si atom -12389.092194 kJ/mol
# Density = 2.170563 g / cm^3
# Si number density = 21.755143 Si / 1000 Ang^3
#
#
#
# Elastic Constant Matrix: (Units=GPa)
#
#
# Indices 1 2 3 4 5 6 
#
# 1 101.7361 40.3551 62.6734 0.0000 0.0000 0.0000
# 2 40.3551 103.6447 47.1995 0.0000 0.0000 0.0000
# 3 62.6734 47.1995 152.9331 0.0000 0.0000 0.0000
# 4 0.0000 0.0000 0.0000 34.1749 0.0000 0.0000
# 5 0.0000 0.0000 0.0000 0.0000 19.1096 0.0000
# 6 0.0000 0.0000 0.0000 0.0000 0.0000 21.9474
#
#
#
# Elastic Compliance Matrix: (Units=1/GPa)
#
#
# Indices 1 2 3 4 5 6 
#
# 1 0.014066 -0.003318 -0.004740 0.000000 0.000000 0.000000
# 2 -0.003318 0.012009 -0.002347 0.000000 0.000000 0.000000
# 3 -0.004740 -0.002347 0.009206 0.000000 0.000000 0.000000
# 4 0.000000 0.000000 0.000000 0.029261 0.000000 0.000000
# 5 0.000000 0.000000 0.000000 0.000000 0.052330 0.000000
# 6 0.000000 0.000000 0.000000 0.000000 0.000000 0.045564
#
#
# Mechanical properties :
#
#
# Convention : Reuss Voigt Hill
#
# Bulk Modulus (GPa) = 69.10524 73.19665 71.15095
# Shear Modulus (GPa) = 26.58622 28.91878 27.75250
#
# Velocity S-wave (km/s) = 3.49960 3.64989 3.57553
# Velocity P-wave (km/s) = 6.94000 7.17503 7.05849
#
# Compressibility (1/GPa) = 0.01447068
#
# Stress axis : x y z
#
# Youngs Moduli (GPa) = 71.09538 83.27208 108.62948
#
# Poissons Ratio (x) = 0.27629 0.51493
# Poissons Ratio (y) = 0.23589 0.25490
# Poissons Ratio (z) = 0.33701 0.19540
#
# Static dielectric constant tensor:
#      x y z
#    x 4.039620 0.000000 0.000000 
#    y 0.000000 4.088440 0.000000 
#    z 0.000000 0.000000 4.461540 
# 
# 
# High freq. dielectric constant tensor:
#      x y z
#    x 1.856560 0.000000 0.000000 
#    y 0.000000 1.855830 0.000000 
#    z 0.000000 0.000000 1.863260 
# 
# From -- ./inp_files/39621.got.cif
#   From: 2010.06.25/outbox.cif.g09.slc.cpg/sg52_20_cif.got.tgz:39621.got - 2010.06.26 19:32:48.
