data_PCOD8216058
_publ_section_title
;
Structure prediction by ZEFSAII (Michael W. Deem and Ramdas Pophale) SiO2 
 PCOD8216058
Probable space group: P N N A
;
_chemical_formula_sum "Si O2"
_cell_formula_units_Z 36
_cell_length_a 27.951029
_cell_length_b 5.657980
_cell_length_c 11.082800
_cell_angle_alpha 90.000000
_cell_angle_beta 90.000000
_cell_angle_gamma 90.000000
_cell_volume 1752.704513
_symmetry_space_group_name_H-M "P N N A"
_symmetry_group_IT_number 52
_symmetry_cell_setting 'orthorhombic'
loop_
_space_group_symop_operation_xyz
x,y,z
1/2-x,-y,z
x,1/2-y,1/2-z
1/2-x,1/2+y,1/2-z
-x,-y,-z
1/2+x,y,-z
-x,1/2+y,1/2+z
1/2+x,1/2-y,1/2+z
loop_
_atom_site_type_symbol
_atom_site_label
_atom_site_fract_x
_atom_site_fract_y
_atom_site_fract_z
Si Si1 0.058182 0.880972 0.079781
Si Si2 0.405500 0.750000 0.250000
Si Si3 0.042344 0.241065 0.612414
Si Si4 0.376636 0.004626 0.473833
Si Si5 0.193649 0.000074 0.686276
O O1 0.014717 0.693266 0.099726
O O2 0.058785 0.052028 0.196634
O O3 0.110902 0.762444 0.078184
O O4 0.051804 0.008047 0.951386
O O5 0.370967 0.830823 0.359719
O O6 0.059083 0.250000 0.750000
O O7 0.075284 0.044960 0.550937
O O8 0.329179 0.997476 0.553466
O O9 0.177972 0.250000 0.750000
O O10 0.250000 0.000000 0.668558
O O11 0.177964 0.750000 0.750000
#
# Coordination Sequence:
#
# PCOD8216058 Si02
#       5
#     8   4   8   8   8
#     4  10  22  37  53  83 122 171 201 265 303 375
#     4  10  22  38  56  82 124 166 218 246 320 364
#     4  10  21  34  54  85 122 156 216 254 316 369
#     4  11  22  36  64  85 120 163 210 259 315 381
#     4  10  24  45  71 100 130 160 203 269 336 386
#
# _framework density 20.539684000000001
#
# number of rings (size 3 to 8) (size 9 to 14) (size 15 to 20)
#    0.000    1.778    0.000    3.333    9.333    3.556 
#    0.000    0.000    4.889    0.000    0.000    0.000 
#    0.000    0.000    0.000    0.000    0.000    0.000 
#
# Total GULP energy -446067.605924 kJ/mol
# GULP energy per Si atom -12390.766831 kJ/mol
# Density = 2.049293 g / cm^3
# Si number density = 20.539684 Si / 1000 Ang^3
#
#
#
# Elastic Constant Matrix: (Units=GPa)
#
#
# Indices 1 2 3 4 5 6 
#
# 1 47.9865 25.6713 39.1435 0.0000 0.0000 0.0000
# 2 25.6713 92.9209 37.2512 0.0000 0.0000 0.0000
# 3 39.1435 37.2512 157.2939 0.0000 0.0000 0.0000
# 4 0.0000 0.0000 0.0000 30.9876 0.0000 0.0000
# 5 0.0000 0.0000 0.0000 0.0000 37.5341 0.0000
# 6 0.0000 0.0000 0.0000 0.0000 0.0000 20.2472
#
#
#
# Elastic Compliance Matrix: (Units=1/GPa)
#
#
# Indices 1 2 3 4 5 6 
#
# 1 0.028533 -0.005565 -0.005783 0.000000 0.000000 0.000000
# 2 -0.005565 0.012976 -0.001688 0.000000 0.000000 0.000000
# 3 -0.005783 -0.001688 0.008196 0.000000 0.000000 0.000000
# 4 0.000000 0.000000 0.000000 0.032271 0.000000 0.000000
# 5 0.000000 0.000000 0.000000 0.000000 0.026642 0.000000
# 6 0.000000 0.000000 0.000000 0.000000 0.000000 0.049390
#
#
# Mechanical properties :
#
#
# Convention : Reuss Voigt Hill
#
# Bulk Modulus (GPa) = 42.31142 55.81480 49.06311
# Shear Modulus (GPa) = 26.04736 30.82948 28.43842
#
# Velocity S-wave (km/s) = 3.56497 3.87844 3.72500
# Velocity P-wave (km/s) = 6.13106 6.87674 6.51458
#
# Compressibility (1/GPa) = 0.02363428
#
# Stress axis : x y z
#
# Youngs Moduli (GPa) = 35.04686 77.06546 122.00419
#
# Poissons Ratio (x) = 0.42884 0.70553
# Poissons Ratio (y) = 0.19502 0.20597
# Poissons Ratio (z) = 0.20267 0.13011
#
# Static dielectric constant tensor:
#      x y z
#    x 3.350310 0.000000 0.000000 
#    y 0.000000 4.019450 0.000000 
#    z 0.000000 0.000000 3.860820 
# 
# 
# High freq. dielectric constant tensor:
#      x y z
#    x 1.763370 0.000000 0.000000 
#    y 0.000000 1.811890 0.000000 
#    z 0.000000 0.000000 1.816060 
# 
# From -- ./inp_files/22074.got.cif
#   From: 2010.06.25/outbox.cif.g09.slc.cpg/sg52_12_cif.got.tgz:22074.got - 2010.06.26 19:32:48.
