data_PCOD8216382
_publ_section_title
;
Structure prediction by ZEFSAII (Michael W. Deem and Ramdas Pophale) SiO2 
 PCOD8216382
Probable space group: P N N A
;
_chemical_formula_sum "Si O2"
_cell_formula_units_Z 48
_cell_length_a 15.069958
_cell_length_b 17.368027
_cell_length_c 9.219864
_cell_angle_alpha 90.000000
_cell_angle_beta 90.000000
_cell_angle_gamma 90.000000
_cell_volume 2413.165137
_symmetry_space_group_name_H-M "P N N A"
_symmetry_group_IT_number 52
_symmetry_cell_setting 'orthorhombic'
loop_
_space_group_symop_operation_xyz
x,y,z
1/2-x,-y,z
x,1/2-y,1/2-z
1/2-x,1/2+y,1/2-z
-x,-y,-z
1/2+x,y,-z
-x,1/2+y,1/2+z
1/2+x,1/2-y,1/2+z
loop_
_atom_site_type_symbol
_atom_site_label
_atom_site_fract_x
_atom_site_fract_y
_atom_site_fract_z
Si Si1 0.320754 0.340568 0.900652
Si Si2 0.074490 0.539766 0.407922
Si Si3 0.656581 0.669469 0.431297
Si Si4 0.119305 0.163531 0.686423
Si Si5 0.038390 0.572825 0.080630
Si Si6 0.189991 0.436417 0.580994
O O1 0.360579 0.345944 0.739167
O O2 0.345061 0.258591 0.970636
O O3 0.213355 0.349043 0.896420
O O4 0.370589 0.401959 0.001439
O O5 0.083975 0.626195 0.471677
O O6 0.063082 0.543113 0.238373
O O7 0.157887 0.484272 0.441261
O O8 0.000000 0.500000 0.500000
O O9 0.753433 0.636648 0.472660
O O10 0.112509 0.250000 0.750000
O O11 0.113445 0.099157 0.815382
O O12 0.035143 0.142357 0.584438
O O13 0.000000 0.500000 0.000000
O O14 0.250000 0.500000 0.670309
#
# Coordination Sequence:
#
# PCOD8216382 Si02
#       6
#     8   8   8   8   8   8
#     4  10  21  42  68  95 132 169 223 281 337 401
#     4  11  21  37  64  92 129 171 220 271 330 402
#     4   9  19  40  66  89 122 171 219 263 339 397
#     4  11  22  43  70  96 125 184 229 264 344 425
#     4  12  28  41  63 104 140 174 226 288 350 394
#     4   9  18  36  66  90 117 169 226 261 311 410
#
# _framework density 19.890888
#
# number of rings (size 3 to 8) (size 9 to 14) (size 15 to 20)
#    0.000    1.667    5.000    1.000    7.000    0.000 
#    9.000    0.000    0.000    0.000    0.000    0.000 
#    0.000    0.000    0.000    0.000    0.000    0.000 
#
# Total GULP energy -594756.610311 kJ/mol
# GULP energy per Si atom -12390.762715 kJ/mol
# Density = 1.984562 g / cm^3
# Si number density = 19.890888 Si / 1000 Ang^3
#
#
#
# Elastic Constant Matrix: (Units=GPa)
#
#
# Indices 1 2 3 4 5 6 
#
# 1 86.2178 43.6313 43.8190 0.0000 0.0000 0.0000
# 2 43.6313 126.6272 55.7411 0.0000 0.0000 0.0000
# 3 43.8190 55.7411 107.3340 0.0000 0.0000 0.0000
# 4 0.0000 0.0000 0.0000 34.8363 0.0000 0.0000
# 5 0.0000 0.0000 0.0000 0.0000 31.7203 0.0000
# 6 0.0000 0.0000 0.0000 0.0000 0.0000 37.0887
#
#
#
# Elastic Compliance Matrix: (Units=1/GPa)
#
#
# Indices 1 2 3 4 5 6 
#
# 1 0.015657 -0.003346 -0.004654 0.000000 0.000000 0.000000
# 2 -0.003346 0.010953 -0.004322 0.000000 0.000000 0.000000
# 3 -0.004654 -0.004322 0.013461 0.000000 0.000000 0.000000
# 4 0.000000 0.000000 0.000000 0.028706 0.000000 0.000000
# 5 0.000000 0.000000 0.000000 0.000000 0.031526 0.000000
# 6 0.000000 0.000000 0.000000 0.000000 0.000000 0.026962
#
#
# Mechanical properties :
#
#
# Convention : Reuss Voigt Hill
#
# Bulk Modulus (GPa) = 64.82346 67.39574 66.10960
# Shear Modulus (GPa) = 31.83656 32.52823 32.18240
#
# Velocity S-wave (km/s) = 4.00504 4.04831 4.02673
# Velocity P-wave (km/s) = 7.35169 7.47048 7.41132
#
# Compressibility (1/GPa) = 0.01542651
#
# Stress axis : x y z
#
# Youngs Moduli (GPa) = 63.86753 91.30202 74.28689
#
# Poissons Ratio (x) = 0.30551 0.34576
# Poissons Ratio (y) = 0.21371 0.32106
# Poissons Ratio (z) = 0.29726 0.39460
#
# Static dielectric constant tensor:
#      x y z
#    x 1.525800 0.000000 0.000000 
#    y 0.000000 3.904850 0.000000 
#    z 0.000000 0.000000 3.800780 
# 
# 
# High freq. dielectric constant tensor:
#      x y z
#    x 1.781810 0.000000 0.000000 
#    y 0.000000 1.793590 0.000000 
#    z 0.000000 0.000000 1.743340 
# 
# From -- ./inp_files/12277.got.cif
#   From: 2010.06.25/outbox.cif.g09.slc.cpg/sg52_7_cif.got.tgz:12277.got - 2010.06.26 19:32:48.
