data_PCOD8216604
_publ_section_title
;
Structure prediction by ZEFSAII (Michael W. Deem and Ramdas Pophale) SiO2 
 PCOD8216604
Probable space group: P N N A
;
_chemical_formula_sum "Si O2"
_cell_formula_units_Z 40
_cell_length_a 10.556693
_cell_length_b 9.866283
_cell_length_c 17.835785
_cell_angle_alpha 90.000000
_cell_angle_beta 90.000000
_cell_angle_gamma 90.000000
_cell_volume 1857.691906
_symmetry_space_group_name_H-M "P N N A"
_symmetry_group_IT_number 52
_symmetry_cell_setting 'orthorhombic'
loop_
_space_group_symop_operation_xyz
x,y,z
1/2-x,-y,z
x,1/2-y,1/2-z
1/2-x,1/2+y,1/2-z
-x,-y,-z
1/2+x,y,-z
-x,1/2+y,1/2+z
1/2+x,1/2-y,1/2+z
loop_
_atom_site_type_symbol
_atom_site_label
_atom_site_fract_x
_atom_site_fract_y
_atom_site_fract_z
Si Si1 0.001488 0.539719 0.586765
Si Si2 0.388174 0.521129 0.943631
Si Si3 0.098381 0.230988 0.856291
Si Si4 0.250000 0.500000 0.325805
Si Si5 0.122379 0.719403 0.831899
Si Si6 0.878749 0.250000 0.750000
O O1 0.860531 0.548321 0.619035
O O2 0.000000 0.500000 0.500000
O O3 0.082640 0.427689 0.630359
O O4 0.070577 0.681461 0.602986
O O5 0.250000 0.500000 0.981221
O O6 0.395397 0.681993 0.931475
O O7 0.400125 0.431679 0.866221
O O8 0.500000 0.500000 0.000000
O O9 0.230230 0.254991 0.814016
O O10 0.975083 0.293829 0.815463
O O11 0.209626 0.624047 0.272504
O O12 0.055700 0.750000 0.750000
#
# Coordination Sequence:
#
# PCOD8216604 Si02
#       6
#     8   8   8   4   8   4
#     4  11  25  43  66  96 135 176 225 269 340 399
#     4  10  23  44  64  97 134 175 220 270 340 402
#     4  10  22  41  68  92 130 168 217 280 330 387
#     4  10  26  42  66  96 138 178 216 274 344 392
#     4  11  24  40  72  99 127 168 230 275 328 390
#     4  10  22  44  62  96 132 168 222 276 338 388
#
# _framework density 21.532095999999999
#
# number of rings (size 3 to 8) (size 9 to 14) (size 15 to 20)
#    0.000    1.600    1.000    1.800    9.800    1.600 
#   12.600    0.000    0.000    0.000    0.000    0.000 
#    0.000    0.000    0.000    0.000    0.000    0.000 
#
# Total GULP energy -495629.316422 kJ/mol
# GULP energy per Si atom -12390.732911 kJ/mol
# Density = 2.148309 g / cm^3
# Si number density = 21.532096 Si / 1000 Ang^3
#
#
#
# Elastic Constant Matrix: (Units=GPa)
#
#
# Indices 1 2 3 4 5 6 
#
# 1 122.7302 47.1149 42.0289 0.0000 0.0000 0.0000
# 2 47.1149 89.0359 15.5207 0.0000 0.0000 0.0000
# 3 42.0289 15.5207 94.6010 0.0000 0.0000 0.0000
# 4 0.0000 0.0000 0.0000 26.6357 0.0000 0.0000
# 5 0.0000 0.0000 0.0000 0.0000 12.5386 0.0000
# 6 0.0000 0.0000 0.0000 0.0000 0.0000 30.4761
#
#
#
# Elastic Compliance Matrix: (Units=1/GPa)
#
#
# Indices 1 2 3 4 5 6 
#
# 1 0.011716 -0.005448 -0.004311 0.000000 0.000000 0.000000
# 2 -0.005448 0.014096 0.000108 0.000000 0.000000 0.000000
# 3 -0.004311 0.000108 0.012468 0.000000 0.000000 0.000000
# 4 0.000000 0.000000 0.000000 0.037544 0.000000 0.000000
# 5 0.000000 0.000000 0.000000 0.000000 0.079753 0.000000
# 6 0.000000 0.000000 0.000000 0.000000 0.000000 0.032813
#
#
# Mechanical properties :
#
#
# Convention : Reuss Voigt Hill
#
# Bulk Modulus (GPa) = 52.69567 57.29957 54.99762
# Shear Modulus (GPa) = 23.36254 27.37693 25.36973
#
# Velocity S-wave (km/s) = 3.29752 3.56960 3.43626
# Velocity P-wave (km/s) = 6.24695 6.60745 6.42973
#
# Compressibility (1/GPa) = 0.01897689
#
# Stress axis : x y z
#
# Youngs Moduli (GPa) = 85.35496 70.94429 80.20292
#
# Poissons Ratio (x) = 0.38651 0.34577
# Poissons Ratio (y) = 0.46502 -0.00865
# Poissons Ratio (z) = 0.36798 -0.00765
#
# Static dielectric constant tensor:
#      x y z
#    x 3.926160 0.000000 0.000000 
#    y 0.000000 3.837130 0.000000 
#    z 0.000000 0.000000 3.910320 
# 
# 
# High freq. dielectric constant tensor:
#      x y z
#    x 1.855640 0.000000 0.000000 
#    y 0.000000 1.854330 0.000000 
#    z 0.000000 0.000000 1.833720 
# 
# From -- ./inp_files/30940.got.cif
#   From: 2010.06.25/outbox.cif.g09.slc.cpg/sg52_16_cif.got.tgz:30940.got - 2010.06.26 19:32:48.
