data_PCOD8216922
_publ_section_title
;
Structure prediction by ZEFSAII (Michael W. Deem and Ramdas Pophale) SiO2 
 PCOD8216922
Probable space group: P N N A
;
_chemical_formula_sum "Si O2"
_cell_formula_units_Z 60
_cell_length_a 27.496809
_cell_length_b 9.240467
_cell_length_c 10.808903
_cell_angle_alpha 90.000000
_cell_angle_beta 90.000000
_cell_angle_gamma 90.000000
_cell_volume 2746.362351
_symmetry_space_group_name_H-M "P N N A"
_symmetry_group_IT_number 52
_symmetry_cell_setting 'orthorhombic'
loop_
_space_group_symop_operation_xyz
x,y,z
1/2-x,-y,z
x,1/2-y,1/2-z
1/2-x,1/2+y,1/2-z
-x,-y,-z
1/2+x,y,-z
-x,1/2+y,1/2+z
1/2+x,1/2-y,1/2+z
loop_
_atom_site_type_symbol
_atom_site_label
_atom_site_fract_x
_atom_site_fract_y
_atom_site_fract_z
Si Si1 0.320642 0.785718 0.387035
Si Si2 0.595718 0.716132 0.954645
Si Si3 0.084890 0.049991 0.314905
Si Si4 0.888220 0.955258 0.952636
Si Si5 0.519813 0.863038 0.356518
Si Si6 0.161272 0.889096 0.666073
Si Si7 0.250000 0.500000 0.965667
Si Si8 0.586570 0.084159 0.222674
O O1 0.300536 0.750000 0.250000
O O2 0.369885 0.877444 0.383224
O O3 0.336634 0.634336 0.456225
O O4 0.279011 0.879373 0.454473
O O5 0.590945 0.624511 0.827246
O O6 0.619332 0.873021 0.932900
O O7 0.542867 0.709854 0.021090
O O8 0.631593 0.626288 0.040924
O O9 0.082393 0.097220 0.170453
O O10 0.036210 0.100874 0.385215
O O11 0.920697 0.934223 0.074651
O O12 0.527370 0.750000 0.250000
O O13 0.545834 0.007519 0.305787
O O14 0.155146 0.750000 0.750000
O O15 0.216414 0.912485 0.628163
O O16 0.140136 0.024396 0.743243
O O17 0.583594 0.250000 0.250000
#
# Coordination Sequence:
#
# PCOD8216922 Si02
#       8
#     8   8   8   8   8   8   4   8
#     4  10  24  47  66  98 134 179 222 284 352 405
#     4  11  21  44  68  95 137 182 223 276 349 405
#     4  11  24  43  68  97 136 183 228 278 341 407
#     4  11  22  42  69  96 137 174 231 288 333 404
#     4  11  22  43  64  98 142 186 229 279 331 404
#     4  11  23  45  69  98 134 174 219 281 346 409
#     4  12  24  46  74  98 140 176 232 290 356 426
#     4  11  23  40  68  99 140 182 223 280 341 402
#
# _framework density 21.847082
#
# number of rings (size 3 to 8) (size 9 to 14) (size 15 to 20)
#    0.000    1.067    4.000    3.600    1.867    3.200 
#    9.600    0.000    0.000    0.000    0.000    0.000 
#    0.000    0.000    0.000    0.000    0.000    0.000 
#
# Total GULP energy -743683.134054 kJ/mol
# GULP energy per Si atom -12394.718901 kJ/mol
# Density = 2.179736 g / cm^3
# Si number density = 21.847082 Si / 1000 Ang^3
#
#
#
# Elastic Constant Matrix: (Units=GPa)
#
#
# Indices 1 2 3 4 5 6 
#
# 1 122.5058 43.8529 28.1708 0.0000 0.0000 0.0000
# 2 43.8529 152.0197 19.7951 0.0000 0.0000 0.0000
# 3 28.1708 19.7951 55.6052 0.0000 0.0000 0.0000
# 4 0.0000 0.0000 0.0000 37.0252 0.0000 0.0000
# 5 0.0000 0.0000 0.0000 0.0000 18.4856 0.0000
# 6 0.0000 0.0000 0.0000 0.0000 0.0000 38.9507
#
#
#
# Elastic Compliance Matrix: (Units=1/GPa)
#
#
# Indices 1 2 3 4 5 6 
#
# 1 0.009966 -0.002325 -0.004221 0.000000 0.000000 0.000000
# 2 -0.002325 0.007440 -0.001471 0.000000 0.000000 0.000000
# 3 -0.004221 -0.001471 0.020646 0.000000 0.000000 0.000000
# 4 0.000000 0.000000 0.000000 0.027009 0.000000 0.000000
# 5 0.000000 0.000000 0.000000 0.000000 0.054096 0.000000
# 6 0.000000 0.000000 0.000000 0.000000 0.000000 0.025674
#
#
# Mechanical properties :
#
#
# Convention : Reuss Voigt Hill
#
# Bulk Modulus (GPa) = 45.41720 57.08536 51.25128
# Shear Modulus (GPa) = 29.72577 34.77974 32.25275
#
# Velocity S-wave (km/s) = 3.69267 3.99427 3.84643
# Velocity P-wave (km/s) = 6.24619 6.88901 6.57546
#
# Compressibility (1/GPa) = 0.02201809
#
# Stress axis : x y z
#
# Youngs Moduli (GPa) = 100.34218 134.40227 48.43545
#
# Poissons Ratio (x) = 0.31251 0.20445
# Poissons Ratio (y) = 0.23331 0.07124
# Poissons Ratio (z) = 0.42356 0.19767
#
# Static dielectric constant tensor:
#      x y z
#    x 3.889700 0.000000 0.000000 
#    y 0.000000 4.146340 0.000000 
#    z 0.000000 0.000000 3.952660 
# 
# 
# High freq. dielectric constant tensor:
#      x y z
#    x 1.831710 0.000000 0.000000 
#    y 0.000000 1.878830 0.000000 
#    z 0.000000 0.000000 1.867040 
# 
# From -- ./inp_files/22880.got.cif
#   From: 2010.06.25/outbox.cif.g09.slc.cpg/sg52_12_cif.got.tgz:22880.got - 2010.06.26 19:32:48.
