data_PCOD8216020
_publ_section_title
;
Structure prediction by ZEFSAII (Michael W. Deem and Ramdas Pophale) SiO2 
 PCOD8216020
Probable space group: P N N A
;
_chemical_formula_sum "Si O2"
_cell_formula_units_Z 44
_cell_length_a 9.686193
_cell_length_b 14.026970
_cell_length_c 15.526959
_cell_angle_alpha 90.000000
_cell_angle_beta 90.000000
_cell_angle_gamma 90.000000
_cell_volume 2109.615912
_symmetry_space_group_name_H-M "P N N A"
_symmetry_group_IT_number 52
_symmetry_cell_setting 'orthorhombic'
loop_
_space_group_symop_operation_xyz
x,y,z
1/2-x,-y,z
x,1/2-y,1/2-z
1/2-x,1/2+y,1/2-z
-x,-y,-z
1/2+x,y,-z
-x,1/2+y,1/2+z
1/2+x,1/2-y,1/2+z
loop_
_atom_site_type_symbol
_atom_site_label
_atom_site_fract_x
_atom_site_fract_y
_atom_site_fract_z
Si Si1 0.746510 0.890146 0.104694
Si Si2 0.354702 0.221823 0.341865
Si Si3 0.494764 0.185207 0.006323
Si Si4 0.818862 0.250000 0.250000
Si Si5 0.447581 0.825353 0.364903
Si Si6 0.101053 0.979820 0.423214
O O1 0.770237 0.820992 0.188394
O O2 0.864770 0.868829 0.033603
O O3 0.750000 0.000000 0.134448
O O4 0.594313 0.874306 0.063355
O O5 0.420890 0.250000 0.250000
O O6 0.401337 0.301014 0.409692
O O7 0.189479 0.227278 0.331225
O O8 0.412465 0.120271 0.374466
O O9 0.529399 0.287997 0.963069
O O10 0.915940 0.188179 0.310382
O O11 0.424334 0.937731 0.353753
O O12 0.250000 0.000000 0.464724
O O13 0.000000 0.000000 0.500000
#
# Coordination Sequence:
#
# PCOD8216020 Si02
#       6
#     8   8   8   4   8   8
#     4  11  25  45  67  99 130 176 226 269 337 400
#     4  11  22  38  63  98 135 167 222 274 327 389
#     4  11  22  41  69  93 131 175 219 273 331 402
#     4  10  24  42  68  88 136 174 214 276 332 384
#     4  10  20  42  63  90 129 177 212 265 335 393
#     4  10  21  37  63  94 123 168 217 263 323 392
#
# _framework density 20.856877000000001
#
# number of rings (size 3 to 8) (size 9 to 14) (size 15 to 20)
#    0.000    1.455    4.545    0.545    1.273    1.455 
#    0.000    2.727    0.000    0.000    0.000    0.000 
#    0.000    0.000    0.000    0.000    0.000    0.000 
#
# Total GULP energy -545290.507596 kJ/mol
# GULP energy per Si atom -12392.966082 kJ/mol
# Density = 2.080941 g / cm^3
# Si number density = 20.856877 Si / 1000 Ang^3
#
#
#
# Elastic Constant Matrix: (Units=GPa)
#
#
# Indices 1 2 3 4 5 6 
#
# 1 76.6025 42.0070 32.0400 0.0000 0.0000 0.0000
# 2 42.0070 102.7103 45.0650 0.0000 0.0000 0.0000
# 3 32.0400 45.0650 121.2007 0.0000 0.0000 0.0000
# 4 0.0000 0.0000 0.0000 16.0387 0.0000 0.0000
# 5 0.0000 0.0000 0.0000 0.0000 18.8377 0.0000
# 6 0.0000 0.0000 0.0000 0.0000 0.0000 24.1421
#
#
#
# Elastic Compliance Matrix: (Units=1/GPa)
#
#
# Indices 1 2 3 4 5 6 
#
# 1 0.017362 -0.006079 -0.002330 0.000000 0.000000 0.000000
# 2 -0.006079 0.013762 -0.003510 0.000000 0.000000 0.000000
# 3 -0.002330 -0.003510 0.010172 0.000000 0.000000 0.000000
# 4 0.000000 0.000000 0.000000 0.062349 0.000000 0.000000
# 5 0.000000 0.000000 0.000000 0.000000 0.053085 0.000000
# 6 0.000000 0.000000 0.000000 0.000000 0.000000 0.041421
#
#
# Mechanical properties :
#
#
# Convention : Reuss Voigt Hill
#
# Bulk Modulus (GPa) = 57.27604 59.85972 58.56788
# Shear Modulus (GPa) = 21.94823 23.89713 22.92268
#
# Velocity S-wave (km/s) = 3.24748 3.38859 3.31878
# Velocity P-wave (km/s) = 6.44845 6.63872 6.54428
#
# Compressibility (1/GPa) = 0.01745931
#
# Stress axis : x y z
#
# Youngs Moduli (GPa) = 57.59618 72.66178 98.31129
#
# Poissons Ratio (x) = 0.44170 0.22902
# Poissons Ratio (y) = 0.35012 0.34509
# Poissons Ratio (z) = 0.13417 0.25506
#
# Static dielectric constant tensor:
#      x y z
#    x 3.819250 0.000000 0.000000 
#    y 0.000000 3.724950 0.000000 
#    z 0.000000 0.000000 3.943600 
# 
# 
# High freq. dielectric constant tensor:
#      x y z
#    x 1.823040 0.000000 0.000000 
#    y 0.000000 1.809520 0.000000 
#    z 0.000000 0.000000 1.811170 
# 
# From -- ./inp_files/31174.got.cif
#   From: 2010.06.25/outbox.cif.g09.slc.cpg/sg52_16_cif.got.tgz:31174.got - 2010.06.26 19:32:48.
