data_PCOD8216682
_publ_section_title
;
Structure prediction by ZEFSAII (Michael W. Deem and Ramdas Pophale) SiO2 
 PCOD8216682
Probable space group: P N N A
;
_chemical_formula_sum "Si O2"
_cell_formula_units_Z 56
_cell_length_a 13.273878
_cell_length_b 11.745243
_cell_length_c 15.033021
_cell_angle_alpha 90.000000
_cell_angle_beta 90.000000
_cell_angle_gamma 90.000000
_cell_volume 2343.721976
_symmetry_space_group_name_H-M "P N N A"
_symmetry_group_IT_number 52
_symmetry_cell_setting 'orthorhombic'
loop_
_space_group_symop_operation_xyz
x,y,z
1/2-x,-y,z
x,1/2-y,1/2-z
1/2-x,1/2+y,1/2-z
-x,-y,-z
1/2+x,y,-z
-x,1/2+y,1/2+z
1/2+x,1/2-y,1/2+z
loop_
_atom_site_type_symbol
_atom_site_label
_atom_site_fract_x
_atom_site_fract_y
_atom_site_fract_z
Si Si1 0.706901 0.216772 0.565854
Si Si2 0.582705 0.831938 0.971834
Si Si3 0.918626 0.222721 0.347733
Si Si4 0.082899 0.446364 0.173830
Si Si5 0.360012 0.547400 0.371406
Si Si6 0.997503 0.182745 0.664846
Si Si7 0.709386 0.374351 0.124297
O O1 0.821757 0.257800 0.562788
O O2 0.683847 0.120518 0.641563
O O3 0.638422 0.327557 0.585347
O O4 0.675118 0.158290 0.474451
O O5 0.493678 0.770215 0.917849
O O6 0.590351 0.964245 0.945243
O O7 0.565231 0.822132 0.078152
O O8 0.960369 0.250000 0.250000
O O9 0.799225 0.204911 0.341436
O O10 0.985166 0.112510 0.373305
O O11 0.075967 0.446200 0.281079
O O12 0.077910 0.577724 0.142825
O O13 0.250000 0.500000 0.347026
O O14 0.954428 0.250000 0.750000
O O15 0.110773 0.138204 0.686254
O O16 0.750000 0.500000 0.128215
#
# Coordination Sequence:
#
# PCOD8216682 Si02
#       7
#     8   8   8   8   8   8   8
#     4  10  24  40  68 102 136 177 225 275 340 410
#     4  10  24  44  70 101 138 180 223 278 348 409
#     4  11  24  46  68  96 131 177 234 281 334 402
#     4  12  24  40  68 101 137 177 223 280 339 407
#     4  10  22  44  67 102 143 177 220 277 347 417
#     4  12  25  43  67 101 137 176 225 281 341 405
#     4  11  24  45  65  95 130 179 233 279 332 395
#
# _framework density 23.893619000000001
#
# number of rings (size 3 to 8) (size 9 to 14) (size 15 to 20)
#    0.000    1.143    2.857    2.571    6.000    1.143 
#    2.571    4.286    0.000    0.000    0.000    0.000 
#    0.000    0.000    0.000    0.000    0.000    0.000 
#
# Total GULP energy -694318.207196 kJ/mol
# GULP energy per Si atom -12398.539414 kJ/mol
# Density = 2.383924 g / cm^3
# Si number density = 23.893619 Si / 1000 Ang^3
#
#
#
# Elastic Constant Matrix: (Units=GPa)
#
#
# Indices 1 2 3 4 5 6 
#
# 1 54.1511 -2.1319 -1.4785 0.0000 0.0000 0.0000
# 2 -2.1319 120.4166 40.5577 0.0000 0.0000 0.0000
# 3 -1.4785 40.5577 128.0029 0.0000 0.0000 0.0000
# 4 0.0000 0.0000 0.0000 33.6280 0.0000 0.0000
# 5 0.0000 0.0000 0.0000 0.0000 28.1674 0.0000
# 6 0.0000 0.0000 0.0000 0.0000 0.0000 16.8110
#
#
#
# Elastic Compliance Matrix: (Units=1/GPa)
#
#
# Indices 1 2 3 4 5 6 
#
# 1 0.018481 0.000286 0.000123 0.000000 0.000000 0.000000
# 2 0.000286 0.009301 -0.002944 0.000000 0.000000 0.000000
# 3 0.000123 -0.002944 0.008746 0.000000 0.000000 0.000000
# 4 0.000000 0.000000 0.000000 0.029737 0.000000 0.000000
# 5 0.000000 0.000000 0.000000 0.000000 0.035502 0.000000
# 6 0.000000 0.000000 0.000000 0.000000 0.000000 0.059485
#
#
# Mechanical properties :
#
#
# Convention : Reuss Voigt Hill
#
# Bulk Modulus (GPa) = 31.78745 41.82946 36.80846
# Shear Modulus (GPa) = 28.27906 33.42951 30.85428
#
# Velocity S-wave (km/s) = 3.44399 3.74451 3.59739
# Velocity P-wave (km/s) = 5.39883 6.01994 5.71783
#
# Compressibility (1/GPa) = 0.03145895
#
# Stress axis : x y z
#
# Youngs Moduli (GPa) = 54.10826 107.51481 114.33185
#
# Poissons Ratio (x) = -0.03073 -0.01405
# Poissons Ratio (y) = -0.01546 0.33656
# Poissons Ratio (z) = -0.00665 0.31650
#
# Static dielectric constant tensor:
#      x y z
#    x 4.301150 0.000000 0.000000 
#    y 0.000000 4.318180 0.000000 
#    z 0.000000 0.000000 4.032570 
# 
# 
# High freq. dielectric constant tensor:
#      x y z
#    x 1.954120 0.000000 0.000000 
#    y 0.000000 1.952690 0.000000 
#    z 0.000000 0.000000 1.936000 
# 
# From -- ./inp_files/27286.got.cif
#   From: 2010.06.25/outbox.cif.g09.slc.cpg/sg52_14_cif.got.tgz:27286.got - 2010.06.26 19:32:48.
