data_PCOD8216857
_publ_section_title
;
Structure prediction by ZEFSAII (Michael W. Deem and Ramdas Pophale) SiO2 
 PCOD8216857
Probable space group: P N N A
;
_chemical_formula_sum "Si O2"
_cell_formula_units_Z 36
_cell_length_a 8.461299
_cell_length_b 9.555707
_cell_length_c 22.461538
_cell_angle_alpha 90.000000
_cell_angle_beta 90.000000
_cell_angle_gamma 90.000000
_cell_volume 1816.098322
_symmetry_space_group_name_H-M "P N N A"
_symmetry_group_IT_number 52
_symmetry_cell_setting 'orthorhombic'
loop_
_space_group_symop_operation_xyz
x,y,z
1/2-x,-y,z
x,1/2-y,1/2-z
1/2-x,1/2+y,1/2-z
-x,-y,-z
1/2+x,y,-z
-x,1/2+y,1/2+z
1/2+x,1/2-y,1/2+z
loop_
_atom_site_type_symbol
_atom_site_label
_atom_site_fract_x
_atom_site_fract_y
_atom_site_fract_z
Si Si1 0.046801 0.825350 0.671163
Si Si2 0.007603 0.423314 0.913933
Si Si3 0.570089 0.049787 0.791648
Si Si4 0.750000 0.000000 0.501944
Si Si5 0.403746 0.718848 0.683549
O O1 0.220649 0.756562 0.675352
O O2 0.013635 0.924083 0.727887
O O3 0.925496 0.694869 0.670942
O O4 0.026268 0.918832 0.612435
O O5 0.995450 0.311139 0.862031
O O6 0.854047 0.405216 0.954364
O O7 0.151979 0.396043 0.959183
O O8 0.750000 0.000000 0.783518
O O9 0.456029 0.941791 0.827266
O O10 0.463549 0.750000 0.750000
#
# Coordination Sequence:
#
# PCOD8216857 Si02
#       5
#     8   8   8   4   8
#     4  11  23  39  61  90 132 170 208 255 323 399
#     4  11  23  41  68  94 125 167 225 265 319 370
#     4  11  26  37  58  98 134 168 200 261 340 393
#     4  10  24  42  64  96 124 172 226 272 296 380
#     4  12  22  39  65  94 132 167 207 266 334 392
#
# _framework density 19.822714999999999
#
# number of rings (size 3 to 8) (size 9 to 14) (size 15 to 20)
#    0.000    0.889    6.667    0.667    7.778    0.000 
#    0.000    0.000    0.000    8.000    0.000    0.000 
#    0.000    0.000    0.000    0.000    0.000    0.000 
#
# Total GULP energy -446203.096730 kJ/mol
# GULP energy per Si atom -12394.530465 kJ/mol
# Density = 1.977760 g / cm^3
# Si number density = 19.822715 Si / 1000 Ang^3
#
#
#
# Elastic Constant Matrix: (Units=GPa)
#
#
# Indices 1 2 3 4 5 6 
#
# 1 107.5934 43.5133 42.4262 0.0000 0.0000 0.0000
# 2 43.5133 122.1135 55.1534 0.0000 0.0000 0.0000
# 3 42.4262 55.1534 119.2969 0.0000 0.0000 0.0000
# 4 0.0000 0.0000 0.0000 28.0880 0.0000 0.0000
# 5 0.0000 0.0000 0.0000 0.0000 -154.2161 0.0000
# 6 0.0000 0.0000 0.0000 0.0000 0.0000 28.0266
#
#
#
# Elastic Compliance Matrix: (Units=1/GPa)
#
#
# Indices 1 2 3 4 5 6 
#
# 1 0.011548 -0.002857 -0.002786 0.000000 0.000000 0.000000
# 2 -0.002857 0.011057 -0.004096 0.000000 0.000000 0.000000
# 3 -0.002786 -0.004096 0.011267 0.000000 0.000000 0.000000
# 4 0.000000 0.000000 0.000000 0.035602 0.000000 0.000000
# 5 0.000000 0.000000 0.000000 0.000000 -0.006484 0.000000
# 6 0.000000 0.000000 0.000000 0.000000 0.000000 0.035680
#
#
# Mechanical properties :
#
#
# Convention : Reuss Voigt Hill
#
# Bulk Modulus (GPa) = 69.47095 70.13217 69.80156
# Shear Modulus (GPa) = 40.66812 -5.75957 17.45428
#
# Velocity S-wave (km/s) = 4.53436 -1.70641 2.97057
# Velocity P-wave (km/s) = 7.90798 5.61908 6.85967
#
# Compressibility (1/GPa) = 0.01439451
#
# Stress axis : x y z
#
# Youngs Moduli (GPa) = 86.59345 90.44068 88.75475
#
# Poissons Ratio (x) = 0.25835 0.24730
# Poissons Ratio (y) = 0.24736 0.36354
# Poissons Ratio (z) = 0.24127 0.37044
#
# Static dielectric constant tensor:
#      x y z
#    x 3.727010 0.000000 0.000000 
#    y 0.000000 3.722920 0.000000 
#    z 0.000000 0.000000 3.678720 
# 
# 
# High freq. dielectric constant tensor:
#      x y z
#    x 1.785440 0.000000 0.000000 
#    y 0.000000 1.759710 0.000000 
#    z 0.000000 0.000000 1.760210 
# 
# From -- ./inp_files/39252.got.cif
#   From: 2010.06.25/outbox.cif.g09.slc.cpg/sg52_20_cif.got.tgz:39252.got - 2010.06.26 19:32:48.
