data_PCOD8216039
_publ_section_title
;
Structure prediction by ZEFSAII (Michael W. Deem and Ramdas Pophale) SiO2 
 PCOD8216039
Probable space group: P N N A
;
_chemical_formula_sum "Si O2"
_cell_formula_units_Z 48
_cell_length_a 8.536296
_cell_length_b 16.834285
_cell_length_c 16.037460
_cell_angle_alpha 90.000000
_cell_angle_beta 90.000000
_cell_angle_gamma 90.000000
_cell_volume 2304.622129
_symmetry_space_group_name_H-M "P N N A"
_symmetry_group_IT_number 52
_symmetry_cell_setting 'orthorhombic'
loop_
_space_group_symop_operation_xyz
x,y,z
1/2-x,-y,z
x,1/2-y,1/2-z
1/2-x,1/2+y,1/2-z
-x,-y,-z
1/2+x,y,-z
-x,1/2+y,1/2+z
1/2+x,1/2-y,1/2+z
loop_
_atom_site_type_symbol
_atom_site_label
_atom_site_fract_x
_atom_site_fract_y
_atom_site_fract_z
Si Si1 0.174582 0.785430 0.955087
Si Si2 0.071696 0.476037 0.245485
Si Si3 0.578761 0.679937 0.192859
Si Si4 0.426272 0.634831 0.772181
Si Si5 0.918902 0.039076 0.079799
Si Si6 0.494135 0.273535 0.385157
O O1 0.103439 0.712056 0.901021
O O2 0.094125 0.867141 0.929641
O O3 0.359065 0.790639 0.944234
O O4 0.155013 0.773054 0.054330
O O5 0.250000 0.500000 0.230919
O O6 0.038996 0.394486 0.195234
O O7 0.959183 0.543629 0.206107
O O8 0.035201 0.472020 0.343082
O O9 0.508139 0.750000 0.250000
O O10 0.741764 0.652614 0.236348
O O11 0.511892 0.658037 0.685190
O O12 0.499293 0.686936 0.845260
O O13 0.750000 0.000000 0.097783
O O14 0.000000 0.000000 0.000000
#
# Coordination Sequence:
#
# PCOD8216039 Si02
#       6
#     8   8   8   8   8   8
#     4  11  21  37  62  91 122 160 208 255 310 370
#     4  12  25  39  60  94 127 162 208 266 318 374
#     4  11  20  43  66  87 120 171 215 249 314 384
#     4  10  20  43  66  87 121 169 218 249 310 388
#     4  12  23  37  60  90 130 166 206 258 315 380
#     4  10  21  38  63  91 122 163 207 256 311 368
#
# _framework density 20.82771
#
# number of rings (size 3 to 8) (size 9 to 14) (size 15 to 20)
#    0.000    1.000    5.000    5.000    0.000    2.667 
#    3.000    0.833    0.000    0.000    0.000    0.000 
#    0.000    0.000    0.000    0.000    0.000    0.000 
#
# Total GULP energy -595311.866067 kJ/mol
# GULP energy per Si atom -12402.330543 kJ/mol
# Density = 2.078031 g / cm^3
# Si number density = 20.827710 Si / 1000 Ang^3
#
#
#
# Elastic Constant Matrix: (Units=GPa)
#
#
# Indices 1 2 3 4 5 6 
#
# 1 55.3085 38.0071 22.5150 0.0000 0.0000 0.0000
# 2 38.0071 156.4796 28.8750 0.0000 0.0000 0.0000
# 3 22.5150 28.8750 70.7186 0.0000 0.0000 0.0000
# 4 0.0000 0.0000 0.0000 27.4136 0.0000 0.0000
# 5 0.0000 0.0000 0.0000 0.0000 35.1980 0.0000
# 6 0.0000 0.0000 0.0000 0.0000 0.0000 29.2625
#
#
#
# Elastic Compliance Matrix: (Units=1/GPa)
#
#
# Indices 1 2 3 4 5 6 
#
# 1 0.023584 -0.004697 -0.005591 0.000000 0.000000 0.000000
# 2 -0.004697 0.007847 -0.001709 0.000000 0.000000 0.000000
# 3 -0.005591 -0.001709 0.016618 0.000000 0.000000 0.000000
# 4 0.000000 0.000000 0.000000 0.036478 0.000000 0.000000
# 5 0.000000 0.000000 0.000000 0.000000 0.028411 0.000000
# 6 0.000000 0.000000 0.000000 0.000000 0.000000 0.034173
#
#
# Mechanical properties :
#
#
# Convention : Reuss Voigt Hill
#
# Bulk Modulus (GPa) = 41.56864 51.25566 46.41215
# Shear Modulus (GPa) = 27.91399 31.24878 29.58138
#
# Velocity S-wave (km/s) = 3.66489 3.87763 3.77276
# Velocity P-wave (km/s) = 6.15713 6.68662 6.42733
#
# Compressibility (1/GPa) = 0.02405660
#
# Stress axis : x y z
#
# Youngs Moduli (GPa) = 42.40218 127.44329 60.17521
#
# Poissons Ratio (x) = 0.59854 0.33643
# Poissons Ratio (y) = 0.19914 0.10281
# Poissons Ratio (z) = 0.23706 0.21775
#
# Static dielectric constant tensor:
#      x y z
#    x 3.871950 0.000000 0.000000 
#    y 0.000000 4.040580 0.000000 
#    z 0.000000 0.000000 3.788180 
# 
# 
# High freq. dielectric constant tensor:
#      x y z
#    x 1.803610 0.000000 0.000000 
#    y 0.000000 1.828160 0.000000 
#    z 0.000000 0.000000 1.804410 
# 
# From -- ./inp_files/24746.got.cif
#   From: 2010.06.25/outbox.cif.g09.slc.cpg/sg52_13_cif.got.tgz:24746.got - 2010.06.26 19:32:48.
