data_PCOD8216793
_publ_section_title
;
Structure prediction by ZEFSAII (Michael W. Deem and Ramdas Pophale) SiO2 
 PCOD8216793
Probable space group: P N N A
;
_chemical_formula_sum "Si O2"
_cell_formula_units_Z 24
_cell_length_a 12.364698
_cell_length_b 16.534881
_cell_length_c 4.913009
_cell_angle_alpha 90.000000
_cell_angle_beta 90.000000
_cell_angle_gamma 90.000000
_cell_volume 1004.458844
_symmetry_space_group_name_H-M "P N N A"
_symmetry_group_IT_number 52
_symmetry_cell_setting 'orthorhombic'
loop_
_space_group_symop_operation_xyz
x,y,z
1/2-x,-y,z
x,1/2-y,1/2-z
1/2-x,1/2+y,1/2-z
-x,-y,-z
1/2+x,y,-z
-x,1/2+y,1/2+z
1/2+x,1/2-y,1/2+z
loop_
_atom_site_type_symbol
_atom_site_label
_atom_site_fract_x
_atom_site_fract_y
_atom_site_fract_z
Si Si1 0.250000 0.500000 0.768660
Si Si2 0.570312 0.594678 0.534453
Si Si3 0.935045 0.596289 0.978334
Si Si4 0.007164 0.750000 0.250000
O O1 0.320624 0.444096 0.570710
O O2 0.181939 0.441599 0.964764
O O3 0.529116 0.555719 0.824151
O O4 0.585884 0.691575 0.571500
O O5 0.467287 0.582997 0.334467
O O6 0.932556 0.692230 0.058104
#
# Coordination Sequence:
#
# PCOD8216793 Si02
#       4
#     4   8   8   4
#     4  12  24  42  74 108 138 184 240 282 354 408
#     4  10  23  43  69  98 141 182 225 290 339 414
#     4  10  23  43  67  98 145 178 229 286 343 410
#     4   8  22  46  66  88 154 168 232 288 350 396
#
# _framework density 23.893464000000002
#
# number of rings (size 3 to 8) (size 9 to 14) (size 15 to 20)
#    2.000    0.000    0.000    3.000    0.000    5.333 
#    6.000    0.000    0.000    0.000    0.000    0.000 
#    0.000    0.000    0.000    0.000    0.000    0.000 
#
# Total GULP energy -297377.224351 kJ/mol
# GULP energy per Si atom -12390.717681 kJ/mol
# Density = 2.383908 g / cm^3
# Si number density = 23.893464 Si / 1000 Ang^3
#
#
#
# Elastic Constant Matrix: (Units=GPa)
#
#
# Indices 1 2 3 4 5 6 
#
# 1 123.0911 50.3278 30.6761 0.0000 0.0000 0.0000
# 2 50.3278 127.3064 -2.6075 0.0000 0.0000 0.0000
# 3 30.6761 -2.6075 116.2642 0.0000 0.0000 0.0000
# 4 0.0000 0.0000 0.0000 16.8715 0.0000 0.0000
# 5 0.0000 0.0000 0.0000 0.0000 27.6960 0.0000
# 6 0.0000 0.0000 0.0000 0.0000 0.0000 42.9542
#
#
#
# Elastic Compliance Matrix: (Units=1/GPa)
#
#
# Indices 1 2 3 4 5 6 
#
# 1 0.010577 -0.004241 -0.002886 0.000000 0.000000 0.000000
# 2 -0.004241 0.009559 0.001333 0.000000 0.000000 0.000000
# 3 -0.002886 0.001333 0.009392 0.000000 0.000000 0.000000
# 4 0.000000 0.000000 0.000000 0.059272 0.000000 0.000000
# 5 0.000000 0.000000 0.000000 0.000000 0.036106 0.000000
# 6 0.000000 0.000000 0.000000 0.000000 0.000000 0.023281
#
#
# Mechanical properties :
#
#
# Convention : Reuss Voigt Hill
#
# Bulk Modulus (GPa) = 55.73517 58.16162 56.94839
# Shear Modulus (GPa) = 30.16525 36.72204 33.44365
#
# Velocity S-wave (km/s) = 3.55701 3.92459 3.74531
# Velocity P-wave (km/s) = 6.34405 6.70310 6.52604
#
# Compressibility (1/GPa) = 0.01794199
#
# Stress axis : x y z
#
# Youngs Moduli (GPa) = 94.54427 104.61605 106.46883
#
# Poissons Ratio (x) = 0.44363 0.30725
# Poissons Ratio (y) = 0.40092 -0.14195
# Poissons Ratio (z) = 0.27284 -0.13948
#
# Static dielectric constant tensor:
#      x y z
#    x 3.684000 0.000000 0.000000 
#    y 0.000000 4.739190 0.000000 
#    z 0.000000 0.000000 4.311480 
# 
# 
# High freq. dielectric constant tensor:
#      x y z
#    x 1.899840 0.000000 0.000000 
#    y 0.000000 1.983750 0.000000 
#    z 0.000000 0.000000 1.959050 
# 
# From -- ./inp_files/723.got.cif
#   From: 2010.06.25/outbox.cif.g09.slc.cpg/sg52_1_cif.got.tgz:723.got - 2010.06.26 19:32:48.
