data_PCOD8216185
_publ_section_title
;
Structure prediction by ZEFSAII (Michael W. Deem and Ramdas Pophale) SiO2 
 PCOD8216185
Probable space group: P N N A
;
_chemical_formula_sum "Si O2"
_cell_formula_units_Z 32
_cell_length_a 4.885084
_cell_length_b 20.422137
_cell_length_c 15.353303
_cell_angle_alpha 90.000000
_cell_angle_beta 90.000000
_cell_angle_gamma 90.000000
_cell_volume 1531.704690
_symmetry_space_group_name_H-M "P N N A"
_symmetry_group_IT_number 52
_symmetry_cell_setting 'orthorhombic'
loop_
_space_group_symop_operation_xyz
x,y,z
1/2-x,-y,z
x,1/2-y,1/2-z
1/2-x,1/2+y,1/2-z
-x,-y,-z
1/2+x,y,-z
-x,1/2+y,1/2+z
1/2+x,1/2-y,1/2+z
loop_
_atom_site_type_symbol
_atom_site_label
_atom_site_fract_x
_atom_site_fract_y
_atom_site_fract_z
Si Si1 0.611563 0.824459 0.268213
Si Si2 0.903028 0.092956 0.784289
Si Si3 0.587237 0.620370 0.057561
Si Si4 0.750000 0.000000 0.334346
Si Si5 0.750000 0.500000 0.564563
O O1 0.536667 0.750000 0.250000
O O2 0.351991 0.871961 0.260150
O O3 0.684216 0.826486 0.370800
O O4 0.856343 0.852146 0.206961
O O5 0.795283 0.064726 0.876229
O O6 0.019253 0.033205 0.726561
O O7 0.602140 0.549760 0.101863
O O8 0.276215 0.629260 0.027026
O O9 0.500000 0.500000 0.500000
#
# Coordination Sequence:
#
# PCOD8216185 Si02
#       5
#     8   8   8   4   4
#     4  11  24  44  64  85 123 175 215 247 297 377
#     4  11  23  41  65  92 121 165 211 249 313 390
#     4  11  22  36  58  93 123 152 194 252 305 356
#     4  10  21  38  63  92 128 162 194 248 323 396
#     4  12  23  40  63  96 128 154 204 280 329 362
#
# _framework density 20.891753999999999
#
# number of rings (size 3 to 8) (size 9 to 14) (size 15 to 20)
#    0.000    1.000    0.000    9.750    0.000    4.000 
#    0.000    7.500    0.000    0.000    0.000    0.000 
#    0.000    0.000    0.000    0.000    0.000    0.000 
#
# Total GULP energy -396670.264424 kJ/mol
# GULP energy per Si atom -12395.945763 kJ/mol
# Density = 2.084420 g / cm^3
# Si number density = 20.891754 Si / 1000 Ang^3
#
#
#
# Elastic Constant Matrix: (Units=GPa)
#
#
# Indices 1 2 3 4 5 6 
#
# 1 127.7350 26.2372 45.0422 0.0000 0.0000 0.0000
# 2 26.2372 106.5673 63.3144 0.0000 0.0000 0.0000
# 3 45.0422 63.3144 118.9278 0.0000 0.0000 0.0000
# 4 0.0000 0.0000 0.0000 20.7370 0.0000 0.0000
# 5 0.0000 0.0000 0.0000 0.0000 36.4085 0.0000
# 6 0.0000 0.0000 0.0000 0.0000 0.0000 29.8314
#
#
#
# Elastic Compliance Matrix: (Units=1/GPa)
#
#
# Indices 1 2 3 4 5 6 
#
# 1 0.009041 -0.000280 -0.003275 0.000000 0.000000 0.000000
# 2 -0.000280 0.013734 -0.007205 0.000000 0.000000 0.000000
# 3 -0.003275 -0.007205 0.013485 0.000000 0.000000 0.000000
# 4 0.000000 0.000000 0.000000 0.048223 0.000000 0.000000
# 5 0.000000 0.000000 0.000000 0.000000 0.027466 0.000000
# 6 0.000000 0.000000 0.000000 0.000000 0.000000 0.033522
#
#
# Mechanical properties :
#
#
# Convention : Reuss Voigt Hill
#
# Bulk Modulus (GPa) = 67.84991 69.15752 68.50371
# Shear Modulus (GPa) = 29.08598 31.97114 30.52856
#
# Velocity S-wave (km/s) = 3.73530 3.91618 3.82681
# Velocity P-wave (km/s) = 7.15197 7.32279 7.23788
#
# Compressibility (1/GPa) = 0.01473841
#
# Stress axis : x y z
#
# Youngs Moduli (GPa) = 110.60593 72.81416 74.15765
#
# Poissons Ratio (x) = 0.02040 0.24287
# Poissons Ratio (y) = 0.03099 0.53433
# Poissons Ratio (z) = 0.36224 0.52465
#
# Static dielectric constant tensor:
#      x y z
#    x 4.038610 0.000000 0.000000 
#    y 0.000000 3.887430 0.000000 
#    z 0.000000 0.000000 4.062090 
# 
# 
# High freq. dielectric constant tensor:
#      x y z
#    x 1.840830 0.000000 0.000000 
#    y 0.000000 1.800060 0.000000 
#    z 0.000000 0.000000 1.818850 
# 
# From -- ./inp_files/15967.got.cif
#   From: 2010.06.25/outbox.cif.g09.slc.cpg/sg52_8_cif.got.tgz:15967.got - 2010.06.26 19:32:48.
