data_PCOD8216521
_publ_section_title
;
Structure prediction by ZEFSAII (Michael W. Deem and Ramdas Pophale) SiO2 
 PCOD8216521
Probable space group: P N N A
;
_chemical_formula_sum "Si O2"
_cell_formula_units_Z 44
_cell_length_a 10.566651
_cell_length_b 7.549733
_cell_length_c 26.538396
_cell_angle_alpha 90.000000
_cell_angle_beta 90.000000
_cell_angle_gamma 90.000000
_cell_volume 2117.110991
_symmetry_space_group_name_H-M "P N N A"
_symmetry_group_IT_number 52
_symmetry_cell_setting 'orthorhombic'
loop_
_space_group_symop_operation_xyz
x,y,z
1/2-x,-y,z
x,1/2-y,1/2-z
1/2-x,1/2+y,1/2-z
-x,-y,-z
1/2+x,y,-z
-x,1/2+y,1/2+z
1/2+x,1/2-y,1/2+z
loop_
_atom_site_type_symbol
_atom_site_label
_atom_site_fract_x
_atom_site_fract_y
_atom_site_fract_z
Si Si1 0.424429 0.156247 0.132794
Si Si2 0.890386 0.279668 0.974839
Si Si3 0.655430 0.258321 0.648559
Si Si4 0.516166 0.250000 0.750000
Si Si5 0.873744 0.908952 0.212643
Si Si6 0.888399 0.682012 0.959447
O O1 0.458581 0.218907 0.076700
O O2 0.306406 0.270661 0.153976
O O3 0.544987 0.180973 0.168592
O O4 0.381773 0.954916 0.132912
O O5 0.883044 0.489065 0.983219
O O6 0.742864 0.212065 0.974745
O O7 0.986762 0.212932 0.019307
O O8 0.598881 0.200083 0.701488
O O9 0.602993 0.148063 0.600891
O O10 0.440755 0.430660 0.741823
O O11 0.835982 0.750000 0.250000
O O12 0.750000 0.000000 0.188355
#
# Coordination Sequence:
#
# PCOD8216521 Si02
#       6
#     8   8   8   4   8   8
#     4   9  20  37  57  85 113 147 197 239 291 357
#     4   9  18  35  54  83 112 148 192 239 286 357
#     4   9  19  37  59  85 116 145 189 249 292 344
#     4  10  22  40  60  90 120 152 198 246 298 352
#     4  11  23  41  60  83 121 162 198 245 296 355
#     4   9  18  34  56  80 116 148 189 239 294 344
#
# _framework density 20.78304
#
# number of rings (size 3 to 8) (size 9 to 14) (size 15 to 20)
#    0.000    2.545    0.909    0.000    3.818    0.727 
#    6.545    0.000    0.000    0.000    0.000    0.000 
#    0.000    0.000    0.000    0.000    0.000    0.000 
#
# Total GULP energy -545081.943607 kJ/mol
# GULP energy per Si atom -12388.225991 kJ/mol
# Density = 2.073574 g / cm^3
# Si number density = 20.783040 Si / 1000 Ang^3
#
#
#
# Elastic Constant Matrix: (Units=GPa)
#
#
# Indices 1 2 3 4 5 6 
#
# 1 140.7404 9.6652 97.9941 0.0000 0.0000 0.0000
# 2 9.6652 26.4586 18.4541 0.0000 0.0000 0.0000
# 3 97.9941 18.4541 123.5465 0.0000 0.0000 0.0000
# 4 0.0000 0.0000 0.0000 28.0225 0.0000 0.0000
# 5 0.0000 0.0000 0.0000 0.0000 25.0597 0.0000
# 6 0.0000 0.0000 0.0000 0.0000 0.0000 15.6182
#
#
#
# Elastic Compliance Matrix: (Units=1/GPa)
#
#
# Indices 1 2 3 4 5 6 
#
# 1 0.016137 0.003385 -0.013305 0.000000 0.000000 0.000000
# 2 0.003385 0.042901 -0.009093 0.000000 0.000000 0.000000
# 3 -0.013305 -0.009093 0.020005 0.000000 0.000000 0.000000
# 4 0.000000 0.000000 0.000000 0.035686 0.000000 0.000000
# 5 0.000000 0.000000 0.000000 0.000000 0.039905 0.000000
# 6 0.000000 0.000000 0.000000 0.000000 0.000000 0.064028
#
#
# Mechanical properties :
#
#
# Convention : Reuss Voigt Hill
#
# Bulk Modulus (GPa) = 24.38010 60.33026 42.35518
# Shear Modulus (GPa) = 18.49396 24.71555 21.60475
#
# Velocity S-wave (km/s) = 2.98629 3.45224 3.22768
# Velocity P-wave (km/s) = 4.86279 6.70688 5.85786
#
# Compressibility (1/GPa) = 0.04101706
#
# Stress axis : x y z
#
# Youngs Moduli (GPa) = 61.97086 23.30974 49.98655
#
# Poissons Ratio (x) = -0.07891 0.66506
# Poissons Ratio (y) = -0.20978 0.45453
# Poissons Ratio (z) = 0.82451 0.21196
#
# Static dielectric constant tensor:
#      x y z
#    x 4.301720 0.000000 0.000000 
#    y 0.000000 3.575450 0.000000 
#    z 0.000000 0.000000 3.674560 
# 
# 
# High freq. dielectric constant tensor:
#      x y z
#    x 1.815850 0.000000 0.000000 
#    y 0.000000 1.805190 0.000000 
#    z 0.000000 0.000000 1.800870 
# 
# From -- ./inp_files/40098.got.cif
#   From: 2010.06.25/outbox.cif.g09.slc.cpg/sg52_21_cif.got.tgz:40098.got - 2010.06.26 19:32:48.
