data_PCOD8216148
_publ_section_title
;
Structure prediction by ZEFSAII (Michael W. Deem and Ramdas Pophale) SiO2 
 PCOD8216148
Probable space group: P N N A
;
_chemical_formula_sum "Si O2"
_cell_formula_units_Z 56
_cell_length_a 8.852738
_cell_length_b 13.803502
_cell_length_c 19.806126
_cell_angle_alpha 90.000000
_cell_angle_beta 90.000000
_cell_angle_gamma 90.000000
_cell_volume 2420.284566
_symmetry_space_group_name_H-M "P N N A"
_symmetry_group_IT_number 52
_symmetry_cell_setting 'orthorhombic'
loop_
_space_group_symop_operation_xyz
x,y,z
1/2-x,-y,z
x,1/2-y,1/2-z
1/2-x,1/2+y,1/2-z
-x,-y,-z
1/2+x,y,-z
-x,1/2+y,1/2+z
1/2+x,1/2-y,1/2+z
loop_
_atom_site_type_symbol
_atom_site_label
_atom_site_fract_x
_atom_site_fract_y
_atom_site_fract_z
Si Si1 0.618824 0.566331 0.465254
Si Si2 0.967867 0.833854 0.195661
Si Si3 0.354916 0.653897 0.000057
Si Si4 0.083510 0.527569 0.759631
Si Si5 0.897915 0.106034 0.400370
Si Si6 0.610559 0.772813 0.935610
Si Si7 0.125331 0.682321 0.658523
O O1 0.750000 0.500000 0.435970
O O2 0.500000 0.500000 0.500000
O O3 0.680577 0.641178 0.520196
O O4 0.549113 0.622024 0.401791
O O5 0.968931 0.750000 0.250000
O O6 0.805446 0.831877 0.159827
O O7 0.096063 0.808191 0.141006
O O8 0.014191 0.937641 0.229689
O O9 0.471889 0.588742 0.043369
O O10 0.232713 0.687867 0.055717
O O11 0.447632 0.740804 0.965133
O O12 0.265087 0.597773 0.939264
O O13 0.250000 0.500000 0.736284
O O14 0.050619 0.634907 0.726736
O O15 0.077013 0.526789 0.841509
O O16 0.912860 0.206706 0.358576
#
# Coordination Sequence:
#
# PCOD8216148 Si02
#       7
#     8   8   8   8   8   8   8
#     4  12  22  32  56  92 133 159 202 264 317 392
#     4  11  22  40  66  89 123 166 215 271 322 380
#     4  10  21  37  67  93 127 172 216 262 331 384
#     4  10  22  37  61  99 126 164 219 270 320 391
#     4  11  21  40  65  96 129 171 219 269 317 393
#     4  11  20  39  61  92 124 168 211 261 331 390
#     4  11  19  35  60  95 126 162 205 259 320 386
#
# _framework density 23.137775000000001
#
# number of rings (size 3 to 8) (size 9 to 14) (size 15 to 20)
#    0.000    1.143    4.286    6.000    0.000    0.000 
#    0.000    2.143    0.000    0.000    0.000    0.000 
#    0.000    0.000    0.000    0.000    0.000    0.000 
#
# Total GULP energy -693817.946885 kJ/mol
# GULP energy per Si atom -12389.606194 kJ/mol
# Density = 2.308511 g / cm^3
# Si number density = 23.137775 Si / 1000 Ang^3
#
#
#
# Elastic Constant Matrix: (Units=GPa)
#
#
# Indices 1 2 3 4 5 6 
#
# 1 60.4657 2.4297 26.9260 0.0000 0.0000 0.0000
# 2 2.4297 34.6087 15.5037 0.0000 0.0000 0.0000
# 3 26.9260 15.5037 127.6507 0.0000 0.0000 0.0000
# 4 0.0000 0.0000 0.0000 48.8710 0.0000 0.0000
# 5 0.0000 0.0000 0.0000 0.0000 20.7489 0.0000
# 6 0.0000 0.0000 0.0000 0.0000 0.0000 4.6096
#
#
#
# Elastic Compliance Matrix: (Units=1/GPa)
#
#
# Indices 1 2 3 4 5 6 
#
# 1 0.018260 0.000469 -0.003909 0.000000 0.000000 0.000000
# 2 0.000469 0.030569 -0.003812 0.000000 0.000000 0.000000
# 3 -0.003909 -0.003812 0.009121 0.000000 0.000000 0.000000
# 4 0.000000 0.000000 0.000000 0.020462 0.000000 0.000000
# 5 0.000000 0.000000 0.000000 0.000000 0.048195 0.000000
# 6 0.000000 0.000000 0.000000 0.000000 0.000000 0.216938
#
#
# Mechanical properties :
#
#
# Convention : Reuss Voigt Hill
#
# Bulk Modulus (GPa) = 23.01614 34.71597 28.86605
# Shear Modulus (GPa) = 13.42169 26.70360 20.06265
#
# Velocity S-wave (km/s) = 2.41109 3.40091 2.94784
# Velocity P-wave (km/s) = 4.20953 5.51889 4.90807
#
# Compressibility (1/GPa) = 0.04344777
#
# Stress axis : x y z
#
# Youngs Moduli (GPa) = 54.76445 32.71284 109.63363
#
# Poissons Ratio (x) = -0.01534 0.42852
# Poissons Ratio (y) = -0.02569 0.41789
# Poissons Ratio (z) = 0.21405 0.12469
#
# Static dielectric constant tensor:
#      x y z
#    x 3.581980 0.000000 0.000000 
#    y 0.000000 4.251860 0.000000 
#    z 0.000000 0.000000 4.335370 
# 
# 
# High freq. dielectric constant tensor:
#      x y z
#    x 1.866930 0.000000 0.000000 
#    y 0.000000 1.917660 0.000000 
#    z 0.000000 0.000000 1.930350 
# 
# From -- ./inp_files/36034.got.cif
#   From: 2010.06.25/outbox.cif.g09.slc.cpg/sg52_19_cif.got.tgz:36034.got - 2010.06.26 19:32:48.
