data_PCOD8216640
_publ_section_title
;
Structure prediction by ZEFSAII (Michael W. Deem and Ramdas Pophale) SiO2 
 PCOD8216640
Probable space group: P N N A
;
_chemical_formula_sum "Si O2"
_cell_formula_units_Z 36
_cell_length_a 17.616693
_cell_length_b 17.604319
_cell_length_c 5.290348
_cell_angle_alpha 90.000000
_cell_angle_beta 90.000000
_cell_angle_gamma 90.000000
_cell_volume 1640.695008
_symmetry_space_group_name_H-M "P N N A"
_symmetry_group_IT_number 52
_symmetry_cell_setting 'orthorhombic'
loop_
_space_group_symop_operation_xyz
x,y,z
1/2-x,-y,z
x,1/2-y,1/2-z
1/2-x,1/2+y,1/2-z
-x,-y,-z
1/2+x,y,-z
-x,1/2+y,1/2+z
1/2+x,1/2-y,1/2+z
loop_
_atom_site_type_symbol
_atom_site_label
_atom_site_fract_x
_atom_site_fract_y
_atom_site_fract_z
Si Si1 0.184506 0.059764 0.805339
Si Si2 0.910639 0.538189 0.806205
Si Si3 0.187136 0.668239 0.630301
Si Si4 0.096034 0.750000 0.250000
Si Si5 0.055314 0.885480 0.551321
O O1 0.137433 0.067816 0.547146
O O2 0.227162 0.138024 0.878568
O O3 0.250000 0.000000 0.759303
O O4 0.133634 0.038114 0.043966
O O5 0.982078 0.595264 0.776911
O O6 0.938786 0.451541 0.840862
O O7 0.188717 0.750000 0.750000
O O8 0.149841 0.682506 0.356997
O O9 0.132102 0.610752 0.782882
O O10 0.044117 0.799084 0.442957
#
# Coordination Sequence:
#
# PCOD8216640 Si02
#       5
#     8   8   8   4   8
#     4  12  24  43  67 102 133 175 218 281 334 397
#     4  11  26  41  72  98 137 167 230 283 335 383
#     4  10  23  42  66  94 132 181 223 265 337 410
#     4  10  22  42  70  88 134 180 230 264 336 414
#     4  10  23  44  66  99 127 181 224 278 331 405
#
# _framework density 21.94192
#
# number of rings (size 3 to 8) (size 9 to 14) (size 15 to 20)
#    0.000    1.333    2.222    2.000    9.333    1.778 
#    2.000    0.000    0.000    0.000    0.000    0.000 
#    0.000    0.000    0.000    0.000    0.000    0.000 
#
# Total GULP energy -446236.819477 kJ/mol
# GULP energy per Si atom -12395.467208 kJ/mol
# Density = 2.189198 g / cm^3
# Si number density = 21.941920 Si / 1000 Ang^3
#
#
#
# Elastic Constant Matrix: (Units=GPa)
#
#
# Indices 1 2 3 4 5 6 
#
# 1 88.9966 34.5396 9.9999 0.0000 0.0000 0.0000
# 2 34.5396 65.6577 2.6571 0.0000 0.0000 0.0000
# 3 9.9999 2.6571 70.6445 0.0000 0.0000 0.0000
# 4 0.0000 0.0000 0.0000 11.6155 0.0000 0.0000
# 5 0.0000 0.0000 0.0000 0.0000 24.1991 0.0000
# 6 0.0000 0.0000 0.0000 0.0000 0.0000 41.4313
#
#
#
# Elastic Compliance Matrix: (Units=1/GPa)
#
#
# Indices 1 2 3 4 5 6 
#
# 1 0.014331 -0.007468 -0.001748 0.000000 0.000000 0.000000
# 2 -0.007468 0.019146 0.000337 0.000000 0.000000 0.000000
# 3 -0.001748 0.000337 0.014390 0.000000 0.000000 0.000000
# 4 0.000000 0.000000 0.000000 0.086092 0.000000 0.000000
# 5 0.000000 0.000000 0.000000 0.000000 0.041324 0.000000
# 6 0.000000 0.000000 0.000000 0.000000 0.000000 0.024136
#
#
# Mechanical properties :
#
#
# Convention : Reuss Voigt Hill
#
# Bulk Modulus (GPa) = 33.21267 35.52133 34.36700
# Shear Modulus (GPa) = 22.00577 27.32266 24.66421
#
# Velocity S-wave (km/s) = 3.17031 3.53260 3.35635
# Velocity P-wave (km/s) = 5.34515 5.73263 5.54228
#
# Compressibility (1/GPa) = 0.03010899
#
# Stress axis : x y z
#
# Youngs Moduli (GPa) = 69.77790 52.23140 69.49227
#
# Poissons Ratio (x) = 0.39008 0.12145
# Poissons Ratio (y) = 0.52112 -0.02342
# Poissons Ratio (z) = 0.12195 -0.01760
#
# Static dielectric constant tensor:
#      x y z
#    x 4.522600 0.000000 0.000000 
#    y 0.000000 4.230020 0.000000 
#    z 0.000000 0.000000 4.955440 
# 
# 
# High freq. dielectric constant tensor:
#      x y z
#    x 1.857130 0.000000 0.000000 
#    y 0.000000 1.870650 0.000000 
#    z 0.000000 0.000000 1.862620 
# 
# From -- ./inp_files/2139.got.cif
#   From: 2010.06.25/outbox.cif.g09.slc.cpg/sg52_2_cif.got.tgz:2139.got - 2010.06.26 19:32:48.
