data_PCOD8216426
_publ_section_title
;
Structure prediction by ZEFSAII (Michael W. Deem and Ramdas Pophale) SiO2 
 PCOD8216426
Probable space group: P N N A
;
_chemical_formula_sum "Si O2"
_cell_formula_units_Z 40
_cell_length_a 15.441573
_cell_length_b 5.233837
_cell_length_c 28.127398
_cell_angle_alpha 90.000000
_cell_angle_beta 90.000000
_cell_angle_gamma 90.000000
_cell_volume 2273.219069
_symmetry_space_group_name_H-M "P N N A"
_symmetry_group_IT_number 52
_symmetry_cell_setting 'orthorhombic'
loop_
_space_group_symop_operation_xyz
x,y,z
1/2-x,-y,z
x,1/2-y,1/2-z
1/2-x,1/2+y,1/2-z
-x,-y,-z
1/2+x,y,-z
-x,1/2+y,1/2+z
1/2+x,1/2-y,1/2+z
loop_
_atom_site_type_symbol
_atom_site_label
_atom_site_fract_x
_atom_site_fract_y
_atom_site_fract_z
Si Si1 0.343041 0.867136 0.350306
Si Si2 0.250000 0.500000 0.410482
Si Si3 0.307407 0.750000 0.250000
Si Si4 0.946217 0.475798 0.452915
Si Si5 0.030022 0.973222 0.425372
Si Si6 0.175973 0.677451 0.008160
O O1 0.330515 0.603512 0.379549
O O2 0.369067 0.805780 0.295696
O O3 0.250000 0.000000 0.348617
O O4 0.413080 0.044454 0.376996
O O5 0.213888 0.724566 0.442642
O O6 0.250000 0.500000 0.261980
O O7 0.848187 0.403446 0.470506
O O8 0.000000 0.500000 0.500000
O O9 0.958921 0.742135 0.424511
O O10 0.979340 0.239235 0.421533
O O11 0.088722 0.972386 0.474251
O O12 0.250000 0.500000 0.984293
#
# Coordination Sequence:
#
# PCOD8216426 Si02
#       6
#     8   4   4   8   8   8
#     4  11  20  32  48  69  93 125 166 204 254 291
#     4  12  18  30  48  66  94 120 176 194 250 286
#     4  10  22  32  48  70  96 116 156 216 244 288
#     4  10  22  32  45  64  92 117 162 206 244 280
#     4  11  20  34  47  64  90 124 160 202 246 293
#     4  11  21  29  46  68  88 127 163 212 242 291
#
# _framework density 17.596194000000001
#
# number of rings (size 3 to 8) (size 9 to 14) (size 15 to 20)
#    0.000    1.200    5.000    4.800    2.800    0.000 
#    0.000    0.000    0.000    0.000    0.000    0.000 
#    0.000    0.000    0.000    0.000    3.800    0.900 
#
# Total GULP energy -495611.183616 kJ/mol
# GULP energy per Si atom -12390.279590 kJ/mol
# Density = 1.755614 g / cm^3
# Si number density = 17.596194 Si / 1000 Ang^3
#
#
#
# Elastic Constant Matrix: (Units=GPa)
#
#
# Indices 1 2 3 4 5 6 
#
# 1 59.8607 30.7658 34.3719 0.0000 0.0000 0.0000
# 2 30.7658 107.4724 31.0416 0.0000 0.0000 0.0000
# 3 34.3719 31.0416 87.1684 0.0000 0.0000 0.0000
# 4 0.0000 0.0000 0.0000 17.8583 0.0000 0.0000
# 5 0.0000 0.0000 0.0000 0.0000 6.2296 0.0000
# 6 0.0000 0.0000 0.0000 0.0000 0.0000 31.9420
#
#
#
# Elastic Compliance Matrix: (Units=1/GPa)
#
#
# Indices 1 2 3 4 5 6 
#
# 1 0.023393 -0.004495 -0.007624 0.000000 0.000000 0.000000
# 2 -0.004495 0.011235 -0.002229 0.000000 0.000000 0.000000
# 3 -0.007624 -0.002229 0.015272 0.000000 0.000000 0.000000
# 4 0.000000 0.000000 0.000000 0.055996 0.000000 0.000000
# 5 0.000000 0.000000 0.000000 0.000000 0.160525 0.000000
# 6 0.000000 0.000000 0.000000 0.000000 0.000000 0.031307
#
#
# Mechanical properties :
#
#
# Convention : Reuss Voigt Hill
#
# Bulk Modulus (GPa) = 47.15638 49.65111 48.40374
# Shear Modulus (GPa) = 14.99293 21.76078 18.37686
#
# Velocity S-wave (km/s) = 2.92217 3.52045 3.23517
# Velocity P-wave (km/s) = 6.18407 6.69351 6.44383
#
# Compressibility (1/GPa) = 0.02120604
#
# Stress axis : x y z
#
# Youngs Moduli (GPa) = 42.74782 89.00685 65.48008
#
# Poissons Ratio (x) = 0.40006 0.49920
# Poissons Ratio (y) = 0.19214 0.14593
# Poissons Ratio (z) = 0.32589 0.19836
#
# Static dielectric constant tensor:
#      x y z
#    x 4.571830 0.000000 0.000000 
#    y 0.000000 4.271100 0.000000 
#    z 0.000000 0.000000 3.303350 
# 
# 
# High freq. dielectric constant tensor:
#      x y z
#    x 1.634170 0.000000 0.000000 
#    y 0.000000 1.707260 0.000000 
#    z 0.000000 0.000000 1.632970 
# 
# From -- ./inp_files/42900.got.cif
#   From: 2010.06.25/outbox.cif.g09.slc.cpg/sg52_22_cif.got.tgz:42900.got - 2010.06.26 19:32:48.
