data_PCOD8216190
_publ_section_title
;
Structure prediction by ZEFSAII (Michael W. Deem and Ramdas Pophale) SiO2 
 PCOD8216190
Probable space group: P N N A
;
_chemical_formula_sum "Si O2"
_cell_formula_units_Z 40
_cell_length_a 9.693983
_cell_length_b 15.241858
_cell_length_c 12.690950
_cell_angle_alpha 90.000000
_cell_angle_beta 90.000000
_cell_angle_gamma 90.000000
_cell_volume 1875.142590
_symmetry_space_group_name_H-M "P N N A"
_symmetry_group_IT_number 52
_symmetry_cell_setting 'orthorhombic'
loop_
_space_group_symop_operation_xyz
x,y,z
1/2-x,-y,z
x,1/2-y,1/2-z
1/2-x,1/2+y,1/2-z
-x,-y,-z
1/2+x,y,-z
-x,1/2+y,1/2+z
1/2+x,1/2-y,1/2+z
loop_
_atom_site_type_symbol
_atom_site_label
_atom_site_fract_x
_atom_site_fract_y
_atom_site_fract_z
Si Si1 0.342377 0.108403 0.039046
Si Si2 0.554606 0.056282 0.876700
Si Si3 0.125505 0.564379 0.993261
Si Si4 0.700275 0.716297 0.865746
Si Si5 0.502114 0.170900 0.684083
O O1 0.178504 0.090371 0.047349
O O2 0.364312 0.211766 0.055767
O O3 0.425074 0.049467 0.126559
O O4 0.406284 0.083460 0.925323
O O5 0.564073 0.094928 0.759748
O O6 0.250000 0.500000 0.971343
O O7 0.109616 0.630954 0.895118
O O8 0.140125 0.621420 0.100526
O O9 0.000000 0.500000 0.000000
O O10 0.657794 0.750000 0.750000
O O11 0.866495 0.711822 0.877129
O O12 0.430797 0.250000 0.750000
#
# Coordination Sequence:
#
# PCOD8216190 Si02
#       5
#     8   8   8   8   8
#     4  10  21  38  64  97 131 171 226 285 338 409
#     4  10  21  39  66  96 134 175 223 286 347 406
#     4  12  27  46  70 102 144 184 234 293 357 427
#     4  11  23  40  70  98 128 183 233 277 342 422
#     4  11  22  44  71  99 137 188 231 290 353 421
#
# _framework density 21.331710999999999
#
# number of rings (size 3 to 8) (size 9 to 14) (size 15 to 20)
#    0.000    1.200    6.000    1.200    2.800    0.000 
#    7.200    1.000    0.000    0.000    0.000    0.000 
#    0.000    0.000    0.000    0.000    0.000    0.000 
#
# Total GULP energy -495748.692253 kJ/mol
# GULP energy per Si atom -12393.717306 kJ/mol
# Density = 2.128316 g / cm^3
# Si number density = 21.331711 Si / 1000 Ang^3
#
#
#
# Elastic Constant Matrix: (Units=GPa)
#
#
# Indices 1 2 3 4 5 6 
#
# 1 95.6123 44.7392 46.3764 0.0000 0.0000 0.0000
# 2 44.7392 157.7112 55.5238 0.0000 0.0000 0.0000
# 3 46.3764 55.5238 86.6634 0.0000 0.0000 0.0000
# 4 0.0000 0.0000 0.0000 51.6749 0.0000 0.0000
# 5 0.0000 0.0000 0.0000 0.0000 22.3455 0.0000
# 6 0.0000 0.0000 0.0000 0.0000 0.0000 31.3950
#
#
#
# Elastic Compliance Matrix: (Units=1/GPa)
#
#
# Indices 1 2 3 4 5 6 
#
# 1 0.014504 -0.001784 -0.006618 0.000000 0.000000 0.000000
# 2 -0.001784 0.008407 -0.004431 0.000000 0.000000 0.000000
# 3 -0.006618 -0.004431 0.017920 0.000000 0.000000 0.000000
# 4 0.000000 0.000000 0.000000 0.019352 0.000000 0.000000
# 5 0.000000 0.000000 0.000000 0.000000 0.044752 0.000000
# 6 0.000000 0.000000 0.000000 0.000000 0.000000 0.031852
#
#
# Mechanical properties :
#
#
# Convention : Reuss Voigt Hill
#
# Bulk Modulus (GPa) = 65.95197 70.36286 68.15741
# Shear Modulus (GPa) = 29.84917 33.97290 31.91104
#
# Velocity S-wave (km/s) = 3.74476 3.99507 3.87194
# Velocity P-wave (km/s) = 7.04855 7.37140 7.21178
#
# Compressibility (1/GPa) = 0.01516255
#
# Stress axis : x y z
#
# Youngs Moduli (GPa) = 68.94609 118.94843 55.80461
#
# Poissons Ratio (x) = 0.21226 0.36933
# Poissons Ratio (y) = 0.12303 0.24729
# Poissons Ratio (z) = 0.45631 0.52710
#
# Static dielectric constant tensor:
#      x y z
#    x 3.541280 0.000000 0.000000 
#    y 0.000000 4.413000 0.000000 
#    z 0.000000 0.000000 3.893370 
# 
# 
# High freq. dielectric constant tensor:
#      x y z
#    x 1.813300 0.000000 0.000000 
#    y 0.000000 1.867510 0.000000 
#    z 0.000000 0.000000 1.811770 
# 
# From -- ./inp_files/24433.got.cif
#   From: 2010.06.25/outbox.cif.g09.slc.cpg/sg52_13_cif.got.tgz:24433.got - 2010.06.26 19:32:48.
