data_PCOD8216242
_publ_section_title
;
Structure prediction by ZEFSAII (Michael W. Deem and Ramdas Pophale) SiO2 
 PCOD8216242
Probable space group: P N N A
;
_chemical_formula_sum "Si O2"
_cell_formula_units_Z 32
_cell_length_a 21.904348
_cell_length_b 7.029904
_cell_length_c 9.628256
_cell_angle_alpha 90.000000
_cell_angle_beta 90.000000
_cell_angle_gamma 90.000000
_cell_volume 1482.611464
_symmetry_space_group_name_H-M "P N N A"
_symmetry_group_IT_number 52
_symmetry_cell_setting 'orthorhombic'
loop_
_space_group_symop_operation_xyz
x,y,z
1/2-x,-y,z
x,1/2-y,1/2-z
1/2-x,1/2+y,1/2-z
-x,-y,-z
1/2+x,y,-z
-x,1/2+y,1/2+z
1/2+x,1/2-y,1/2+z
loop_
_atom_site_type_symbol
_atom_site_label
_atom_site_fract_x
_atom_site_fract_y
_atom_site_fract_z
Si Si1 0.497848 0.274777 0.482696
Si Si2 0.938416 0.750000 0.750000
Si Si3 0.682238 0.930981 0.157200
Si Si4 0.874935 0.375632 0.629004
Si Si5 0.909659 0.750000 0.250000
O O1 0.500000 0.500000 0.500000
O O2 0.515691 0.174532 0.628775
O O3 0.429471 0.238604 0.428473
O O4 0.547125 0.191150 0.376628
O O5 0.896656 0.580883 0.687848
O O6 0.668972 0.750000 0.250000
O O7 0.750000 0.000000 0.188175
O O8 0.632057 0.077326 0.206539
O O9 0.674669 0.899007 0.992336
O O10 0.843475 0.250000 0.750000
#
# Coordination Sequence:
#
# PCOD8216242 Si02
#       5
#     8   4   8   8   4
#     4  10  21  39  65 102 142 176 216 277 354 407
#     4  10  22  40  61  97 148 174 212 278 344 412
#     4  12  28  48  72  99 134 189 245 288 348 421
#     4  11  25  44  66 106 137 182 229 280 358 420
#     4  12  22  46  71 103 144 176 234 294 342 424
#
# _framework density 21.583538999999998
#
# number of rings (size 3 to 8) (size 9 to 14) (size 15 to 20)
#    0.000    1.000    7.500    0.000    5.250    1.000 
#    2.250    0.000    0.000    0.000    0.000    0.000 
#    0.000    0.000    0.000    0.000    0.000    0.000 
#
# Total GULP energy -396672.714911 kJ/mol
# GULP energy per Si atom -12396.022341 kJ/mol
# Density = 2.153441 g / cm^3
# Si number density = 21.583539 Si / 1000 Ang^3
#
#
#
# Elastic Constant Matrix: (Units=GPa)
#
#
# Indices 1 2 3 4 5 6 
#
# 1 52.8297 -4.9329 13.1671 0.0000 0.0000 0.0000
# 2 -4.9329 64.4500 27.6955 0.0000 0.0000 0.0000
# 3 13.1671 27.6955 157.6257 0.0000 0.0000 0.0000
# 4 0.0000 0.0000 0.0000 43.4156 0.0000 0.0000
# 5 0.0000 0.0000 0.0000 0.0000 48.6043 0.0000
# 6 0.0000 0.0000 0.0000 0.0000 0.0000 -464.7017
#
#
#
# Elastic Compliance Matrix: (Units=1/GPa)
#
#
# Indices 1 2 3 4 5 6 
#
# 1 0.019666 0.002392 -0.002063 0.000000 0.000000 0.000000
# 2 0.002392 0.017074 -0.003200 0.000000 0.000000 0.000000
# 3 -0.002063 -0.003200 0.007079 0.000000 0.000000 0.000000
# 4 0.000000 0.000000 0.000000 0.023033 0.000000 0.000000
# 5 0.000000 0.000000 0.000000 0.000000 0.020574 0.000000
# 6 0.000000 0.000000 0.000000 0.000000 0.000000 -0.002152
#
#
# Mechanical properties :
#
#
# Convention : Reuss Voigt Hill
#
# Bulk Modulus (GPa) = 26.26270 38.52943 32.39606
# Shear Modulus (GPa) = 48.21189 -58.60464 -5.19638
#
# Velocity S-wave (km/s) = 4.73137 -5.21646 -1.55332
# Velocity P-wave (km/s) = 6.48399 4.28857 3.43877
#
# Compressibility (1/GPa) = 0.03807682
#
# Stress axis : x y z
#
# Youngs Moduli (GPa) = 50.84852 58.56872 141.26913
#
# Poissons Ratio (x) = -0.14008 0.29144
# Poissons Ratio (y) = -0.12162 0.45203
# Poissons Ratio (z) = 0.10490 0.18741
#
# Static dielectric constant tensor:
#      x y z
#    x 3.814480 0.000000 0.000000 
#    y 0.000000 3.828180 0.000000 
#    z 0.000000 0.000000 4.476440 
# 
# 
# High freq. dielectric constant tensor:
#      x y z
#    x 1.824210 0.000000 0.000000 
#    y 0.000000 1.848820 0.000000 
#    z 0.000000 0.000000 1.872090 
# 
# From -- ./inp_files/12850.got.cif
#   From: 2010.06.25/outbox.cif.g09.slc.cpg/sg52_7_cif.got.tgz:12850.got - 2010.06.26 19:32:48.
