data_PCOD8216957
_publ_section_title
;
Structure prediction by ZEFSAII (Michael W. Deem and Ramdas Pophale) SiO2 
 PCOD8216957
Probable space group: P N N A
;
_chemical_formula_sum "Si O2"
_cell_formula_units_Z 32
_cell_length_a 12.835256
_cell_length_b 5.079966
_cell_length_c 22.654344
_cell_angle_alpha 90.000000
_cell_angle_beta 90.000000
_cell_angle_gamma 90.000000
_cell_volume 1477.123582
_symmetry_space_group_name_H-M "P N N A"
_symmetry_group_IT_number 52
_symmetry_cell_setting 'orthorhombic'
loop_
_space_group_symop_operation_xyz
x,y,z
1/2-x,-y,z
x,1/2-y,1/2-z
1/2-x,1/2+y,1/2-z
-x,-y,-z
1/2+x,y,-z
-x,1/2+y,1/2+z
1/2+x,1/2-y,1/2+z
loop_
_atom_site_type_symbol
_atom_site_label
_atom_site_fract_x
_atom_site_fract_y
_atom_site_fract_z
Si Si1 0.250000 0.500000 0.416676
Si Si2 0.877646 0.681919 0.687441
Si Si3 0.182962 0.250000 0.750000
Si Si4 0.996707 0.683296 0.165255
Si Si5 0.456890 0.256627 0.465635
O O1 0.194334 0.296672 0.370985
O O2 0.331280 0.320792 0.455757
O O3 0.819534 0.750000 0.750000
O O4 0.924382 0.390199 0.695240
O O5 0.969919 0.885766 0.677345
O O6 0.250000 0.500000 0.735484
O O7 0.117114 0.292422 0.808774
O O8 0.987189 0.744395 0.096649
O O9 0.500000 0.500000 0.500000
O O10 0.500000 0.000000 0.500000
#
# Coordination Sequence:
#
# PCOD8216957 Si02
#       5
#     4   8   4   8   8
#     4  10  26  42  72 106 132 182 238 272 350 424
#     4  11  21  40  70 102 140 166 207 282 353 421
#     4  12  24  42  70 100 136 178 234 282 336 414
#     4  11  23  44  68  98 135 179 220 280 352 392
#     4  11  25  47  69  95 140 181 230 291 336 400
#
# _framework density 21.663724999999999
#
# number of rings (size 3 to 8) (size 9 to 14) (size 15 to 20)
#    0.000    1.000    2.500    4.500    0.000   13.000 
#    6.750    0.000    0.000    0.000    0.000    0.000 
#    0.000    0.000    0.000    0.000    0.000    0.000 
#
# Total GULP energy -396421.205364 kJ/mol
# GULP energy per Si atom -12388.162668 kJ/mol
# Density = 2.161442 g / cm^3
# Si number density = 21.663725 Si / 1000 Ang^3
#
#
#
# Elastic Constant Matrix: (Units=GPa)
#
#
# Indices 1 2 3 4 5 6 
#
# 1 147.1577 64.2291 60.2121 0.0000 0.0000 0.0000
# 2 64.2291 146.8174 51.5745 0.0000 0.0000 0.0000
# 3 60.2121 51.5745 136.1990 0.0000 0.0000 0.0000
# 4 0.0000 0.0000 0.0000 41.2119 0.0000 0.0000
# 5 0.0000 0.0000 0.0000 0.0000 54.6735 0.0000
# 6 0.0000 0.0000 0.0000 0.0000 0.0000 47.8612
#
#
#
# Elastic Compliance Matrix: (Units=1/GPa)
#
#
# Indices 1 2 3 4 5 6 
#
# 1 0.009341 -0.003040 -0.002978 0.000000 0.000000 0.000000
# 2 -0.003040 0.008846 -0.002006 0.000000 0.000000 0.000000
# 3 -0.002978 -0.002006 0.009418 0.000000 0.000000 0.000000
# 4 0.000000 0.000000 0.000000 0.024265 0.000000 0.000000
# 5 0.000000 0.000000 0.000000 0.000000 0.018290 0.000000
# 6 0.000000 0.000000 0.000000 0.000000 0.000000 0.020894
#
#
# Mechanical properties :
#
#
# Convention : Reuss Voigt Hill
#
# Bulk Modulus (GPa) = 86.52877 86.91172 86.72024
# Shear Modulus (GPa) = 45.06350 45.69322 45.37836
#
# Velocity S-wave (km/s) = 4.56580 4.59759 4.58172
# Velocity P-wave (km/s) = 8.23552 8.26979 8.25267
#
# Compressibility (1/GPa) = 0.01155685
#
# Stress axis : x y z
#
# Youngs Moduli (GPa) = 107.05473 113.04883 106.17597
#
# Poissons Ratio (x) = 0.34370 0.31623
# Poissons Ratio (y) = 0.32547 0.21294
# Poissons Ratio (z) = 0.31884 0.22673
#
# Static dielectric constant tensor:
#      x y z
#    x 5.235280 0.000000 0.000000 
#    y 0.000000 4.209660 0.000000 
#    z 0.000000 0.000000 4.476500 
# 
# 
# High freq. dielectric constant tensor:
#      x y z
#    x 1.836890 0.000000 0.000000 
#    y 0.000000 1.873220 0.000000 
#    z 0.000000 0.000000 1.863270 
# 
# From -- ./inp_files/39853.got.cif
#   From: 2010.06.25/outbox.cif.g09.slc.cpg/sg52_20_cif.got.tgz:39853.got - 2010.06.26 19:32:48.
