data_PCOD8216457
_publ_section_title
;
Structure prediction by ZEFSAII (Michael W. Deem and Ramdas Pophale) SiO2 
 PCOD8216457
Probable space group: P N N A
;
_chemical_formula_sum "Si O2"
_cell_formula_units_Z 40
_cell_length_a 8.779059
_cell_length_b 16.747620
_cell_length_c 10.529935
_cell_angle_alpha 90.000000
_cell_angle_beta 90.000000
_cell_angle_gamma 90.000000
_cell_volume 1548.198906
_symmetry_space_group_name_H-M "P N N A"
_symmetry_group_IT_number 52
_symmetry_cell_setting 'orthorhombic'
loop_
_space_group_symop_operation_xyz
x,y,z
1/2-x,-y,z
x,1/2-y,1/2-z
1/2-x,1/2+y,1/2-z
-x,-y,-z
1/2+x,y,-z
-x,1/2+y,1/2+z
1/2+x,1/2-y,1/2+z
loop_
_atom_site_type_symbol
_atom_site_label
_atom_site_fract_x
_atom_site_fract_y
_atom_site_fract_z
Si Si1 0.657388 0.924367 0.728419
Si Si2 0.262022 0.587665 0.939900
Si Si3 0.769164 0.694986 0.583392
Si Si4 0.608556 0.447749 0.410556
Si Si5 0.020761 0.693811 0.966603
O O1 0.679398 0.918835 0.578409
O O2 0.737796 0.846850 0.784410
O O3 0.482245 0.927103 0.779902
O O4 0.750000 0.000000 0.783603
O O5 0.250000 0.500000 0.877500
O O6 0.428370 0.628248 0.944460
O O7 0.138494 0.646681 0.872392
O O8 0.827350 0.632744 0.475943
O O9 0.614564 0.740892 0.546307
O O10 0.897852 0.759653 0.615074
O O11 0.750000 0.500000 0.365976
O O12 0.500000 0.500000 0.500000
#
# Coordination Sequence:
#
# PCOD8216457 Si02
#       5
#     8   8   8   8   8
#     4  11  22  38  65  96 126 166 208 258 310 382
#     4  10  23  44  66  86 117 164 222 263 308 372
#     4  11  19  36  61  91 128 157 201 241 320 383
#     4  12  19  34  62  93 135 170 196 241 314 392
#     4  10  22  37  64  88 116 170 202 258 317 360
#
# _framework density 25.836473999999999
#
# number of rings (size 3 to 8) (size 9 to 14) (size 15 to 20)
#    0.000    1.200    6.000    0.600    0.000    3.200 
#    0.000    9.000    8.800    0.000    0.000    0.000 
#    0.000    0.000    0.000    0.000    0.000    0.000 
#
# Total GULP energy -495523.175049 kJ/mol
# GULP energy per Si atom -12388.079376 kJ/mol
# Density = 2.577767 g / cm^3
# Si number density = 25.836474 Si / 1000 Ang^3
#
#
#
# Elastic Constant Matrix: (Units=GPa)
#
#
# Indices 1 2 3 4 5 6 
#
# 1 167.9011 57.7855 4.8798 0.0000 0.0000 0.0000
# 2 57.7855 156.6311 2.2734 0.0000 0.0000 0.0000
# 3 4.8798 2.2734 65.3289 0.0000 0.0000 0.0000
# 4 0.0000 0.0000 0.0000 -18.8992 0.0000 0.0000
# 5 0.0000 0.0000 0.0000 0.0000 4.6812 0.0000
# 6 0.0000 0.0000 0.0000 0.0000 0.0000 65.9043
#
#
#
# Elastic Compliance Matrix: (Units=1/GPa)
#
#
# Indices 1 2 3 4 5 6 
#
# 1 0.006834 -0.002515 -0.000423 0.000000 0.000000 0.000000
# 2 -0.002515 0.007313 -0.000067 0.000000 0.000000 0.000000
# 3 -0.000423 -0.000067 0.015341 0.000000 0.000000 0.000000
# 4 0.000000 0.000000 0.000000 -0.052912 0.000000 0.000000
# 5 0.000000 0.000000 0.000000 0.000000 0.213619 0.000000
# 6 0.000000 0.000000 0.000000 0.000000 0.000000 0.015174
#
#
# Mechanical properties :
#
#
# Convention : Reuss Voigt Hill
#
# Bulk Modulus (GPa) = 42.59139 57.74870 50.17005
# Shear Modulus (GPa) = 22.80985 31.99877 27.40431
#
# Velocity S-wave (km/s) = 2.97451 3.52307 3.26035
# Velocity P-wave (km/s) = 5.32144 6.24095 5.79945
#
# Compressibility (1/GPa) = 0.02347892
#
# Stress axis : x y z
#
# Youngs Moduli (GPa) = 146.33234 136.73798 65.18447
#
# Poissons Ratio (x) = 0.34390 0.02757
# Poissons Ratio (y) = 0.36803 0.00434
# Poissons Ratio (z) = 0.06189 0.00911
#
# Static dielectric constant tensor:
#      x y z
#    x 5.541720 0.000000 0.000000 
#    y 0.000000 5.779750 0.000000 
#    z 0.000000 0.000000 4.043100 
# 
# 
# High freq. dielectric constant tensor:
#      x y z
#    x 2.067170 0.000000 0.000000 
#    y 0.000000 2.064150 0.000000 
#    z 0.000000 0.000000 1.991000 
# 
# From -- ./inp_files/24575.got.cif
#   From: 2010.06.25/outbox.cif.g09.slc.cpg/sg52_13_cif.got.tgz:24575.got - 2010.06.26 19:32:48.
