data_PCOD8216224
_publ_section_title
;
Structure prediction by ZEFSAII (Michael W. Deem and Ramdas Pophale) SiO2 
 PCOD8216224
Probable space group: P N N A
;
_chemical_formula_sum "Si O2"
_cell_formula_units_Z 36
_cell_length_a 12.589479
_cell_length_b 24.221831
_cell_length_c 4.936820
_cell_angle_alpha 90.000000
_cell_angle_beta 90.000000
_cell_angle_gamma 90.000000
_cell_volume 1505.435040
_symmetry_space_group_name_H-M "P N N A"
_symmetry_group_IT_number 52
_symmetry_cell_setting 'orthorhombic'
loop_
_space_group_symop_operation_xyz
x,y,z
1/2-x,-y,z
x,1/2-y,1/2-z
1/2-x,1/2+y,1/2-z
-x,-y,-z
1/2+x,y,-z
-x,1/2+y,1/2+z
1/2+x,1/2-y,1/2+z
loop_
_atom_site_type_symbol
_atom_site_label
_atom_site_fract_x
_atom_site_fract_y
_atom_site_fract_z
Si Si1 0.951768 0.174618 0.987895
Si Si2 0.302583 0.325011 0.989366
Si Si3 0.059830 0.553572 0.402102
Si Si4 0.127001 0.250000 0.750000
Si Si5 0.311975 0.445890 0.901562
O O1 0.855144 0.186636 0.780036
O O2 0.997625 0.111933 0.964362
O O3 0.053018 0.213486 0.945638
O O4 0.899466 0.185383 0.279993
O O5 0.201426 0.286307 0.945245
O O6 0.256271 0.387732 0.974541
O O7 0.167781 0.553927 0.580175
O O8 0.000000 0.500000 0.500000
O O9 0.080408 0.550980 0.081175
O O10 0.250000 0.500000 0.992575
#
# Coordination Sequence:
#
# PCOD8216224 Si02
#       5
#     8   8   8   4   8
#     4  10  24  43  62  96 131 164 214 269 315 374
#     4  10  24  43  62  95 132 162 213 271 314 373
#     4  10  21  39  62  91 127 161 203 265 315 375
#     4  12  24  42  72  90 126 182 216 254 328 398
#     4  10  21  39  62  91 127 161 203 264 317 372
#
# _framework density 23.913350999999999
#
# number of rings (size 3 to 8) (size 9 to 14) (size 15 to 20)
#    0.000    1.778    0.000    2.667    3.111    3.556 
#    0.000    0.000    0.000    0.000    0.000    0.000 
#    0.000    0.000    0.000    0.000    0.000    0.000 
#
# Total GULP energy -446191.584832 kJ/mol
# GULP energy per Si atom -12394.210690 kJ/mol
# Density = 2.385892 g / cm^3
# Si number density = 23.913351 Si / 1000 Ang^3
#
#
#
# Elastic Constant Matrix: (Units=GPa)
#
#
# Indices 1 2 3 4 5 6 
#
# 1 75.6833 69.9995 1.9168 0.0000 0.0000 0.0000
# 2 69.9995 185.8450 5.5652 0.0000 0.0000 0.0000
# 3 1.9168 5.5652 81.4575 0.0000 0.0000 0.0000
# 4 0.0000 0.0000 0.0000 27.1855 0.0000 0.0000
# 5 0.0000 0.0000 0.0000 0.0000 15.1785 0.0000
# 6 0.0000 0.0000 0.0000 0.0000 0.0000 40.3385
#
#
#
# Elastic Compliance Matrix: (Units=1/GPa)
#
#
# Indices 1 2 3 4 5 6 
#
# 1 0.020277 -0.007639 0.000045 0.000000 0.000000 0.000000
# 2 -0.007639 0.008270 -0.000385 0.000000 0.000000 0.000000
# 3 0.000045 -0.000385 0.012302 0.000000 0.000000 0.000000
# 4 0.000000 0.000000 0.000000 0.036784 0.000000 0.000000
# 5 0.000000 0.000000 0.000000 0.000000 0.065883 0.000000
# 6 0.000000 0.000000 0.000000 0.000000 0.000000 0.024790
#
#
# Mechanical properties :
#
#
# Convention : Reuss Voigt Hill
#
# Bulk Modulus (GPa) = 40.17743 55.32764 47.75253
# Shear Modulus (GPa) = 25.96592 34.24079 30.10335
#
# Velocity S-wave (km/s) = 3.29877 3.78811 3.55188
# Velocity P-wave (km/s) = 5.59883 6.50538 6.06906
#
# Compressibility (1/GPa) = 0.02488960
#
# Stress axis : x y z
#
# Youngs Moduli (GPa) = 49.31721 120.92581 81.29020
#
# Poissons Ratio (x) = 0.92372 -0.00364
# Poissons Ratio (y) = 0.37672 0.03132
# Poissons Ratio (z) = -0.00221 0.04658
#
# Static dielectric constant tensor:
#      x y z
#    x 3.774230 0.000000 0.000000 
#    y 0.000000 5.053210 0.000000 
#    z 0.000000 0.000000 4.772970 
# 
# 
# High freq. dielectric constant tensor:
#      x y z
#    x 1.901430 0.000000 0.000000 
#    y 0.000000 1.985970 0.000000 
#    z 0.000000 0.000000 1.961130 
# 
# From -- ./inp_files/1234.got.cif
#   From: 2010.06.25/outbox.cif.g09.slc.cpg/sg52_1_cif.got.tgz:1234.got - 2010.06.26 19:32:48.
