data_PCOD8216968
_publ_section_title
;
Structure prediction by ZEFSAII (Michael W. Deem and Ramdas Pophale) SiO2 
 PCOD8216968
Probable space group: P N N A
;
_chemical_formula_sum "Si O2"
_cell_formula_units_Z 60
_cell_length_a 25.132041
_cell_length_b 9.268150
_cell_length_c 11.860460
_cell_angle_alpha 90.000000
_cell_angle_beta 90.000000
_cell_angle_gamma 90.000000
_cell_volume 2762.627603
_symmetry_space_group_name_H-M "P N N A"
_symmetry_group_IT_number 52
_symmetry_cell_setting 'orthorhombic'
loop_
_space_group_symop_operation_xyz
x,y,z
1/2-x,-y,z
x,1/2-y,1/2-z
1/2-x,1/2+y,1/2-z
-x,-y,-z
1/2+x,y,-z
-x,1/2+y,1/2+z
1/2+x,1/2-y,1/2+z
loop_
_atom_site_type_symbol
_atom_site_label
_atom_site_fract_x
_atom_site_fract_y
_atom_site_fract_z
Si Si1 0.596916 0.050999 0.003332
Si Si2 0.247840 0.829468 0.640822
Si Si3 0.047742 0.081052 0.229051
Si Si4 0.849397 0.471602 0.853980
Si Si5 0.683982 0.688593 0.555712
Si Si6 0.554834 0.414719 0.251109
Si Si7 0.860547 0.652452 0.066278
Si Si8 0.250000 0.500000 0.293331
O O1 0.573428 0.024321 0.127464
O O2 0.612899 0.218408 0.996858
O O3 0.553439 0.035971 0.903044
O O4 0.646090 0.942208 0.983245
O O5 0.225260 0.750000 0.750000
O O6 0.207340 0.782233 0.544942
O O7 0.308209 0.777218 0.621328
O O8 0.250000 0.000000 0.657776
O O9 0.045269 0.250000 0.250000
O O10 0.096546 0.014397 0.295522
O O11 0.994551 0.014106 0.283822
O O12 0.847802 0.297706 0.862417
O O13 0.800614 0.539844 0.783581
O O14 0.844685 0.528701 0.980355
O O15 0.734577 0.632759 0.626255
O O16 0.534767 0.250000 0.250000
O O17 0.602672 0.422980 0.161225
#
# Coordination Sequence:
#
# PCOD8216968 Si02
#       8
#     8   8   8   8   8   8   8   4
#     4  11  24  46  73 105 138 185 241 297 361 427
#     4  12  27  45  71 105 144 188 241 290 357 432
#     4  12  26  46  71 107 143 185 239 309 362 428
#     4  12  26  46  69 105 146 184 241 294 362 432
#     4  12  27  44  72 105 144 191 234 296 355 443
#     4  10  26  47  75 100 138 190 243 296 360 425
#     4  11  24  49  70 101 146 190 233 300 356 429
#     4  12  26  42  70 106 146 186 236 290 366 438
#
# _framework density 21.718454000000001
#
# number of rings (size 3 to 8) (size 9 to 14) (size 15 to 20)
#    0.000    0.533    4.000    3.600    6.533    3.733 
#    0.000    0.000    0.000    0.000    0.000    0.000 
#    0.000    0.000    0.000    0.000    0.000    0.000 
#
# Total GULP energy -743966.626434 kJ/mol
# GULP energy per Si atom -12399.443774 kJ/mol
# Density = 2.166902 g / cm^3
# Si number density = 21.718454 Si / 1000 Ang^3
#
#
#
# Elastic Constant Matrix: (Units=GPa)
#
#
# Indices 1 2 3 4 5 6 
#
# 1 118.5686 51.2235 43.3176 0.0000 0.0000 0.0000
# 2 51.2235 116.8066 66.8610 0.0000 0.0000 0.0000
# 3 43.3176 66.8610 118.9032 0.0000 0.0000 0.0000
# 4 0.0000 0.0000 0.0000 23.5891 0.0000 0.0000
# 5 0.0000 0.0000 0.0000 0.0000 -393.1256 0.0000
# 6 0.0000 0.0000 0.0000 0.0000 0.0000 38.3833
#
#
#
# Elastic Compliance Matrix: (Units=1/GPa)
#
#
# Indices 1 2 3 4 5 6 
#
# 1 0.010675 -0.003621 -0.001853 0.000000 0.000000 0.000000
# 2 -0.003621 0.013853 -0.006471 0.000000 0.000000 0.000000
# 3 -0.001853 -0.006471 0.012724 0.000000 0.000000 0.000000
# 4 0.000000 0.000000 0.000000 0.042392 0.000000 0.000000
# 5 0.000000 0.000000 0.000000 0.000000 -0.002544 0.000000
# 6 0.000000 0.000000 0.000000 0.000000 0.000000 0.026053
#
#
# Mechanical properties :
#
#
# Convention : Reuss Voigt Hill
#
# Bulk Modulus (GPa) = 74.83338 75.23140 75.03239
# Shear Modulus (GPa) = 38.02388 -53.37222 -7.67417
#
# Velocity S-wave (km/s) = 4.18875 -4.96266 -1.88179
# Velocity P-wave (km/s) = 7.61086 1.37016 5.46820
#
# Compressibility (1/GPa) = 0.01336302
#
# Stress axis : x y z
#
# Youngs Moduli (GPa) = 93.67565 72.18797 78.59295
#
# Poissons Ratio (x) = 0.26137 0.14564
# Poissons Ratio (y) = 0.33917 0.50854
# Poissons Ratio (z) = 0.17359 0.46710
#
# Static dielectric constant tensor:
#      x y z
#    x 3.940660 0.000000 0.000000 
#    y 0.000000 3.960790 0.000000 
#    z 0.000000 0.000000 4.143660 
# 
# 
# High freq. dielectric constant tensor:
#      x y z
#    x 1.851620 0.000000 0.000000 
#    y 0.000000 1.858930 0.000000 
#    z 0.000000 0.000000 1.870910 
# 
# From -- ./inp_files/22912.got.cif
#   From: 2010.06.25/outbox.cif.g09.slc.cpg/sg52_12_cif.got.tgz:22912.got - 2010.06.26 19:32:48.
