data_PCOD8216441
_publ_section_title
;
Structure prediction by ZEFSAII (Michael W. Deem and Ramdas Pophale) SiO2 
 PCOD8216441
Probable space group: P N N A
;
_chemical_formula_sum "Si O2"
_cell_formula_units_Z 48
_cell_length_a 9.026125
_cell_length_b 25.448489
_cell_length_c 9.781853
_cell_angle_alpha 90.000000
_cell_angle_beta 90.000000
_cell_angle_gamma 90.000000
_cell_volume 2246.903791
_symmetry_space_group_name_H-M "P N N A"
_symmetry_group_IT_number 52
_symmetry_cell_setting 'orthorhombic'
loop_
_space_group_symop_operation_xyz
x,y,z
1/2-x,-y,z
x,1/2-y,1/2-z
1/2-x,1/2+y,1/2-z
-x,-y,-z
1/2+x,y,-z
-x,1/2+y,1/2+z
1/2+x,1/2-y,1/2+z
loop_
_atom_site_type_symbol
_atom_site_label
_atom_site_fract_x
_atom_site_fract_y
_atom_site_fract_z
Si Si1 0.848419 0.833561 0.892982
Si Si2 0.471778 0.664384 0.103071
Si Si3 0.001828 0.071230 0.596613
Si Si4 0.235070 0.729845 0.998532
Si Si5 0.567443 0.250000 0.250000
Si Si6 0.961755 0.144351 0.838054
Si Si7 0.750000 0.500000 0.984959
O O1 0.967635 0.837282 0.768466
O O2 0.708129 0.872503 0.871585
O O3 0.755770 0.777901 0.895264
O O4 0.939884 0.850141 0.026058
O O5 0.568710 0.714857 0.049277
O O6 0.520370 0.609614 0.035400
O O7 0.303915 0.675852 0.055760
O O8 0.030686 0.100710 0.738835
O O9 0.852420 0.036900 0.609630
O O10 0.144721 0.034789 0.580697
O O11 0.323947 0.753406 0.874707
O O12 0.465136 0.198229 0.251619
#
# Coordination Sequence:
#
# PCOD8216441 Si02
#       7
#     8   8   8   8   4   8   4
#     4  11  26  38  61  95 140 180 223 263 318 403
#     4  12  24  39  65  94 128 182 223 272 332 391
#     4  11  23  44  72  95 129 164 224 291 343 399
#     4  11  23  36  59  90 138 182 226 256 310 384
#     4  10  22  36  58  92 134 176 224 256 308 400
#     4  11  24  43  62  95 137 181 216 277 330 404
#     4  10  24  44  72 104 118 162 234 298 344 394
#
# _framework density 21.362729999999999
#
# number of rings (size 3 to 8) (size 9 to 14) (size 15 to 20)
#    0.000    1.000    1.667    5.500    9.333    0.000 
#    0.000    0.000    0.000   17.000    0.000    0.000 
#    0.000    0.000    0.000    0.000    0.000    0.000 
#
# Total GULP energy -594871.586793 kJ/mol
# GULP energy per Si atom -12393.158058 kJ/mol
# Density = 2.131411 g / cm^3
# Si number density = 21.362730 Si / 1000 Ang^3
#
#
#
# Elastic Constant Matrix: (Units=GPa)
#
#
# Indices 1 2 3 4 5 6 
#
# 1 119.1142 40.5771 44.0578 0.0000 0.0000 0.0000
# 2 40.5771 103.0386 58.0488 0.0000 0.0000 0.0000
# 3 44.0578 58.0488 116.6480 0.0000 0.0000 0.0000
# 4 0.0000 0.0000 0.0000 28.0383 0.0000 0.0000
# 5 0.0000 0.0000 0.0000 0.0000 0.1653 0.0000
# 6 0.0000 0.0000 0.0000 0.0000 0.0000 28.0281
#
#
#
# Elastic Compliance Matrix: (Units=1/GPa)
#
#
# Indices 1 2 3 4 5 6 
#
# 1 0.010227 -0.002572 -0.002582 0.000000 0.000000 0.000000
# 2 -0.002572 0.014133 -0.006062 0.000000 0.000000 0.000000
# 3 -0.002582 -0.006062 0.012565 0.000000 0.000000 0.000000
# 4 0.000000 0.000000 0.000000 0.035665 0.000000 0.000000
# 5 0.000000 0.000000 0.000000 0.000000 6.048916 0.000000
# 6 0.000000 0.000000 0.000000 0.000000 0.000000 0.035679
#
#
# Mechanical properties :
#
#
# Convention : Reuss Voigt Hill
#
# Bulk Modulus (GPa) = 69.00591 69.35201 69.17896
# Shear Modulus (GPa) = 0.80848 24.32082 12.56465
#
# Velocity S-wave (km/s) = 0.61585 3.37778 2.42783
# Velocity P-wave (km/s) = 5.73392 6.90992 6.34921
#
# Compressibility (1/GPa) = 0.01449151
#
# Stress axis : x y z
#
# Youngs Moduli (GPa) = 97.78182 70.75618 79.58821
#
# Poissons Ratio (x) = 0.18202 0.20554
# Poissons Ratio (y) = 0.25154 0.48243
# Poissons Ratio (z) = 0.25252 0.42889
#
# Static dielectric constant tensor:
#      x y z
#    x 3.998720 0.000000 0.000000 
#    y 0.000000 3.624160 0.000000 
#    z 0.000000 0.000000 4.216640 
# 
# 
# High freq. dielectric constant tensor:
#      x y z
#    x 1.859580 0.000000 0.000000 
#    y 0.000000 1.805340 0.000000 
#    z 0.000000 0.000000 1.842120 
# 
# From -- ./inp_files/7732.got.cif
#   From: 2010.06.25/outbox.cif.g09.slc.cpg/sg52_4_cif.got.tgz:7732.got - 2010.06.26 19:32:48.
