data_PCOD8216064
_publ_section_title
;
Structure prediction by ZEFSAII (Michael W. Deem and Ramdas Pophale) SiO2 
 PCOD8216064
Probable space group: P N N A
;
_chemical_formula_sum "Si O2"
_cell_formula_units_Z 64
_cell_length_a 8.975019
_cell_length_b 16.241446
_cell_length_c 25.119085
_cell_angle_alpha 90.000000
_cell_angle_beta 90.000000
_cell_angle_gamma 90.000000
_cell_volume 3661.540858
_symmetry_space_group_name_H-M "P N N A"
_symmetry_group_IT_number 52
_symmetry_cell_setting 'orthorhombic'
loop_
_space_group_symop_operation_xyz
x,y,z
1/2-x,-y,z
x,1/2-y,1/2-z
1/2-x,1/2+y,1/2-z
-x,-y,-z
1/2+x,y,-z
-x,1/2+y,1/2+z
1/2+x,1/2-y,1/2+z
loop_
_atom_site_type_symbol
_atom_site_label
_atom_site_fract_x
_atom_site_fract_y
_atom_site_fract_z
Si Si1 0.660712 0.338316 0.849950
Si Si2 0.851531 0.687897 0.298396
Si Si3 0.477390 0.200880 0.805053
Si Si4 0.504732 0.809206 0.632737
Si Si5 0.368948 0.604179 0.956772
Si Si6 0.971743 0.073546 0.436478
Si Si7 0.630822 0.438379 0.749409
Si Si8 0.108301 0.056120 0.714344
O O1 0.576933 0.250780 0.846703
O O2 0.548149 0.397344 0.881927
O O3 0.700735 0.373735 0.791382
O O4 0.820478 0.323828 0.876177
O O5 0.857288 0.750000 0.250000
O O6 0.689855 0.689153 0.326813
O O7 0.973283 0.718173 0.342205
O O8 0.881557 0.597707 0.273392
O O9 0.468750 0.250000 0.750000
O O10 0.548560 0.110590 0.797422
O O11 0.434991 0.816484 0.573740
O O12 0.417741 0.876076 0.669006
O O13 0.191174 0.609451 0.949604
O O14 0.450377 0.524299 0.931232
O O15 0.410823 0.603213 0.018813
O O16 0.750000 0.500000 0.722843
O O17 0.524892 0.492711 0.785776
O O18 0.250000 0.000000 0.700064
#
# Coordination Sequence:
#
# PCOD8216064 Si02
#       8
#     8   8   8   8   8   8   8   8
#     4  11  22  33  48  71  99 133 164 202 245 295
#     4   9  19  33  47  67  93 129 164 205 241 288
#     4   9  19  33  47  65  97 128 163 202 246 286
#     4  11  22  32  50  70  99 130 169 200 245 293
#     4  10  21  35  52  73  96 130 162 208 242 289
#     4  10  21  35  53  71 100 126 165 204 248 284
#     4  11  21  32  48  72  98 131 166 206 244 288
#     4  11  21  32  50  70  96 130 170 205 241 288
#
# _framework density 17.478978999999999
#
# number of rings (size 3 to 8) (size 9 to 14) (size 15 to 20)
#    0.000    1.750    2.500    2.250    7.000    2.500 
#    0.000    0.000    0.000    0.000    0.000    0.000 
#    0.000    2.000    0.000    0.125    0.000    0.125 
#
# Total GULP energy -793226.751105 kJ/mol
# GULP energy per Si atom -12394.167986 kJ/mol
# Density = 1.743920 g / cm^3
# Si number density = 17.478979 Si / 1000 Ang^3
#
#
#
# Elastic Constant Matrix: (Units=GPa)
#
#
# Indices 1 2 3 4 5 6 
#
# 1 100.5132 13.0744 14.6201 0.0000 0.0000 0.0000
# 2 13.0744 43.7971 13.8365 0.0000 0.0000 0.0000
# 3 14.6201 13.8365 41.2649 0.0000 0.0000 0.0000
# 4 0.0000 0.0000 0.0000 27.1196 0.0000 0.0000
# 5 0.0000 0.0000 0.0000 0.0000 24.9406 0.0000
# 6 0.0000 0.0000 0.0000 0.0000 0.0000 24.5033
#
#
#
# Elastic Compliance Matrix: (Units=1/GPa)
#
#
# Indices 1 2 3 4 5 6 
#
# 1 0.010681 -0.002229 -0.003037 0.000000 0.000000 0.000000
# 2 -0.002229 0.026003 -0.007929 0.000000 0.000000 0.000000
# 3 -0.003037 -0.007929 0.027968 0.000000 0.000000 0.000000
# 4 0.000000 0.000000 0.000000 0.036874 0.000000 0.000000
# 5 0.000000 0.000000 0.000000 0.000000 0.040095 0.000000
# 6 0.000000 0.000000 0.000000 0.000000 0.000000 0.040811
#
#
# Mechanical properties :
#
#
# Convention : Reuss Voigt Hill
#
# Bulk Modulus (GPa) = 26.13570 29.84860 27.99215
# Shear Modulus (GPa) = 22.56562 24.91563 23.74063
#
# Velocity S-wave (km/s) = 3.59697 3.77963 3.68943
# Velocity P-wave (km/s) = 5.67768 6.01343 5.84796
#
# Compressibility (1/GPa) = 0.03826184
#
# Stress axis : x y z
#
# Youngs Moduli (GPa) = 93.62774 38.45702 35.75468
#
# Poissons Ratio (x) = 0.08572 0.10858
# Poissons Ratio (y) = 0.20870 0.28351
# Poissons Ratio (z) = 0.28432 0.30494
#
# Static dielectric constant tensor:
#      x y z
#    x 3.258030 0.000000 0.000000 
#    y 0.000000 3.233870 0.000000 
#    z 0.000000 0.000000 2.969810 
# 
# 
# High freq. dielectric constant tensor:
#      x y z
#    x 1.696980 0.000000 0.000000 
#    y 0.000000 1.649750 0.000000 
#    z 0.000000 0.000000 1.630020 
# 
# From -- ./inp_files/39663.got.cif
#   From: 2010.06.25/outbox.cif.g09.slc.cpg/sg52_20_cif.got.tgz:39663.got - 2010.06.26 19:32:48.
