data_PCOD8216295
_publ_section_title
;
Structure prediction by ZEFSAII (Michael W. Deem and Ramdas Pophale) SiO2 
 PCOD8216295
Probable space group: P N N A
;
_chemical_formula_sum "Si O2"
_cell_formula_units_Z 64
_cell_length_a 15.342190
_cell_length_b 21.686017
_cell_length_c 8.864328
_cell_angle_alpha 90.000000
_cell_angle_beta 90.000000
_cell_angle_gamma 90.000000
_cell_volume 2949.259373
_symmetry_space_group_name_H-M "P N N A"
_symmetry_group_IT_number 52
_symmetry_cell_setting 'orthorhombic'
loop_
_space_group_symop_operation_xyz
x,y,z
1/2-x,-y,z
x,1/2-y,1/2-z
1/2-x,1/2+y,1/2-z
-x,-y,-z
1/2+x,y,-z
-x,1/2+y,1/2+z
1/2+x,1/2-y,1/2+z
loop_
_atom_site_type_symbol
_atom_site_label
_atom_site_fract_x
_atom_site_fract_y
_atom_site_fract_z
Si Si1 0.760187 0.266177 0.992562
Si Si2 0.951051 0.254133 0.420497
Si Si3 0.982395 0.631996 0.414921
Si Si4 0.239298 0.343760 0.290354
Si Si5 0.916516 0.578388 0.704106
Si Si6 0.487536 0.071134 0.519249
Si Si7 0.585822 0.324919 0.113951
Si Si8 0.622537 0.560153 0.758112
O O1 0.781125 0.303621 0.841286
O O2 0.734098 0.196342 0.944211
O O3 0.850044 0.266889 0.085450
O O4 0.681785 0.297163 0.086859
O O5 0.988083 0.250000 0.250000
O O6 0.957273 0.323451 0.483733
O O7 0.008533 0.211511 0.529163
O O8 0.925077 0.589355 0.525750
O O9 0.927371 0.674282 0.296492
O O10 0.037211 0.580986 0.329700
O O11 0.143830 0.365218 0.238927
O O12 0.294969 0.405983 0.313764
O O13 0.868758 0.513364 0.738894
O O14 0.007435 0.585156 0.799912
O O15 0.571760 0.105143 0.443957
O O16 0.395306 0.083549 0.433038
O O17 0.500000 0.000000 0.500000
#
# Coordination Sequence:
#
# PCOD8216295 Si02
#       8
#     8   8   8   8   8   8   8   8
#     4  11  24  41  64  94 134 170 217 273 333 393
#     4  12  26  41  65  94 131 172 218 275 334 401
#     4  11  23  41  64  93 130 169 219 269 334 393
#     4  11  22  38  63  95 127 167 217 269 326 394
#     4  11  21  38  66  97 125 171 219 269 322 400
#     4   9  19  37  63  93 125 160 214 263 317 388
#     4  11  23  42  66  94 130 174 216 273 337 393
#     4  10  21  40  64  93 130 171 214 271 331 389
#
# _framework density 21.700364
#
# number of rings (size 3 to 8) (size 9 to 14) (size 15 to 20)
#    0.000    1.250    2.500    4.125    3.500    2.000 
#    0.000    0.000    0.000    0.000    0.000    0.000 
#    0.000    0.000    0.000    0.000    0.000    0.000 
#
# Total GULP energy -792944.788438 kJ/mol
# GULP energy per Si atom -12389.762319 kJ/mol
# Density = 2.165097 g / cm^3
# Si number density = 21.700364 Si / 1000 Ang^3
#
#
#
# Elastic Constant Matrix: (Units=GPa)
#
#
# Indices 1 2 3 4 5 6 
#
# 1 81.7871 31.8642 23.7901 0.0000 0.0000 0.0000
# 2 31.8642 100.6002 36.4650 0.0000 0.0000 0.0000
# 3 23.7901 36.4650 126.7874 0.0000 0.0000 0.0000
# 4 0.0000 0.0000 0.0000 33.6065 0.0000 0.0000
# 5 0.0000 0.0000 0.0000 0.0000 25.9134 0.0000
# 6 0.0000 0.0000 0.0000 0.0000 0.0000 33.8395
#
#
#
# Elastic Compliance Matrix: (Units=1/GPa)
#
#
# Indices 1 2 3 4 5 6 
#
# 1 0.014210 -0.003946 -0.001531 0.000000 0.000000 0.000000
# 2 -0.003946 0.012193 -0.002766 0.000000 0.000000 0.000000
# 3 -0.001531 -0.002766 0.008970 0.000000 0.000000 0.000000
# 4 0.000000 0.000000 0.000000 0.029756 0.000000 0.000000
# 5 0.000000 0.000000 0.000000 0.000000 0.038590 0.000000
# 6 0.000000 0.000000 0.000000 0.000000 0.000000 0.029551
#
#
# Mechanical properties :
#
#
# Convention : Reuss Voigt Hill
#
# Bulk Modulus (GPa) = 52.95032 54.82369 53.88701
# Shear Modulus (GPa) = 32.04052 33.14221 32.59137
#
# Velocity S-wave (km/s) = 3.84669 3.91226 3.87962
# Velocity P-wave (km/s) = 6.64703 6.76214 6.70483
#
# Compressibility (1/GPa) = 0.01888563
#
# Stress axis : x y z
#
# Youngs Moduli (GPa) = 70.37515 82.01537 111.48001
#
# Poissons Ratio (x) = 0.32360 0.17073
# Poissons Ratio (y) = 0.27768 0.30840
# Poissons Ratio (z) = 0.10778 0.22689
#
# Static dielectric constant tensor:
#      x y z
#    x 3.756110 0.000000 0.000000 
#    y 0.000000 4.117160 0.000000 
#    z 0.000000 0.000000 4.424740 
# 
# 
# High freq. dielectric constant tensor:
#      x y z
#    x 1.825150 0.000000 0.000000 
#    y 0.000000 1.870590 0.000000 
#    z 0.000000 0.000000 1.853700 
# 
# From -- ./inp_files/11009.got.cif
#   From: 2010.06.25/outbox.cif.g09.slc.cpg/sg52_6_cif.got.tgz:11009.got - 2010.06.26 19:32:48.
