data_PCOD8216372
_publ_section_title
;
Structure prediction by ZEFSAII (Michael W. Deem and Ramdas Pophale) SiO2 
 PCOD8216372
Probable space group: P N N A
;
_chemical_formula_sum "Si O2"
_cell_formula_units_Z 32
_cell_length_a 5.273664
_cell_length_b 37.365392
_cell_length_c 6.976528
_cell_angle_alpha 90.000000
_cell_angle_beta 90.000000
_cell_angle_gamma 90.000000
_cell_volume 1374.742442
_symmetry_space_group_name_H-M "P N N A"
_symmetry_group_IT_number 52
_symmetry_cell_setting 'orthorhombic'
loop_
_space_group_symop_operation_xyz
x,y,z
1/2-x,-y,z
x,1/2-y,1/2-z
1/2-x,1/2+y,1/2-z
-x,-y,-z
1/2+x,y,-z
-x,1/2+y,1/2+z
1/2+x,1/2-y,1/2+z
loop_
_atom_site_type_symbol
_atom_site_label
_atom_site_fract_x
_atom_site_fract_y
_atom_site_fract_z
Si Si1 0.316629 0.178274 0.206449
Si Si2 0.682826 0.708346 0.276896
Si Si3 0.236244 0.106298 0.380351
Si Si4 0.233979 0.040598 0.120053
O O1 0.084572 0.197475 0.320292
O O2 0.274063 0.135459 0.210010
O O3 0.578195 0.187839 0.317938
O O4 0.351933 0.194674 0.995452
O O5 0.731770 0.750000 0.250000
O O6 0.454615 0.111861 0.537494
O O7 0.267103 0.066513 0.299474
O O8 0.250000 0.000000 0.196850
O O9 0.459943 0.048136 0.971408
#
# Coordination Sequence:
#
# PCOD8216372 Si02
#       4
#     8   8   8   8
#     4  10  23  41  63  93 126 168 219 282 335 404
#     4  10  21  42  66  90 117 166 225 279 346 396
#     4  12  26  44  66 102 143 186 225 277 341 412
#     4  10  23  43  73 106 138 181 232 282 334 398
#
# _framework density 23.277087000000002
#
# number of rings (size 3 to 8) (size 9 to 14) (size 15 to 20)
#    0.000    1.500    0.000    3.750    7.000    1.000 
#   27.000    0.000    0.000    0.000    0.000    0.000 
#    0.000    0.000    0.000    0.000    0.000    0.000 
#
# Total GULP energy -396641.165921 kJ/mol
# GULP energy per Si atom -12395.036435 kJ/mol
# Density = 2.322411 g / cm^3
# Si number density = 23.277087 Si / 1000 Ang^3
#
#
#
# Elastic Constant Matrix: (Units=GPa)
#
#
# Indices 1 2 3 4 5 6 
#
# 1 179.9543 18.0576 -19.4264 0.0000 0.0000 0.0000
# 2 18.0576 128.1089 30.5624 0.0000 0.0000 0.0000
# 3 -19.4264 30.5624 53.3344 0.0000 0.0000 0.0000
# 4 0.0000 0.0000 0.0000 22.8411 0.0000 0.0000
# 5 0.0000 0.0000 0.0000 0.0000 5.0385 0.0000
# 6 0.0000 0.0000 0.0000 0.0000 0.0000 37.6536
#
#
#
# Elastic Compliance Matrix: (Units=1/GPa)
#
#
# Indices 1 2 3 4 5 6 
#
# 1 0.006054 -0.001598 0.003121 0.000000 0.000000 0.000000
# 2 -0.001598 0.009464 -0.006005 0.000000 0.000000 0.000000
# 3 0.003121 -0.006005 0.023327 0.000000 0.000000 0.000000
# 4 0.000000 0.000000 0.000000 0.043781 0.000000 0.000000
# 5 0.000000 0.000000 0.000000 0.000000 0.198472 0.000000
# 6 0.000000 0.000000 0.000000 0.000000 0.000000 0.026558
#
#
# Mechanical properties :
#
#
# Convention : Reuss Voigt Hill
#
# Bulk Modulus (GPa) = 33.46595 46.64274 40.05434
# Shear Modulus (GPa) = 15.31018 35.25358 25.28188
#
# Velocity S-wave (km/s) = 2.56742 3.89590 3.29922
# Velocity P-wave (km/s) = 4.81635 6.34972 5.63543
#
# Compressibility (1/GPa) = 0.02988112
#
# Stress axis : x y z
#
# Youngs Moduli (GPa) = 165.17442 105.66722 42.86805
#
# Poissons Ratio (x) = 0.16884 -0.13378
# Poissons Ratio (y) = 0.26393 0.25742
# Poissons Ratio (z) = -0.51548 0.63453
#
# Static dielectric constant tensor:
#      x y z
#    x 5.764310 0.000000 0.000000 
#    y 0.000000 4.258900 0.000000 
#    z 0.000000 0.000000 3.757480 
# 
# 
# High freq. dielectric constant tensor:
#      x y z
#    x 1.965170 0.000000 0.000000 
#    y 0.000000 1.927530 0.000000 
#    z 0.000000 0.000000 1.889080 
# 
# From -- ./inp_files/6725.got.cif
#   From: 2010.06.25/outbox.cif.g09.slc.cpg/sg52_4_cif.got.tgz:6725.got - 2010.06.26 19:32:48.
