data_PCOD8216684
_publ_section_title
;
Structure prediction by ZEFSAII (Michael W. Deem and Ramdas Pophale) SiO2 
 PCOD8216684
Probable space group: P N N A
;
_chemical_formula_sum "Si O2"
_cell_formula_units_Z 60
_cell_length_a 18.503069
_cell_length_b 8.908551
_cell_length_c 16.783598
_cell_angle_alpha 90.000000
_cell_angle_beta 90.000000
_cell_angle_gamma 90.000000
_cell_volume 2766.533336
_symmetry_space_group_name_H-M "P N N A"
_symmetry_group_IT_number 52
_symmetry_cell_setting 'orthorhombic'
loop_
_space_group_symop_operation_xyz
x,y,z
1/2-x,-y,z
x,1/2-y,1/2-z
1/2-x,1/2+y,1/2-z
-x,-y,-z
1/2+x,y,-z
-x,1/2+y,1/2+z
1/2+x,1/2-y,1/2+z
loop_
_atom_site_type_symbol
_atom_site_label
_atom_site_fract_x
_atom_site_fract_y
_atom_site_fract_z
Si Si1 0.548836 0.808542 0.393902
Si Si2 0.465377 0.172163 0.057545
Si Si3 0.437298 0.993619 0.841347
Si Si4 0.699583 0.854330 0.914467
Si Si5 0.476602 0.422026 0.188358
Si Si6 0.653220 0.750000 0.750000
Si Si7 0.290752 0.858912 0.819079
Si Si8 0.708545 0.653512 0.060706
O O1 0.513486 0.746886 0.474666
O O2 0.565142 0.674043 0.331317
O O3 0.625242 0.884588 0.417805
O O4 0.489390 0.920535 0.356767
O O5 0.515116 0.029765 0.078454
O O6 0.383422 0.112322 0.062583
O O7 0.488646 0.288873 0.126526
O O8 0.467151 0.916720 0.761221
O O9 0.360495 0.923170 0.863747
O O10 0.704724 0.799686 0.822802
O O11 0.750000 0.000000 0.927874
O O12 0.722103 0.716549 0.971686
O O13 0.396232 0.395075 0.224987
O O14 0.316413 0.750000 0.750000
O O15 0.237796 0.780135 0.880621
O O16 0.250000 0.000000 0.778981
O O17 0.750000 0.500000 0.071154
#
# Coordination Sequence:
#
# PCOD8216684 Si02
#       8
#     8   8   8   8   8   4   8   8
#     4  11  25  40  67  98 137 172 230 277 334 406
#     4  10  22  44  67  98 129 178 221 274 342 408
#     4  12  23  42  68  98 134 177 221 282 343 403
#     4  10  22  45  74  96 135 176 224 289 344 414
#     4  11  21  42  67  96 133 175 219 285 334 401
#     4  10  22  46  74 100 138 172 234 288 360 408
#     4  12  26  42  65  94 138 185 230 277 337 408
#     4  11  26  44  64  98 138 183 229 279 339 409
#
# _framework density 21.687791000000001
#
# number of rings (size 3 to 8) (size 9 to 14) (size 15 to 20)
#    0.000    1.067    4.000    2.800    7.467    0.533 
#    0.000    1.333    0.000    0.000    0.000    0.000 
#    0.000    0.000    0.000    0.000    0.000    0.000 
#
# Total GULP energy -743753.028899 kJ/mol
# GULP energy per Si atom -12395.883815 kJ/mol
# Density = 2.163843 g / cm^3
# Si number density = 21.687791 Si / 1000 Ang^3
#
#
#
# Elastic Constant Matrix: (Units=GPa)
#
#
# Indices 1 2 3 4 5 6 
#
# 1 75.0510 55.5499 31.2090 0.0000 0.0000 0.0000
# 2 55.5499 130.4909 39.5487 0.0000 0.0000 0.0000
# 3 31.2090 39.5487 98.0267 0.0000 0.0000 0.0000
# 4 0.0000 0.0000 0.0000 25.6676 0.0000 0.0000
# 5 0.0000 0.0000 0.0000 0.0000 6.9842 0.0000
# 6 0.0000 0.0000 0.0000 0.0000 0.0000 37.0439
#
#
#
# Elastic Compliance Matrix: (Units=1/GPa)
#
#
# Indices 1 2 3 4 5 6 
#
# 1 0.020407 -0.007654 -0.003409 0.000000 0.000000 0.000000
# 2 -0.007654 0.011602 -0.002244 0.000000 0.000000 0.000000
# 3 -0.003409 -0.002244 0.012192 0.000000 0.000000 0.000000
# 4 0.000000 0.000000 0.000000 0.038960 0.000000 0.000000
# 5 0.000000 0.000000 0.000000 0.000000 0.143181 0.000000
# 6 0.000000 0.000000 0.000000 0.000000 0.000000 0.026995
#
#
# Mechanical properties :
#
#
# Convention : Reuss Voigt Hill
#
# Bulk Modulus (GPa) = 56.86069 61.79821 59.32945
# Shear Modulus (GPa) = 17.49398 25.75653 21.62526
#
# Velocity S-wave (km/s) = 2.84320 3.44990 3.16114
# Velocity P-wave (km/s) = 6.08713 6.66524 6.38273
#
# Compressibility (1/GPa) = 0.01758684
#
# Stress axis : x y z
#
# Youngs Moduli (GPa) = 49.00243 86.19357 82.02151
#
# Poissons Ratio (x) = 0.65974 0.27961
# Poissons Ratio (y) = 0.37507 0.18405
# Poissons Ratio (z) = 0.16705 0.19341
#
# Static dielectric constant tensor:
#      x y z
#    x 3.744510 0.000000 0.000000 
#    y 0.000000 3.644370 0.000000 
#    z 0.000000 0.000000 4.146520 
# 
# 
# High freq. dielectric constant tensor:
#      x y z
#    x 1.835090 0.000000 0.000000 
#    y 0.000000 1.855440 0.000000 
#    z 0.000000 0.000000 1.869530 
# 
# From -- ./inp_files/33782.got.cif
#   From: 2010.06.25/outbox.cif.g09.slc.cpg/sg52_17_cif.got.tgz:33782.got - 2010.06.26 19:32:48.
