data_PCOD8216465
_publ_section_title
;
Structure prediction by ZEFSAII (Michael W. Deem and Ramdas Pophale) SiO2 
 PCOD8216465
Probable space group: P N N A
;
_chemical_formula_sum "Si O2"
_cell_formula_units_Z 60
_cell_length_a 24.095310
_cell_length_b 10.362410
_cell_length_c 11.701758
_cell_angle_alpha 90.000000
_cell_angle_beta 90.000000
_cell_angle_gamma 90.000000
_cell_volume 2921.759078
_symmetry_space_group_name_H-M "P N N A"
_symmetry_group_IT_number 52
_symmetry_cell_setting 'orthorhombic'
loop_
_space_group_symop_operation_xyz
x,y,z
1/2-x,-y,z
x,1/2-y,1/2-z
1/2-x,1/2+y,1/2-z
-x,-y,-z
1/2+x,y,-z
-x,1/2+y,1/2+z
1/2+x,1/2-y,1/2+z
loop_
_atom_site_type_symbol
_atom_site_label
_atom_site_fract_x
_atom_site_fract_y
_atom_site_fract_z
Si Si1 0.095396 0.550474 0.274912
Si Si2 0.430913 0.896384 0.442646
Si Si3 0.602341 0.127294 0.982004
Si Si4 0.784630 0.128966 0.820389
Si Si5 0.694894 0.564244 0.426788
Si Si6 0.479768 0.628034 0.680985
Si Si7 0.046957 0.578292 0.856005
Si Si8 0.135664 0.750000 0.750000
O O1 0.088346 0.504002 0.145953
O O2 0.094281 0.427791 0.356903
O O3 0.153012 0.623957 0.275658
O O4 0.046674 0.645638 0.320004
O O5 0.387027 0.779124 0.456491
O O6 0.492887 0.847647 0.406121
O O7 0.433513 0.963097 0.564205
O O8 0.545669 0.121931 0.054829
O O9 0.651969 0.052189 0.045542
O O10 0.757441 0.250000 0.750000
O O11 0.750000 0.000000 0.790253
O O12 0.788097 0.144741 0.958565
O O13 0.750000 0.500000 0.375507
O O14 0.672858 0.655874 0.326806
O O15 0.454063 0.750000 0.750000
O O16 0.467229 0.489148 0.736143
O O17 0.097062 0.676964 0.840673
#
# Coordination Sequence:
#
# PCOD8216465 Si02
#       8
#     8   8   8   8   8   8   8   4
#     4  10  23  35  59  96 125 165 208 254 317 378
#     4  10  22  38  58  96 133 164 212 261 308 390
#     4  11  21  39  64  89 127 169 208 256 325 377
#     4  10  23  44  69  92 127 169 214 271 326 382
#     4  10  25  47  66  95 123 165 222 273 317 381
#     4  11  20  37  57  89 127 164 211 251 311 379
#     4  10  23  38  59  91 130 170 204 261 317 384
#     4  12  24  44  70  90 132 172 214 268 332 390
#
# _framework density 20.535575000000001
#
# number of rings (size 3 to 8) (size 9 to 14) (size 15 to 20)
#    0.000    1.600    2.667    1.200    5.600    5.333 
#    3.600    0.667    0.000    0.000    0.000    0.000 
#    0.000    0.000    0.000    0.000    0.000    0.000 
#
# Total GULP energy -743713.345219 kJ/mol
# GULP energy per Si atom -12395.222420 kJ/mol
# Density = 2.048883 g / cm^3
# Si number density = 20.535575 Si / 1000 Ang^3
#
#
#
# Elastic Constant Matrix: (Units=GPa)
#
#
# Indices 1 2 3 4 5 6 
#
# 1 97.8046 35.5657 28.5771 0.0000 0.0000 0.0000
# 2 35.5657 95.3459 25.9833 0.0000 0.0000 0.0000
# 3 28.5771 25.9833 63.6988 0.0000 0.0000 0.0000
# 4 0.0000 0.0000 0.0000 21.4171 0.0000 0.0000
# 5 0.0000 0.0000 0.0000 0.0000 66.3938 0.0000
# 6 0.0000 0.0000 0.0000 0.0000 0.0000 19.8956
#
#
#
# Elastic Compliance Matrix: (Units=1/GPa)
#
#
# Indices 1 2 3 4 5 6 
#
# 1 0.012781 -0.003606 -0.004263 0.000000 0.000000 0.000000
# 2 -0.003606 0.012817 -0.003611 0.000000 0.000000 0.000000
# 3 -0.004263 -0.003611 0.019084 0.000000 0.000000 0.000000
# 4 0.000000 0.000000 0.000000 0.046692 0.000000 0.000000
# 5 0.000000 0.000000 0.000000 0.000000 0.015062 0.000000
# 6 0.000000 0.000000 0.000000 0.000000 0.000000 0.050262
#
#
# Mechanical properties :
#
#
# Convention : Reuss Voigt Hill
#
# Bulk Modulus (GPa) = 46.03308 48.56683 47.29996
# Shear Modulus (GPa) = 26.75245 32.65618 29.70431
#
# Velocity S-wave (km/s) = 3.61326 3.99209 3.80739
# Velocity P-wave (km/s) = 6.31446 6.70451 6.51241
#
# Compressibility (1/GPa) = 0.02172351
#
# Stress axis : x y z
#
# Youngs Moduli (GPa) = 78.23893 78.02074 52.39923
#
# Poissons Ratio (x) = 0.28133 0.22339
# Poissons Ratio (y) = 0.28212 0.18919
# Poissons Ratio (z) = 0.33355 0.28169
#
# Static dielectric constant tensor:
#      x y z
#    x 3.769080 0.000000 0.000000 
#    y 0.000000 3.679070 0.000000 
#    z 0.000000 0.000000 3.708830 
# 
# 
# High freq. dielectric constant tensor:
#      x y z
#    x 1.789980 0.000000 0.000000 
#    y 0.000000 1.802990 0.000000 
#    z 0.000000 0.000000 1.808560 
# 
# From -- ./inp_files/22884.got.cif
#   From: 2010.06.25/outbox.cif.g09.slc.cpg/sg52_12_cif.got.tgz:22884.got - 2010.06.26 19:32:48.
