data_PCOD8216128
_publ_section_title
;
Structure prediction by ZEFSAII (Michael W. Deem and Ramdas Pophale) SiO2 
 PCOD8216128
Probable space group: P N N A
;
_chemical_formula_sum "Si O2"
_cell_formula_units_Z 60
_cell_length_a 8.986436
_cell_length_b 12.238628
_cell_length_c 27.374900
_cell_angle_alpha 90.000000
_cell_angle_beta 90.000000
_cell_angle_gamma 90.000000
_cell_volume 3010.736595
_symmetry_space_group_name_H-M "P N N A"
_symmetry_group_IT_number 52
_symmetry_cell_setting 'orthorhombic'
loop_
_space_group_symop_operation_xyz
x,y,z
1/2-x,-y,z
x,1/2-y,1/2-z
1/2-x,1/2+y,1/2-z
-x,-y,-z
1/2+x,y,-z
-x,1/2+y,1/2+z
1/2+x,1/2-y,1/2+z
loop_
_atom_site_type_symbol
_atom_site_label
_atom_site_fract_x
_atom_site_fract_y
_atom_site_fract_z
Si Si1 0.933938 0.790648 0.106907
Si Si2 0.750000 0.000000 0.730593
Si Si3 0.423427 0.007541 0.948033
Si Si4 0.603561 0.870606 0.540499
Si Si5 0.085883 0.709047 0.615339
Si Si6 0.577914 0.333309 0.709404
Si Si7 0.937589 0.887321 0.558202
Si Si8 0.126188 0.718100 0.196499
O O1 0.970813 0.915079 0.091421
O O2 0.760153 0.769722 0.112829
O O3 0.998509 0.718972 0.063630
O O4 0.004411 0.752488 0.157632
O O5 0.620894 0.052188 0.764951
O O6 0.830913 0.089350 0.696036
O O7 0.250000 0.000000 0.958087
O O8 0.467446 0.124107 0.925755
O O9 0.500000 0.000000 0.000000
O O10 0.777263 0.837837 0.543039
O O11 0.560615 0.876058 0.483965
O O12 0.578005 0.984215 0.569418
O O13 0.047381 0.656397 0.668000
O O14 0.998861 0.822863 0.605620
O O15 0.516080 0.250000 0.750000
O O16 0.725982 0.285812 0.684157
O O17 0.065239 0.750000 0.250000
#
# Coordination Sequence:
#
# PCOD8216128 Si02
#       8
#     8   4   8   8   8   8   8   8
#     4  11  23  38  58  87 120 156 198 240 300 350
#     4   8  18  38  62  86 116 144 200 244 306 348
#     4  10  24  41  57  85 121 159 200 245 289 349
#     4  10  21  37  60  82 119 150 191 245 288 359
#     4  11  23  38  60  84 122 155 197 245 292 359
#     4   9  20  37  60  85 113 151 194 246 295 356
#     4  10  21  38  57  87 113 153 194 237 300 342
#     4   9  20  37  60  87 115 151 193 248 293 361
#
# _framework density 19.928678999999999
#
# number of rings (size 3 to 8) (size 9 to 14) (size 15 to 20)
#    0.000    2.400    0.000    2.400    3.733    9.600 
#    0.000    0.000    0.000    0.000    0.000    0.000 
#    0.000    0.000    0.000    0.000    0.000    0.000 
#
# Total GULP energy -743886.265823 kJ/mol
# GULP energy per Si atom -12398.104430 kJ/mol
# Density = 1.988332 g / cm^3
# Si number density = 19.928679 Si / 1000 Ang^3
#
#
#
# Elastic Constant Matrix: (Units=GPa)
#
#
# Indices 1 2 3 4 5 6 
#
# 1 93.3653 38.6643 31.4693 0.0000 0.0000 0.0000
# 2 38.6643 99.4795 26.2310 0.0000 0.0000 0.0000
# 3 31.4693 26.2310 80.6040 0.0000 0.0000 0.0000
# 4 0.0000 0.0000 0.0000 21.7328 0.0000 0.0000
# 5 0.0000 0.0000 0.0000 0.0000 32.2876 0.0000
# 6 0.0000 0.0000 0.0000 0.0000 0.0000 25.0697
#
#
#
# Elastic Compliance Matrix: (Units=1/GPa)
#
#
# Indices 1 2 3 4 5 6 
#
# 1 0.013851 -0.004329 -0.003999 0.000000 0.000000 0.000000
# 2 -0.004329 0.012349 -0.002329 0.000000 0.000000 0.000000
# 3 -0.003999 -0.002329 0.014725 0.000000 0.000000 0.000000
# 4 0.000000 0.000000 0.000000 0.046013 0.000000 0.000000
# 5 0.000000 0.000000 0.000000 0.000000 0.030972 0.000000
# 6 0.000000 0.000000 0.000000 0.000000 0.000000 0.039889
#
#
# Mechanical properties :
#
#
# Convention : Reuss Voigt Hill
#
# Bulk Modulus (GPa) = 50.98830 51.79755 51.39293
# Shear Modulus (GPa) = 26.93241 27.62364 27.27803
#
# Velocity S-wave (km/s) = 3.68018 3.72711 3.70372
# Velocity P-wave (km/s) = 6.61054 6.67605 6.64338
#
# Compressibility (1/GPa) = 0.01961234
#
# Stress axis : x y z
#
# Youngs Moduli (GPa) = 72.19576 80.97908 67.90987
#
# Poissons Ratio (x) = 0.35056 0.27157
# Poissons Ratio (y) = 0.31254 0.15813
# Poissons Ratio (z) = 0.28871 0.18857
#
# Static dielectric constant tensor:
#      x y z
#    x 3.500960 0.000000 0.000000 
#    y 0.000000 3.860780 0.000000 
#    z 0.000000 0.000000 3.455940 
# 
# 
# High freq. dielectric constant tensor:
#      x y z
#    x 1.769120 0.000000 0.000000 
#    y 0.000000 1.787200 0.000000 
#    z 0.000000 0.000000 1.773140 
# 
# From -- ./inp_files/44575.got.cif
#   From: 2010.06.25/outbox.cif.g09.slc.cpg/sg52_23_cif.got.tgz:44575.got - 2010.06.26 19:32:48.
