data_PCOD8216479
_publ_section_title
;
Structure prediction by ZEFSAII (Michael W. Deem and Ramdas Pophale) SiO2 
 PCOD8216479
Probable space group: P N N A
;
_chemical_formula_sum "Si O2"
_cell_formula_units_Z 52
_cell_length_a 13.076024
_cell_length_b 21.047196
_cell_length_c 9.111929
_cell_angle_alpha 90.000000
_cell_angle_beta 90.000000
_cell_angle_gamma 90.000000
_cell_volume 2507.727148
_symmetry_space_group_name_H-M "P N N A"
_symmetry_group_IT_number 52
_symmetry_cell_setting 'orthorhombic'
loop_
_space_group_symop_operation_xyz
x,y,z
1/2-x,-y,z
x,1/2-y,1/2-z
1/2-x,1/2+y,1/2-z
-x,-y,-z
1/2+x,y,-z
-x,1/2+y,1/2+z
1/2+x,1/2-y,1/2+z
loop_
_atom_site_type_symbol
_atom_site_label
_atom_site_fract_x
_atom_site_fract_y
_atom_site_fract_z
Si Si1 0.542360 0.679110 0.296448
Si Si2 0.232133 0.178898 0.757925
Si Si3 0.952022 0.445031 0.826261
Si Si4 0.110916 0.750000 0.250000
Si Si5 0.027386 0.147180 0.898382
Si Si6 0.936182 0.914069 0.606239
Si Si7 0.223887 0.642107 0.072304
O O1 0.508852 0.750000 0.250000
O O2 0.660966 0.677528 0.347349
O O3 0.472609 0.649995 0.425851
O O4 0.526888 0.632860 0.157513
O O5 0.189725 0.250000 0.750000
O O6 0.144558 0.141416 0.844805
O O7 0.255211 0.151601 0.598464
O O8 0.939735 0.520031 0.804289
O O9 0.851343 0.416786 0.902505
O O10 0.970787 0.414929 0.666145
O O11 0.047873 0.428254 0.933200
O O12 0.182257 0.706653 0.146450
O O13 0.035067 0.790974 0.150901
O O14 0.831464 0.877864 0.643091
#
# Coordination Sequence:
#
# PCOD8216479 Si02
#       7
#     8   8   8   4   8   8   8
#     4  11  26  41  64 101 136 167 218 276 327 395
#     4  11  22  38  64  90 131 175 213 263 328 391
#     4  10  23  43  65  95 128 176 220 271 319 393
#     4  10  22  38  64  98 134 166 220 268 324 394
#     4  11  23  41  66  93 136 173 214 272 333 385
#     4  11  23  41  67  94 131 171 223 271 323 387
#     4  11  22  40  65  97 129 174 222 266 328 394
#
# _framework density 20.735907999999998
#
# number of rings (size 3 to 8) (size 9 to 14) (size 15 to 20)
#    0.000    1.231    3.846    2.308    5.385    3.077 
#    0.000    0.769    0.000    0.000    0.000    0.000 
#    0.000    0.000    0.000    0.000    0.000    0.000 
#
# Total GULP energy -644838.468599 kJ/mol
# GULP energy per Si atom -12400.739781 kJ/mol
# Density = 2.068871 g / cm^3
# Si number density = 20.735908 Si / 1000 Ang^3
#
#
#
# Elastic Constant Matrix: (Units=GPa)
#
#
# Indices 1 2 3 4 5 6 
#
# 1 104.2270 37.6301 21.8246 0.0000 0.0000 0.0000
# 2 37.6301 121.1307 32.8703 0.0000 0.0000 0.0000
# 3 21.8246 32.8703 90.6728 0.0000 0.0000 0.0000
# 4 0.0000 0.0000 0.0000 27.5957 0.0000 0.0000
# 5 0.0000 0.0000 0.0000 0.0000 -420.5886 0.0000
# 6 0.0000 0.0000 0.0000 0.0000 0.0000 23.5530
#
#
#
# Elastic Compliance Matrix: (Units=1/GPa)
#
#
# Indices 1 2 3 4 5 6 
#
# 1 0.011003 -0.002994 -0.001563 0.000000 0.000000 0.000000
# 2 -0.002994 0.009971 -0.002894 0.000000 0.000000 0.000000
# 3 -0.001563 -0.002894 0.012454 0.000000 0.000000 0.000000
# 4 0.000000 0.000000 0.000000 0.036238 0.000000 0.000000
# 5 0.000000 0.000000 0.000000 0.000000 -0.002378 0.000000
# 6 0.000000 0.000000 0.000000 0.000000 0.000000 0.042457
#
#
# Mechanical properties :
#
#
# Convention : Reuss Voigt Hill
#
# Bulk Modulus (GPa) = 53.97866 55.63115 54.80491
# Shear Modulus (GPa) = 38.21990 -58.97428 -10.37719
#
# Velocity S-wave (km/s) = 4.29788 -5.33876 -2.23949
# Velocity P-wave (km/s) = 7.12159 3.33415 4.44975
#
# Compressibility (1/GPa) = 0.01852584
#
# Stress axis : x y z
#
# Youngs Moduli (GPa) = 90.88730 100.29133 80.29557
#
# Poissons Ratio (x) = 0.30026 0.12550
# Poissons Ratio (y) = 0.27211 0.23238
# Poissons Ratio (z) = 0.14205 0.29024
#
# Static dielectric constant tensor:
#      x y z
#    x 3.871650 0.000000 0.000000 
#    y 0.000000 3.717790 0.000000 
#    z 0.000000 0.000000 3.565330 
# 
# 
# High freq. dielectric constant tensor:
#      x y z
#    x 1.820920 0.000000 0.000000 
#    y 0.000000 1.806960 0.000000 
#    z 0.000000 0.000000 1.798230 
# 
# From -- ./inp_files/10730.got.cif
#   From: 2010.06.25/outbox.cif.g09.slc.cpg/sg52_6_cif.got.tgz:10730.got - 2010.06.26 19:32:48.
