data_PCOD8216097
_publ_section_title
;
Structure prediction by ZEFSAII (Michael W. Deem and Ramdas Pophale) SiO2 
 PCOD8216097
Probable space group: P N N A
;
_chemical_formula_sum "Si O2"
_cell_formula_units_Z 32
_cell_length_a 16.789557
_cell_length_b 4.923484
_cell_length_c 19.182842
_cell_angle_alpha 90.000000
_cell_angle_beta 90.000000
_cell_angle_gamma 90.000000
_cell_volume 1585.713479
_symmetry_space_group_name_H-M "P N N A"
_symmetry_group_IT_number 52
_symmetry_cell_setting 'orthorhombic'
loop_
_space_group_symop_operation_xyz
x,y,z
1/2-x,-y,z
x,1/2-y,1/2-z
1/2-x,1/2+y,1/2-z
-x,-y,-z
1/2+x,y,-z
-x,1/2+y,1/2+z
1/2+x,1/2-y,1/2+z
loop_
_atom_site_type_symbol
_atom_site_label
_atom_site_fract_x
_atom_site_fract_y
_atom_site_fract_z
Si Si1 0.391225 0.484641 0.202721
Si Si2 0.250000 0.500000 0.096551
Si Si3 0.250000 0.000000 0.998057
Si Si4 0.005172 0.265503 0.906767
Si Si5 0.909869 0.263703 0.453974
O O1 0.354309 0.250000 0.250000
O O2 0.327728 0.521871 0.142903
O O3 0.471618 0.366233 0.167325
O O4 0.408017 0.750000 0.250000
O O5 0.269168 0.752060 0.047853
O O6 0.177504 0.896705 0.949376
O O7 0.081005 0.459392 0.924150
O O8 0.034108 0.954191 0.905774
O O9 0.936252 0.265812 0.965497
#
# Coordination Sequence:
#
# PCOD8216097 Si02
#       5
#     8   4   4   8   8
#     4  12  24  39  57  82 119 165 200 231 278 347
#     4  12  24  37  54  86 126 157 198 224 276 364
#     4  12  22  37  60  90 116 159 182 242 304 362
#     4  10  21  38  56  85 111 154 194 246 283 344
#     4  10  21  36  60  82 117 145 194 242 303 343
#
# _framework density 20.180191000000001
#
# number of rings (size 3 to 8) (size 9 to 14) (size 15 to 20)
#    0.000    1.000    2.500    5.250    7.000    0.000 
#    0.000    0.000    0.000    0.000    0.000   17.500 
#    0.000    0.000    0.000    0.000    0.000    0.000 
#
# Total GULP energy -396459.474796 kJ/mol
# GULP energy per Si atom -12389.358587 kJ/mol
# Density = 2.013426 g / cm^3
# Si number density = 20.180191 Si / 1000 Ang^3
#
#
#
# Elastic Constant Matrix: (Units=GPa)
#
#
# Indices 1 2 3 4 5 6 
#
# 1 74.0122 6.8316 17.2367 0.0000 0.0000 0.0000
# 2 6.8316 109.8949 17.7525 0.0000 0.0000 0.0000
# 3 17.2367 17.7525 47.6676 0.0000 0.0000 0.0000
# 4 0.0000 0.0000 0.0000 42.8582 0.0000 0.0000
# 5 0.0000 0.0000 0.0000 0.0000 -4.3190 0.0000
# 6 0.0000 0.0000 0.0000 0.0000 0.0000 36.7528
#
#
#
# Elastic Compliance Matrix: (Units=1/GPa)
#
#
# Indices 1 2 3 4 5 6 
#
# 1 0.014754 -0.000059 -0.005313 0.000000 0.000000 0.000000
# 2 -0.000059 0.009682 -0.003585 0.000000 0.000000 0.000000
# 3 -0.005313 -0.003585 0.024235 0.000000 0.000000 0.000000
# 4 0.000000 0.000000 0.000000 0.023333 0.000000 0.000000
# 5 0.000000 0.000000 0.000000 0.000000 -0.231533 0.000000
# 6 0.000000 0.000000 0.000000 0.000000 0.000000 0.027209
#
#
# Mechanical properties :
#
#
# Convention : Reuss Voigt Hill
#
# Bulk Modulus (GPa) = 32.51197 35.02403 33.76800
# Shear Modulus (GPa) = -48.00592 27.70866 -10.14863
#
# Velocity S-wave (km/s) = -4.88265 3.70951 -2.24498
# Velocity P-wave (km/s) = 3.95490 5.97834 3.17012
#
# Compressibility (1/GPa) = 0.03075791
#
# Stress axis : x y z
#
# Youngs Moduli (GPa) = 67.77769 103.28099 41.26281
#
# Poissons Ratio (x) = 0.00608 0.21924
# Poissons Ratio (y) = 0.00399 0.14791
# Poissons Ratio (z) = 0.36012 0.37022
#
# Static dielectric constant tensor:
#      x y z
#    x 3.516080 0.000000 0.000000 
#    y 0.000000 3.977720 0.000000 
#    z 0.000000 0.000000 3.483100 
# 
# 
# High freq. dielectric constant tensor:
#      x y z
#    x 1.771240 0.000000 0.000000 
#    y 0.000000 1.818090 0.000000 
#    z 0.000000 0.000000 1.757040 
# 
# From -- ./inp_files/27662.got.cif
#   From: 2010.06.25/outbox.cif.g09.slc.cpg/sg52_14_cif.got.tgz:27662.got - 2010.06.26 19:32:48.
