data_PCOD8216297
_publ_section_title
;
Structure prediction by ZEFSAII (Michael W. Deem and Ramdas Pophale) SiO2 
 PCOD8216297
Probable space group: P N N A
;
_chemical_formula_sum "Si O2"
_cell_formula_units_Z 40
_cell_length_a 14.768172
_cell_length_b 9.771395
_cell_length_c 14.135033
_cell_angle_alpha 90.000000
_cell_angle_beta 90.000000
_cell_angle_gamma 90.000000
_cell_volume 2039.765012
_symmetry_space_group_name_H-M "P N N A"
_symmetry_group_IT_number 52
_symmetry_cell_setting 'orthorhombic'
loop_
_space_group_symop_operation_xyz
x,y,z
1/2-x,-y,z
x,1/2-y,1/2-z
1/2-x,1/2+y,1/2-z
-x,-y,-z
1/2+x,y,-z
-x,1/2+y,1/2+z
1/2+x,1/2-y,1/2+z
loop_
_atom_site_type_symbol
_atom_site_label
_atom_site_fract_x
_atom_site_fract_y
_atom_site_fract_z
Si Si1 0.558189 0.482892 0.276805
Si Si2 0.250000 0.500000 0.458310
Si Si3 0.102733 0.832899 0.151674
Si Si4 0.331079 0.250000 0.750000
Si Si5 0.319515 0.792085 0.890604
Si Si6 0.980748 0.612544 0.076063
O O1 0.469282 0.458294 0.340880
O O2 0.604085 0.629264 0.284531
O O3 0.631385 0.366428 0.302107
O O4 0.520292 0.467309 0.173090
O O5 0.192351 0.599330 0.390368
O O6 0.306439 0.597371 0.527043
O O7 0.121368 0.750000 0.250000
O O8 0.060378 0.726010 0.076270
O O9 0.270239 0.277225 0.844349
O O10 0.381627 0.677678 0.939352
O O11 0.000000 0.500000 0.000000
#
# Coordination Sequence:
#
# PCOD8216297 Si02
#       6
#     8   4   8   4   8   8
#     4  10  21  40  65  87 133 171 205 263 331 377
#     4  12  24  42  68  94 126 166 224 266 316 396
#     4   9  23  48  61  83 128 173 209 266 322 381
#     4  12  20  36  66 100 130 162 206 264 338 376
#     4  11  22  38  63 100 128 165 209 271 320 377
#     4  10  22  40  63  92 131 169 210 262 317 387
#
# _framework density 19.610102999999999
#
# number of rings (size 3 to 8) (size 9 to 14) (size 15 to 20)
#    0.000    1.600    4.000    1.200    2.800    4.800 
#    9.000    0.000    0.000    0.000    0.000    0.000 
#    0.000    0.000    0.000    0.000    0.000    0.000 
#
# Total GULP energy -495664.911314 kJ/mol
# GULP energy per Si atom -12391.622783 kJ/mol
# Density = 1.956547 g / cm^3
# Si number density = 19.610103 Si / 1000 Ang^3
#
#
#
# Elastic Constant Matrix: (Units=GPa)
#
#
# Indices 1 2 3 4 5 6 
#
# 1 97.2410 65.8519 49.4545 0.0000 0.0000 0.0000
# 2 65.8519 123.6064 59.2902 0.0000 0.0000 0.0000
# 3 49.4545 59.2902 93.4408 0.0000 0.0000 0.0000
# 4 0.0000 0.0000 0.0000 34.6325 0.0000 0.0000
# 5 0.0000 0.0000 0.0000 0.0000 6.4869 0.0000
# 6 0.0000 0.0000 0.0000 0.0000 0.0000 30.3297
#
#
#
# Elastic Compliance Matrix: (Units=1/GPa)
#
#
# Indices 1 2 3 4 5 6 
#
# 1 0.017468 -0.007003 -0.004802 0.000000 0.000000 0.000000
# 2 -0.007003 0.014437 -0.005454 0.000000 0.000000 0.000000
# 3 -0.004802 -0.005454 0.016704 0.000000 0.000000 0.000000
# 4 0.000000 0.000000 0.000000 0.028875 0.000000 0.000000
# 5 0.000000 0.000000 0.000000 0.000000 0.154157 0.000000
# 6 0.000000 0.000000 0.000000 0.000000 0.000000 0.032971
#
#
# Mechanical properties :
#
#
# Convention : Reuss Voigt Hill
#
# Bulk Modulus (GPa) = 70.96410 73.72014 72.34212
# Shear Modulus (GPa) = 16.45670 23.60259 20.02964
#
# Velocity S-wave (km/s) = 2.90003 3.47305 3.19939
# Velocity P-wave (km/s) = 6.89055 7.33194 7.11467
#
# Compressibility (1/GPa) = 0.01409163
#
# Stress axis : x y z
#
# Youngs Moduli (GPa) = 57.24673 69.26444 59.86516
#
# Poissons Ratio (x) = 0.48506 0.28745
# Poissons Ratio (y) = 0.40090 0.32653
# Poissons Ratio (z) = 0.27488 0.37780
#
# Static dielectric constant tensor:
#      x y z
#    x 3.691820 0.000000 0.000000 
#    y 0.000000 3.722460 0.000000 
#    z 0.000000 0.000000 3.500800 
# 
# 
# High freq. dielectric constant tensor:
#      x y z
#    x 1.761020 0.000000 0.000000 
#    y 0.000000 1.763800 0.000000 
#    z 0.000000 0.000000 1.757550 
# 
# From -- ./inp_files/20378.got.cif
#   From: 2010.06.25/outbox.cif.g09.slc.cpg/sg52_11_cif.got.tgz:20378.got - 2010.06.26 19:32:48.
