data_PCOD8216953
_publ_section_title
;
Structure prediction by ZEFSAII (Michael W. Deem and Ramdas Pophale) SiO2 
 PCOD8216953
Probable space group: P N N A
;
_chemical_formula_sum "Si O2"
_cell_formula_units_Z 64
_cell_length_a 15.500737
_cell_length_b 8.369611
_cell_length_c 23.147305
_cell_angle_alpha 90.000000
_cell_angle_beta 90.000000
_cell_angle_gamma 90.000000
_cell_volume 3003.018829
_symmetry_space_group_name_H-M "P N N A"
_symmetry_group_IT_number 52
_symmetry_cell_setting 'orthorhombic'
loop_
_space_group_symop_operation_xyz
x,y,z
1/2-x,-y,z
x,1/2-y,1/2-z
1/2-x,1/2+y,1/2-z
-x,-y,-z
1/2+x,y,-z
-x,1/2+y,1/2+z
1/2+x,1/2-y,1/2+z
loop_
_atom_site_type_symbol
_atom_site_label
_atom_site_fract_x
_atom_site_fract_y
_atom_site_fract_z
Si Si1 0.049323 0.111552 0.957761
Si Si2 0.160035 0.072622 0.375513
Si Si3 0.159489 0.058764 0.744354
Si Si4 0.203828 0.331459 0.458569
Si Si5 0.125032 0.610120 0.636841
Si Si6 0.068366 0.887265 0.474509
Si Si7 0.205031 0.835325 0.555748
Si Si8 0.507682 0.643520 0.194654
O O1 0.980392 0.246248 0.940002
O O2 0.082334 0.029780 0.899955
O O3 0.129305 0.173277 0.993943
O O4 0.000000 0.000000 0.000000
O O5 0.175216 0.255514 0.397359
O O6 0.082672 0.070731 0.328601
O O7 0.250000 0.000000 0.349411
O O8 0.135013 0.967170 0.430606
O O9 0.155847 0.250000 0.750000
O O10 0.250000 0.000000 0.714515
O O11 0.160598 0.968348 0.805433
O O12 0.075932 0.999349 0.708384
O O13 0.250000 0.500000 0.446274
O O14 0.268550 0.215292 0.490923
O O15 0.207657 0.696947 0.605121
O O16 0.052009 0.743128 0.647547
O O17 0.105617 0.849242 0.538602
O O18 0.000000 0.000000 0.500000
O O19 0.250000 0.000000 0.577013
O O20 0.484958 0.750000 0.250000
#
# Coordination Sequence:
#
# PCOD8216953 Si02
#       8
#     8   8   8   8   8   8   8   8
#     4  12  23  36  60  95 141 183 223 264 332 415
#     4  12  24  44  70  98 137 192 236 286 358 413
#     4  11  26  50  75 103 137 173 232 303 359 422
#     4  12  22  39  60  97 145 179 222 278 328 419
#     4  11  24  41  69 100 135 182 226 284 354 413
#     4  12  21  38  60  93 141 184 223 271 333 408
#     4  12  22  39  57  98 142 179 220 266 329 418
#     4  10  25  51  72  97 133 176 238 304 355 407
#
# _framework density 21.311886999999999
#
# number of rings (size 3 to 8) (size 9 to 14) (size 15 to 20)
#    0.000    0.500    6.250    2.625    3.500    1.500 
#    0.000    1.250    0.000    0.000    0.000    0.000 
#    0.000    0.000    0.000    0.000    0.000    0.000 
#
# Total GULP energy -792863.633441 kJ/mol
# GULP energy per Si atom -12388.494273 kJ/mol
# Density = 2.126338 g / cm^3
# Si number density = 21.311887 Si / 1000 Ang^3
#
#
#
# Elastic Constant Matrix: (Units=GPa)
#
#
# Indices 1 2 3 4 5 6 
#
# 1 130.3967 56.9252 41.5537 0.0000 0.0000 0.0000
# 2 56.9252 134.7612 31.5804 0.0000 0.0000 0.0000
# 3 41.5537 31.5804 73.7354 0.0000 0.0000 0.0000
# 4 0.0000 0.0000 0.0000 63.0596 0.0000 0.0000
# 5 0.0000 0.0000 0.0000 0.0000 37.7599 0.0000
# 6 0.0000 0.0000 0.0000 0.0000 0.0000 45.9502
#
#
#
# Elastic Compliance Matrix: (Units=1/GPa)
#
#
# Indices 1 2 3 4 5 6 
#
# 1 0.010599 -0.003421 -0.004508 0.000000 0.000000 0.000000
# 2 -0.003421 0.009352 -0.002078 0.000000 0.000000 0.000000
# 3 -0.004508 -0.002078 0.016992 0.000000 0.000000 0.000000
# 4 0.000000 0.000000 0.000000 0.015858 0.000000 0.000000
# 5 0.000000 0.000000 0.000000 0.000000 0.026483 0.000000
# 6 0.000000 0.000000 0.000000 0.000000 0.000000 0.021763
#
#
# Mechanical properties :
#
#
# Convention : Reuss Voigt Hill
#
# Bulk Modulus (GPa) = 59.06430 66.55685 62.81058
# Shear Modulus (GPa) = 39.46215 43.27622 41.36918
#
# Velocity S-wave (km/s) = 4.30775 4.51112 4.41061
# Velocity P-wave (km/s) = 7.24684 7.64404 7.44809
#
# Compressibility (1/GPa) = 0.01693070
#
# Stress axis : x y z
#
# Youngs Moduli (GPa) = 94.35076 106.92430 58.84998
#
# Poissons Ratio (x) = 0.36575 0.26529
# Poissons Ratio (y) = 0.32274 0.12228
# Poissons Ratio (z) = 0.42532 0.22217
#
# Static dielectric constant tensor:
#      x y z
#    x 2.778010 0.000000 0.000000 
#    y 0.000000 3.992800 0.000000 
#    z 0.000000 0.000000 3.507210 
# 
# 
# High freq. dielectric constant tensor:
#      x y z
#    x 1.854730 0.000000 0.000000 
#    y 0.000000 1.847810 0.000000 
#    z 0.000000 0.000000 1.814270 
# 
# From -- ./inp_files/40706.got.cif
#   From: 2010.06.25/outbox.cif.g09.slc.cpg/sg52_21_cif.got.tgz:40706.got - 2010.06.26 19:32:48.
