data_PCOD8216995
_publ_section_title
;
Structure prediction by ZEFSAII (Michael W. Deem and Ramdas Pophale) SiO2 
 PCOD8216995
Probable space group: P N N A
;
_chemical_formula_sum "Si O2"
_cell_formula_units_Z 48
_cell_length_a 16.817702
_cell_length_b 10.873743
_cell_length_c 13.577080
_cell_angle_alpha 90.000000
_cell_angle_beta 90.000000
_cell_angle_gamma 90.000000
_cell_volume 2482.859212
_symmetry_space_group_name_H-M "P N N A"
_symmetry_group_IT_number 52
_symmetry_cell_setting 'orthorhombic'
loop_
_space_group_symop_operation_xyz
x,y,z
1/2-x,-y,z
x,1/2-y,1/2-z
1/2-x,1/2+y,1/2-z
-x,-y,-z
1/2+x,y,-z
-x,1/2+y,1/2+z
1/2+x,1/2-y,1/2+z
loop_
_atom_site_type_symbol
_atom_site_label
_atom_site_fract_x
_atom_site_fract_y
_atom_site_fract_z
Si Si1 0.418471 0.271175 0.858248
Si Si2 0.830328 0.063782 0.510104
Si Si3 0.901751 0.629462 0.849036
Si Si4 0.916658 0.438993 0.506409
Si Si5 0.164124 0.716638 0.355115
Si Si6 0.828684 0.885841 0.858356
O O1 0.382918 0.250000 0.750000
O O2 0.509727 0.314751 0.850572
O O3 0.402414 0.136209 0.906052
O O4 0.372007 0.378840 0.914547
O O5 0.801968 0.166990 0.586929
O O6 0.750000 0.000000 0.472766
O O7 0.891446 0.972927 0.566464
O O8 0.843260 0.741101 0.873822
O O9 0.877264 0.573042 0.740845
O O10 0.914063 0.335257 0.591111
O O11 0.853601 0.543274 0.540819
O O12 0.000000 0.500000 0.500000
O O13 0.131170 0.750000 0.250000
O O14 0.231968 0.608800 0.346173
#
# Coordination Sequence:
#
# PCOD8216995 Si02
#       6
#     8   8   8   8   8   8
#     4  11  23  41  59  80 113 162 202 241 290 348
#     4  11  22  36  58  84 115 150 197 243 285 354
#     4  11  19  37  62  86 120 151 183 239 312 363
#     4  11  22  36  58  85 120 157 196 236 287 362
#     4  11  21  35  58  94 122 149 187 243 310 362
#     4  11  19  35  62  89 120 151 185 243 309 362
#
# _framework density 19.332549
#
# number of rings (size 3 to 8) (size 9 to 14) (size 15 to 20)
#    0.000    1.000    6.667    2.000    0.000    0.000 
#    0.000    3.333    0.000    0.000    0.000    1.167 
#    0.000    0.000    0.000    0.000    0.000    0.000 
#
# Total GULP energy -594731.594790 kJ/mol
# GULP energy per Si atom -12390.241558 kJ/mol
# Density = 1.928855 g / cm^3
# Si number density = 19.332549 Si / 1000 Ang^3
#
#
#
# Elastic Constant Matrix: (Units=GPa)
#
#
# Indices 1 2 3 4 5 6 
#
# 1 80.9449 25.4694 51.7530 0.0000 0.0000 0.0000
# 2 25.4694 82.4921 61.8305 0.0000 0.0000 0.0000
# 3 51.7530 61.8305 155.1396 0.0000 0.0000 0.0000
# 4 0.0000 0.0000 0.0000 35.4718 0.0000 0.0000
# 5 0.0000 0.0000 0.0000 0.0000 15.9327 0.0000
# 6 0.0000 0.0000 0.0000 0.0000 0.0000 24.2386
#
#
#
# Elastic Compliance Matrix: (Units=1/GPa)
#
#
# Indices 1 2 3 4 5 6 
#
# 1 0.015804 -0.001323 -0.004745 0.000000 0.000000 0.000000
# 2 -0.001323 0.017397 -0.006492 0.000000 0.000000 0.000000
# 3 -0.004745 -0.006492 0.010616 0.000000 0.000000 0.000000
# 4 0.000000 0.000000 0.000000 0.028191 0.000000 0.000000
# 5 0.000000 0.000000 0.000000 0.000000 0.062764 0.000000
# 6 0.000000 0.000000 0.000000 0.000000 0.000000 0.041257
#
#
# Mechanical properties :
#
#
# Convention : Reuss Voigt Hill
#
# Bulk Modulus (GPa) = 53.48454 66.29803 59.89129
# Shear Modulus (GPa) = 24.11019 27.09687 25.60353
#
# Velocity S-wave (km/s) = 3.53530 3.74788 3.64314
# Velocity P-wave (km/s) = 6.66259 7.28675 6.98165
#
# Compressibility (1/GPa) = 0.01869699
#
# Stress axis : x y z
#
# Youngs Moduli (GPa) = 63.27511 57.48131 94.19729
#
# Poissons Ratio (x) = 0.07606 0.44694
# Poissons Ratio (y) = 0.08372 0.61154
# Poissons Ratio (z) = 0.30022 0.37318
#
# Static dielectric constant tensor:
#      x y z
#    x 3.454000 0.000000 0.000000 
#    y 0.000000 3.999600 0.000000 
#    z 0.000000 0.000000 3.573760 
# 
# 
# High freq. dielectric constant tensor:
#      x y z
#    x 1.739560 0.000000 0.000000 
#    y 0.000000 1.777140 0.000000 
#    z 0.000000 0.000000 1.739760 
# 
# From -- ./inp_files/20621.got.cif
#   From: 2010.06.25/outbox.cif.g09.slc.cpg/sg52_11_cif.got.tgz:20621.got - 2010.06.26 19:32:48.
