data_PCOD8216340
_publ_section_title
;
Structure prediction by ZEFSAII (Michael W. Deem and Ramdas Pophale) SiO2 
 PCOD8216340
Probable space group: P N N A
;
_chemical_formula_sum "Si O2"
_cell_formula_units_Z 36
_cell_length_a 13.701657
_cell_length_b 20.702679
_cell_length_c 5.843201
_cell_angle_alpha 90.000000
_cell_angle_beta 90.000000
_cell_angle_gamma 90.000000
_cell_volume 1657.488278
_symmetry_space_group_name_H-M "P N N A"
_symmetry_group_IT_number 52
_symmetry_cell_setting 'orthorhombic'
loop_
_space_group_symop_operation_xyz
x,y,z
1/2-x,-y,z
x,1/2-y,1/2-z
1/2-x,1/2+y,1/2-z
-x,-y,-z
1/2+x,y,-z
-x,1/2+y,1/2+z
1/2+x,1/2-y,1/2+z
loop_
_atom_site_type_symbol
_atom_site_label
_atom_site_fract_x
_atom_site_fract_y
_atom_site_fract_z
Si Si1 0.339456 0.750000 0.750000
Si Si2 0.882717 0.640657 0.579002
Si Si3 0.712640 0.813252 0.615418
Si Si4 0.450762 0.097559 0.580811
Si Si5 0.069873 0.025918 0.805957
O O1 0.402310 0.705216 0.575795
O O2 0.270771 0.798503 0.613805
O O3 0.784412 0.646113 0.723814
O O4 0.858191 0.577115 0.425991
O O5 0.979682 0.633085 0.733792
O O6 0.676818 0.750000 0.750000
O O7 0.617275 0.851972 0.545719
O O8 0.516924 0.065966 0.389500
O O9 0.384992 0.039819 0.695732
O O10 0.000000 0.000000 0.000000
#
# Coordination Sequence:
#
# PCOD8216340 Si02
#       5
#     4   8   8   8   8
#     4  10  22  44  58  90 136 164 216 272 326 400
#     4  10  21  41  65  93 130 173 213 274 329 389
#     4  10  23  43  62  96 133 165 222 270 330 405
#     4  10  21  43  66  96 129 171 222 271 328 395
#     4   9  20  40  64  92 129 166 217 267 325 395
#
# _framework density 21.719609999999999
#
# number of rings (size 3 to 8) (size 9 to 14) (size 15 to 20)
#    0.000    2.222    0.000    1.333    0.000    7.111 
#   26.000   26.667    0.000    0.000    0.000    0.000 
#    0.000    0.000    0.000    0.000    0.000    0.000 
#
# Total GULP energy -446020.018666 kJ/mol
# GULP energy per Si atom -12389.444963 kJ/mol
# Density = 2.167018 g / cm^3
# Si number density = 21.719610 Si / 1000 Ang^3
#
#
#
# Elastic Constant Matrix: (Units=GPa)
#
#
# Indices 1 2 3 4 5 6 
#
# 1 81.8496 75.4549 44.3427 0.0000 0.0000 0.0000
# 2 75.4549 148.4838 68.3563 0.0000 0.0000 0.0000
# 3 44.3427 68.3563 128.8048 0.0000 0.0000 0.0000
# 4 0.0000 0.0000 0.0000 54.1637 0.0000 0.0000
# 5 0.0000 0.0000 0.0000 0.0000 11.8640 0.0000
# 6 0.0000 0.0000 0.0000 0.0000 0.0000 0.2353
#
#
#
# Elastic Compliance Matrix: (Units=1/GPa)
#
#
# Indices 1 2 3 4 5 6 
#
# 1 0.023497 -0.010873 -0.002319 0.000000 0.000000 0.000000
# 2 -0.010873 0.013943 -0.003657 0.000000 0.000000 0.000000
# 3 -0.002319 -0.003657 0.010503 0.000000 0.000000 0.000000
# 4 0.000000 0.000000 0.000000 0.018463 0.000000 0.000000
# 5 0.000000 0.000000 0.000000 0.000000 0.084288 0.000000
# 6 0.000000 0.000000 0.000000 0.000000 0.000000 4.250460
#
#
# Mechanical properties :
#
#
# Convention : Reuss Voigt Hill
#
# Bulk Modulus (GPa) = 70.19411 81.71619 75.95515
# Shear Modulus (GPa) = 1.12623 24.65155 12.88889
#
# Velocity S-wave (km/s) = 0.72087 3.37262 2.43867
# Velocity P-wave (km/s) = 5.75164 7.27124 6.55562
#
# Compressibility (1/GPa) = 0.01424621
#
# Stress axis : x y z
#
# Youngs Moduli (GPa) = 42.55773 71.71821 95.21510
#
# Poissons Ratio (x) = 0.77980 0.22080
# Poissons Ratio (y) = 0.46274 0.34816
# Poissons Ratio (z) = 0.09869 0.26224
#
# Static dielectric constant tensor:
#      x y z
#    x 3.321810 0.000000 0.000000 
#    y 0.000000 4.618910 0.000000 
#    z 0.000000 0.000000 4.581770 
# 
# 
# High freq. dielectric constant tensor:
#      x y z
#    x 1.801490 0.000000 0.000000 
#    y 0.000000 1.878310 0.000000 
#    z 0.000000 0.000000 1.888160 
# 
# From -- ./inp_files/2128.got.cif
#   From: 2010.06.25/outbox.cif.g09.slc.cpg/sg52_2_cif.got.tgz:2128.got - 2010.06.26 19:32:48.
