data_PCOD8216663
_publ_section_title
;
Structure prediction by ZEFSAII (Michael W. Deem and Ramdas Pophale) SiO2 
 PCOD8216663
Probable space group: P N N A
;
_chemical_formula_sum "Si O2"
_cell_formula_units_Z 48
_cell_length_a 8.672195
_cell_length_b 14.070170
_cell_length_c 17.627287
_cell_angle_alpha 90.000000
_cell_angle_beta 90.000000
_cell_angle_gamma 90.000000
_cell_volume 2150.868479
_symmetry_space_group_name_H-M "P N N A"
_symmetry_group_IT_number 52
_symmetry_cell_setting 'orthorhombic'
loop_
_space_group_symop_operation_xyz
x,y,z
1/2-x,-y,z
x,1/2-y,1/2-z
1/2-x,1/2+y,1/2-z
-x,-y,-z
1/2+x,y,-z
-x,1/2+y,1/2+z
1/2+x,1/2-y,1/2+z
loop_
_atom_site_type_symbol
_atom_site_label
_atom_site_fract_x
_atom_site_fract_y
_atom_site_fract_z
Si Si1 0.991933 0.992232 0.194889
Si Si2 0.750000 0.000000 0.310831
Si Si3 0.076084 0.643110 0.920742
Si Si4 0.287579 0.141304 0.419197
Si Si5 0.534990 0.861678 0.076185
Si Si6 0.750000 0.500000 0.798164
Si Si7 0.829150 0.142836 0.915795
O O1 0.081001 0.908355 0.151581
O O2 0.871736 0.948303 0.254886
O O3 0.901550 0.066017 0.139818
O O4 0.121219 0.049228 0.244501
O O5 0.832346 0.082926 0.358524
O O6 0.098462 0.756004 0.906128
O O7 0.895164 0.625218 0.921219
O O8 0.142267 0.608422 0.001202
O O9 0.343657 0.075609 0.350167
O O10 0.349411 0.245734 0.401980
O O11 0.351508 0.878880 0.079943
O O12 0.593380 0.892170 0.993705
#
# Coordination Sequence:
#
# PCOD8216663 Si02
#       7
#     8   4   8   8   8   4   8
#     4  12  25  42  64 100 138 179 220 279 347 406
#     4  12  27  42  63 100 142 182 222 282 347 408
#     4  10  23  44  67  96 130 177 231 278 337 398
#     4  10  23  42  69  94 130 177 228 285 330 402
#     4  10  22  43  70  95 130 176 227 281 333 402
#     4  12  23  42  63  96 134 180 222 274 349 404
#     4  10  22  43  68  98 127 176 233 277 334 401
#
# _framework density 22.316568
#
# number of rings (size 3 to 8) (size 9 to 14) (size 15 to 20)
#    0.000    1.333    3.333    1.000    4.667    2.667 
#    0.000    1.667    0.000    0.000    0.000    0.000 
#    0.000    0.000    0.000    0.000    0.000    0.000 
#
# Total GULP energy -594946.289005 kJ/mol
# GULP energy per Si atom -12394.714354 kJ/mol
# Density = 2.226577 g / cm^3
# Si number density = 22.316568 Si / 1000 Ang^3
#
#
#
# Elastic Constant Matrix: (Units=GPa)
#
#
# Indices 1 2 3 4 5 6 
#
# 1 84.6321 34.5348 65.3351 0.0000 0.0000 0.0000
# 2 34.5348 89.1259 73.6407 0.0000 0.0000 0.0000
# 3 65.3351 73.6407 168.1688 0.0000 0.0000 0.0000
# 4 0.0000 0.0000 0.0000 17.7434 0.0000 0.0000
# 5 0.0000 0.0000 0.0000 0.0000 41.0758 0.0000
# 6 0.0000 0.0000 0.0000 0.0000 0.0000 32.4059
#
#
#
# Elastic Compliance Matrix: (Units=1/GPa)
#
#
# Indices 1 2 3 4 5 6 
#
# 1 0.017056 -0.001777 -0.005848 0.000000 0.000000 0.000000
# 2 -0.001777 0.017766 -0.007090 0.000000 0.000000 0.000000
# 3 -0.005848 -0.007090 0.011323 0.000000 0.000000 0.000000
# 4 0.000000 0.000000 0.000000 0.056359 0.000000 0.000000
# 5 0.000000 0.000000 0.000000 0.000000 0.024345 0.000000
# 6 0.000000 0.000000 0.000000 0.000000 0.000000 0.030859
#
#
# Mechanical properties :
#
#
# Convention : Reuss Voigt Hill
#
# Bulk Modulus (GPa) = 59.82296 76.54978 68.18637
# Shear Modulus (GPa) = 25.94588 29.47276 27.70932
#
# Velocity S-wave (km/s) = 3.41343 3.63804 3.52753
# Velocity P-wave (km/s) = 6.51153 7.21272 6.87108
#
# Compressibility (1/GPa) = 0.01671599
#
# Stress axis : x y z
#
# Youngs Moduli (GPa) = 58.63166 56.28637 88.31549
#
# Poissons Ratio (x) = 0.10000 0.51650
# Poissons Ratio (y) = 0.10416 0.62612
# Poissons Ratio (z) = 0.34290 0.39905
#
# Static dielectric constant tensor:
#      x y z
#    x 4.128780 0.000000 0.000000 
#    y 0.000000 3.925410 0.000000 
#    z 0.000000 0.000000 4.382940 
# 
# 
# High freq. dielectric constant tensor:
#      x y z
#    x 1.886580 0.000000 0.000000 
#    y 0.000000 1.867160 0.000000 
#    z 0.000000 0.000000 1.898150 
# 
# From -- ./inp_files/31269.got.cif
#   From: 2010.06.25/outbox.cif.g09.slc.cpg/sg52_16_cif.got.tgz:31269.got - 2010.06.26 19:32:48.
