data_PCOD8216408
_publ_section_title
;
Structure prediction by ZEFSAII (Michael W. Deem and Ramdas Pophale) SiO2 
 PCOD8216408
Probable space group: P N N A
;
_chemical_formula_sum "Si O2"
_cell_formula_units_Z 48
_cell_length_a 18.791932
_cell_length_b 13.754738
_cell_length_c 8.313369
_cell_angle_alpha 90.000000
_cell_angle_beta 90.000000
_cell_angle_gamma 90.000000
_cell_volume 2148.823833
_symmetry_space_group_name_H-M "P N N A"
_symmetry_group_IT_number 52
_symmetry_cell_setting 'orthorhombic'
loop_
_space_group_symop_operation_xyz
x,y,z
1/2-x,-y,z
x,1/2-y,1/2-z
1/2-x,1/2+y,1/2-z
-x,-y,-z
1/2+x,y,-z
-x,1/2+y,1/2+z
1/2+x,1/2-y,1/2+z
loop_
_atom_site_type_symbol
_atom_site_label
_atom_site_fract_x
_atom_site_fract_y
_atom_site_fract_z
Si Si1 0.931790 0.450242 0.287134
Si Si2 0.305852 0.660385 0.358415
Si Si3 0.186970 0.690981 0.603917
Si Si4 0.750000 0.000000 0.647848
Si Si5 0.458482 0.250000 0.250000
Si Si6 0.878647 0.122842 0.532061
Si Si7 0.047541 0.137579 0.986171
O O1 0.858687 0.401347 0.343166
O O2 0.930964 0.561388 0.345917
O O3 0.001754 0.403772 0.365773
O O4 0.930585 0.436426 0.091402
O O5 0.281818 0.750000 0.250000
O O6 0.247628 0.647191 0.494784
O O7 0.304902 0.562788 0.253189
O O8 0.382116 0.680637 0.433822
O O9 0.223694 0.750000 0.750000
O O10 0.132972 0.766147 0.522601
O O11 0.802610 0.068038 0.543895
O O12 0.415498 0.148691 0.294967
O O13 0.506655 0.226491 0.095568
#
# Coordination Sequence:
#
# PCOD8216408 Si02
#       7
#     8   8   8   4   4   8   8
#     4  10  24  46  71  98 139 185 236 289 353 438
#     4  12  26  42  69 101 146 177 239 297 355 410
#     4  10  21  43  71  97 133 184 234 290 355 417
#     4  12  26  44  72 106 140 188 238 298 348 428
#     4  12  26  44  74  98 142 186 234 284 366 442
#     4  11  24  44  72 101 136 185 235 284 356 425
#     4  11  27  43  67 105 140 186 234 288 364 423
#
# _framework density 22.337802
#
# number of rings (size 3 to 8) (size 9 to 14) (size 15 to 20)
#    0.000    1.000    3.333    2.000    8.167    4.667 
#    0.000    0.000    0.000    0.000    0.000    0.000 
#    0.000    0.000    0.000    0.000    0.000    0.000 
#
# Total GULP energy -595073.588637 kJ/mol
# GULP energy per Si atom -12397.366430 kJ/mol
# Density = 2.228696 g / cm^3
# Si number density = 22.337802 Si / 1000 Ang^3
#
#
#
# Elastic Constant Matrix: (Units=GPa)
#
#
# Indices 1 2 3 4 5 6 
#
# 1 98.8848 22.7066 40.9409 0.0000 0.0000 0.0000
# 2 22.7066 73.9820 19.7130 0.0000 0.0000 0.0000
# 3 40.9409 19.7130 90.9882 0.0000 0.0000 0.0000
# 4 0.0000 0.0000 0.0000 33.3541 0.0000 0.0000
# 5 0.0000 0.0000 0.0000 0.0000 6.8065 0.0000
# 6 0.0000 0.0000 0.0000 0.0000 0.0000 33.2028
#
#
#
# Elastic Compliance Matrix: (Units=1/GPa)
#
#
# Indices 1 2 3 4 5 6 
#
# 1 0.012867 -0.002554 -0.005236 0.000000 0.000000 0.000000
# 2 -0.002554 0.014852 -0.002069 0.000000 0.000000 0.000000
# 3 -0.005236 -0.002069 0.013795 0.000000 0.000000 0.000000
# 4 0.000000 0.000000 0.000000 0.029981 0.000000 0.000000
# 5 0.000000 0.000000 0.000000 0.000000 0.146919 0.000000
# 6 0.000000 0.000000 0.000000 0.000000 0.000000 0.030118
#
#
# Mechanical properties :
#
#
# Convention : Reuss Voigt Hill
#
# Bulk Modulus (GPa) = 45.87988 47.84179 46.86084
# Shear Modulus (GPa) = 18.14783 26.70564 22.42674
#
# Velocity S-wave (km/s) = 2.85340 3.46140 3.17200
# Velocity P-wave (km/s) = 5.60710 6.11874 5.86850
#
# Compressibility (1/GPa) = 0.02179604
#
# Stress axis : x y z
#
# Youngs Moduli (GPa) = 77.71677 67.33174 72.49134
#
# Poissons Ratio (x) = 0.17196 0.37959
# Poissons Ratio (y) = 0.19848 0.14995
# Poissons Ratio (z) = 0.40696 0.13928
#
# Static dielectric constant tensor:
#      x y z
#    x 3.824270 0.000000 0.000000 
#    y 0.000000 4.021060 0.000000 
#    z 0.000000 0.000000 4.352180 
# 
# 
# High freq. dielectric constant tensor:
#      x y z
#    x 1.878190 0.000000 0.000000 
#    y 0.000000 1.876060 0.000000 
#    z 0.000000 0.000000 1.886270 
# 
# From -- ./inp_files/12158.got.cif
#   From: 2010.06.25/outbox.cif.g09.slc.cpg/sg52_7_cif.got.tgz:12158.got - 2010.06.26 19:32:48.
