data_PCOD8216277
_publ_section_title
;
Structure prediction by ZEFSAII (Michael W. Deem and Ramdas Pophale) SiO2 
 PCOD8216277
Probable space group: P N N A
;
_chemical_formula_sum "Si O2"
_cell_formula_units_Z 40
_cell_length_a 22.418667
_cell_length_b 6.434704
_cell_length_c 13.955351
_cell_angle_alpha 90.000000
_cell_angle_beta 90.000000
_cell_angle_gamma 90.000000
_cell_volume 2013.163855
_symmetry_space_group_name_H-M "P N N A"
_symmetry_group_IT_number 52
_symmetry_cell_setting 'orthorhombic'
loop_
_space_group_symop_operation_xyz
x,y,z
1/2-x,-y,z
x,1/2-y,1/2-z
1/2-x,1/2+y,1/2-z
-x,-y,-z
1/2+x,y,-z
-x,1/2+y,1/2+z
1/2+x,1/2-y,1/2+z
loop_
_atom_site_type_symbol
_atom_site_label
_atom_site_fract_x
_atom_site_fract_y
_atom_site_fract_z
Si Si1 0.867240 0.190418 0.855871
Si Si2 0.684114 0.042278 0.018906
Si Si3 0.886473 0.568165 0.991833
Si Si4 0.404306 0.266131 0.644115
Si Si5 0.472603 0.903388 0.093214
O O1 0.845675 0.250000 0.750000
O O2 0.867593 0.402745 0.913664
O O3 0.930834 0.070265 0.852548
O O4 0.819985 0.040351 0.909255
O O5 0.750000 0.000000 0.060223
O O6 0.634490 0.927605 0.082746
O O7 0.670033 0.287375 0.019600
O O8 0.938169 0.699607 0.941818
O O9 0.907138 0.455241 0.089730
O O10 0.375528 0.250000 0.750000
O O11 0.471927 0.345876 0.660819
O O12 0.500000 0.000000 0.000000
#
# Coordination Sequence:
#
# PCOD8216277 Si02
#       5
#     8   8   8   8   8
#     4  10  23  38  60  96 122 161 208 249 315 376
#     4  10  23  46  62  85 123 164 213 260 308 364
#     4  10  21  40  63  81 128 164 194 256 312 358
#     4  11  24  38  60  96 120 161 214 249 310 370
#     4  11  20  37  59  87 128 162 200 248 309 383
#
# _framework density 19.869222000000001
#
# number of rings (size 3 to 8) (size 9 to 14) (size 15 to 20)
#    0.000    1.600    6.000    0.600    2.800    6.400 
#    7.200    0.000    0.000    0.000    0.000    0.000 
#    0.000    0.000    0.000    0.000    0.000    0.000 
#
# Total GULP energy -495857.939945 kJ/mol
# GULP energy per Si atom -12396.448499 kJ/mol
# Density = 1.982400 g / cm^3
# Si number density = 19.869222 Si / 1000 Ang^3
#
#
#
# Elastic Constant Matrix: (Units=GPa)
#
#
# Indices 1 2 3 4 5 6 
#
# 1 107.4361 37.0303 0.6594 0.0000 0.0000 0.0000
# 2 37.0303 123.2125 27.5084 0.0000 0.0000 0.0000
# 3 0.6594 27.5084 107.9281 0.0000 0.0000 0.0000
# 4 0.0000 0.0000 0.0000 13.2079 0.0000 0.0000
# 5 0.0000 0.0000 0.0000 0.0000 11.1702 0.0000
# 6 0.0000 0.0000 0.0000 0.0000 0.0000 20.3322
#
#
#
# Elastic Compliance Matrix: (Units=1/GPa)
#
#
# Indices 1 2 3 4 5 6 
#
# 1 0.010445 -0.003313 0.000781 0.000000 0.000000 0.000000
# 2 -0.003313 0.009657 -0.002441 0.000000 0.000000 0.000000
# 3 0.000781 -0.002441 0.009883 0.000000 0.000000 0.000000
# 4 0.000000 0.000000 0.000000 0.075712 0.000000 0.000000
# 5 0.000000 0.000000 0.000000 0.000000 0.089524 0.000000
# 6 0.000000 0.000000 0.000000 0.000000 0.000000 0.049183
#
#
# Mechanical properties :
#
#
# Convention : Reuss Voigt Hill
#
# Bulk Modulus (GPa) = 49.90726 52.10810 51.00768
# Shear Modulus (GPa) = 19.15481 27.16730 23.16105
#
# Velocity S-wave (km/s) = 3.10827 3.70172 3.41790
# Velocity P-wave (km/s) = 6.16881 6.67479 6.42678
#
# Compressibility (1/GPa) = 0.02003717
#
# Stress axis : x y z
#
# Youngs Moduli (GPa) = 95.73832 103.55297 101.18560
#
# Poissons Ratio (x) = 0.34312 -0.07900
# Poissons Ratio (y) = 0.31723 0.24700
# Poissons Ratio (z) = -0.07474 0.25278
#
# Static dielectric constant tensor:
#      x y z
#    x 5.780420 0.000000 0.000000 
#    y 0.000000 3.693320 0.000000 
#    z 0.000000 0.000000 3.749840 
# 
# 
# High freq. dielectric constant tensor:
#      x y z
#    x 1.760200 0.000000 0.000000 
#    y 0.000000 1.790340 0.000000 
#    z 0.000000 0.000000 1.765340 
# 
# From -- ./inp_files/29011.got.cif
#   From: 2010.06.25/outbox.cif.g09.slc.cpg/sg52_15_cif.got.tgz:29011.got - 2010.06.26 19:32:48.
